REMARK SMILES Cc1cc(C)c2c(OCCCC(=O)NCCCCCCNC(=O)c3ccc(-c4c5nc(c(-c6ccc(S(=O)(=O)[O-])cc6)c6ccc([nH]6)c(-c6ccc(S(=O)(=O)[O-])cc6)c6nc(c(-c7ccc(S(=O)(=O)[O-])cc7)c7ccc4[nH]7)C=C6)C=C5)cc3)nsc2n1
REMARK SMILES IDX 17 1 16 2 15 3 14 4 12 5 13 6 11 8 10 9 9 10 8 11 7 12 1 13
REMARK SMILES IDX 2 14 3 15 87 16 4 17 86 18 5 19 6 20 85 21 84 22 18 23 19 24
REMARK SMILES IDX 20 25 21 26 22 27 23 29 24 30 25 31 83 32 26 33 82 34 27 35
REMARK SMILES IDX 28 36 29 37 76 38 30 39 81 40 75 41 77 42 31 43 80 44 74 45
REMARK SMILES IDX 73 46 32 48 62 49 43 50 61 51 44 52 47 53 60 54 78 55 45 56
REMARK SMILES IDX 46 57 59 59 79 60 48 61 33 62 34 63 42 64 35 65 41 66 36 67
REMARK SMILES IDX 37 68 38 69 39 70 40 71 63 72 64 73 72 74 65 75 71 76 66 77
REMARK SMILES IDX 67 78 68 79 69 80 70 81 49 82 50 83 58 84 51 85 57 86 52 87
REMARK SMILES IDX 53 88 54 89 55 90 56 91
REMARK H PARENT 14 7 21 28 77 47 47 58
REMARK Flexibility Score: inf
ROOT
ATOM      1  C   UNL     1      -5.460   2.640  -2.316  1.00  0.00     0.002 C 
ENDROOT
BRANCH   1   2
ATOM      2  C   UNL     1      -4.388   2.082  -3.271  1.00  0.00     0.021 C 
BRANCH   2   3
ATOM      3  C   UNL     1      -3.274   1.196  -2.614  1.00  0.00     0.116 C 
BRANCH   3   4
ATOM      4  N   UNL     1      -2.439   0.335  -3.591  1.00  0.00    -0.356 N 
ATOM      5  C   UNL     1      -1.327   0.098  -4.357  1.00  0.00     0.220 C 
ATOM      6  O   UNL     1      -1.395  -1.077  -4.789  1.00  0.00    -0.275 OA
ATOM      7  H   UNL     1      -3.002  -0.458  -3.744  1.00  0.00     0.163 HD
BRANCH   5   8
ATOM      8  C   UNL     1       0.107   0.830  -4.676  1.00  0.00     0.103 C 
BRANCH   8   9
ATOM      9  C   UNL     1       0.693   1.912  -5.723  1.00  0.00     0.051 C 
BRANCH   9  10
ATOM     10  C   UNL     1       0.562   3.496  -5.866  1.00  0.00     0.232 C 
BRANCH  10  11
ATOM     11  O   UNL     1       1.379   4.456  -5.175  1.00  0.00    -0.477 OA
BRANCH  11  12
ATOM     12  C   UNL     1       1.268   4.718  -3.846  1.00  0.00     0.235 A 
ATOM     13  C   UNL     1       1.036   0.958   0.080  1.00  0.00     0.067 C 
ATOM     14  C   UNL     1       0.749   2.136  -0.813  1.00  0.00     0.039 A 
ATOM     15  C   UNL     1      -0.199   2.020  -1.827  1.00  0.00     0.027 A 
ATOM     16  N   UNL     1       1.450   3.269  -0.599  1.00  0.00    -0.240 NA
ATOM     17  C   UNL     1      -0.346   3.026  -2.804  1.00  0.00    -0.034 A 
ATOM     18  C   UNL     1       1.399   4.117  -1.648  1.00  0.00     0.147 A 
ATOM     19  C   UNL     1      -1.391   3.201  -3.841  1.00  0.00     0.045 C 
ATOM     20  C   UNL     1       0.679   3.947  -2.818  1.00  0.00     0.078 A 
ATOM     21  S   UNL     1       2.192   5.616  -1.773  1.00  0.00    -0.012 S 
ATOM     22  N   UNL     1       1.982   5.766  -3.429  1.00  0.00    -0.153 NA
ENDBRANCH  11  12
ENDBRANCH  10  11
ENDBRANCH   9  10
ENDBRANCH   8   9
ENDBRANCH   5   8
ENDBRANCH   3   4
ENDBRANCH   2   3
ENDBRANCH   1   2
BRANCH   1  23
ATOM     23  C   UNL     1      -5.031   3.670  -1.248  1.00  0.00     0.002 C 
BRANCH  23  24
ATOM     24  C   UNL     1      -4.739   5.122  -1.673  1.00  0.00     0.021 C 
BRANCH  24  25
ATOM     25  C   UNL     1      -5.828   5.818  -2.481  1.00  0.00     0.116 C 
BRANCH  25  26
ATOM     26  N   UNL     1      -7.154   5.775  -1.858  1.00  0.00    -0.352 N 
ATOM     27  C   UNL     1      -8.356   6.257  -2.337  1.00  0.00     0.251 C 
ATOM     28  H   UNL     1      -7.194   5.341  -0.975  1.00  0.00     0.163 HD
ATOM     29  O   UNL     1      -9.307   6.426  -1.564  1.00  0.00    -0.269 OA
BRANCH  27  30
ATOM     30  C   UNL     1      -8.501   6.571  -3.768  1.00  0.00     0.039 A 
ATOM     31  C   UNL     1      -9.290   7.631  -4.225  1.00  0.00     0.014 A 
ATOM     32  C   UNL     1      -7.815   5.771  -4.675  1.00  0.00     0.014 A 
ATOM     33  C   UNL     1      -9.317   7.905  -5.591  1.00  0.00     0.010 A 
ATOM     34  C   UNL     1      -7.670   6.168  -5.974  1.00  0.00     0.010 A 
ATOM     35  C   UNL     1      -8.486   7.175  -6.457  1.00  0.00    -0.014 A 
BRANCH  35  36
ATOM     36  C   UNL     1      -8.406   7.478  -7.875  1.00  0.00     0.031 A 
ATOM     37  C   UNL     1      -8.079   8.890  -8.181  1.00  0.00     0.074 A 
ATOM     38  C   UNL     1      -8.444   6.534  -8.841  1.00  0.00     0.049 A 
ATOM     39  N   UNL     1      -8.901   9.800  -8.582  1.00  0.00    -0.248 NA
ATOM     40  C   UNL     1      -6.741   9.399  -7.846  1.00  0.00     0.031 C 
ATOM     41  C   UNL     1      -8.452   5.070  -8.715  1.00  0.00     0.029 A 
ATOM     42  N   UNL     1      -8.385   6.709 -10.184  1.00  0.00    -0.354 N 
ATOM     43  C   UNL     1      -8.141  10.946  -8.777  1.00  0.00     0.074 A 
ATOM     44  C   UNL     1      -6.876  10.697  -8.130  1.00  0.00     0.031 C 
ATOM     45  C   UNL     1      -8.157   4.509  -9.911  1.00  0.00     0.029 A 
ATOM     46  C   UNL     1      -8.131   5.556 -10.915  1.00  0.00     0.049 A 
ATOM     47  H   UNL     1      -8.513   7.588 -10.609  1.00  0.00     0.167 HD
ATOM     48  C   UNL     1      -8.533  11.905  -9.661  1.00  0.00     0.031 A 
ATOM     49  C   UNL     1      -7.902   5.482 -12.250  1.00  0.00     0.031 A 
ATOM     50  C   UNL     1      -9.888  11.684 -10.108  1.00  0.00     0.049 A 
ATOM     51  C   UNL     1      -8.499   6.706 -12.845  1.00  0.00     0.074 A 
ATOM     52  C   UNL     1     -11.118  11.618  -9.485  1.00  0.00     0.029 A 
ATOM     53  N   UNL     1     -10.046  11.063 -11.328  1.00  0.00    -0.354 N 
ATOM     54  N   UNL     1      -9.782   6.951 -12.828  1.00  0.00    -0.248 NA
ATOM     55  C   UNL     1      -7.645   7.872 -13.009  1.00  0.00     0.031 C 
ATOM     56  C   UNL     1     -11.798  10.546 -10.137  1.00  0.00     0.029 A 
ATOM     57  C   UNL     1     -10.983  10.075 -11.168  1.00  0.00     0.049 A 
ATOM     58  H   UNL     1      -9.573  11.289 -12.161  1.00  0.00     0.167 HD
ATOM     59  C   UNL     1      -9.883   8.305 -12.539  1.00  0.00     0.074 A 
ATOM     60  C   UNL     1      -8.534   8.836 -12.747  1.00  0.00     0.031 C 
ATOM     61  C   UNL     1     -10.972   8.818 -11.892  1.00  0.00     0.031 A 
BRANCH  48  62
ATOM     62  C   UNL     1      -7.587  12.784 -10.439  1.00  0.00    -0.014 A 
ATOM     63  C   UNL     1      -8.137  13.737 -11.321  1.00  0.00     0.010 A 
ATOM     64  C   UNL     1      -6.207  12.521 -10.559  1.00  0.00     0.010 A 
ATOM     65  C   UNL     1      -7.370  14.314 -12.339  1.00  0.00     0.020 A 
ATOM     66  C   UNL     1      -5.423  13.124 -11.543  1.00  0.00     0.020 A 
ATOM     67  C   UNL     1      -6.021  13.985 -12.454  1.00  0.00     0.054 A 
BRANCH  67  68
ATOM     68  S   UNL     1      -5.077  14.628 -13.856  1.00  0.00     0.124 S 
ATOM     69  O   UNL     1      -5.745  13.988 -14.985  1.00  0.00    -0.237 OA
ATOM     70  O   UNL     1      -5.284  16.068 -13.730  1.00  0.00    -0.237 OA
ATOM     71  O   UNL     1      -3.716  14.171 -13.591  1.00  0.00    -0.744 OA
ENDBRANCH  67  68
ENDBRANCH  48  62
BRANCH  49  72
ATOM     72  C   UNL     1      -6.895   4.643 -12.952  1.00  0.00    -0.014 A 
ATOM     73  C   UNL     1      -6.871   4.560 -14.357  1.00  0.00     0.010 A 
ATOM     74  C   UNL     1      -5.771   4.155 -12.252  1.00  0.00     0.010 A 
ATOM     75  C   UNL     1      -5.737   4.079 -15.038  1.00  0.00     0.020 A 
ATOM     76  C   UNL     1      -4.640   3.670 -12.923  1.00  0.00     0.020 A 
ATOM     77  C   UNL     1      -4.617   3.660 -14.315  1.00  0.00     0.054 A 
BRANCH  77  78
ATOM     78  S   UNL     1      -3.090   3.219 -15.199  1.00  0.00     0.124 S 
ATOM     79  O   UNL     1      -3.472   1.989 -15.887  1.00  0.00    -0.237 OA
ATOM     80  O   UNL     1      -2.872   4.381 -16.056  1.00  0.00    -0.237 OA
ATOM     81  O   UNL     1      -2.109   3.050 -14.128  1.00  0.00    -0.744 OA
ENDBRANCH  77  78
ENDBRANCH  49  72
BRANCH  61  82
ATOM     82  C   UNL     1     -12.195   7.943 -11.712  1.00  0.00    -0.014 A 
ATOM     83  C   UNL     1     -12.207   6.752 -10.959  1.00  0.00     0.010 A 
ATOM     84  C   UNL     1     -13.421   8.452 -12.175  1.00  0.00     0.010 A 
ATOM     85  C   UNL     1     -13.415   6.084 -10.693  1.00  0.00     0.020 A 
ATOM     86  C   UNL     1     -14.626   7.803 -11.899  1.00  0.00     0.020 A 
ATOM     87  C   UNL     1     -14.619   6.618 -11.164  1.00  0.00     0.054 A 
BRANCH  87  88
ATOM     88  S   UNL     1     -16.184   5.783 -10.776  1.00  0.00     0.124 S 
ATOM     89  O   UNL     1     -16.065   4.526 -11.509  1.00  0.00    -0.237 OA
ATOM     90  O   UNL     1     -16.140   5.669  -9.320  1.00  0.00    -0.237 OA
ATOM     91  O   UNL     1     -17.204   6.699 -11.286  1.00  0.00    -0.744 OA
ENDBRANCH  87  88
ENDBRANCH  61  82
ENDBRANCH  35  36
ENDBRANCH  27  30
ENDBRANCH  25  26
ENDBRANCH  24  25
ENDBRANCH  23  24
ENDBRANCH   1  23
TORSDOF 20
