REMARK SMILES O=C(NCCCCCCNC(=O)c1ccccc1/N=C/c1coc2ccccc2c1=O)c1ccc(-c2c3nc(c(-c4ccc(S(=O)(=O)[O-])cc4)c4ccc([nH]4)c(-c4ccc(S(=O)(=O)[O-])cc4)c4nc(c(-c5ccc(S(=O)(=O)[O-])cc5)c5ccc2[nH]5)C=C4)C=C3)cc1
REMARK SMILES IDX 6 1 5 2 4 3 3 4 1 5 2 6 32 8 33 9 91 10 34 11 90 12 35 13
REMARK SMILES IDX 36 14 37 15 84 16 38 17 89 18 83 19 85 20 39 21 88 22 82 23
REMARK SMILES IDX 81 24 40 26 70 27 51 28 69 29 52 30 55 31 68 32 86 33 53 34
REMARK SMILES IDX 54 35 67 37 87 38 56 39 41 40 42 41 50 42 43 43 49 44 44 45
REMARK SMILES IDX 45 46 46 47 47 48 48 49 71 50 72 51 80 52 73 53 79 54 74 55
REMARK SMILES IDX 75 56 76 57 77 58 78 59 57 60 58 61 66 62 59 63 65 64 60 65
REMARK SMILES IDX 61 66 62 67 63 68 64 69 7 70 8 71 9 72 10 73 11 74 12 76
REMARK SMILES IDX 13 77 14 78 18 79 15 80 17 81 16 82 19 83 20 84 21 85 22 86
REMARK SMILES IDX 30 87 23 88 29 89 31 90 24 91 28 92 25 93 27 94 26 95
REMARK H PARENT 3 7 85 25 55 36 10 75
REMARK Flexibility Score: inf
ROOT
ATOM      1  C   UNL     1       4.132   3.136  -2.654  1.00  0.00     0.002 C 
ENDROOT
BRANCH   1   2
ATOM      2  C   UNL     1       4.733   1.758  -2.372  1.00  0.00     0.021 C 
BRANCH   2   3
ATOM      3  C   UNL     1       4.542   1.208  -0.963  1.00  0.00     0.116 C 
BRANCH   3   4
ATOM      4  N   UNL     1       3.149   1.002  -0.608  1.00  0.00    -0.352 N 
ATOM      5  O   UNL     1       1.337  -0.035   0.217  1.00  0.00    -0.269 OA
ATOM      6  C   UNL     1       2.563  -0.004   0.123  1.00  0.00     0.251 C 
ATOM      7  H   UNL     1       2.528   1.688  -0.942  1.00  0.00     0.163 HD
BRANCH   6   8
ATOM      8  C   UNL     1       3.372  -1.065   0.778  1.00  0.00     0.039 A 
ATOM      9  C   UNL     1       4.586  -0.793   1.414  1.00  0.00     0.014 A 
ATOM     10  C   UNL     1       2.859  -2.370   0.812  1.00  0.00     0.014 A 
ATOM     11  C   UNL     1       5.324  -1.829   1.989  1.00  0.00     0.010 A 
ATOM     12  C   UNL     1       3.575  -3.400   1.433  1.00  0.00     0.010 A 
ATOM     13  C   UNL     1       4.826  -3.142   2.007  1.00  0.00    -0.014 A 
BRANCH  13  14
ATOM     14  C   UNL     1       5.612  -4.208   2.679  1.00  0.00     0.031 A 
ATOM     15  C   UNL     1       6.322  -5.269   1.886  1.00  0.00     0.074 A 
ATOM     16  C   UNL     1       5.732  -4.184   4.020  1.00  0.00     0.049 A 
ATOM     17  N   UNL     1       7.128  -6.209   2.313  1.00  0.00    -0.248 NA
ATOM     18  C   UNL     1       6.098  -5.281   0.433  1.00  0.00     0.031 C 
ATOM     19  C   UNL     1       5.077  -3.224   4.910  1.00  0.00     0.029 A 
ATOM     20  N   UNL     1       6.481  -4.966   4.862  1.00  0.00    -0.354 N 
ATOM     21  C   UNL     1       7.488  -6.941   1.190  1.00  0.00     0.074 A 
ATOM     22  C   UNL     1       6.815  -6.333   0.059  1.00  0.00     0.031 C 
ATOM     23  C   UNL     1       5.505  -3.429   6.165  1.00  0.00     0.029 A 
ATOM     24  C   UNL     1       6.450  -4.542   6.169  1.00  0.00     0.049 A 
ATOM     25  H   UNL     1       6.990  -5.752   4.561  1.00  0.00     0.167 HD
ATOM     26  C   UNL     1       8.301  -8.021   1.103  1.00  0.00     0.031 A 
ATOM     27  C   UNL     1       7.128  -4.977   7.247  1.00  0.00     0.031 A 
ATOM     28  C   UNL     1       8.991  -8.622   2.212  1.00  0.00     0.049 A 
ATOM     29  C   UNL     1       8.093  -6.115   7.113  1.00  0.00     0.074 A 
ATOM     30  C   UNL     1       9.818  -9.733   2.218  1.00  0.00     0.029 A 
ATOM     31  N   UNL     1       8.947  -8.152   3.515  1.00  0.00    -0.354 N 
ATOM     32  N   UNL     1       8.407  -6.802   6.042  1.00  0.00    -0.248 NA
ATOM     33  C   UNL     1       8.796  -6.533   8.334  1.00  0.00     0.031 C 
ATOM     34  C   UNL     1      10.280  -9.930   3.527  1.00  0.00     0.029 A 
ATOM     35  C   UNL     1       9.743  -8.938   4.331  1.00  0.00     0.049 A 
ATOM     36  H   UNL     1       8.427  -7.372   3.816  1.00  0.00     0.167 HD
ATOM     37  C   UNL     1       9.336  -7.744   6.462  1.00  0.00     0.074 A 
ATOM     38  C   UNL     1       9.550  -7.525   7.878  1.00  0.00     0.031 C 
ATOM     39  C   UNL     1       9.946  -8.713   5.737  1.00  0.00     0.031 A 
BRANCH  26  40
ATOM     40  C   UNL     1       8.473  -8.629  -0.259  1.00  0.00    -0.014 A 
ATOM     41  C   UNL     1       9.432  -8.121  -1.152  1.00  0.00     0.010 A 
ATOM     42  C   UNL     1       7.673  -9.716  -0.648  1.00  0.00     0.010 A 
ATOM     43  C   UNL     1       9.565  -8.670  -2.430  1.00  0.00     0.020 A 
ATOM     44  C   UNL     1       7.808 -10.272  -1.923  1.00  0.00     0.020 A 
ATOM     45  C   UNL     1       8.741  -9.733  -2.813  1.00  0.00     0.054 A 
BRANCH  45  46
ATOM     46  S   UNL     1       8.910 -10.442  -4.474  1.00  0.00     0.124 S 
ATOM     47  O   UNL     1       7.968  -9.632  -5.242  1.00  0.00    -0.237 OA
ATOM     48  O   UNL     1      10.320 -10.228  -4.788  1.00  0.00    -0.237 OA
ATOM     49  O   UNL     1       8.525 -11.839  -4.285  1.00  0.00    -0.744 OA
ENDBRANCH  45  46
ENDBRANCH  26  40
BRANCH  27  50
ATOM     50  C   UNL     1       6.947  -4.279   8.541  1.00  0.00    -0.014 A 
ATOM     51  C   UNL     1       7.819  -3.237   8.900  1.00  0.00     0.010 A 
ATOM     52  C   UNL     1       5.869  -4.603   9.381  1.00  0.00     0.010 A 
ATOM     53  C   UNL     1       7.611  -2.519  10.080  1.00  0.00     0.020 A 
ATOM     54  C   UNL     1       5.655  -3.882  10.558  1.00  0.00     0.020 A 
ATOM     55  C   UNL     1       6.529  -2.845  10.900  1.00  0.00     0.054 A 
BRANCH  55  56
ATOM     56  S   UNL     1       6.190  -1.857  12.385  1.00  0.00     0.124 S 
ATOM     57  O   UNL     1       6.788  -2.675  13.435  1.00  0.00    -0.237 OA
ATOM     58  O   UNL     1       6.867  -0.592  12.108  1.00  0.00    -0.237 OA
ATOM     59  O   UNL     1       4.731  -1.781  12.397  1.00  0.00    -0.744 OA
ENDBRANCH  55  56
ENDBRANCH  27  50
BRANCH  39  60
ATOM     60  C   UNL     1      10.891  -9.612   6.476  1.00  0.00    -0.014 A 
ATOM     61  C   UNL     1      10.404 -10.734   7.169  1.00  0.00     0.010 A 
ATOM     62  C   UNL     1      12.270  -9.342   6.475  1.00  0.00     0.010 A 
ATOM     63  C   UNL     1      11.280 -11.560   7.877  1.00  0.00     0.020 A 
ATOM     64  C   UNL     1      13.149 -10.170   7.178  1.00  0.00     0.020 A 
ATOM     65  C   UNL     1      12.647 -11.265   7.887  1.00  0.00     0.054 A 
BRANCH  65  66
ATOM     66  S   UNL     1      13.790 -12.346   8.792  1.00  0.00     0.124 S 
ATOM     67  O   UNL     1      13.849 -11.697  10.099  1.00  0.00    -0.237 OA
ATOM     68  O   UNL     1      13.119 -13.643   8.766  1.00  0.00    -0.237 OA
ATOM     69  O   UNL     1      15.016 -12.273   8.000  1.00  0.00    -0.744 OA
ENDBRANCH  65  66
ENDBRANCH  39  60
ENDBRANCH  13  14
ENDBRANCH   6   8
ENDBRANCH   3   4
ENDBRANCH   2   3
ENDBRANCH   1   2
BRANCH   1  70
ATOM     70  C   UNL     1       4.633   4.288  -1.778  1.00  0.00     0.002 C 
BRANCH  70  71
ATOM     71  C   UNL     1       6.147   4.536  -1.762  1.00  0.00     0.021 C 
BRANCH  71  72
ATOM     72  C   UNL     1       6.843   4.632  -3.120  1.00  0.00     0.116 C 
BRANCH  72  73
ATOM     73  N   UNL     1       6.235   5.601  -4.016  1.00  0.00    -0.352 N 
ATOM     74  C   UNL     1       6.824   6.403  -4.958  1.00  0.00     0.253 C 
ATOM     75  H   UNL     1       5.258   5.697  -3.933  1.00  0.00     0.163 HD
ATOM     76  O   UNL     1       6.124   7.114  -5.679  1.00  0.00    -0.269 OA
BRANCH  74  77
ATOM     77  C   UNL     1       8.290   6.491  -5.102  1.00  0.00     0.065 A 
ATOM     78  C   UNL     1       8.857   7.773  -4.984  1.00  0.00     0.016 A 
ATOM     79  C   UNL     1       9.105   5.399  -5.417  1.00  0.00     0.076 A 
ATOM     80  C   UNL     1      10.233   7.961  -5.130  1.00  0.00     0.001 A 
ATOM     81  C   UNL     1      10.489   5.606  -5.549  1.00  0.00     0.029 A 
ATOM     82  C   UNL     1      11.052   6.873  -5.409  1.00  0.00     0.002 A 
BRANCH  79  83
ATOM     83  N   UNL     1       8.685   4.071  -5.508  1.00  0.00    -0.255 NA
ATOM     84  C   UNL     1       8.050   3.658  -6.557  1.00  0.00     0.127 C 
BRANCH  84  85
ATOM     85  C   UNL     1       7.957   2.199  -6.742  1.00  0.00     0.076 A 
ATOM     86  C   UNL     1       8.570   1.732  -7.840  1.00  0.00     0.209 A 
ATOM     87  C   UNL     1       7.897   1.283  -5.583  1.00  0.00     0.201 A 
ATOM     88  O   UNL     1       9.206   0.501  -7.902  1.00  0.00    -0.463 OA
ATOM     89  C   UNL     1       9.051   0.380  -5.494  1.00  0.00     0.065 A 
ATOM     90  O   UNL     1       7.012   1.325  -4.742  1.00  0.00    -0.288 OA
ATOM     91  C   UNL     1       9.692   0.050  -6.690  1.00  0.00     0.137 A 
ATOM     92  C   UNL     1       9.566  -0.019  -4.261  1.00  0.00     0.016 A 
ATOM     93  C   UNL     1      10.870  -0.690  -6.659  1.00  0.00     0.048 A 
ATOM     94  C   UNL     1      10.762  -0.735  -4.230  1.00  0.00     0.001 A 
ATOM     95  C   UNL     1      11.412  -1.067  -5.425  1.00  0.00     0.004 A 
ENDBRANCH  84  85
ENDBRANCH  79  83
ENDBRANCH  74  77
ENDBRANCH  72  73
ENDBRANCH  71  72
ENDBRANCH  70  71
ENDBRANCH   1  70
TORSDOF 18
