REMARK SMILES C[C@H]1C[C@H]1C(=O)Nc1cc(C(F)(F)F)ccc1C(=O)NCCCCCCNC(=O)c1ccc(-c2c3nc(c(-c4ccc(S(=O)(=O)[O-])cc4)c4ccc([nH]4)c(-c4ccc(S(=O)(=O)[O-])cc4)c4nc(c(-c5ccc(S(=O)(=O)[O-])cc5)c5ccc2[nH]5)C=C4)C=C3)cc1
REMARK SMILES IDX 24 1 23 2 22 3 21 4 20 5 18 6 19 7 17 9 8 10 9 11 10 12
REMARK SMILES IDX 16 13 15 14 7 15 5 16 6 17 4 19 1 20 2 21 3 22 11 23 12 24
REMARK SMILES IDX 13 25 14 26 25 27 26 28 27 29 28 30 29 32 30 33 31 34 89 35
REMARK SMILES IDX 32 36 88 37 33 38 34 39 35 40 82 41 36 42 87 43 81 44 83 45
REMARK SMILES IDX 37 46 86 47 80 48 79 49 38 51 68 52 49 53 67 54 50 55 53 56
REMARK SMILES IDX 66 57 84 58 51 59 52 60 65 62 85 63 54 64 39 65 40 66 48 67
REMARK SMILES IDX 41 68 47 69 42 70 43 71 44 72 45 73 46 74 69 75 70 76 78 77
REMARK SMILES IDX 71 78 77 79 72 80 73 81 74 82 75 83 76 84 55 85 56 86 64 87
REMARK SMILES IDX 57 88 63 89 58 90 59 91 60 92 61 93 62 94
REMARK H PARENT 20 8 7 18 27 31 83 50 53 61
REMARK Flexibility Score: inf
ROOT
ATOM      1  C   UNL     1       3.241   4.901  -0.463  1.00  0.00     0.002 C 
ENDROOT
BRANCH   1   2
ATOM      2  C   UNL     1       4.242   4.387   0.580  1.00  0.00     0.002 C 
BRANCH   2   3
ATOM      3  C   UNL     1       3.814   4.473   2.052  1.00  0.00     0.021 C 
BRANCH   3   4
ATOM      4  C   UNL     1       2.485   3.800   2.378  1.00  0.00     0.116 C 
BRANCH   4   5
ATOM      5  N   UNL     1       2.565   2.358   2.288  1.00  0.00    -0.352 N 
ATOM      6  C   UNL     1       1.889   1.369   2.948  1.00  0.00     0.253 C 
ATOM      7  O   UNL     1       2.349   0.229   2.835  1.00  0.00    -0.269 OA
ATOM      8  H   UNL     1       3.224   2.031   1.635  1.00  0.00     0.163 HD
BRANCH   6   9
ATOM      9  C   UNL     1       0.713   1.590   3.848  1.00  0.00     0.063 A 
ATOM     10  C   UNL     1      -0.235   2.615   3.805  1.00  0.00     0.054 A 
ATOM     11  C   UNL     1      -1.092   2.809   4.913  1.00  0.00     0.040 A 
ATOM     12  C   UNL     1      -1.191   1.879   5.953  1.00  0.00     0.058 A 
ATOM     13  C   UNL     1       0.586   0.635   4.887  1.00  0.00     0.016 A 
ATOM     14  C   UNL     1      -0.370   0.756   5.904  1.00  0.00     0.014 A 
BRANCH  10  15
ATOM     15  N   UNL     1      -0.528   3.498   2.767  1.00  0.00    -0.325 N 
ATOM     16  C   UNL     1      -0.595   3.406   1.410  1.00  0.00     0.227 C 
ATOM     17  O   UNL     1      -0.918   4.445   0.828  1.00  0.00    -0.274 OA
ATOM     18  H   UNL     1      -0.734   4.404   3.093  1.00  0.00     0.169 HD
BRANCH  16  19
ATOM     19  C   UNL     1      -0.351   2.221   0.561  1.00  0.00     0.082 C 
ATOM     20  C   UNL     1      -0.653  -0.272   1.624  1.00  0.00     0.008 C 
ATOM     21  C   UNL     1      -0.507   0.718   0.534  1.00  0.00    -0.001 C 
ATOM     22  C   UNL     1      -1.678   1.552   0.165  1.00  0.00     0.018 C 
ENDBRANCH  16  19
ENDBRANCH  10  15
BRANCH  12  23
ATOM     23  C   UNL     1      -2.170   2.106   7.079  1.00  0.00     0.416 C 
ATOM     24  F   UNL     1      -1.657   2.906   8.053  1.00  0.00    -0.166 F 
ATOM     25  F   UNL     1      -3.319   2.709   6.666  1.00  0.00    -0.166 F 
ATOM     26  F   UNL     1      -2.556   0.957   7.698  1.00  0.00    -0.166 F 
ENDBRANCH  12  23
ENDBRANCH   6   9
ENDBRANCH   4   5
ENDBRANCH   3   4
ENDBRANCH   2   3
ENDBRANCH   1   2
BRANCH   1  27
ATOM     27  C   UNL     1       2.665   6.299  -0.227  1.00  0.00     0.021 C 
BRANCH  27  28
ATOM     28  C   UNL     1       3.680   7.400   0.062  1.00  0.00     0.116 C 
BRANCH  28  29
ATOM     29  N   UNL     1       4.723   7.495  -0.942  1.00  0.00    -0.352 N 
ATOM     30  C   UNL     1       5.305   8.608  -1.488  1.00  0.00     0.251 C 
ATOM     31  H   UNL     1       5.062   6.635  -1.280  1.00  0.00     0.163 HD
ATOM     32  O   UNL     1       6.107   8.482  -2.415  1.00  0.00    -0.269 OA
BRANCH  30  33
ATOM     33  C   UNL     1       4.952   9.957  -0.996  1.00  0.00     0.039 A 
ATOM     34  C   UNL     1       4.736  10.969  -1.935  1.00  0.00     0.014 A 
ATOM     35  C   UNL     1       4.842  10.236   0.370  1.00  0.00     0.014 A 
ATOM     36  C   UNL     1       4.364  12.243  -1.506  1.00  0.00     0.010 A 
ATOM     37  C   UNL     1       4.394  11.487   0.792  1.00  0.00     0.010 A 
ATOM     38  C   UNL     1       4.158  12.506  -0.141  1.00  0.00    -0.014 A 
BRANCH  38  39
ATOM     39  C   UNL     1       3.679  13.841   0.301  1.00  0.00     0.031 A 
ATOM     40  C   UNL     1       4.541  14.722   1.164  1.00  0.00     0.074 A 
ATOM     41  C   UNL     1       2.449  14.251  -0.070  1.00  0.00     0.049 A 
ATOM     42  N   UNL     1       4.304  15.935   1.594  1.00  0.00    -0.248 NA
ATOM     43  C   UNL     1       5.824  14.164   1.621  1.00  0.00     0.031 C 
ATOM     44  C   UNL     1       1.499  13.463  -0.861  1.00  0.00     0.029 A 
ATOM     45  N   UNL     1       1.791  15.434   0.154  1.00  0.00    -0.354 N 
ATOM     46  C   UNL     1       5.402  16.283   2.373  1.00  0.00     0.074 A 
ATOM     47  C   UNL     1       6.278  15.132   2.404  1.00  0.00     0.031 C 
ATOM     48  C   UNL     1       0.404  14.202  -1.097  1.00  0.00     0.029 A 
ATOM     49  C   UNL     1       0.553  15.497  -0.442  1.00  0.00     0.049 A 
ATOM     50  H   UNL     1       2.169  16.168   0.691  1.00  0.00     0.167 HD
ATOM     51  C   UNL     1       5.668  17.461   2.987  1.00  0.00     0.031 A 
ATOM     52  C   UNL     1      -0.359  16.488  -0.465  1.00  0.00     0.031 A 
ATOM     53  C   UNL     1       4.789  18.602   2.953  1.00  0.00     0.049 A 
ATOM     54  C   UNL     1      -0.044  17.784   0.229  1.00  0.00     0.074 A 
ATOM     55  C   UNL     1       4.990  19.859   3.496  1.00  0.00     0.029 A 
ATOM     56  N   UNL     1       3.541  18.623   2.349  1.00  0.00    -0.354 N 
ATOM     57  N   UNL     1       1.038  18.122   0.891  1.00  0.00    -0.248 NA
ATOM     58  C   UNL     1      -1.065  18.837   0.160  1.00  0.00     0.031 C 
ATOM     59  C   UNL     1       3.836  20.619   3.276  1.00  0.00     0.029 A 
ATOM     60  C   UNL     1       2.945  19.860   2.533  1.00  0.00     0.049 A 
ATOM     61  H   UNL     1       3.137  17.869   1.860  1.00  0.00     0.167 HD
ATOM     62  C   UNL     1       0.836  19.436   1.298  1.00  0.00     0.074 A 
ATOM     63  C   UNL     1      -0.459  19.837   0.785  1.00  0.00     0.031 C 
ATOM     64  C   UNL     1       1.648  20.239   2.030  1.00  0.00     0.031 A 
BRANCH  51  65
ATOM     65  C   UNL     1       6.959  17.573   3.759  1.00  0.00    -0.014 A 
ATOM     66  C   UNL     1       8.204  17.573   3.102  1.00  0.00     0.010 A 
ATOM     67  C   UNL     1       6.928  17.723   5.158  1.00  0.00     0.010 A 
ATOM     68  C   UNL     1       9.392  17.679   3.831  1.00  0.00     0.020 A 
ATOM     69  C   UNL     1       8.112  17.860   5.888  1.00  0.00     0.020 A 
ATOM     70  C   UNL     1       9.338  17.821   5.221  1.00  0.00     0.054 A 
BRANCH  70  71
ATOM     71  S   UNL     1      10.895  17.980   6.138  1.00  0.00     0.124 S 
ATOM     72  O   UNL     1      11.444  16.630   6.035  1.00  0.00    -0.237 OA
ATOM     73  O   UNL     1      11.607  19.007   5.383  1.00  0.00    -0.237 OA
ATOM     74  O   UNL     1      10.470  18.377   7.478  1.00  0.00    -0.744 OA
ENDBRANCH  70  71
ENDBRANCH  51  65
BRANCH  52  75
ATOM     75  C   UNL     1      -1.647  16.295  -1.188  1.00  0.00    -0.014 A 
ATOM     76  C   UNL     1      -1.925  17.010  -2.366  1.00  0.00     0.010 A 
ATOM     77  C   UNL     1      -2.599  15.376  -0.707  1.00  0.00     0.010 A 
ATOM     78  C   UNL     1      -3.137  16.824  -3.039  1.00  0.00     0.020 A 
ATOM     79  C   UNL     1      -3.797  15.164  -1.394  1.00  0.00     0.020 A 
ATOM     80  C   UNL     1      -4.064  15.899  -2.550  1.00  0.00     0.054 A 
BRANCH  80  81
ATOM     81  S   UNL     1      -5.608  15.639  -3.467  1.00  0.00     0.124 S 
ATOM     82  O   UNL     1      -6.337  16.872  -3.191  1.00  0.00    -0.237 OA
ATOM     83  O   UNL     1      -5.135  15.476  -4.839  1.00  0.00    -0.237 OA
ATOM     84  O   UNL     1      -6.166  14.432  -2.861  1.00  0.00    -0.744 OA
ENDBRANCH  80  81
ENDBRANCH  52  75
BRANCH  64  85
ATOM     85  C   UNL     1       1.167  21.641   2.302  1.00  0.00    -0.014 A 
ATOM     86  C   UNL     1       0.085  21.887   3.166  1.00  0.00     0.010 A 
ATOM     87  C   UNL     1       1.829  22.730   1.706  1.00  0.00     0.010 A 
ATOM     88  C   UNL     1      -0.356  23.194   3.392  1.00  0.00     0.020 A 
ATOM     89  C   UNL     1       1.414  24.040   1.957  1.00  0.00     0.020 A 
ATOM     90  C   UNL     1       0.311  24.262   2.783  1.00  0.00     0.054 A 
BRANCH  90  91
ATOM     91  S   UNL     1      -0.266  25.950   3.110  1.00  0.00     0.124 S 
ATOM     92  O   UNL     1      -1.513  25.997   2.352  1.00  0.00    -0.237 OA
ATOM     93  O   UNL     1      -0.414  25.962   4.564  1.00  0.00    -0.237 OA
ATOM     94  O   UNL     1       0.810  26.792   2.592  1.00  0.00    -0.744 OA
ENDBRANCH  90  91
ENDBRANCH  64  85
ENDBRANCH  38  39
ENDBRANCH  30  33
ENDBRANCH  28  29
ENDBRANCH  27  28
ENDBRANCH   1  27
TORSDOF 19
