REMARK SMILES O=C(NCCCCCCNC(=O)c1cccnc1C(=O)Nc1ccc([N+](=O)[O-])cc1)c1ccc(-c2c3nc(c(-c4ccc(S(=O)(=O)[O-])cc4)c4ccc([nH]4)c(-c4ccc(S(=O)(=O)[O-])cc4)c4nc(c(-c5ccc(S(=O)(=O)[O-])cc5)c5ccc2[nH]5)C=C4)C=C3)cc1
REMARK SMILES IDX 6 1 5 2 4 3 3 4 1 5 2 6 31 8 32 9 90 10 33 11 89 12 34 13
REMARK SMILES IDX 35 14 36 15 83 16 37 17 88 18 82 19 84 20 38 21 87 22 81 23
REMARK SMILES IDX 80 24 39 26 69 27 50 28 68 29 51 30 54 31 67 32 85 33 52 34
REMARK SMILES IDX 53 35 66 37 86 38 55 39 40 40 41 41 49 42 42 43 48 44 43 45
REMARK SMILES IDX 44 46 45 47 46 48 47 49 70 50 71 51 79 52 72 53 78 54 73 55
REMARK SMILES IDX 74 56 75 57 76 58 77 59 56 60 57 61 65 62 58 63 64 64 59 65
REMARK SMILES IDX 60 66 61 67 62 68 63 69 7 70 8 71 9 72 10 73 11 74 12 76
REMARK SMILES IDX 13 77 14 78 18 79 15 80 17 81 16 82 19 83 20 84 21 85 22 87
REMARK SMILES IDX 23 88 30 89 24 90 29 91 25 92 26 93 27 94 28 95
REMARK H PARENT 3 7 84 25 54 36 10 75 21 86
REMARK Flexibility Score: inf
ROOT
ATOM      1  C   UNL     1       4.675  -3.251  -1.677  1.00  0.00     0.002 C 
ENDROOT
BRANCH   1   2
ATOM      2  C   UNL     1       4.829  -2.549  -0.333  1.00  0.00     0.021 C 
BRANCH   2   3
ATOM      3  C   UNL     1       4.445  -1.078  -0.342  1.00  0.00     0.116 C 
BRANCH   3   4
ATOM      4  N   UNL     1       3.028  -0.838  -0.582  1.00  0.00    -0.352 N 
ATOM      5  O   UNL     1       1.032   0.181  -0.224  1.00  0.00    -0.269 OA
ATOM      6  C   UNL     1       2.232   0.132  -0.004  1.00  0.00     0.251 C 
ATOM      7  H   UNL     1       2.588  -1.435  -1.229  1.00  0.00     0.163 HD
BRANCH   6   8
ATOM      8  C   UNL     1       2.873   1.081   0.931  1.00  0.00     0.039 A 
ATOM      9  C   UNL     1       4.046   1.734   0.548  1.00  0.00     0.014 A 
ATOM     10  C   UNL     1       2.380   1.207   2.231  1.00  0.00     0.014 A 
ATOM     11  C   UNL     1       4.828   2.346   1.517  1.00  0.00     0.010 A 
ATOM     12  C   UNL     1       3.118   1.923   3.178  1.00  0.00     0.010 A 
ATOM     13  C   UNL     1       4.375   2.453   2.844  1.00  0.00    -0.014 A 
BRANCH  13  14
ATOM     14  C   UNL     1       5.230   3.148   3.842  1.00  0.00     0.031 A 
ATOM     15  C   UNL     1       5.770   2.431   5.053  1.00  0.00     0.074 A 
ATOM     16  C   UNL     1       5.566   4.433   3.612  1.00  0.00     0.049 A 
ATOM     17  N   UNL     1       6.565   2.887   5.989  1.00  0.00    -0.248 NA
ATOM     18  C   UNL     1       5.365   1.030   5.247  1.00  0.00     0.031 C 
ATOM     19  C   UNL     1       5.105   5.233   2.473  1.00  0.00     0.029 A 
ATOM     20  N   UNL     1       6.395   5.283   4.297  1.00  0.00    -0.354 N 
ATOM     21  C   UNL     1       6.723   1.848   6.900  1.00  0.00     0.074 A 
ATOM     22  C   UNL     1       5.933   0.739   6.411  1.00  0.00     0.031 C 
ATOM     23  C   UNL     1       5.715   6.426   2.495  1.00  0.00     0.029 A 
ATOM     24  C   UNL     1       6.543   6.508   3.692  1.00  0.00     0.049 A 
ATOM     25  H   UNL     1       6.841   5.039   5.140  1.00  0.00     0.167 HD
ATOM     26  C   UNL     1       7.459   1.822   8.039  1.00  0.00     0.031 A 
ATOM     27  C   UNL     1       7.253   7.590   4.060  1.00  0.00     0.031 A 
ATOM     28  C   UNL     1       8.255   2.927   8.512  1.00  0.00     0.049 A 
ATOM     29  C   UNL     1       8.052   7.535   5.328  1.00  0.00     0.074 A 
ATOM     30  C   UNL     1       9.063   2.987   9.636  1.00  0.00     0.029 A 
ATOM     31  N   UNL     1       8.346   4.164   7.891  1.00  0.00    -0.354 N 
ATOM     32  N   UNL     1       8.201   6.536   6.164  1.00  0.00    -0.248 NA
ATOM     33  C   UNL     1       8.778   8.755   5.702  1.00  0.00     0.031 C 
ATOM     34  C   UNL     1       9.600   4.276   9.722  1.00  0.00     0.029 A 
ATOM     35  C   UNL     1       9.178   5.000   8.618  1.00  0.00     0.049 A 
ATOM     36  H   UNL     1       7.886   4.412   7.057  1.00  0.00     0.167 HD
ATOM     37  C   UNL     1       9.057   6.999   7.155  1.00  0.00     0.074 A 
ATOM     38  C   UNL     1       9.407   8.361   6.801  1.00  0.00     0.031 C 
ATOM     39  C   UNL     1       9.513   6.355   8.257  1.00  0.00     0.031 A 
BRANCH  26  40
ATOM     40  C   UNL     1       7.411   0.571   8.880  1.00  0.00    -0.014 A 
ATOM     41  C   UNL     1       8.034  -0.620   8.466  1.00  0.00     0.010 A 
ATOM     42  C   UNL     1       6.773   0.604  10.135  1.00  0.00     0.010 A 
ATOM     43  C   UNL     1       7.983  -1.764   9.270  1.00  0.00     0.020 A 
ATOM     44  C   UNL     1       6.743  -0.529  10.954  1.00  0.00     0.020 A 
ATOM     45  C   UNL     1       7.333  -1.712  10.507  1.00  0.00     0.054 A 
BRANCH  45  46
ATOM     46  S   UNL     1       7.296  -3.207  11.536  1.00  0.00     0.124 S 
ATOM     47  O   UNL     1       6.330  -4.038  10.822  1.00  0.00    -0.237 OA
ATOM     48  O   UNL     1       8.681  -3.668  11.482  1.00  0.00    -0.237 OA
ATOM     49  O   UNL     1       6.854  -2.719  12.841  1.00  0.00    -0.744 OA
ENDBRANCH  45  46
ENDBRANCH  26  40
BRANCH  27  50
ATOM     50  C   UNL     1       7.227   8.812   3.213  1.00  0.00    -0.014 A 
ATOM     51  C   UNL     1       8.369   9.211   2.498  1.00  0.00     0.010 A 
ATOM     52  C   UNL     1       6.043   9.563   3.089  1.00  0.00     0.010 A 
ATOM     53  C   UNL     1       8.332  10.348   1.686  1.00  0.00     0.020 A 
ATOM     54  C   UNL     1       5.993  10.680   2.254  1.00  0.00     0.020 A 
ATOM     55  C   UNL     1       7.143  11.073   1.567  1.00  0.00     0.054 A 
BRANCH  55  56
ATOM     56  S   UNL     1       7.101  12.512   0.464  1.00  0.00     0.124 S 
ATOM     57  O   UNL     1       7.838  13.507   1.237  1.00  0.00    -0.237 OA
ATOM     58  O   UNL     1       7.774  12.013  -0.732  1.00  0.00    -0.237 OA
ATOM     59  O   UNL     1       5.673  12.776   0.301  1.00  0.00    -0.744 OA
ENDBRANCH  55  56
ENDBRANCH  27  50
BRANCH  39  60
ATOM     60  C   UNL     1      10.476   7.105   9.136  1.00  0.00    -0.014 A 
ATOM     61  C   UNL     1      10.053   8.181   9.936  1.00  0.00     0.010 A 
ATOM     62  C   UNL     1      11.826   6.713   9.171  1.00  0.00     0.010 A 
ATOM     63  C   UNL     1      10.973   8.881  10.721  1.00  0.00     0.020 A 
ATOM     64  C   UNL     1      12.743   7.390   9.977  1.00  0.00     0.020 A 
ATOM     65  C   UNL     1      12.314   8.483  10.732  1.00  0.00     0.054 A 
BRANCH  65  66
ATOM     66  S   UNL     1      13.489   9.394  11.771  1.00  0.00     0.124 S 
ATOM     67  O   UNL     1      13.681  10.622  11.006  1.00  0.00    -0.237 OA
ATOM     68  O   UNL     1      12.758   9.544  13.027  1.00  0.00    -0.237 OA
ATOM     69  O   UNL     1      14.650   8.510  11.836  1.00  0.00    -0.744 OA
ENDBRANCH  65  66
ENDBRANCH  39  60
ENDBRANCH  13  14
ENDBRANCH   6   8
ENDBRANCH   3   4
ENDBRANCH   2   3
ENDBRANCH   1   2
BRANCH   1  70
ATOM     70  C   UNL     1       5.603  -2.742  -2.782  1.00  0.00     0.002 C 
BRANCH  70  71
ATOM     71  C   UNL     1       7.102  -3.044  -2.657  1.00  0.00     0.021 C 
BRANCH  71  72
ATOM     72  C   UNL     1       7.551  -4.279  -1.874  1.00  0.00     0.116 C 
BRANCH  72  73
ATOM     73  N   UNL     1       7.156  -5.571  -2.425  1.00  0.00    -0.352 N 
ATOM     74  C   UNL     1       7.863  -6.465  -3.203  1.00  0.00     0.253 C 
ATOM     75  H   UNL     1       6.237  -5.849  -2.207  1.00  0.00     0.163 HD
ATOM     76  O   UNL     1       7.459  -7.609  -3.382  1.00  0.00    -0.269 OA
BRANCH  74  77
ATOM     77  C   UNL     1       9.182  -6.095  -3.700  1.00  0.00     0.071 A 
ATOM     78  C   UNL     1      10.164  -6.083  -2.683  1.00  0.00     0.018 A 
ATOM     79  C   UNL     1       9.558  -5.827  -5.013  1.00  0.00     0.141 A 
ATOM     80  C   UNL     1      11.473  -5.730  -2.959  1.00  0.00     0.021 A 
ATOM     81  N   UNL     1      10.861  -5.447  -5.258  1.00  0.00    -0.250 NA
ATOM     82  C   UNL     1      11.769  -5.405  -4.260  1.00  0.00     0.112 A 
BRANCH  79  83
ATOM     83  C   UNL     1       8.834  -5.993  -6.354  1.00  0.00     0.275 C 
ATOM     84  O   UNL     1       9.449  -5.690  -7.388  1.00  0.00    -0.267 OA
ATOM     85  N   UNL     1       7.660  -6.671  -6.592  1.00  0.00    -0.321 N 
ATOM     86  H   UNL     1       7.702  -7.247  -7.389  1.00  0.00     0.170 HD
BRANCH  85  87
ATOM     87  C   UNL     1       6.429  -6.716  -5.951  1.00  0.00     0.042 A 
ATOM     88  C   UNL     1       5.722  -7.926  -6.006  1.00  0.00     0.033 A 
ATOM     89  C   UNL     1       5.893  -5.621  -5.283  1.00  0.00     0.033 A 
ATOM     90  C   UNL     1       4.610  -8.124  -5.187  1.00  0.00     0.088 A 
ATOM     91  C   UNL     1       4.751  -5.800  -4.500  1.00  0.00     0.088 A 
ATOM     92  C   UNL     1       4.182  -7.069  -4.385  1.00  0.00     0.269 A 
BRANCH  92  93
ATOM     93  N   UNL     1       3.225  -7.315  -3.313  1.00  0.00     0.062 N 
ATOM     94  O   UNL     1       2.311  -8.120  -3.532  1.00  0.00    -0.258 OA
ATOM     95  O   UNL     1       3.409  -6.710  -2.246  1.00  0.00    -0.258 OA
ENDBRANCH  92  93
ENDBRANCH  85  87
ENDBRANCH  79  83
ENDBRANCH  74  77
ENDBRANCH  72  73
ENDBRANCH  71  72
ENDBRANCH  70  71
ENDBRANCH   1  70
TORSDOF 19
