REMARK SMILES COc1cc(OC)cc(-n2nnc(C(=O)NCCCCCCNC(=O)c3ccc(-c4c5nc(c(-c6ccc(S(=O)(=O)[O-])cc6)c6ccc([nH]6)c(-c6ccc(S(=O)(=O)[O-])cc6)c6nc(c(-c7ccc(S(=O)(=O)[O-])cc7)c7ccc4[nH]7)C=C6)C=C5)cc3)c2C(C)(C)C)c1
REMARK SMILES IDX 20 1 19 2 18 3 17 4 16 5 14 6 15 7 13 9 10 10 11 11 86 12
REMARK SMILES IDX 12 13 9 14 3 15 4 16 91 17 5 18 8 19 2 20 1 21 6 22 7 23
REMARK SMILES IDX 87 24 88 25 89 26 90 27 21 28 22 29 23 30 24 31 25 33 26 34
REMARK SMILES IDX 27 35 85 36 28 37 84 38 29 39 30 40 31 41 78 42 32 43 83 44
REMARK SMILES IDX 77 45 79 46 33 47 82 48 76 49 75 50 34 52 64 53 45 54 63 55
REMARK SMILES IDX 46 56 49 57 62 58 80 59 47 60 48 61 61 63 81 64 50 65 35 66
REMARK SMILES IDX 36 67 44 68 37 69 43 70 38 71 39 72 40 73 41 74 42 75 65 76
REMARK SMILES IDX 66 77 74 78 67 79 73 80 68 81 69 82 70 83 71 84 72 85 51 86
REMARK SMILES IDX 52 87 60 88 53 89 59 90 54 91 55 92 56 93 57 94 58 95
REMARK H PARENT 16 8 23 32 79 51 49 62
REMARK Flexibility Score: inf
ROOT
ATOM      1  C   UNL     1       7.778  -5.886   1.529  1.00  0.00     0.002 C 
ENDROOT
BRANCH   1   2
ATOM      2  C   UNL     1       7.946  -6.740   0.259  1.00  0.00     0.002 C 
BRANCH   2   3
ATOM      3  C   UNL     1       7.258  -6.256  -1.022  1.00  0.00     0.021 C 
BRANCH   3   4
ATOM      4  C   UNL     1       7.422  -4.760  -1.298  1.00  0.00     0.116 C 
BRANCH   4   5
ATOM      5  N   UNL     1       7.657  -4.388  -2.682  1.00  0.00    -0.351 N 
ATOM      6  C   UNL     1       7.178  -3.465  -3.590  1.00  0.00     0.273 C 
ATOM      7  O   UNL     1       8.043  -3.177  -4.431  1.00  0.00    -0.267 OA
ATOM      8  H   UNL     1       8.354  -4.953  -3.086  1.00  0.00     0.163 HD
BRANCH   6   9
ATOM      9  C   UNL     1       5.826  -2.852  -3.719  1.00  0.00     0.174 A 
ATOM     10  N   UNL     1       3.750  -2.117  -3.853  1.00  0.00    -0.216 N 
ATOM     11  N   UNL     1       4.379  -1.720  -4.965  1.00  0.00    -0.061 NA
ATOM     12  C   UNL     1       4.593  -2.862  -3.031  1.00  0.00     0.083 A 
ATOM     13  N   UNL     1       5.639  -2.097  -4.872  1.00  0.00    -0.124 NA
BRANCH  10  14
ATOM     14  C   UNL     1       2.375  -1.883  -3.702  1.00  0.00     0.074 A 
ATOM     15  C   UNL     1       0.642  -1.220  -2.175  1.00  0.00     0.124 A 
ATOM     16  C   UNL     1      -0.226  -2.094  -2.841  1.00  0.00     0.093 A 
ATOM     17  C   UNL     1       1.949  -1.082  -2.635  1.00  0.00     0.075 A 
ATOM     18  C   UNL     1       0.185  -2.826  -3.966  1.00  0.00     0.124 A 
ATOM     19  C   UNL     1       1.494  -2.704  -4.418  1.00  0.00     0.075 A 
BRANCH  15  20
ATOM     20  O   UNL     1       0.144  -0.681  -1.020  1.00  0.00    -0.497 OA
ATOM     21  C   UNL     1       0.977   0.216  -0.297  1.00  0.00     0.278 C 
ENDBRANCH  15  20
BRANCH  18  22
ATOM     22  O   UNL     1      -0.761  -3.673  -4.471  1.00  0.00    -0.497 OA
ATOM     23  C   UNL     1      -0.335  -4.617  -5.452  1.00  0.00     0.278 C 
ENDBRANCH  18  22
ENDBRANCH  10  14
BRANCH  12  24
ATOM     24  C   UNL     1       4.173  -3.575  -1.758  1.00  0.00     0.007 C 
ATOM     25  C   UNL     1       4.365  -5.077  -2.075  1.00  0.00     0.017 C 
ATOM     26  C   UNL     1       4.917  -2.833  -0.615  1.00  0.00     0.017 C 
ATOM     27  C   UNL     1       2.728  -3.603  -1.223  1.00  0.00     0.017 C 
ENDBRANCH  12  24
ENDBRANCH   6   9
ENDBRANCH   4   5
ENDBRANCH   3   4
ENDBRANCH   2   3
ENDBRANCH   1   2
BRANCH   1  28
ATOM     28  C   UNL     1       6.364  -5.675   2.085  1.00  0.00     0.021 C 
BRANCH  28  29
ATOM     29  C   UNL     1       5.634  -6.946   2.478  1.00  0.00     0.116 C 
BRANCH  29  30
ATOM     30  N   UNL     1       6.359  -7.751   3.461  1.00  0.00    -0.352 N 
ATOM     31  C   UNL     1       5.999  -8.961   4.035  1.00  0.00     0.251 C 
ATOM     32  H   UNL     1       7.223  -7.383   3.756  1.00  0.00     0.163 HD
ATOM     33  O   UNL     1       6.537  -9.347   5.058  1.00  0.00    -0.269 OA
BRANCH  31  34
ATOM     34  C   UNL     1       4.953  -9.772   3.380  1.00  0.00     0.039 A 
ATOM     35  C   UNL     1       4.030 -10.527   4.109  1.00  0.00     0.014 A 
ATOM     36  C   UNL     1       4.903  -9.751   1.992  1.00  0.00     0.014 A 
ATOM     37  C   UNL     1       3.020 -11.197   3.419  1.00  0.00     0.010 A 
ATOM     38  C   UNL     1       3.796 -10.213   1.341  1.00  0.00     0.010 A 
ATOM     39  C   UNL     1       2.906 -11.018   2.031  1.00  0.00    -0.014 A 
BRANCH  39  40
ATOM     40  C   UNL     1       1.809 -11.585   1.262  1.00  0.00     0.031 A 
ATOM     41  C   UNL     1       0.466 -11.178   1.739  1.00  0.00     0.074 A 
ATOM     42  C   UNL     1       1.995 -12.211   0.077  1.00  0.00     0.049 A 
ATOM     43  N   UNL     1      -0.387 -11.906   2.377  1.00  0.00    -0.248 NA
ATOM     44  C   UNL     1       0.093  -9.755   1.658  1.00  0.00     0.031 C 
ATOM     45  C   UNL     1       3.241 -12.400  -0.680  1.00  0.00     0.029 A 
ATOM     46  N   UNL     1       1.064 -12.710  -0.773  1.00  0.00    -0.354 N 
ATOM     47  C   UNL     1      -1.509 -11.106   2.551  1.00  0.00     0.074 A 
ATOM     48  C   UNL     1      -1.078  -9.754   2.299  1.00  0.00     0.031 C 
ATOM     49  C   UNL     1       2.952 -12.736  -1.958  1.00  0.00     0.029 A 
ATOM     50  C   UNL     1       1.523 -12.966  -2.062  1.00  0.00     0.049 A 
ATOM     51  H   UNL     1       0.133 -12.880  -0.499  1.00  0.00     0.167 HD
ATOM     52  C   UNL     1      -2.758 -11.648   2.610  1.00  0.00     0.031 A 
ATOM     53  C   UNL     1       0.769 -13.318  -3.135  1.00  0.00     0.031 A 
ATOM     54  C   UNL     1      -2.704 -13.082   2.759  1.00  0.00     0.049 A 
ATOM     55  C   UNL     1      -0.501 -13.867  -2.596  1.00  0.00     0.074 A 
ATOM     56  C   UNL     1      -2.148 -13.942   3.687  1.00  0.00     0.029 A 
ATOM     57  N   UNL     1      -2.908 -13.834   1.623  1.00  0.00    -0.354 N 
ATOM     58  N   UNL     1      -0.560 -14.966  -1.897  1.00  0.00    -0.248 NA
ATOM     59  C   UNL     1      -1.616 -12.950  -2.413  1.00  0.00     0.031 C 
ATOM     60  C   UNL     1      -1.595 -15.005   2.912  1.00  0.00     0.029 A 
ATOM     61  C   UNL     1      -1.921 -14.785   1.573  1.00  0.00     0.049 A 
ATOM     62  H   UNL     1      -3.632 -13.711   0.967  1.00  0.00     0.167 HD
ATOM     63  C   UNL     1      -1.455 -14.687  -0.874  1.00  0.00     0.074 A 
ATOM     64  C   UNL     1      -2.143 -13.466  -1.297  1.00  0.00     0.031 C 
ATOM     65  C   UNL     1      -1.353 -15.301   0.344  1.00  0.00     0.031 A 
BRANCH  52  66
ATOM     66  C   UNL     1      -3.998 -10.951   2.106  1.00  0.00    -0.014 A 
ATOM     67  C   UNL     1      -5.243 -11.590   2.272  1.00  0.00     0.010 A 
ATOM     68  C   UNL     1      -3.960  -9.838   1.241  1.00  0.00     0.010 A 
ATOM     69  C   UNL     1      -6.372 -11.180   1.552  1.00  0.00     0.020 A 
ATOM     70  C   UNL     1      -5.089  -9.393   0.552  1.00  0.00     0.020 A 
ATOM     71  C   UNL     1      -6.281 -10.090   0.686  1.00  0.00     0.054 A 
BRANCH  71  72
ATOM     72  S   UNL     1      -7.717  -9.631  -0.313  1.00  0.00     0.124 S 
ATOM     73  O   UNL     1      -7.856 -10.791  -1.187  1.00  0.00    -0.237 OA
ATOM     74  O   UNL     1      -8.756  -9.470   0.700  1.00  0.00    -0.237 OA
ATOM     75  O   UNL     1      -7.295  -8.396  -0.969  1.00  0.00    -0.744 OA
ENDBRANCH  71  72
ENDBRANCH  52  66
BRANCH  53  76
ATOM     76  C   UNL     1       0.924 -12.926  -4.561  1.00  0.00    -0.014 A 
ATOM     77  C   UNL     1       0.157 -13.548  -5.566  1.00  0.00     0.010 A 
ATOM     78  C   UNL     1       1.589 -11.729  -4.895  1.00  0.00     0.010 A 
ATOM     79  C   UNL     1      -0.010 -12.950  -6.829  1.00  0.00     0.020 A 
ATOM     80  C   UNL     1       1.432 -11.130  -6.153  1.00  0.00     0.020 A 
ATOM     81  C   UNL     1       0.607 -11.727  -7.104  1.00  0.00     0.054 A 
BRANCH  81  82
ATOM     82  S   UNL     1       0.209 -10.848  -8.647  1.00  0.00     0.124 S 
ATOM     83  O   UNL     1       0.894 -11.656  -9.652  1.00  0.00    -0.237 OA
ATOM     84  O   UNL     1      -1.249 -10.903  -8.678  1.00  0.00    -0.237 OA
ATOM     85  O   UNL     1       0.769  -9.514  -8.434  1.00  0.00    -0.744 OA
ENDBRANCH  81  82
ENDBRANCH  53  76
BRANCH  65  86
ATOM     86  C   UNL     1      -0.417 -16.484   0.480  1.00  0.00    -0.014 A 
ATOM     87  C   UNL     1       0.975 -16.424   0.264  1.00  0.00     0.010 A 
ATOM     88  C   UNL     1      -0.961 -17.675   0.991  1.00  0.00     0.010 A 
ATOM     89  C   UNL     1       1.791 -17.539   0.523  1.00  0.00     0.020 A 
ATOM     90  C   UNL     1      -0.153 -18.780   1.267  1.00  0.00     0.020 A 
ATOM     91  C   UNL     1       1.218 -18.713   1.021  1.00  0.00     0.054 A 
BRANCH  91  92
ATOM     92  S   UNL     1       2.272 -20.147   1.377  1.00  0.00     0.124 S 
ATOM     93  O   UNL     1       2.707 -20.560   0.045  1.00  0.00    -0.237 OA
ATOM     94  O   UNL     1       3.314 -19.581   2.231  1.00  0.00    -0.237 OA
ATOM     95  O   UNL     1       1.373 -21.083   2.051  1.00  0.00    -0.744 OA
ENDBRANCH  91  92
ENDBRANCH  65  86
ENDBRANCH  39  40
ENDBRANCH  31  34
ENDBRANCH  29  30
ENDBRANCH  28  29
ENDBRANCH   1  28
TORSDOF 20
