REMARK SMILES Nc1c(Cl)ccc2c1C=C(C(=O)NCCCCCCNC(=O)c1ccc(-c3c4nc(c(-c5ccc(S(=O)(=O)[O-])cc5)c5ccc([nH]5)c(-c5ccc(S(=O)(=O)[O-])cc5)c5nc(c(-c6ccc(S(=O)(=O)[O-])cc6)c6ccc3[nH]6)C=C5)C=C4)cc1)[C@@H](C(F)(F)F)O2
REMARK SMILES IDX 17 1 16 2 15 3 14 4 13 5 11 6 12 7 10 9 2 10 3 11 8 12 4 13
REMARK SMILES IDX 5 14 7 15 9 16 6 17 88 18 83 19 1 20 84 23 85 24 86 25 87 26
REMARK SMILES IDX 18 27 19 28 20 29 21 30 22 32 23 33 24 34 82 35 25 36 81 37
REMARK SMILES IDX 26 38 27 39 28 40 75 41 29 42 80 43 74 44 76 45 30 46 79 47
REMARK SMILES IDX 73 48 72 49 31 51 61 52 42 53 60 54 43 55 46 56 59 57 77 58
REMARK SMILES IDX 44 59 45 60 58 62 78 63 47 64 32 65 33 66 41 67 34 68 40 69
REMARK SMILES IDX 35 70 36 71 37 72 38 73 39 74 62 75 63 76 71 77 64 78 70 79
REMARK SMILES IDX 65 80 66 81 67 82 68 83 69 84 48 85 49 86 57 87 50 88 56 89
REMARK SMILES IDX 51 90 52 91 53 92 54 93 55 94
REMARK H PARENT 13 8 1 21 1 22 20 31 76 50 46 61
REMARK Flexibility Score: inf
ROOT
ATOM      1  C   UNL     1      -7.265  -3.813  -4.857  1.00  0.00     0.002 C 
ENDROOT
BRANCH   1   2
ATOM      2  C   UNL     1      -7.072  -2.476  -4.126  1.00  0.00     0.002 C 
BRANCH   2   3
ATOM      3  C   UNL     1      -6.409  -2.566  -2.748  1.00  0.00     0.021 C 
BRANCH   3   4
ATOM      4  C   UNL     1      -5.034  -3.228  -2.756  1.00  0.00     0.116 C 
BRANCH   4   5
ATOM      5  N   UNL     1      -3.996  -2.293  -3.153  1.00  0.00    -0.352 N 
ATOM      6  C   UNL     1      -2.872  -1.772  -2.614  1.00  0.00     0.251 C 
ATOM      7  O   UNL     1      -2.275  -0.967  -3.339  1.00  0.00    -0.270 OA
ATOM      8  H   UNL     1      -4.154  -1.946  -4.061  1.00  0.00     0.163 HD
BRANCH   6   9
ATOM      9  C   UNL     1      -2.324  -2.089  -1.260  1.00  0.00     0.067 C 
ATOM     10  C   UNL     1       0.561  -0.909   0.808  1.00  0.00     0.061 A 
ATOM     11  C   UNL     1       1.115  -1.233   2.068  1.00  0.00     0.064 A 
ATOM     12  C   UNL     1      -0.631  -1.561   0.416  1.00  0.00     0.042 A 
ATOM     13  Cl  UNL     1       2.592  -0.496   2.599  1.00  0.00    -0.082 Cl
ATOM     14  C   UNL     1       0.492  -2.134   2.933  1.00  0.00     0.026 A 
ATOM     15  C   UNL     1      -1.238  -2.472   1.293  1.00  0.00     0.130 A 
ATOM     16  C   UNL     1      -1.299  -1.311  -0.864  1.00  0.00     0.027 C 
ATOM     17  C   UNL     1      -0.692  -2.748   2.546  1.00  0.00     0.049 A 
ATOM     18  O   UNL     1      -2.409  -3.114   1.013  1.00  0.00    -0.475 OA
ATOM     19  C   UNL     1      -2.796  -3.212  -0.383  1.00  0.00     0.314 C 
BRANCH  10  20
ATOM     20  N   UNL     1       1.246  -0.041  -0.047  1.00  0.00    -0.397 N 
ATOM     21  H   UNL     1       2.074   0.398   0.257  1.00  0.00     0.156 HD
ATOM     22  H   UNL     1       0.902   0.132  -0.953  1.00  0.00     0.156 HD
ENDBRANCH  10  20
BRANCH  19  23
ATOM     23  C   UNL     1      -2.405  -4.601  -0.919  1.00  0.00     0.429 C 
ATOM     24  F   UNL     1      -3.100  -5.571  -0.276  1.00  0.00    -0.167 F 
ATOM     25  F   UNL     1      -2.678  -4.742  -2.237  1.00  0.00    -0.167 F 
ATOM     26  F   UNL     1      -1.089  -4.863  -0.756  1.00  0.00    -0.167 F 
ENDBRANCH  19  23
ENDBRANCH   6   9
ENDBRANCH   4   5
ENDBRANCH   3   4
ENDBRANCH   2   3
ENDBRANCH   1   2
BRANCH   1  27
ATOM     27  C   UNL     1      -7.872  -4.942  -4.019  1.00  0.00     0.021 C 
BRANCH  27  28
ATOM     28  C   UNL     1      -9.221  -4.610  -3.391  1.00  0.00     0.116 C 
BRANCH  28  29
ATOM     29  N   UNL     1     -10.255  -4.435  -4.395  1.00  0.00    -0.352 N 
ATOM     30  C   UNL     1     -11.396  -5.173  -4.578  1.00  0.00     0.251 C 
ATOM     31  H   UNL     1     -10.120  -3.690  -5.025  1.00  0.00     0.163 HD
ATOM     32  O   UNL     1     -12.078  -5.032  -5.588  1.00  0.00    -0.269 OA
BRANCH  30  33
ATOM     33  C   UNL     1     -11.783  -6.154  -3.546  1.00  0.00     0.039 A 
ATOM     34  C   UNL     1     -12.001  -7.481  -3.919  1.00  0.00     0.014 A 
ATOM     35  C   UNL     1     -11.905  -5.757  -2.210  1.00  0.00     0.014 A 
ATOM     36  C   UNL     1     -12.307  -8.425  -2.939  1.00  0.00     0.010 A 
ATOM     37  C   UNL     1     -12.160  -6.710  -1.228  1.00  0.00     0.010 A 
ATOM     38  C   UNL     1     -12.376  -8.048  -1.587  1.00  0.00    -0.014 A 
BRANCH  38  39
ATOM     39  C   UNL     1     -12.730  -9.043  -0.549  1.00  0.00     0.031 A 
ATOM     40  C   UNL     1     -14.078  -8.978   0.111  1.00  0.00     0.074 A 
ATOM     41  C   UNL     1     -11.843  -9.994  -0.197  1.00  0.00     0.049 A 
ATOM     42  N   UNL     1     -14.592  -9.780   1.005  1.00  0.00    -0.248 NA
ATOM     43  C   UNL     1     -14.958  -7.861  -0.274  1.00  0.00     0.031 C 
ATOM     44  C   UNL     1     -10.492 -10.136  -0.744  1.00  0.00     0.029 A 
ATOM     45  N   UNL     1     -11.950 -11.028   0.699  1.00  0.00    -0.354 N 
ATOM     46  C   UNL     1     -15.853  -9.270   1.286  1.00  0.00     0.074 A 
ATOM     47  C   UNL     1     -16.008  -8.060   0.509  1.00  0.00     0.031 C 
ATOM     48  C   UNL     1      -9.909 -11.215  -0.196  1.00  0.00     0.029 A 
ATOM     49  C   UNL     1     -10.836 -11.832   0.750  1.00  0.00     0.049 A 
ATOM     50  H   UNL     1     -12.750 -11.180   1.253  1.00  0.00     0.167 HD
ATOM     51  C   UNL     1     -16.809  -9.780   2.094  1.00  0.00     0.031 A 
ATOM     52  C   UNL     1     -10.595 -12.948   1.465  1.00  0.00     0.031 A 
ATOM     53  C   UNL     1     -16.663 -10.994   2.845  1.00  0.00     0.049 A 
ATOM     54  C   UNL     1     -11.665 -13.488   2.372  1.00  0.00     0.074 A 
ATOM     55  C   UNL     1     -17.598 -11.624   3.646  1.00  0.00     0.029 A 
ATOM     56  N   UNL     1     -15.511 -11.762   2.887  1.00  0.00    -0.354 N 
ATOM     57  N   UNL     1     -12.875 -13.026   2.575  1.00  0.00    -0.248 NA
ATOM     58  C   UNL     1     -11.344 -14.700   3.141  1.00  0.00     0.031 C 
ATOM     59  C   UNL     1     -16.999 -12.758   4.200  1.00  0.00     0.029 A 
ATOM     60  C   UNL     1     -15.702 -12.850   3.717  1.00  0.00     0.049 A 
ATOM     61  H   UNL     1     -14.680 -11.563   2.398  1.00  0.00     0.167 HD
ATOM     62  C   UNL     1     -13.466 -13.897   3.482  1.00  0.00     0.074 A 
ATOM     63  C   UNL     1     -12.483 -14.916   3.789  1.00  0.00     0.031 C 
ATOM     64  C   UNL     1     -14.712 -13.854   4.009  1.00  0.00     0.031 A 
BRANCH  51  65
ATOM     65  C   UNL     1     -18.110  -9.036   2.188  1.00  0.00    -0.014 A 
ATOM     66  C   UNL     1     -19.044  -9.098   1.139  1.00  0.00     0.010 A 
ATOM     67  C   UNL     1     -18.426  -8.315   3.352  1.00  0.00     0.010 A 
ATOM     68  C   UNL     1     -20.265  -8.430   1.242  1.00  0.00     0.020 A 
ATOM     69  C   UNL     1     -19.655  -7.660   3.467  1.00  0.00     0.020 A 
ATOM     70  C   UNL     1     -20.563  -7.716   2.407  1.00  0.00     0.054 A 
BRANCH  70  71
ATOM     71  S   UNL     1     -22.166  -6.875   2.514  1.00  0.00     0.124 S 
ATOM     72  O   UNL     1     -22.071  -5.900   1.430  1.00  0.00    -0.237 OA
ATOM     73  O   UNL     1     -23.110  -7.968   2.295  1.00  0.00    -0.237 OA
ATOM     74  O   UNL     1     -22.173  -6.306   3.860  1.00  0.00    -0.744 OA
ENDBRANCH  70  71
ENDBRANCH  51  65
BRANCH  52  75
ATOM     75  C   UNL     1      -9.292 -13.646   1.313  1.00  0.00    -0.014 A 
ATOM     76  C   UNL     1      -9.200 -14.809   0.531  1.00  0.00     0.010 A 
ATOM     77  C   UNL     1      -8.128 -13.120   1.903  1.00  0.00     0.010 A 
ATOM     78  C   UNL     1      -7.965 -15.432   0.334  1.00  0.00     0.020 A 
ATOM     79  C   UNL     1      -6.888 -13.733   1.696  1.00  0.00     0.020 A 
ATOM     80  C   UNL     1      -6.815 -14.884   0.909  1.00  0.00     0.054 A 
BRANCH  80  81
ATOM     81  S   UNL     1      -5.217 -15.679   0.581  1.00  0.00     0.124 S 
ATOM     82  O   UNL     1      -5.404 -17.001   1.170  1.00  0.00    -0.237 OA
ATOM     83  O   UNL     1      -5.149 -15.639  -0.878  1.00  0.00    -0.237 OA
ATOM     84  O   UNL     1      -4.256 -14.819   1.268  1.00  0.00    -0.744 OA
ENDBRANCH  80  81
ENDBRANCH  52  75
BRANCH  64  85
ATOM     85  C   UNL     1     -15.114 -14.929   4.977  1.00  0.00    -0.014 A 
ATOM     86  C   UNL     1     -14.762 -14.828   6.333  1.00  0.00     0.010 A 
ATOM     87  C   UNL     1     -15.995 -15.945   4.562  1.00  0.00     0.010 A 
ATOM     88  C   UNL     1     -15.308 -15.712   7.266  1.00  0.00     0.020 A 
ATOM     89  C   UNL     1     -16.553 -16.821   5.495  1.00  0.00     0.020 A 
ATOM     90  C   UNL     1     -16.214 -16.691   6.844  1.00  0.00     0.054 A 
BRANCH  90  91
ATOM     91  S   UNL     1     -16.995 -17.742   8.099  1.00  0.00     0.124 S 
ATOM     92  O   UNL     1     -15.851 -18.456   8.659  1.00  0.00    -0.237 OA
ATOM     93  O   UNL     1     -17.620 -16.763   8.984  1.00  0.00    -0.237 OA
ATOM     94  O   UNL     1     -17.926 -18.567   7.332  1.00  0.00    -0.744 OA
ENDBRANCH  90  91
ENDBRANCH  64  85
ENDBRANCH  38  39
ENDBRANCH  30  33
ENDBRANCH  28  29
ENDBRANCH  27  28
ENDBRANCH   1  27
TORSDOF 18
