REMARK SMILES Cn1c(=O)c(=O)n(C)c2cc(S(=O)(=O)N3CCC[C@H]3C(=O)NCCCCCCNC(=O)c3ccc(-c4c5nc(c(-c6ccc(S(=O)(=O)[O-])cc6)c6ccc([nH]6)c(-c6ccc(S(=O)(=O)[O-])cc6)c6nc(c(-c7ccc(S(=O)(=O)[O-])cc7)c7ccc4[nH]7)C=C6)C=C5)cc3)ccc21
REMARK SMILES IDX 26 1 25 2 24 3 23 4 22 5 20 6 21 7 19 9 15 10 16 11 17 12
REMARK SMILES IDX 18 13 12 14 13 15 14 16 11 17 1 18 2 19 3 20 94 21 4 22 5 23
REMARK SMILES IDX 9 24 93 25 6 26 7 27 10 28 92 29 8 30 27 31 28 32 29 33
REMARK SMILES IDX 30 34 31 36 32 37 33 38 91 39 34 40 90 41 35 42 36 43 37 44
REMARK SMILES IDX 84 45 38 46 89 47 83 48 85 49 39 50 88 51 82 52 81 53 40 55
REMARK SMILES IDX 70 56 51 57 69 58 52 59 55 60 68 61 86 62 53 63 54 64 67 66
REMARK SMILES IDX 87 67 56 68 41 69 42 70 50 71 43 72 49 73 44 74 45 75 46 76
REMARK SMILES IDX 47 77 48 78 71 79 72 80 80 81 73 82 79 83 74 84 75 85 76 86
REMARK SMILES IDX 77 87 78 88 57 89 58 90 66 91 59 92 65 93 60 94 61 95 62 96
REMARK SMILES IDX 63 97 64 98
REMARK H PARENT 22 8 29 35 85 54 55 65
REMARK Flexibility Score: inf
ROOT
ATOM      1  C   UNL     1       4.572   8.797  -0.554  1.00  0.00     0.002 C 
ENDROOT
BRANCH   1   2
ATOM      2  C   UNL     1       3.057   9.030  -0.489  1.00  0.00     0.002 C 
BRANCH   2   3
ATOM      3  C   UNL     1       2.226   7.785  -0.170  1.00  0.00     0.021 C 
BRANCH   3   4
ATOM      4  C   UNL     1       2.509   7.201   1.214  1.00  0.00     0.116 C 
BRANCH   4   5
ATOM      5  N   UNL     1       1.792   7.925   2.257  1.00  0.00    -0.355 N 
ATOM      6  C   UNL     1       0.639   7.563   2.919  1.00  0.00     0.238 C 
ATOM      7  O   UNL     1       0.139   8.347   3.724  1.00  0.00    -0.273 OA
ATOM      8  H   UNL     1       2.185   8.787   2.524  1.00  0.00     0.163 HD
BRANCH   6   9
ATOM      9  C   UNL     1       0.038   6.210   2.570  1.00  0.00     0.162 C 
ATOM     10  N   UNL     1      -0.952   5.640   3.508  1.00  0.00    -0.185 NA
ATOM     11  C   UNL     1      -2.279   5.632   2.878  1.00  0.00     0.103 C 
ATOM     12  C   UNL     1      -1.977   5.492   1.401  1.00  0.00     0.019 C 
ATOM     13  C   UNL     1      -0.691   6.280   1.219  1.00  0.00     0.032 C 
BRANCH  10  14
ATOM     14  S   UNL     1      -0.488   4.386   4.531  1.00  0.00     0.243 S 
ATOM     15  O   UNL     1      -1.607   4.111   5.401  1.00  0.00    -0.207 OA
ATOM     16  O   UNL     1       0.824   4.705   5.062  1.00  0.00    -0.207 OA
BRANCH  14  17
ATOM     17  C   UNL     1      -0.252   2.910   3.531  1.00  0.00     0.084 A 
ATOM     18  C   UNL     1       0.930  -0.596  -0.018  1.00  0.00     0.154 C 
ATOM     19  N   UNL     1       0.413  -0.667   1.344  1.00  0.00    -0.305 N 
ATOM     20  C   UNL     1       0.118  -1.923   1.865  1.00  0.00     0.316 A 
ATOM     21  C   UNL     1       0.205   0.517   2.097  1.00  0.00     0.068 A 
ATOM     22  O   UNL     1       0.232  -2.968   1.230  1.00  0.00    -0.263 OA
ATOM     23  C   UNL     1      -0.379  -1.996   3.314  1.00  0.00     0.316 A 
ATOM     24  C   UNL     1      -0.342   0.465   3.392  1.00  0.00     0.069 A 
ATOM     25  C   UNL     1       0.545   1.762   1.559  1.00  0.00     0.030 A 
ATOM     26  O   UNL     1      -0.564  -3.102   3.817  1.00  0.00    -0.263 OA
ATOM     27  N   UNL     1      -0.607  -0.796   3.991  1.00  0.00    -0.305 N 
ATOM     28  C   UNL     1      -0.589   1.669   4.088  1.00  0.00     0.050 A 
ATOM     29  C   UNL     1       0.333   2.939   2.272  1.00  0.00     0.024 A 
ATOM     30  C   UNL     1      -1.072  -0.875   5.367  1.00  0.00     0.154 C 
ENDBRANCH  14  17
ENDBRANCH  10  14
ENDBRANCH   6   9
ENDBRANCH   4   5
ENDBRANCH   3   4
ENDBRANCH   2   3
ENDBRANCH   1   2
BRANCH   1  31
ATOM     31  C   UNL     1       5.025   7.695  -1.515  1.00  0.00     0.021 C 
BRANCH  31  32
ATOM     32  C   UNL     1       4.611   7.906  -2.967  1.00  0.00     0.116 C 
BRANCH  32  33
ATOM     33  N   UNL     1       5.237   9.082  -3.555  1.00  0.00    -0.352 N 
ATOM     34  C   UNL     1       5.979   9.181  -4.708  1.00  0.00     0.251 C 
ATOM     35  H   UNL     1       5.112   9.922  -3.058  1.00  0.00     0.163 HD
ATOM     36  O   UNL     1       6.584  10.216  -4.968  1.00  0.00    -0.269 OA
BRANCH  34  37
ATOM     37  C   UNL     1       6.065   8.017  -5.614  1.00  0.00     0.039 A 
ATOM     38  C   UNL     1       4.911   7.317  -5.971  1.00  0.00     0.014 A 
ATOM     39  C   UNL     1       7.316   7.598  -6.076  1.00  0.00     0.014 A 
ATOM     40  C   UNL     1       5.023   6.108  -6.648  1.00  0.00     0.010 A 
ATOM     41  C   UNL     1       7.417   6.424  -6.828  1.00  0.00     0.010 A 
ATOM     42  C   UNL     1       6.278   5.643  -7.077  1.00  0.00    -0.014 A 
BRANCH  42  43
ATOM     43  C   UNL     1       6.371   4.335  -7.777  1.00  0.00     0.031 A 
ATOM     44  C   UNL     1       7.095   3.175  -7.148  1.00  0.00     0.074 A 
ATOM     45  C   UNL     1       5.739   4.175  -8.956  1.00  0.00     0.049 A 
ATOM     46  N   UNL     1       7.230   1.953  -7.597  1.00  0.00    -0.248 NA
ATOM     47  C   UNL     1       7.749   3.411  -5.851  1.00  0.00     0.031 C 
ATOM     48  C   UNL     1       4.979   5.219  -9.646  1.00  0.00     0.029 A 
ATOM     49  N   UNL     1       5.600   3.073  -9.761  1.00  0.00    -0.354 N 
ATOM     50  C   UNL     1       7.989   1.279  -6.647  1.00  0.00     0.074 A 
ATOM     51  C   UNL     1       8.316   2.236  -5.613  1.00  0.00     0.031 C 
ATOM     52  C   UNL     1       4.398   4.691 -10.732  1.00  0.00     0.029 A 
ATOM     53  C   UNL     1       4.801   3.293 -10.858  1.00  0.00     0.049 A 
ATOM     54  H   UNL     1       6.031   2.209  -9.572  1.00  0.00     0.167 HD
ATOM     55  C   UNL     1       8.366  -0.022  -6.632  1.00  0.00     0.031 A 
ATOM     56  C   UNL     1       4.431   2.470 -11.860  1.00  0.00     0.031 A 
ATOM     57  C   UNL     1       8.037  -0.969  -7.666  1.00  0.00     0.049 A 
ATOM     58  C   UNL     1       4.913   1.050 -11.857  1.00  0.00     0.074 A 
ATOM     59  C   UNL     1       8.374  -2.309  -7.737  1.00  0.00     0.029 A 
ATOM     60  N   UNL     1       7.299  -0.681  -8.805  1.00  0.00    -0.354 N 
ATOM     61  N   UNL     1       5.636   0.434 -10.953  1.00  0.00    -0.248 NA
ATOM     62  C   UNL     1       4.539   0.214 -13.005  1.00  0.00     0.031 C 
ATOM     63  C   UNL     1       7.893  -2.816  -8.946  1.00  0.00     0.029 A 
ATOM     64  C   UNL     1       7.193  -1.812  -9.597  1.00  0.00     0.049 A 
ATOM     65  H   UNL     1       6.908   0.197  -9.018  1.00  0.00     0.167 HD
ATOM     66  C   UNL     1       5.802  -0.864 -11.420  1.00  0.00     0.074 A 
ATOM     67  C   UNL     1       5.086  -0.951 -12.677  1.00  0.00     0.031 C 
ATOM     68  C   UNL     1       6.490  -1.886 -10.855  1.00  0.00     0.031 A 
BRANCH  55  69
ATOM     69  C   UNL     1       9.186  -0.508  -5.464  1.00  0.00    -0.014 A 
ATOM     70  C   UNL     1      10.525  -0.893  -5.660  1.00  0.00     0.010 A 
ATOM     71  C   UNL     1       8.609  -0.667  -4.191  1.00  0.00     0.010 A 
ATOM     72  C   UNL     1      11.270  -1.437  -4.610  1.00  0.00     0.020 A 
ATOM     73  C   UNL     1       9.359  -1.185  -3.131  1.00  0.00     0.020 A 
ATOM     74  C   UNL     1      10.680  -1.583  -3.352  1.00  0.00     0.054 A 
BRANCH  74  75
ATOM     75  S   UNL     1      11.665  -2.273  -1.992  1.00  0.00     0.124 S 
ATOM     76  O   UNL     1      11.634  -3.702  -2.284  1.00  0.00    -0.237 OA
ATOM     77  O   UNL     1      12.959  -1.617  -2.169  1.00  0.00    -0.237 OA
ATOM     78  O   UNL     1      10.928  -1.860  -0.799  1.00  0.00    -0.744 OA
ENDBRANCH  74  75
ENDBRANCH  55  69
BRANCH  56  79
ATOM     79  C   UNL     1       3.530   2.998 -12.920  1.00  0.00    -0.014 A 
ATOM     80  C   UNL     1       3.982   3.996 -13.805  1.00  0.00     0.010 A 
ATOM     81  C   UNL     1       2.179   2.611 -12.957  1.00  0.00     0.010 A 
ATOM     82  C   UNL     1       3.084   4.655 -14.648  1.00  0.00     0.020 A 
ATOM     83  C   UNL     1       1.284   3.247 -13.823  1.00  0.00     0.020 A 
ATOM     84  C   UNL     1       1.736   4.292 -14.633  1.00  0.00     0.054 A 
BRANCH  84  85
ATOM     85  S   UNL     1       0.569   5.233 -15.655  1.00  0.00     0.124 S 
ATOM     86  O   UNL     1       0.429   6.466 -14.886  1.00  0.00    -0.237 OA
ATOM     87  O   UNL     1       1.284   5.358 -16.923  1.00  0.00    -0.237 OA
ATOM     88  O   UNL     1      -0.617   4.381 -15.692  1.00  0.00    -0.744 OA
ENDBRANCH  84  85
ENDBRANCH  56  79
BRANCH  68  89
ATOM     89  C   UNL     1       6.530  -3.203 -11.585  1.00  0.00    -0.014 A 
ATOM     90  C   UNL     1       5.875  -4.323 -11.040  1.00  0.00     0.010 A 
ATOM     91  C   UNL     1       7.330  -3.365 -12.729  1.00  0.00     0.010 A 
ATOM     92  C   UNL     1       6.051  -5.589 -11.602  1.00  0.00     0.020 A 
ATOM     93  C   UNL     1       7.486  -4.627 -13.311  1.00  0.00     0.020 A 
ATOM     94  C   UNL     1       6.867  -5.735 -12.726  1.00  0.00     0.054 A 
BRANCH  94  95
ATOM     95  S   UNL     1       7.122  -7.394 -13.414  1.00  0.00     0.124 S 
ATOM     96  O   UNL     1       8.069  -7.976 -12.468  1.00  0.00    -0.237 OA
ATOM     97  O   UNL     1       5.776  -7.963 -13.388  1.00  0.00    -0.237 OA
ATOM     98  O   UNL     1       7.652  -7.132 -14.750  1.00  0.00    -0.744 OA
ENDBRANCH  94  95
ENDBRANCH  68  89
ENDBRANCH  42  43
ENDBRANCH  34  37
ENDBRANCH  32  33
ENDBRANCH  31  32
ENDBRANCH   1  31
TORSDOF 18
