REMARK SMILES Cc1nc[nH]c1C(=O)N1CCC2(CC1)C[C@@H](C(=O)NCCCCCCNC(=O)c1ccc(-c3c4nc(c(-c5ccc(S(=O)(=O)[O-])cc5)c5ccc([nH]5)c(-c5ccc(S(=O)(=O)[O-])cc5)c5nc(c(-c6ccc(S(=O)(=O)[O-])cc6)c6ccc3[nH]6)C=C5)C=C4)cc1)N(C(=O)C1CC1)C2
REMARK SMILES IDX 23 1 22 2 21 3 20 4 19 5 17 6 18 7 16 9 7 10 8 11 9 12 10 13
REMARK SMILES IDX 14 14 11 15 13 16 12 17 15 18 95 19 89 20 6 21 1 22 2 23
REMARK SMILES IDX 3 24 4 25 5 26 90 28 91 29 92 30 93 31 94 32 24 33 25 34
REMARK SMILES IDX 26 35 27 36 28 38 29 39 30 40 88 41 31 42 87 43 32 44 33 45
REMARK SMILES IDX 34 46 81 47 35 48 86 49 80 50 82 51 36 52 85 53 79 54 78 55
REMARK SMILES IDX 37 57 67 58 48 59 66 60 49 61 52 62 65 63 83 64 50 65 51 66
REMARK SMILES IDX 64 68 84 69 53 70 38 71 39 72 47 73 40 74 46 75 41 76 42 77
REMARK SMILES IDX 43 78 44 79 45 80 68 81 69 82 77 83 70 84 76 85 71 86 72 87
REMARK SMILES IDX 73 88 74 89 75 90 54 91 55 92 63 93 56 94 62 95 57 96 58 97
REMARK SMILES IDX 59 98 60 99 61 100
REMARK H PARENT 19 8 5 27 26 37 82 56 52 67
REMARK Flexibility Score: inf
ROOT
ATOM      1  C   UNL     1       5.745  -2.041   4.860  1.00  0.00     0.002 C 
ENDROOT
BRANCH   1   2
ATOM      2  C   UNL     1       6.815  -3.057   4.427  1.00  0.00     0.002 C 
BRANCH   2   3
ATOM      3  C   UNL     1       6.645  -3.657   3.031  1.00  0.00     0.021 C 
BRANCH   3   4
ATOM      4  C   UNL     1       6.575  -2.627   1.916  1.00  0.00     0.116 C 
BRANCH   4   5
ATOM      5  N   UNL     1       7.775  -2.393   1.162  1.00  0.00    -0.354 N 
ATOM      6  C   UNL     1       7.894  -2.268  -0.198  1.00  0.00     0.242 C 
ATOM      7  O   UNL     1       8.790  -1.514  -0.599  1.00  0.00    -0.273 OA
ATOM      8  H   UNL     1       8.607  -2.312   1.682  1.00  0.00     0.163 HD
BRANCH   6   9
ATOM      9  C   UNL     1       6.881  -2.887  -1.217  1.00  0.00     0.175 C 
ATOM     10  C   UNL     1       0.162  -2.340  -0.440  1.00  0.00     0.272 C 
ATOM     11  O   UNL     1      -0.628  -3.232  -0.743  1.00  0.00    -0.267 OA
ATOM     12  N   UNL     1       1.530  -2.552  -0.537  1.00  0.00    -0.337 N 
ATOM     13  C   UNL     1       2.023  -3.436  -1.578  1.00  0.00     0.120 C 
ATOM     14  C   UNL     1       2.430  -2.333   0.580  1.00  0.00     0.120 C 
ATOM     15  C   UNL     1       3.329  -2.867  -2.151  1.00  0.00     0.030 C 
ATOM     16  C   UNL     1       3.784  -1.848   0.081  1.00  0.00     0.030 C 
ATOM     17  C   UNL     1       4.409  -2.716  -1.045  1.00  0.00    -0.006 C 
ATOM     18  C   UNL     1       5.684  -2.004  -1.568  1.00  0.00     0.044 C 
ATOM     19  C   UNL     1       4.886  -4.133  -0.646  1.00  0.00     0.127 C 
ATOM     20  N   UNL     1       6.321  -4.186  -0.866  1.00  0.00    -0.330 N 
BRANCH  10  21
ATOM     21  C   UNL     1      -0.308  -1.020  -0.081  1.00  0.00     0.127 A 
ATOM     22  C   UNL     1       1.595   0.740  -0.425  1.00  0.00     0.069 C 
ATOM     23  C   UNL     1       0.242   0.257  -0.084  1.00  0.00     0.068 A 
ATOM     24  N   UNL     1      -0.709   1.202   0.229  1.00  0.00    -0.241 NA
ATOM     25  C   UNL     1      -1.829   0.541   0.384  1.00  0.00     0.197 A 
ATOM     26  N   UNL     1      -1.637  -0.796   0.227  1.00  0.00    -0.340 N 
ATOM     27  H   UNL     1      -2.329  -1.490   0.318  1.00  0.00     0.168 HD
ENDBRANCH  10  21
BRANCH  20  28
ATOM     28  C   UNL     1       7.140  -5.297  -1.022  1.00  0.00     0.226 C 
ATOM     29  O   UNL     1       8.267  -5.186  -1.493  1.00  0.00    -0.275 OA
BRANCH  28  30
ATOM     30  C   UNL     1       6.738  -6.670  -0.609  1.00  0.00     0.079 C 
ATOM     31  C   UNL     1       5.499  -7.148   0.086  1.00  0.00     0.014 C 
ATOM     32  C   UNL     1       5.691  -7.441  -1.377  1.00  0.00     0.014 C 
ENDBRANCH  28  30
ENDBRANCH  20  28
ENDBRANCH   6   9
ENDBRANCH   4   5
ENDBRANCH   3   4
ENDBRANCH   2   3
ENDBRANCH   1   2
BRANCH   1  33
ATOM     33  C   UNL     1       4.293  -2.530   4.834  1.00  0.00     0.021 C 
BRANCH  33  34
ATOM     34  C   UNL     1       4.007  -3.769   5.679  1.00  0.00     0.116 C 
BRANCH  34  35
ATOM     35  N   UNL     1       4.427  -3.603   7.061  1.00  0.00    -0.352 N 
ATOM     36  C   UNL     1       3.720  -3.765   8.226  1.00  0.00     0.251 C 
ATOM     37  H   UNL     1       5.366  -3.333   7.180  1.00  0.00     0.163 HD
ATOM     38  O   UNL     1       4.204  -3.384   9.288  1.00  0.00    -0.269 OA
BRANCH  36  39
ATOM     39  C   UNL     1       2.378  -4.385   8.202  1.00  0.00     0.039 A 
ATOM     40  C   UNL     1       1.365  -3.835   8.992  1.00  0.00     0.014 A 
ATOM     41  C   UNL     1       2.126  -5.519   7.426  1.00  0.00     0.014 A 
ATOM     42  C   UNL     1       0.084  -4.391   8.959  1.00  0.00     0.010 A 
ATOM     43  C   UNL     1       0.832  -6.023   7.335  1.00  0.00     0.010 A 
ATOM     44  C   UNL     1      -0.201  -5.469   8.105  1.00  0.00    -0.014 A 
BRANCH  44  45
ATOM     45  C   UNL     1      -1.570  -6.035   8.007  1.00  0.00     0.031 A 
ATOM     46  C   UNL     1      -1.836  -7.455   8.426  1.00  0.00     0.074 A 
ATOM     47  C   UNL     1      -2.563  -5.286   7.486  1.00  0.00     0.049 A 
ATOM     48  N   UNL     1      -2.953  -8.136   8.374  1.00  0.00    -0.248 NA
ATOM     49  C   UNL     1      -0.691  -8.218   8.949  1.00  0.00     0.031 C 
ATOM     50  C   UNL     1      -2.426  -3.904   7.020  1.00  0.00     0.029 A 
ATOM     51  N   UNL     1      -3.884  -5.582   7.264  1.00  0.00    -0.354 N 
ATOM     52  C   UNL     1      -2.643  -9.407   8.845  1.00  0.00     0.074 A 
ATOM     53  C   UNL     1      -1.222  -9.420   9.118  1.00  0.00     0.031 C 
ATOM     54  C   UNL     1      -3.624  -3.460   6.608  1.00  0.00     0.029 A 
ATOM     55  C   UNL     1      -4.601  -4.537   6.733  1.00  0.00     0.049 A 
ATOM     56  H   UNL     1      -4.280  -6.461   7.465  1.00  0.00     0.167 HD
ATOM     57  C   UNL     1      -3.468 -10.461   9.054  1.00  0.00     0.031 A 
ATOM     58  C   UNL     1      -5.900  -4.453   6.386  1.00  0.00     0.031 A 
ATOM     59  C   UNL     1      -4.880 -10.445   8.773  1.00  0.00     0.049 A 
ATOM     60  C   UNL     1      -6.788  -5.651   6.581  1.00  0.00     0.074 A 
ATOM     61  C   UNL     1      -5.812 -11.445   8.984  1.00  0.00     0.029 A 
ATOM     62  N   UNL     1      -5.562  -9.375   8.212  1.00  0.00    -0.354 N 
ATOM     63  N   UNL     1      -6.490  -6.826   7.082  1.00  0.00    -0.248 NA
ATOM     64  C   UNL     1      -8.191  -5.507   6.170  1.00  0.00     0.031 C 
ATOM     65  C   UNL     1      -7.046 -11.002   8.495  1.00  0.00     0.029 A 
ATOM     66  C   UNL     1      -6.897  -9.701   8.041  1.00  0.00     0.049 A 
ATOM     67  H   UNL     1      -5.157  -8.511   7.970  1.00  0.00     0.167 HD
ATOM     68  C   UNL     1      -7.676  -7.551   7.077  1.00  0.00     0.074 A 
ATOM     69  C   UNL     1      -8.697  -6.677   6.534  1.00  0.00     0.031 C 
ATOM     70  C   UNL     1      -7.902  -8.823   7.492  1.00  0.00     0.031 A 
BRANCH  57  71
ATOM     71  C   UNL     1      -2.848 -11.725   9.596  1.00  0.00    -0.014 A 
ATOM     72  C   UNL     1      -2.313 -11.775  10.897  1.00  0.00     0.010 A 
ATOM     73  C   UNL     1      -2.798 -12.881   8.795  1.00  0.00     0.010 A 
ATOM     74  C   UNL     1      -1.679 -12.931  11.360  1.00  0.00     0.020 A 
ATOM     75  C   UNL     1      -2.196 -14.051   9.268  1.00  0.00     0.020 A 
ATOM     76  C   UNL     1      -1.617 -14.059  10.538  1.00  0.00     0.054 A 
BRANCH  76  77
ATOM     77  S   UNL     1      -0.770 -15.539  11.156  1.00  0.00     0.124 S 
ATOM     78  O   UNL     1       0.631 -15.127  11.101  1.00  0.00    -0.237 OA
ATOM     79  O   UNL     1      -1.327 -15.690  12.498  1.00  0.00    -0.237 OA
ATOM     80  O   UNL     1      -1.150 -16.580  10.205  1.00  0.00    -0.744 OA
ENDBRANCH  76  77
ENDBRANCH  57  71
BRANCH  58  81
ATOM     81  C   UNL     1      -6.444  -3.176   5.850  1.00  0.00    -0.014 A 
ATOM     82  C   UNL     1      -7.332  -2.405   6.621  1.00  0.00     0.010 A 
ATOM     83  C   UNL     1      -6.061  -2.711   4.579  1.00  0.00     0.010 A 
ATOM     84  C   UNL     1      -7.836  -1.199   6.127  1.00  0.00     0.020 A 
ATOM     85  C   UNL     1      -6.540  -1.492   4.093  1.00  0.00     0.020 A 
ATOM     86  C   UNL     1      -7.432  -0.747   4.868  1.00  0.00     0.054 A 
BRANCH  86  87
ATOM     87  S   UNL     1      -8.052   0.850   4.271  1.00  0.00     0.124 S 
ATOM     88  O   UNL     1      -9.450   0.546   3.987  1.00  0.00    -0.237 OA
ATOM     89  O   UNL     1      -7.811   1.726   5.415  1.00  0.00    -0.237 OA
ATOM     90  O   UNL     1      -7.218   1.121   3.101  1.00  0.00    -0.744 OA
ENDBRANCH  86  87
ENDBRANCH  58  81
BRANCH  70  91
ATOM     91  C   UNL     1      -9.315  -9.338   7.409  1.00  0.00    -0.014 A 
ATOM     92  C   UNL     1      -9.918  -9.628   6.172  1.00  0.00     0.010 A 
ATOM     93  C   UNL     1     -10.032  -9.583   8.594  1.00  0.00     0.010 A 
ATOM     94  C   UNL     1     -11.224 -10.123   6.122  1.00  0.00     0.020 A 
ATOM     95  C   UNL     1     -11.326 -10.108   8.550  1.00  0.00     0.020 A 
ATOM     96  C   UNL     1     -11.919 -10.362   7.312  1.00  0.00     0.054 A 
BRANCH  96  97
ATOM     97  S   UNL     1     -13.595 -11.049   7.219  1.00  0.00     0.124 S 
ATOM     98  O   UNL     1     -14.364  -9.909   6.727  1.00  0.00    -0.237 OA
ATOM     99  O   UNL     1     -13.435 -12.154   6.277  1.00  0.00    -0.237 OA
ATOM    100  O   UNL     1     -13.883 -11.447   8.595  1.00  0.00    -0.744 OA
ENDBRANCH  96  97
ENDBRANCH  70  91
ENDBRANCH  44  45
ENDBRANCH  36  39
ENDBRANCH  34  35
ENDBRANCH  33  34
ENDBRANCH   1  33
TORSDOF 19
