REMARK SMILES O=C(NCCCCCCNC(=O)[C@@H]1CCCC[C@@H]1NS(=O)(=O)c1ccc2ccccc2c1)c1ccc(-c2c3nc(c(-c4ccc(S(=O)(=O)[O-])cc4)c4ccc([nH]4)c(-c4ccc(S(=O)(=O)[O-])cc4)c4nc(c(-c5ccc(S(=O)(=O)[O-])cc5)c5ccc2[nH]5)C=C4)C=C3)cc1
REMARK SMILES IDX 6 1 5 2 4 3 3 4 1 5 2 6 33 8 34 9 92 10 35 11 91 12 36 13
REMARK SMILES IDX 37 14 38 15 85 16 39 17 90 18 84 19 86 20 40 21 89 22 83 23
REMARK SMILES IDX 82 24 41 26 71 27 52 28 70 29 53 30 56 31 69 32 87 33 54 34
REMARK SMILES IDX 55 35 68 37 88 38 57 39 42 40 43 41 51 42 44 43 50 44 45 45
REMARK SMILES IDX 46 46 47 47 48 48 49 49 72 50 73 51 81 52 74 53 80 54 75 55
REMARK SMILES IDX 76 56 77 57 78 58 79 59 58 60 59 61 67 62 60 63 66 64 61 65
REMARK SMILES IDX 62 66 63 67 64 68 65 69 7 70 8 71 9 72 10 73 11 74 12 76
REMARK SMILES IDX 13 77 14 78 18 79 15 80 17 81 16 82 19 83 20 85 21 86 22 87
REMARK SMILES IDX 23 88 24 89 32 90 25 91 31 92 26 93 30 94 27 95 29 96 28 97
REMARK H PARENT 3 7 86 25 56 36 10 75 19 84
REMARK Flexibility Score: inf
ROOT
ATOM      1  C   UNL     1       3.919   3.604   1.666  1.00  0.00     0.002 C 
ENDROOT
BRANCH   1   2
ATOM      2  C   UNL     1       4.359   2.859   0.402  1.00  0.00     0.021 C 
BRANCH   2   3
ATOM      3  C   UNL     1       4.253   1.341   0.496  1.00  0.00     0.116 C 
BRANCH   3   4
ATOM      4  N   UNL     1       2.873   0.908   0.605  1.00  0.00    -0.352 N 
ATOM      5  O   UNL     1       1.004  -0.163  -0.051  1.00  0.00    -0.269 OA
ATOM      6  C   UNL     1       2.225  -0.067  -0.110  1.00  0.00     0.251 C 
ATOM      7  H   UNL     1       2.329   1.376   1.280  1.00  0.00     0.163 HD
BRANCH   6   8
ATOM      8  C   UNL     1       3.006  -0.997  -0.954  1.00  0.00     0.039 A 
ATOM      9  C   UNL     1       4.155  -1.620  -0.456  1.00  0.00     0.014 A 
ATOM     10  C   UNL     1       2.545  -1.292  -2.240  1.00  0.00     0.014 A 
ATOM     11  C   UNL     1       4.874  -2.497  -1.264  1.00  0.00     0.010 A 
ATOM     12  C   UNL     1       3.240  -2.209  -3.032  1.00  0.00     0.010 A 
ATOM     13  C   UNL     1       4.406  -2.820  -2.547  1.00  0.00    -0.014 A 
BRANCH  13  14
ATOM     14  C   UNL     1       5.063  -3.904  -3.315  1.00  0.00     0.031 A 
ATOM     15  C   UNL     1       5.843  -3.617  -4.564  1.00  0.00     0.074 A 
ATOM     16  C   UNL     1       4.916  -5.169  -2.875  1.00  0.00     0.049 A 
ATOM     17  N   UNL     1       6.458  -4.459  -5.354  1.00  0.00    -0.248 NA
ATOM     18  C   UNL     1       5.945  -2.211  -4.987  1.00  0.00     0.031 C 
ATOM     19  C   UNL     1       4.152  -5.565  -1.687  1.00  0.00     0.029 A 
ATOM     20  N   UNL     1       5.393  -6.354  -3.372  1.00  0.00    -0.354 N 
ATOM     21  C   UNL     1       7.004  -3.694  -6.377  1.00  0.00     0.074 A 
ATOM     22  C   UNL     1       6.642  -2.317  -6.113  1.00  0.00     0.031 C 
ATOM     23  C   UNL     1       4.224  -6.896  -1.541  1.00  0.00     0.029 A 
ATOM     24  C   UNL     1       4.996  -7.452  -2.646  1.00  0.00     0.049 A 
ATOM     25  H   UNL     1       5.964  -6.414  -4.172  1.00  0.00     0.167 HD
ATOM     26  C   UNL     1       7.739  -4.108  -7.436  1.00  0.00     0.031 A 
ATOM     27  C   UNL     1       5.204  -8.764  -2.858  1.00  0.00     0.031 A 
ATOM     28  C   UNL     1       8.101  -5.479  -7.685  1.00  0.00     0.049 A 
ATOM     29  C   UNL     1       5.999  -9.191  -4.056  1.00  0.00     0.074 A 
ATOM     30  C   UNL     1       8.914  -5.984  -8.685  1.00  0.00     0.029 A 
ATOM     31  N   UNL     1       7.662  -6.562  -6.941  1.00  0.00    -0.354 N 
ATOM     32  N   UNL     1       6.575  -8.444  -4.966  1.00  0.00    -0.248 NA
ATOM     33  C   UNL     1       6.164 -10.636  -4.261  1.00  0.00     0.031 C 
ATOM     34  C   UNL     1       8.926  -7.379  -8.575  1.00  0.00     0.029 A 
ATOM     35  C   UNL     1       8.152  -7.738  -7.484  1.00  0.00     0.049 A 
ATOM     36  H   UNL     1       7.087  -6.505  -6.144  1.00  0.00     0.167 HD
ATOM     37  C   UNL     1       7.168  -9.328  -5.856  1.00  0.00     0.074 A 
ATOM     38  C   UNL     1       6.905 -10.664  -5.361  1.00  0.00     0.031 C 
ATOM     39  C   UNL     1       7.862  -9.058  -6.988  1.00  0.00     0.031 A 
BRANCH  26  40
ATOM     40  C   UNL     1       8.195  -3.075  -8.428  1.00  0.00    -0.014 A 
ATOM     41  C   UNL     1       9.294  -2.242  -8.152  1.00  0.00     0.010 A 
ATOM     42  C   UNL     1       7.580  -3.004  -9.691  1.00  0.00     0.010 A 
ATOM     43  C   UNL     1       9.761  -1.347  -9.119  1.00  0.00     0.020 A 
ATOM     44  C   UNL     1       8.053  -2.121 -10.666  1.00  0.00     0.020 A 
ATOM     45  C   UNL     1       9.138  -1.292 -10.370  1.00  0.00     0.054 A 
BRANCH  45  46
ATOM     46  S   UNL     1       9.800  -0.162 -11.626  1.00  0.00     0.124 S 
ATOM     47  O   UNL     1       9.321   1.133 -11.147  1.00  0.00    -0.237 OA
ATOM     48  O   UNL     1      11.241  -0.373 -11.523  1.00  0.00    -0.237 OA
ATOM     49  O   UNL     1       9.192  -0.630 -12.869  1.00  0.00    -0.744 OA
ENDBRANCH  45  46
ENDBRANCH  26  40
BRANCH  27  50
ATOM     50  C   UNL     1       4.605  -9.764  -1.938  1.00  0.00    -0.014 A 
ATOM     51  C   UNL     1       5.409 -10.482  -1.037  1.00  0.00     0.010 A 
ATOM     52  C   UNL     1       3.216  -9.986  -1.949  1.00  0.00     0.010 A 
ATOM     53  C   UNL     1       4.834 -11.418  -0.172  1.00  0.00     0.020 A 
ATOM     54  C   UNL     1       2.636 -10.904  -1.071  1.00  0.00     0.020 A 
ATOM     55  C   UNL     1       3.451 -11.625  -0.197  1.00  0.00     0.054 A 
BRANCH  55  56
ATOM     56  S   UNL     1       2.711 -12.806   0.964  1.00  0.00     0.124 S 
ATOM     57  O   UNL     1       2.929 -14.077   0.281  1.00  0.00    -0.237 OA
ATOM     58  O   UNL     1       3.496 -12.598   2.179  1.00  0.00    -0.237 OA
ATOM     59  O   UNL     1       1.320 -12.367   1.050  1.00  0.00    -0.744 OA
ENDBRANCH  55  56
ENDBRANCH  27  50
BRANCH  39  60
ATOM     60  C   UNL     1       8.371 -10.233  -7.771  1.00  0.00    -0.014 A 
ATOM     61  C   UNL     1       7.499 -10.986  -8.576  1.00  0.00     0.010 A 
ATOM     62  C   UNL     1       9.736 -10.565  -7.732  1.00  0.00     0.010 A 
ATOM     63  C   UNL     1       7.981 -12.068  -9.316  1.00  0.00     0.020 A 
ATOM     64  C   UNL     1      10.225 -11.635  -8.486  1.00  0.00     0.020 A 
ATOM     65  C   UNL     1       9.341 -12.388  -9.263  1.00  0.00     0.054 A 
BRANCH  65  66
ATOM     66  S   UNL     1       9.955 -13.769 -10.266  1.00  0.00     0.124 S 
ATOM     67  O   UNL     1       9.559 -14.924  -9.465  1.00  0.00    -0.237 OA
ATOM     68  O   UNL     1       9.236 -13.601 -11.526  1.00  0.00    -0.237 OA
ATOM     69  O   UNL     1      11.394 -13.525 -10.340  1.00  0.00    -0.744 OA
ENDBRANCH  65  66
ENDBRANCH  39  60
ENDBRANCH  13  14
ENDBRANCH   6   8
ENDBRANCH   3   4
ENDBRANCH   2   3
ENDBRANCH   1   2
BRANCH   1  70
ATOM     70  C   UNL     1       4.684   3.229   2.940  1.00  0.00     0.002 C 
BRANCH  70  71
ATOM     71  C   UNL     1       6.211   3.317   2.825  1.00  0.00     0.021 C 
BRANCH  71  72
ATOM     72  C   UNL     1       6.714   4.719   2.491  1.00  0.00     0.116 C 
BRANCH  72  73
ATOM     73  N   UNL     1       6.561   5.597   3.637  1.00  0.00    -0.356 N 
ATOM     74  C   UNL     1       7.507   6.164   4.440  1.00  0.00     0.224 C 
ATOM     75  H   UNL     1       5.631   5.817   3.871  1.00  0.00     0.163 HD
ATOM     76  O   UNL     1       7.121   6.909   5.342  1.00  0.00    -0.275 OA
BRANCH  74  77
ATOM     77  C   UNL     1       8.980   5.976   4.101  1.00  0.00     0.096 C 
ATOM     78  C   UNL     1       9.555   4.560   4.193  1.00  0.00     0.015 C 
ATOM     79  C   UNL     1       9.881   7.024   4.765  1.00  0.00     0.082 C 
ATOM     80  C   UNL     1      10.923   4.512   3.518  1.00  0.00     0.001 C 
ATOM     81  C   UNL     1      11.329   6.926   4.269  1.00  0.00     0.021 C 
ATOM     82  C   UNL     1      11.890   5.511   4.139  1.00  0.00     0.002 C 
BRANCH  79  83
ATOM     83  N   UNL     1       9.748   7.280   6.222  1.00  0.00    -0.207 NA
ATOM     84  H   UNL     1       8.813   7.676   6.319  1.00  0.00     0.141 HD
BRANCH  83  85
ATOM     85  S   UNL     1       9.884   6.235   7.526  1.00  0.00     0.240 S 
ATOM     86  O   UNL     1       9.565   7.025   8.698  1.00  0.00    -0.207 OA
ATOM     87  O   UNL     1       9.169   5.015   7.244  1.00  0.00    -0.207 OA
BRANCH  85  88
ATOM     88  C   UNL     1      11.615   5.888   7.633  1.00  0.00     0.083 A 
ATOM     89  C   UNL     1      12.057   4.566   7.706  1.00  0.00     0.022 A 
ATOM     90  C   UNL     1      12.520   6.944   7.507  1.00  0.00     0.030 A 
ATOM     91  C   UNL     1      13.419   4.295   7.558  1.00  0.00     0.010 A 
ATOM     92  C   UNL     1      13.880   6.677   7.314  1.00  0.00    -0.017 A 
ATOM     93  C   UNL     1      14.334   5.336   7.318  1.00  0.00    -0.018 A 
ATOM     94  C   UNL     1      14.785   7.715   7.053  1.00  0.00     0.009 A 
ATOM     95  C   UNL     1      15.684   5.075   7.039  1.00  0.00     0.009 A 
ATOM     96  C   UNL     1      16.121   7.436   6.767  1.00  0.00     0.001 A 
ATOM     97  C   UNL     1      16.568   6.118   6.755  1.00  0.00     0.001 A 
ENDBRANCH  85  88
ENDBRANCH  83  85
ENDBRANCH  79  83
ENDBRANCH  74  77
ENDBRANCH  72  73
ENDBRANCH  71  72
ENDBRANCH  70  71
ENDBRANCH   1  70
TORSDOF 19
