REMARK SMILES Cc1ccc(Cl)c(NC(=O)C[N@@H+]2CCC[C@H]2C(=O)NCCCCCCNC(=O)c2ccc(-c3c4nc(c(-c5ccc(S(=O)(=O)[O-])cc5)c5ccc([nH]5)c(-c5ccc(S(=O)(=O)[O-])cc5)c5nc(c(-c6ccc(S(=O)(=O)[O-])cc6)c6ccc3[nH]6)C=C5)C=C4)cc2)c1Cl
REMARK SMILES IDX 22 1 21 2 20 3 19 4 17 5 18 6 16 8 12 9 13 10 14 12 15 13
REMARK SMILES IDX 11 14 9 15 8 16 10 18 7 19 1 20 2 21 3 22 89 23 4 24 90 25
REMARK SMILES IDX 5 26 6 27 23 28 24 29 25 30 26 31 27 32 28 34 29 35 30 36
REMARK SMILES IDX 88 37 31 38 87 39 32 40 33 41 34 42 81 43 35 44 86 45 80 46
REMARK SMILES IDX 82 47 36 48 85 49 79 50 78 51 37 53 67 54 48 55 66 56 49 57
REMARK SMILES IDX 52 58 65 59 83 60 50 61 51 62 64 64 84 65 53 66 38 67 39 68
REMARK SMILES IDX 47 69 40 70 46 71 41 72 42 73 43 74 44 75 45 76 68 77 69 78
REMARK SMILES IDX 77 79 70 80 76 81 71 82 72 83 73 84 74 85 75 86 54 87 55 88
REMARK SMILES IDX 63 89 56 90 62 91 57 92 58 93 59 94 60 95 61 96
REMARK H PARENT 19 7 12 11 8 17 26 33 82 52 52 63
REMARK Flexibility Score: inf
ROOT
ATOM      1  C   UNL     1      -3.005  -0.842  -3.363  1.00  0.00     0.002 C 
ENDROOT
BRANCH   1   2
ATOM      2  C   UNL     1      -1.971  -1.022  -2.252  1.00  0.00     0.021 C 
BRANCH   2   3
ATOM      3  C   UNL     1      -0.647  -1.641  -2.683  1.00  0.00     0.116 C 
BRANCH   3   4
ATOM      4  N   UNL     1       0.211  -0.699  -3.372  1.00  0.00    -0.351 N 
ATOM      5  C   UNL     1       1.455  -0.254  -3.009  1.00  0.00     0.278 C 
ATOM      6  O   UNL     1       2.055   0.467  -3.811  1.00  0.00    -0.268 OA
ATOM      7  H   UNL     1      -0.147  -0.330  -4.211  1.00  0.00     0.163 HD
BRANCH   5   8
ATOM      8  C   UNL     1       2.000  -0.561  -1.588  1.00  0.00     0.274 C 
ATOM      9  N   UNL     1       2.219  -2.019  -1.384  1.00  0.00    -0.317 N 
ATOM     10  C   UNL     1       3.595  -2.222  -1.887  1.00  0.00     0.263 C 
ATOM     11  H   UNL     1       1.505  -2.577  -1.853  1.00  0.00     0.349 HD
ATOM     12  C   UNL     1       4.383  -1.035  -1.364  1.00  0.00     0.068 C 
ATOM     13  C   UNL     1       3.368   0.100  -1.340  1.00  0.00     0.081 C 
BRANCH   9  14
ATOM     14  C   UNL     1       2.154  -2.415   0.056  1.00  0.00     0.364 C 
BRANCH  14  15
ATOM     15  C   UNL     1       0.744  -2.682   0.594  1.00  0.00     0.279 C 
ATOM     16  N   UNL     1      -0.084  -1.782   1.202  1.00  0.00    -0.319 N 
ATOM     17  H   UNL     1      -0.849  -2.211   1.649  1.00  0.00     0.170 HD
ATOM     18  O   UNL     1       0.251  -3.812   0.442  1.00  0.00    -0.268 OA
BRANCH  16  19
ATOM     19  C   UNL     1      -0.093  -0.373   1.337  1.00  0.00     0.079 A 
ATOM     20  C   UNL     1       2.155   2.738   1.190  1.00  0.00     0.046 C 
ATOM     21  C   UNL     1       0.949   1.836   1.237  1.00  0.00    -0.030 A 
ATOM     22  C   UNL     1      -0.281   2.388   0.849  1.00  0.00     0.006 A 
ATOM     23  C   UNL     1       1.016   0.460   1.554  1.00  0.00     0.069 A 
ATOM     24  C   UNL     1      -1.435   1.616   0.875  1.00  0.00     0.023 A 
ATOM     25  Cl  UNL     1       2.371  -0.123   2.466  1.00  0.00    -0.082 Cl
ATOM     26  C   UNL     1      -1.343   0.251   1.143  1.00  0.00     0.066 A 
ATOM     27  Cl  UNL     1      -2.820  -0.657   1.173  1.00  0.00    -0.082 Cl
ENDBRANCH  16  19
ENDBRANCH  14  15
ENDBRANCH   9  14
ENDBRANCH   5   8
ENDBRANCH   3   4
ENDBRANCH   2   3
ENDBRANCH   1   2
BRANCH   1  28
ATOM     28  C   UNL     1      -3.412  -2.129  -4.087  1.00  0.00     0.002 C 
BRANCH  28  29
ATOM     29  C   UNL     1      -3.904  -3.271  -3.189  1.00  0.00     0.021 C 
BRANCH  29  30
ATOM     30  C   UNL     1      -5.120  -2.938  -2.326  1.00  0.00     0.116 C 
BRANCH  30  31
ATOM     31  N   UNL     1      -6.272  -2.566  -3.132  1.00  0.00    -0.352 N 
ATOM     32  C   UNL     1      -7.480  -3.199  -3.293  1.00  0.00     0.251 C 
ATOM     33  H   UNL     1      -6.170  -1.730  -3.642  1.00  0.00     0.163 HD
ATOM     34  O   UNL     1      -8.230  -2.853  -4.200  1.00  0.00    -0.269 OA
BRANCH  32  35
ATOM     35  C   UNL     1      -7.880  -4.295  -2.383  1.00  0.00     0.039 A 
ATOM     36  C   UNL     1      -8.489  -5.432  -2.920  1.00  0.00     0.014 A 
ATOM     37  C   UNL     1      -7.698  -4.186  -1.001  1.00  0.00     0.014 A 
ATOM     38  C   UNL     1      -8.866  -6.483  -2.078  1.00  0.00     0.010 A 
ATOM     39  C   UNL     1      -8.012  -5.260  -0.172  1.00  0.00     0.010 A 
ATOM     40  C   UNL     1      -8.605  -6.417  -0.700  1.00  0.00    -0.014 A 
BRANCH  40  41
ATOM     41  C   UNL     1      -8.938  -7.550   0.202  1.00  0.00     0.031 A 
ATOM     42  C   UNL     1      -9.960  -7.382   1.293  1.00  0.00     0.074 A 
ATOM     43  C   UNL     1      -8.259  -8.709   0.090  1.00  0.00     0.049 A 
ATOM     44  N   UNL     1     -10.338  -8.236   2.210  1.00  0.00    -0.248 NA
ATOM     45  C   UNL     1     -10.626  -6.073   1.382  1.00  0.00     0.031 C 
ATOM     46  C   UNL     1      -7.203  -8.979  -0.888  1.00  0.00     0.029 A 
ATOM     47  N   UNL     1      -8.344  -9.870   0.817  1.00  0.00    -0.354 N 
ATOM     48  C   UNL     1     -11.264  -7.563   2.998  1.00  0.00     0.074 A 
ATOM     49  C   UNL     1     -11.357  -6.216   2.477  1.00  0.00     0.031 C 
ATOM     50  C   UNL     1      -6.745 -10.227  -0.706  1.00  0.00     0.029 A 
ATOM     51  C   UNL     1      -7.447 -10.834   0.421  1.00  0.00     0.049 A 
ATOM     52  H   UNL     1      -8.986 -10.001   1.552  1.00  0.00     0.167 HD
ATOM     53  C   UNL     1     -11.981  -8.026   4.051  1.00  0.00     0.031 A 
ATOM     54  C   UNL     1      -7.204 -12.064   0.915  1.00  0.00     0.031 A 
ATOM     55  C   UNL     1     -11.886  -9.368   4.563  1.00  0.00     0.049 A 
ATOM     56  C   UNL     1      -8.022 -12.567   2.071  1.00  0.00     0.074 A 
ATOM     57  C   UNL     1     -12.622  -9.956   5.577  1.00  0.00     0.029 A 
ATOM     58  N   UNL     1     -10.993 -10.327   4.109  1.00  0.00    -0.354 N 
ATOM     59  N   UNL     1      -8.960 -11.946   2.746  1.00  0.00    -0.248 NA
ATOM     60  C   UNL     1      -7.763 -13.941   2.520  1.00  0.00     0.031 C 
ATOM     61  C   UNL     1     -12.136 -11.254   5.773  1.00  0.00     0.029 A 
ATOM     62  C   UNL     1     -11.138 -11.495   4.841  1.00  0.00     0.049 A 
ATOM     63  H   UNL     1     -10.350 -10.198   3.375  1.00  0.00     0.167 HD
ATOM     64  C   UNL     1      -9.415 -12.860   3.690  1.00  0.00     0.074 A 
ATOM     65  C   UNL     1      -8.662 -14.081   3.485  1.00  0.00     0.031 C 
ATOM     66  C   UNL     1     -10.373 -12.700   4.637  1.00  0.00     0.031 A 
BRANCH  53  67
ATOM     67  C   UNL     1     -12.914  -7.056   4.731  1.00  0.00    -0.014 A 
ATOM     68  C   UNL     1     -14.066  -6.572   4.082  1.00  0.00     0.010 A 
ATOM     69  C   UNL     1     -12.637  -6.622   6.040  1.00  0.00     0.010 A 
ATOM     70  C   UNL     1     -14.884  -5.624   4.703  1.00  0.00     0.020 A 
ATOM     71  C   UNL     1     -13.470  -5.698   6.678  1.00  0.00     0.020 A 
ATOM     72  C   UNL     1     -14.574  -5.184   5.994  1.00  0.00     0.054 A 
BRANCH  72  73
ATOM     73  S   UNL     1     -15.640  -3.938   6.769  1.00  0.00     0.124 S 
ATOM     74  O   UNL     1     -15.252  -2.725   6.054  1.00  0.00    -0.237 OA
ATOM     75  O   UNL     1     -16.982  -4.436   6.479  1.00  0.00    -0.237 OA
ATOM     76  O   UNL     1     -15.254  -3.980   8.178  1.00  0.00    -0.744 OA
ENDBRANCH  72  73
ENDBRANCH  53  67
BRANCH  54  77
ATOM     77  C   UNL     1      -6.140 -12.899   0.296  1.00  0.00    -0.014 A 
ATOM     78  C   UNL     1      -6.471 -13.996  -0.518  1.00  0.00     0.010 A 
ATOM     79  C   UNL     1      -4.785 -12.560   0.469  1.00  0.00     0.010 A 
ATOM     80  C   UNL     1      -5.468 -14.738  -1.148  1.00  0.00     0.020 A 
ATOM     81  C   UNL     1      -3.780 -13.284  -0.180  1.00  0.00     0.020 A 
ATOM     82  C   UNL     1      -4.129 -14.372  -0.982  1.00  0.00     0.054 A 
BRANCH  82  83
ATOM     83  S   UNL     1      -2.851 -15.294  -1.883  1.00  0.00     0.124 S 
ATOM     84  O   UNL     1      -2.800 -16.549  -1.140  1.00  0.00    -0.237 OA
ATOM     85  O   UNL     1      -3.413 -15.378  -3.229  1.00  0.00    -0.237 OA
ATOM     86  O   UNL     1      -1.668 -14.445  -1.763  1.00  0.00    -0.744 OA
ENDBRANCH  82  83
ENDBRANCH  54  77
BRANCH  66  87
ATOM     87  C   UNL     1     -10.679 -13.883   5.518  1.00  0.00    -0.014 A 
ATOM     88  C   UNL     1      -9.783 -14.298   6.519  1.00  0.00     0.010 A 
ATOM     89  C   UNL     1     -11.909 -14.552   5.379  1.00  0.00     0.010 A 
ATOM     90  C   UNL     1     -10.100 -15.380   7.346  1.00  0.00     0.020 A 
ATOM     91  C   UNL     1     -12.240 -15.617   6.221  1.00  0.00     0.020 A 
ATOM     92  C   UNL     1     -11.327 -16.033   7.191  1.00  0.00     0.054 A 
BRANCH  92  93
ATOM     93  S   UNL     1     -11.734 -17.404   8.306  1.00  0.00     0.124 S 
ATOM     94  O   UNL     1     -10.883 -18.475   7.795  1.00  0.00    -0.237 OA
ATOM     95  O   UNL     1     -11.361 -16.876   9.616  1.00  0.00    -0.237 OA
ATOM     96  O   UNL     1     -13.168 -17.599   8.106  1.00  0.00    -0.744 OA
ENDBRANCH  92  93
ENDBRANCH  66  87
ENDBRANCH  40  41
ENDBRANCH  32  35
ENDBRANCH  30  31
ENDBRANCH  29  30
ENDBRANCH  28  29
ENDBRANCH   1  28
TORSDOF 19
