REMARK SMILES Cc1ccc(Cl)c(Nc2ccccc2C(=O)NCCCCCCNC(=O)c2ccc(-c3c4nc(c(-c5ccc(S(=O)(=O)[O-])cc5)c5ccc([nH]5)c(-c5ccc(S(=O)(=O)[O-])cc5)c5nc(c(-c6ccc(S(=O)(=O)[O-])cc6)c6ccc3[nH]6)C=C5)C=C4)cc2)c1Cl
REMARK SMILES IDX 21 1 20 2 19 3 18 4 17 5 15 6 16 7 14 9 9 10 10 11 11 12
REMARK SMILES IDX 13 13 12 14 8 15 7 17 1 18 2 19 3 20 87 21 4 22 88 23 5 24
REMARK SMILES IDX 6 25 22 26 23 27 24 28 25 29 26 31 27 32 28 33 86 34 29 35
REMARK SMILES IDX 85 36 30 37 31 38 32 39 79 40 33 41 84 42 78 43 80 44 34 45
REMARK SMILES IDX 83 46 77 47 76 48 35 50 65 51 46 52 64 53 47 54 50 55 63 56
REMARK SMILES IDX 81 57 48 58 49 59 62 61 82 62 51 63 36 64 37 65 45 66 38 67
REMARK SMILES IDX 44 68 39 69 40 70 41 71 42 72 43 73 66 74 67 75 75 76 68 77
REMARK SMILES IDX 74 78 69 79 70 80 71 81 72 82 73 83 52 84 53 85 61 86 54 87
REMARK SMILES IDX 60 88 55 89 56 90 57 91 58 92 59 93
REMARK H PARENT 17 8 8 16 24 30 80 49 50 60
REMARK Flexibility Score: inf
ROOT
ATOM      1  C   UNL     1      -2.402   1.329   2.261  1.00  0.00     0.002 C 
ENDROOT
BRANCH   1   2
ATOM      2  C   UNL     1      -2.493   0.069   3.131  1.00  0.00     0.002 C 
BRANCH   2   3
ATOM      3  C   UNL     1      -2.382  -1.299   2.442  1.00  0.00     0.021 C 
BRANCH   3   4
ATOM      4  C   UNL     1      -1.200  -1.513   1.499  1.00  0.00     0.116 C 
BRANCH   4   5
ATOM      5  N   UNL     1       0.093  -1.439   2.135  1.00  0.00    -0.352 N 
ATOM      6  C   UNL     1       1.280  -2.054   1.819  1.00  0.00     0.253 C 
ATOM      7  O   UNL     1       2.259  -1.770   2.516  1.00  0.00    -0.269 OA
ATOM      8  H   UNL     1       0.132  -0.851   2.924  1.00  0.00     0.163 HD
BRANCH   6   9
ATOM      9  C   UNL     1       1.424  -3.120   0.780  1.00  0.00     0.063 A 
ATOM     10  C   UNL     1       0.932  -3.121  -0.542  1.00  0.00     0.051 A 
ATOM     11  C   UNL     1       1.156  -4.277  -1.331  1.00  0.00     0.027 A 
ATOM     12  C   UNL     1       1.898  -5.364  -0.870  1.00  0.00     0.002 A 
ATOM     13  C   UNL     1       2.193  -4.225   1.221  1.00  0.00     0.016 A 
ATOM     14  C   UNL     1       2.437  -5.329   0.404  1.00  0.00     0.001 A 
BRANCH  10  15
ATOM     15  N   UNL     1       0.333  -2.054  -1.238  1.00  0.00    -0.352 N 
ATOM     16  H   UNL     1      -0.381  -2.352  -1.846  1.00  0.00     0.167 HD
BRANCH  15  17
ATOM     17  C   UNL     1       0.520  -0.650  -1.267  1.00  0.00     0.077 A 
ATOM     18  C   UNL     1       2.883   2.162  -0.143  1.00  0.00     0.046 C 
ATOM     19  C   UNL     1       1.680   1.431  -0.675  1.00  0.00    -0.030 A 
ATOM     20  C   UNL     1       0.541   2.169  -1.026  1.00  0.00     0.006 A 
ATOM     21  C   UNL     1       1.681   0.028  -0.844  1.00  0.00     0.069 A 
ATOM     22  C   UNL     1      -0.575   1.531  -1.554  1.00  0.00     0.023 A 
ATOM     23  Cl  UNL     1       3.198  -0.812  -0.692  1.00  0.00    -0.082 Cl
ATOM     24  C   UNL     1      -0.583   0.143  -1.670  1.00  0.00     0.066 A 
ATOM     25  Cl  UNL     1      -2.025  -0.604  -2.288  1.00  0.00    -0.082 Cl
ENDBRANCH  15  17
ENDBRANCH  10  15
ENDBRANCH   6   9
ENDBRANCH   4   5
ENDBRANCH   3   4
ENDBRANCH   2   3
ENDBRANCH   1   2
BRANCH   1  26
ATOM     26  C   UNL     1      -3.266   1.377   1.000  1.00  0.00     0.021 C 
BRANCH  26  27
ATOM     27  C   UNL     1      -4.765   1.167   1.178  1.00  0.00     0.116 C 
BRANCH  27  28
ATOM     28  N   UNL     1      -5.412   2.250   1.895  1.00  0.00    -0.352 N 
ATOM     29  C   UNL     1      -6.484   3.031   1.541  1.00  0.00     0.251 C 
ATOM     30  H   UNL     1      -5.020   2.457   2.775  1.00  0.00     0.163 HD
ATOM     31  O   UNL     1      -6.786   3.988   2.258  1.00  0.00    -0.269 OA
BRANCH  29  32
ATOM     32  C   UNL     1      -7.268   2.769   0.308  1.00  0.00     0.039 A 
ATOM     33  C   UNL     1      -7.712   3.862  -0.448  1.00  0.00     0.014 A 
ATOM     34  C   UNL     1      -7.619   1.476  -0.090  1.00  0.00     0.014 A 
ATOM     35  C   UNL     1      -8.452   3.659  -1.618  1.00  0.00     0.010 A 
ATOM     36  C   UNL     1      -8.301   1.271  -1.292  1.00  0.00     0.010 A 
ATOM     37  C   UNL     1      -8.732   2.359  -2.066  1.00  0.00    -0.014 A 
BRANCH  37  38
ATOM     38  C   UNL     1      -9.488   2.119  -3.326  1.00  0.00     0.031 A 
ATOM     39  C   UNL     1     -10.841   1.458  -3.285  1.00  0.00     0.074 A 
ATOM     40  C   UNL     1      -8.936   2.434  -4.514  1.00  0.00     0.049 A 
ATOM     41  N   UNL     1     -11.613   1.093  -4.278  1.00  0.00    -0.248 NA
ATOM     42  C   UNL     1     -11.387   1.144  -1.955  1.00  0.00     0.031 C 
ATOM     43  C   UNL     1      -7.620   3.048  -4.702  1.00  0.00     0.029 A 
ATOM     44  N   UNL     1      -9.409   2.268  -5.793  1.00  0.00    -0.354 N 
ATOM     45  C   UNL     1     -12.719   0.483  -3.696  1.00  0.00     0.074 A 
ATOM     46  C   UNL     1     -12.501   0.497  -2.265  1.00  0.00     0.031 C 
ATOM     47  C   UNL     1      -7.398   3.218  -6.015  1.00  0.00     0.029 A 
ATOM     48  C   UNL     1      -8.536   2.695  -6.766  1.00  0.00     0.049 A 
ATOM     49  H   UNL     1     -10.291   1.880  -5.995  1.00  0.00     0.167 HD
ATOM     50  C   UNL     1     -13.822  -0.030  -4.293  1.00  0.00     0.031 A 
ATOM     51  C   UNL     1      -8.630   2.661  -8.110  1.00  0.00     0.031 A 
ATOM     52  C   UNL     1     -14.051  -0.025  -5.713  1.00  0.00     0.049 A 
ATOM     53  C   UNL     1      -9.866   2.097  -8.752  1.00  0.00     0.074 A 
ATOM     54  C   UNL     1     -15.167  -0.464  -6.406  1.00  0.00     0.029 A 
ATOM     55  N   UNL     1     -13.151   0.440  -6.660  1.00  0.00    -0.354 N 
ATOM     56  N   UNL     1     -10.926   1.579  -8.180  1.00  0.00    -0.248 NA
ATOM     57  C   UNL     1      -9.924   2.122 -10.221  1.00  0.00     0.031 C 
ATOM     58  C   UNL     1     -14.924  -0.302  -7.774  1.00  0.00     0.029 A 
ATOM     59  C   UNL     1     -13.677   0.281  -7.931  1.00  0.00     0.049 A 
ATOM     60  H   UNL     1     -12.269   0.827  -6.457  1.00  0.00     0.167 HD
ATOM     61  C   UNL     1     -11.786   1.236  -9.218  1.00  0.00     0.074 A 
ATOM     62  C   UNL     1     -11.128   1.615 -10.451  1.00  0.00     0.031 C 
ATOM     63  C   UNL     1     -13.012   0.661  -9.152  1.00  0.00     0.031 A 
BRANCH  50  64
ATOM     64  C   UNL     1     -14.863  -0.656  -3.403  1.00  0.00    -0.014 A 
ATOM     65  C   UNL     1     -15.674   0.132  -2.566  1.00  0.00     0.010 A 
ATOM     66  C   UNL     1     -15.050  -2.050  -3.422  1.00  0.00     0.010 A 
ATOM     67  C   UNL     1     -16.616  -0.467  -1.725  1.00  0.00     0.020 A 
ATOM     68  C   UNL     1     -16.010  -2.651  -2.602  1.00  0.00     0.020 A 
ATOM     69  C   UNL     1     -16.771  -1.857  -1.742  1.00  0.00     0.054 A 
BRANCH  69  70
ATOM     70  S   UNL     1     -18.000  -2.611  -0.641  1.00  0.00     0.124 S 
ATOM     71  O   UNL     1     -17.323  -2.544   0.652  1.00  0.00    -0.237 OA
ATOM     72  O   UNL     1     -19.154  -1.729  -0.792  1.00  0.00    -0.237 OA
ATOM     73  O   UNL     1     -18.172  -3.956  -1.185  1.00  0.00    -0.744 OA
ENDBRANCH  69  70
ENDBRANCH  50  64
BRANCH  51  74
ATOM     74  C   UNL     1      -7.514   3.194  -8.938  1.00  0.00    -0.014 A 
ATOM     75  C   UNL     1      -7.646   4.425  -9.602  1.00  0.00     0.010 A 
ATOM     76  C   UNL     1      -6.301   2.488  -9.036  1.00  0.00     0.010 A 
ATOM     77  C   UNL     1      -6.587   4.941 -10.354  1.00  0.00     0.020 A 
ATOM     78  C   UNL     1      -5.232   3.011  -9.768  1.00  0.00     0.020 A 
ATOM     79  C   UNL     1      -5.384   4.232 -10.429  1.00  0.00     0.054 A 
BRANCH  79  80
ATOM     80  S   UNL     1      -3.994   4.957 -11.344  1.00  0.00     0.124 S 
ATOM     81  O   UNL     1      -4.384   4.714 -12.729  1.00  0.00    -0.237 OA
ATOM     82  O   UNL     1      -4.024   6.352 -10.913  1.00  0.00    -0.237 OA
ATOM     83  O   UNL     1      -2.841   4.192 -10.872  1.00  0.00    -0.744 OA
ENDBRANCH  79  80
ENDBRANCH  51  74
BRANCH  63  84
ATOM     84  C   UNL     1     -13.741   0.427 -10.447  1.00  0.00    -0.014 A 
ATOM     85  C   UNL     1     -13.368  -0.616 -11.313  1.00  0.00     0.010 A 
ATOM     86  C   UNL     1     -14.857   1.221 -10.769  1.00  0.00     0.010 A 
ATOM     87  C   UNL     1     -14.086  -0.847 -12.489  1.00  0.00     0.020 A 
ATOM     88  C   UNL     1     -15.591   0.979 -11.933  1.00  0.00     0.020 A 
ATOM     89  C   UNL     1     -15.194  -0.048 -12.792  1.00  0.00     0.054 A 
BRANCH  89  90
ATOM     90  S   UNL     1     -16.144  -0.403 -14.296  1.00  0.00     0.124 S 
ATOM     91  O   UNL     1     -15.279   0.144 -15.338  1.00  0.00    -0.237 OA
ATOM     92  O   UNL     1     -16.255  -1.859 -14.272  1.00  0.00    -0.237 OA
ATOM     93  O   UNL     1     -17.400   0.315 -14.088  1.00  0.00    -0.744 OA
ENDBRANCH  89  90
ENDBRANCH  63  84
ENDBRANCH  37  38
ENDBRANCH  29  32
ENDBRANCH  27  28
ENDBRANCH  26  27
ENDBRANCH   1  26
TORSDOF 18
