REMARK SMILES CSc1nc(O)nc(C)c1C(=O)N1C[C@@H](O)C[C@@H]1C(=O)NCCCCCCNC(=O)c1ccc(-c2c3nc(c(-c4ccc(S(=O)(=O)[O-])cc4)c4ccc([nH]4)c(-c4ccc(S(=O)(=O)[O-])cc4)c4nc(c(-c5ccc(S(=O)(=O)[O-])cc5)c5ccc2[nH]5)C=C4)C=C3)cc1
REMARK SMILES IDX 24 1 23 2 22 3 21 4 19 5 20 6 18 8 13 9 14 10 15 11 17 12
REMARK SMILES IDX 11 13 12 14 10 15 3 16 4 17 5 18 8 19 7 20 9 21 2 22 1 23
REMARK SMILES IDX 6 24 16 26 25 28 26 29 27 30 28 31 29 32 30 34 31 35 32 36
REMARK SMILES IDX 90 37 33 38 89 39 34 40 35 41 36 42 83 43 37 44 88 45 82 46
REMARK SMILES IDX 84 47 38 48 87 49 81 50 80 51 39 53 69 54 50 55 68 56 51 57
REMARK SMILES IDX 54 58 67 59 85 60 52 61 53 62 66 64 86 65 55 66 40 67 41 68
REMARK SMILES IDX 49 69 42 70 48 71 43 72 44 73 45 74 46 75 47 76 70 77 71 78
REMARK SMILES IDX 79 79 72 80 78 81 73 82 74 83 75 84 76 85 77 86 56 87 57 88
REMARK SMILES IDX 65 89 58 90 64 91 59 92 60 93 61 94 62 95 63 96
REMARK H PARENT 21 7 6 25 16 27 28 33 84 52 54 63
REMARK Flexibility Score: inf
ROOT
ATOM      1  C   UNL     1       3.376  -5.264   3.072  1.00  0.00     0.002 C 
ENDROOT
BRANCH   1   2
ATOM      2  C   UNL     1       2.007  -4.660   2.754  1.00  0.00     0.021 C 
BRANCH   2   3
ATOM      3  C   UNL     1       1.010  -4.638   3.915  1.00  0.00     0.116 C 
BRANCH   3   4
ATOM      4  N   UNL     1       1.050  -3.352   4.583  1.00  0.00    -0.354 N 
ATOM      5  C   UNL     1       0.232  -2.263   4.518  1.00  0.00     0.242 C 
ATOM      6  O   UNL     1       0.612  -1.272   5.155  1.00  0.00    -0.273 OA
ATOM      7  H   UNL     1       1.810  -3.245   5.200  1.00  0.00     0.163 HD
BRANCH   5   8
ATOM      8  C   UNL     1      -1.142  -2.276   3.782  1.00  0.00     0.177 C 
ATOM      9  N   UNL     1      -1.087  -2.319   2.303  1.00  0.00    -0.324 N 
ATOM     10  C   UNL     1      -1.838  -1.201   1.748  1.00  0.00     0.152 C 
ATOM     11  C   UNL     1      -1.742  -0.134   2.825  1.00  0.00     0.136 C 
ATOM     12  C   UNL     1      -1.927  -0.976   4.086  1.00  0.00     0.069 C 
BRANCH   9  13
ATOM     13  C   UNL     1      -1.074  -3.516   1.620  1.00  0.00     0.259 C 
ATOM     14  O   UNL     1      -1.758  -4.444   2.042  1.00  0.00    -0.269 OA
BRANCH  13  15
ATOM     15  C   UNL     1      -0.160  -3.698   0.436  1.00  0.00     0.093 A 
ATOM     16  C   UNL     1       0.845  -2.808   0.022  1.00  0.00     0.116 A 
ATOM     17  N   UNL     1       1.725  -3.093  -0.968  1.00  0.00    -0.188 NA
ATOM     18  C   UNL     1       1.624  -4.291  -1.519  1.00  0.00     0.315 A 
ATOM     19  C   UNL     1      -0.154  -4.931  -0.242  1.00  0.00     0.058 A 
ATOM     20  N   UNL     1       0.748  -5.235  -1.212  1.00  0.00    -0.200 NA
ATOM     21  C   UNL     1      -1.038  -6.099   0.107  1.00  0.00     0.068 C 
BRANCH  16  22
ATOM     22  S   UNL     1       1.302  -1.268   0.820  1.00  0.00    -0.109 SA
ATOM     23  C   UNL     1       1.222  -0.156  -0.604  1.00  0.00     0.092 C 
ENDBRANCH  16  22
BRANCH  18  24
ATOM     24  O   UNL     1       2.568  -4.657  -2.420  1.00  0.00    -0.479 OA
ATOM     25  H   UNL     1       3.223  -4.043  -2.687  1.00  0.00     0.297 HD
ENDBRANCH  18  24
ENDBRANCH  13  15
ENDBRANCH   9  13
BRANCH  11  26
ATOM     26  O   UNL     1      -2.728   0.876   2.696  1.00  0.00    -0.391 OA
ATOM     27  H   UNL     1      -3.609   0.470   2.708  1.00  0.00     0.211 HD
ENDBRANCH  11  26
ENDBRANCH   5   8
ENDBRANCH   3   4
ENDBRANCH   2   3
ENDBRANCH   1   2
BRANCH   1  28
ATOM     28  C   UNL     1       3.384  -6.787   3.243  1.00  0.00     0.002 C 
BRANCH  28  29
ATOM     29  C   UNL     1       2.759  -7.596   2.098  1.00  0.00     0.021 C 
BRANCH  29  30
ATOM     30  C   UNL     1       3.386  -7.370   0.722  1.00  0.00     0.116 C 
BRANCH  30  31
ATOM     31  N   UNL     1       4.735  -7.909   0.657  1.00  0.00    -0.352 N 
ATOM     32  C   UNL     1       5.200  -9.006  -0.020  1.00  0.00     0.251 C 
ATOM     33  H   UNL     1       5.412  -7.415   1.174  1.00  0.00     0.163 HD
ATOM     34  O   UNL     1       6.309  -9.471   0.251  1.00  0.00    -0.269 OA
BRANCH  32  35
ATOM     35  C   UNL     1       4.381  -9.636  -1.078  1.00  0.00     0.039 A 
ATOM     36  C   UNL     1       4.245 -11.027  -1.099  1.00  0.00     0.014 A 
ATOM     37  C   UNL     1       3.803  -8.858  -2.087  1.00  0.00     0.014 A 
ATOM     38  C   UNL     1       3.497 -11.638  -2.110  1.00  0.00     0.010 A 
ATOM     39  C   UNL     1       3.024  -9.465  -3.071  1.00  0.00     0.010 A 
ATOM     40  C   UNL     1       2.872 -10.860  -3.096  1.00  0.00    -0.014 A 
BRANCH  40  41
ATOM     41  C   UNL     1       2.096 -11.485  -4.196  1.00  0.00     0.031 A 
ATOM     42  C   UNL     1       2.645 -11.477  -5.595  1.00  0.00     0.074 A 
ATOM     43  C   UNL     1       0.888 -12.026  -3.951  1.00  0.00     0.049 A 
ATOM     44  N   UNL     1       2.080 -11.880  -6.704  1.00  0.00    -0.248 NA
ATOM     45  C   UNL     1       4.003 -10.937  -5.768  1.00  0.00     0.031 C 
ATOM     46  C   UNL     1       0.254 -12.118  -2.636  1.00  0.00     0.029 A 
ATOM     47  N   UNL     1      -0.022 -12.598  -4.804  1.00  0.00    -0.354 N 
ATOM     48  C   UNL     1       3.013 -11.648  -7.706  1.00  0.00     0.074 A 
ATOM     49  C   UNL     1       4.161 -11.025  -7.081  1.00  0.00     0.031 C 
ATOM     50  C   UNL     1      -0.936 -12.727  -2.768  1.00  0.00     0.029 A 
ATOM     51  C   UNL     1      -1.165 -13.033  -4.179  1.00  0.00     0.049 A 
ATOM     52  H   UNL     1       0.130 -12.688  -5.773  1.00  0.00     0.167 HD
ATOM     53  C   UNL     1       2.931 -11.942  -9.025  1.00  0.00     0.031 A 
ATOM     54  C   UNL     1      -2.277 -13.605  -4.681  1.00  0.00     0.031 A 
ATOM     55  C   UNL     1       1.787 -12.547  -9.652  1.00  0.00     0.049 A 
ATOM     56  C   UNL     1      -2.381 -13.861  -6.157  1.00  0.00     0.074 A 
ATOM     57  C   UNL     1       1.604 -12.864 -10.986  1.00  0.00     0.029 A 
ATOM     58  N   UNL     1       0.634 -12.935  -8.986  1.00  0.00    -0.354 N 
ATOM     59  N   UNL     1      -1.506 -13.597  -7.097  1.00  0.00    -0.248 NA
ATOM     60  C   UNL     1      -3.617 -14.491  -6.640  1.00  0.00     0.031 C 
ATOM     61  C   UNL     1       0.326 -13.413 -11.133  1.00  0.00     0.029 A 
ATOM     62  C   UNL     1      -0.267 -13.485  -9.883  1.00  0.00     0.049 A 
ATOM     63  H   UNL     1       0.478 -12.834  -8.019  1.00  0.00     0.167 HD
ATOM     64  C   UNL     1      -2.074 -14.052  -8.282  1.00  0.00     0.074 A 
ATOM     65  C   UNL     1      -3.369 -14.604  -7.940  1.00  0.00     0.031 C 
ATOM     66  C   UNL     1      -1.558 -14.024  -9.535  1.00  0.00     0.031 A 
BRANCH  53  67
ATOM     67  C   UNL     1       4.123 -11.608  -9.880  1.00  0.00    -0.014 A 
ATOM     68  C   UNL     1       5.302 -12.370  -9.793  1.00  0.00     0.010 A 
ATOM     69  C   UNL     1       4.058 -10.544 -10.796  1.00  0.00     0.010 A 
ATOM     70  C   UNL     1       6.409 -12.051 -10.583  1.00  0.00     0.020 A 
ATOM     71  C   UNL     1       5.155 -10.237 -11.607  1.00  0.00     0.020 A 
ATOM     72  C   UNL     1       6.327 -10.986 -11.486  1.00  0.00     0.054 A 
BRANCH  72  73
ATOM     73  S   UNL     1       7.784 -10.599 -12.495  1.00  0.00     0.124 S 
ATOM     74  O   UNL     1       8.776 -10.255 -11.479  1.00  0.00    -0.237 OA
ATOM     75  O   UNL     1       8.018 -11.854 -13.203  1.00  0.00    -0.237 OA
ATOM     76  O   UNL     1       7.343  -9.484 -13.330  1.00  0.00    -0.744 OA
ENDBRANCH  72  73
ENDBRANCH  53  67
BRANCH  54  77
ATOM     77  C   UNL     1      -3.363 -14.001  -3.746  1.00  0.00    -0.014 A 
ATOM     78  C   UNL     1      -3.495 -15.342  -3.348  1.00  0.00     0.010 A 
ATOM     79  C   UNL     1      -4.198 -13.026  -3.169  1.00  0.00     0.010 A 
ATOM     80  C   UNL     1      -4.422 -15.698  -2.366  1.00  0.00     0.020 A 
ATOM     81  C   UNL     1      -5.115 -13.377  -2.175  1.00  0.00     0.020 A 
ATOM     82  C   UNL     1      -5.211 -14.710  -1.770  1.00  0.00     0.054 A 
BRANCH  82  83
ATOM     83  S   UNL     1      -6.321 -15.187  -0.416  1.00  0.00     0.124 S 
ATOM     84  O   UNL     1      -7.201 -16.156  -1.062  1.00  0.00    -0.237 OA
ATOM     85  O   UNL     1      -5.387 -15.735   0.565  1.00  0.00    -0.237 OA
ATOM     86  O   UNL     1      -6.955 -13.928  -0.030  1.00  0.00    -0.744 OA
ENDBRANCH  82  83
ENDBRANCH  54  77
BRANCH  66  87
ATOM     87  C   UNL     1      -2.371 -14.630 -10.646  1.00  0.00    -0.014 A 
ATOM     88  C   UNL     1      -3.465 -13.946 -11.202  1.00  0.00     0.010 A 
ATOM     89  C   UNL     1      -1.967 -15.855 -11.207  1.00  0.00     0.010 A 
ATOM     90  C   UNL     1      -4.146 -14.482 -12.299  1.00  0.00     0.020 A 
ATOM     91  C   UNL     1      -2.633 -16.384 -12.316  1.00  0.00     0.020 A 
ATOM     92  C   UNL     1      -3.720 -15.693 -12.854  1.00  0.00     0.054 A 
BRANCH  92  93
ATOM     93  S   UNL     1      -4.591 -16.333 -14.311  1.00  0.00     0.124 S 
ATOM     94  O   UNL     1      -5.945 -16.530 -13.798  1.00  0.00    -0.237 OA
ATOM     95  O   UNL     1      -4.435 -15.245 -15.273  1.00  0.00    -0.237 OA
ATOM     96  O   UNL     1      -3.869 -17.560 -14.639  1.00  0.00    -0.744 OA
ENDBRANCH  92  93
ENDBRANCH  66  87
ENDBRANCH  40  41
ENDBRANCH  32  35
ENDBRANCH  30  31
ENDBRANCH  29  30
ENDBRANCH  28  29
ENDBRANCH   1  28
TORSDOF 21
