REMARK SMILES CC(C)(C)OC(=O)N[C@@H](C(=O)NCCCCCCNC(=O)c1ccc(-c2c3nc(c(-c4ccc(S(=O)(=O)[O-])cc4)c4ccc([nH]4)c(-c4ccc(S(=O)(=O)[O-])cc4)c4nc(c(-c5ccc(S(=O)(=O)[O-])cc5)c5ccc2[nH]5)C=C4)C=C3)cc1)[C@H](O)c1ccccc1F
REMARK SMILES IDX 15 1 14 2 13 3 12 4 10 5 11 6 9 8 8 9 6 10 7 11 5 13 2 14
REMARK SMILES IDX 1 15 3 16 4 17 82 18 84 19 85 20 89 21 86 22 88 23 90 24
REMARK SMILES IDX 87 25 83 26 16 28 17 29 18 30 19 31 20 32 21 34 22 35 23 36
REMARK SMILES IDX 81 37 24 38 80 39 25 40 26 41 27 42 74 43 28 44 79 45 73 46
REMARK SMILES IDX 75 47 29 48 78 49 72 50 71 51 30 53 60 54 41 55 59 56 42 57
REMARK SMILES IDX 45 58 58 59 76 60 43 61 44 62 57 64 77 65 46 66 31 67 32 68
REMARK SMILES IDX 40 69 33 70 39 71 34 72 35 73 36 74 37 75 38 76 61 77 62 78
REMARK SMILES IDX 70 79 63 80 69 81 64 82 65 83 66 84 67 85 68 86 47 87 48 88
REMARK SMILES IDX 56 89 49 90 55 91 50 92 51 93 52 94 53 95 54 96
REMARK H PARENT 12 7 8 12 83 27 19 33 75 52 45 63
REMARK Flexibility Score: inf
ROOT
ATOM      1  C   UNL     1      -4.186  -2.306  -0.886  1.00  0.00     0.002 C 
ENDROOT
BRANCH   1   2
ATOM      2  C   UNL     1      -3.670  -3.622  -1.482  1.00  0.00     0.021 C 
BRANCH   2   3
ATOM      3  C   UNL     1      -2.513  -3.422  -2.461  1.00  0.00     0.116 C 
BRANCH   3   4
ATOM      4  N   UNL     1      -1.308  -3.054  -1.748  1.00  0.00    -0.354 N 
ATOM      5  C   UNL     1      -0.230  -3.828  -1.429  1.00  0.00     0.245 C 
ATOM      6  O   UNL     1       0.593  -3.360  -0.637  1.00  0.00    -0.273 OA
ATOM      7  H   UNL     1      -1.259  -2.116  -1.452  1.00  0.00     0.163 HD
BRANCH   5   8
ATOM      8  C   UNL     1      -0.073  -5.231  -2.051  1.00  0.00     0.208 C 
BRANCH   8   9
ATOM      9  N   UNL     1      -1.125  -6.113  -1.516  1.00  0.00    -0.307 N 
ATOM     10  C   UNL     1      -2.008  -6.859  -2.240  1.00  0.00     0.408 C 
ATOM     11  O   UNL     1      -2.805  -7.601  -1.684  1.00  0.00    -0.225 OA
ATOM     12  H   UNL     1      -1.198  -6.169  -0.536  1.00  0.00     0.168 HD
BRANCH  10  13
ATOM     13  O   UNL     1      -1.921  -6.639  -3.573  1.00  0.00    -0.444 OA
BRANCH  13  14
ATOM     14  C   UNL     1      -2.905  -7.188  -4.493  1.00  0.00     0.106 C 
ATOM     15  C   UNL     1      -2.541  -6.604  -5.869  1.00  0.00     0.056 C 
ATOM     16  C   UNL     1      -4.327  -6.726  -4.146  1.00  0.00     0.056 C 
ATOM     17  C   UNL     1      -2.795  -8.713  -4.561  1.00  0.00     0.056 C 
ENDBRANCH  13  14
ENDBRANCH  10  13
ENDBRANCH   8   9
BRANCH   8  18
ATOM     18  C   UNL     1       1.321  -5.888  -1.802  1.00  0.00     0.179 C 
BRANCH  18  19
ATOM     19  C   UNL     1       2.257  -5.837  -2.987  1.00  0.00     0.019 A 
ATOM     20  C   UNL     1       2.720  -7.035  -3.558  1.00  0.00     0.009 A 
ATOM     21  C   UNL     1       2.672  -4.633  -3.558  1.00  0.00     0.129 A 
ATOM     22  C   UNL     1       3.561  -7.020  -4.673  1.00  0.00     0.001 A 
ATOM     23  C   UNL     1       3.516  -4.610  -4.667  1.00  0.00     0.039 A 
ATOM     24  F   UNL     1       2.241  -3.468  -3.058  1.00  0.00    -0.207 F 
ATOM     25  C   UNL     1       3.960  -5.806  -5.228  1.00  0.00     0.003 A 
ENDBRANCH  18  19
BRANCH  18  26
ATOM     26  O   UNL     1       2.021  -5.493  -0.621  1.00  0.00    -0.386 OA
ATOM     27  H   UNL     1       2.319  -4.575  -0.713  1.00  0.00     0.211 HD
ENDBRANCH  18  26
ENDBRANCH   8  18
ENDBRANCH   5   8
ENDBRANCH   3   4
ENDBRANCH   2   3
ENDBRANCH   1   2
BRANCH   1  28
ATOM     28  C   UNL     1      -4.676  -1.288  -1.922  1.00  0.00     0.002 C 
BRANCH  28  29
ATOM     29  C   UNL     1      -5.772  -1.807  -2.857  1.00  0.00     0.021 C 
BRANCH  29  30
ATOM     30  C   UNL     1      -7.050  -2.237  -2.142  1.00  0.00     0.116 C 
BRANCH  30  31
ATOM     31  N   UNL     1      -7.658  -1.131  -1.420  1.00  0.00    -0.352 N 
ATOM     32  C   UNL     1      -8.925  -0.616  -1.513  1.00  0.00     0.251 C 
ATOM     33  H   UNL     1      -7.072  -0.685  -0.767  1.00  0.00     0.163 HD
ATOM     34  O   UNL     1      -9.178   0.469  -0.996  1.00  0.00    -0.269 OA
BRANCH  32  35
ATOM     35  C   UNL     1      -9.977  -1.355  -2.242  1.00  0.00     0.039 A 
ATOM     36  C   UNL     1     -10.859  -0.638  -3.053  1.00  0.00     0.014 A 
ATOM     37  C   UNL     1     -10.111  -2.741  -2.114  1.00  0.00     0.014 A 
ATOM     38  C   UNL     1     -11.840  -1.318  -3.776  1.00  0.00     0.010 A 
ATOM     39  C   UNL     1     -11.037  -3.426  -2.899  1.00  0.00     0.010 A 
ATOM     40  C   UNL     1     -11.914  -2.722  -3.734  1.00  0.00    -0.014 A 
BRANCH  40  41
ATOM     41  C   UNL     1     -12.883  -3.447  -4.596  1.00  0.00     0.031 A 
ATOM     42  C   UNL     1     -13.986  -4.276  -4.000  1.00  0.00     0.074 A 
ATOM     43  C   UNL     1     -12.740  -3.381  -5.934  1.00  0.00     0.049 A 
ATOM     44  N   UNL     1     -14.948  -4.924  -4.608  1.00  0.00    -0.248 NA
ATOM     45  C   UNL     1     -13.999  -4.418  -2.536  1.00  0.00     0.031 C 
ATOM     46  C   UNL     1     -11.669  -2.666  -6.633  1.00  0.00     0.029 A 
ATOM     47  N   UNL     1     -13.499  -3.913  -6.945  1.00  0.00    -0.354 N 
ATOM     48  C   UNL     1     -15.674  -5.556  -3.605  1.00  0.00     0.074 A 
ATOM     49  C   UNL     1     -15.005  -5.261  -2.356  1.00  0.00     0.031 C 
ATOM     50  C   UNL     1     -11.865  -2.767  -7.956  1.00  0.00     0.029 A 
ATOM     51  C   UNL     1     -13.048  -3.586  -8.201  1.00  0.00     0.049 A 
ATOM     52  H   UNL     1     -14.292  -4.475  -6.786  1.00  0.00     0.167 HD
ATOM     53  C   UNL     1     -16.802  -6.301  -3.712  1.00  0.00     0.031 A 
ATOM     54  C   UNL     1     -13.528  -3.904  -9.419  1.00  0.00     0.031 A 
ATOM     55  C   UNL     1     -17.450  -6.605  -4.963  1.00  0.00     0.049 A 
ATOM     56  C   UNL     1     -14.783  -4.721  -9.517  1.00  0.00     0.074 A 
ATOM     57  C   UNL     1     -18.631  -7.295  -5.175  1.00  0.00     0.029 A 
ATOM     58  N   UNL     1     -16.962  -6.257  -6.215  1.00  0.00    -0.354 N 
ATOM     59  N   UNL     1     -15.513  -5.229  -8.552  1.00  0.00    -0.248 NA
ATOM     60  C   UNL     1     -15.291  -4.990 -10.868  1.00  0.00     0.031 C 
ATOM     61  C   UNL     1     -18.818  -7.427  -6.556  1.00  0.00     0.029 A 
ATOM     62  C   UNL     1     -17.797  -6.752  -7.206  1.00  0.00     0.049 A 
ATOM     63  H   UNL     1     -16.143  -5.735  -6.376  1.00  0.00     0.167 HD
ATOM     64  C   UNL     1     -16.576  -5.869  -9.178  1.00  0.00     0.074 A 
ATOM     65  C   UNL     1     -16.407  -5.656 -10.603  1.00  0.00     0.031 C 
ATOM     66  C   UNL     1     -17.599  -6.568  -8.624  1.00  0.00     0.031 A 
BRANCH  53  67
ATOM     67  C   UNL     1     -17.384  -6.862  -2.436  1.00  0.00    -0.014 A 
ATOM     68  C   UNL     1     -17.917  -6.023  -1.439  1.00  0.00     0.010 A 
ATOM     69  C   UNL     1     -17.402  -8.254  -2.232  1.00  0.00     0.010 A 
ATOM     70  C   UNL     1     -18.391  -6.558  -0.238  1.00  0.00     0.020 A 
ATOM     71  C   UNL     1     -17.908  -8.797  -1.047  1.00  0.00     0.020 A 
ATOM     72  C   UNL     1     -18.375  -7.943  -0.046  1.00  0.00     0.054 A 
BRANCH  72  73
ATOM     73  S   UNL     1     -18.978  -8.610   1.529  1.00  0.00     0.124 S 
ATOM     74  O   UNL     1     -17.915  -8.214   2.450  1.00  0.00    -0.237 OA
ATOM     75  O   UNL     1     -20.251  -7.915   1.705  1.00  0.00    -0.237 OA
ATOM     76  O   UNL     1     -19.084 -10.046   1.282  1.00  0.00    -0.744 OA
ENDBRANCH  72  73
ENDBRANCH  53  67
BRANCH  54  77
ATOM     77  C   UNL     1     -12.813  -3.420 -10.631  1.00  0.00    -0.014 A 
ATOM     78  C   UNL     1     -13.355  -2.397 -11.427  1.00  0.00     0.010 A 
ATOM     79  C   UNL     1     -11.542  -3.935 -10.950  1.00  0.00     0.010 A 
ATOM     80  C   UNL     1     -12.637  -1.893 -12.516  1.00  0.00     0.020 A 
ATOM     81  C   UNL     1     -10.809  -3.413 -12.018  1.00  0.00     0.020 A 
ATOM     82  C   UNL     1     -11.362  -2.395 -12.796  1.00  0.00     0.054 A 
BRANCH  82  83
ATOM     83  S   UNL     1     -10.406  -1.652 -14.146  1.00  0.00     0.124 S 
ATOM     84  O   UNL     1     -11.117  -2.134 -15.326  1.00  0.00    -0.237 OA
ATOM     85  O   UNL     1     -10.531  -0.223 -13.870  1.00  0.00    -0.237 OA
ATOM     86  O   UNL     1      -9.064  -2.200 -13.957  1.00  0.00    -0.744 OA
ENDBRANCH  82  83
ENDBRANCH  54  77
BRANCH  66  87
ATOM     87  C   UNL     1     -18.622  -7.149  -9.569  1.00  0.00    -0.014 A 
ATOM     88  C   UNL     1     -18.294  -8.198 -10.447  1.00  0.00     0.010 A 
ATOM     89  C   UNL     1     -19.934  -6.643  -9.570  1.00  0.00     0.010 A 
ATOM     90  C   UNL     1     -19.242  -8.688 -11.350  1.00  0.00     0.020 A 
ATOM     91  C   UNL     1     -20.896  -7.155 -10.446  1.00  0.00     0.020 A 
ATOM     92  C   UNL     1     -20.536  -8.158 -11.347  1.00  0.00     0.054 A 
BRANCH  92  93
ATOM     93  S   UNL     1     -21.748  -8.809 -12.529  1.00  0.00     0.124 S 
ATOM     94  O   UNL     1     -21.270  -8.252 -13.791  1.00  0.00    -0.237 OA
ATOM     95  O   UNL     1     -21.595 -10.254 -12.381  1.00  0.00    -0.237 OA
ATOM     96  O   UNL     1     -23.020  -8.271 -12.053  1.00  0.00    -0.744 OA
ENDBRANCH  92  93
ENDBRANCH  66  87
ENDBRANCH  40  41
ENDBRANCH  32  35
ENDBRANCH  30  31
ENDBRANCH  29  30
ENDBRANCH  28  29
ENDBRANCH   1  28
TORSDOF 22
