REMARK SMILES O=C(NCCCCCCNC(=O)C1CCN(C2=[NH+]C(Cl)=[NH+]C3=[NH+]C=N[C@@H]32)CC1)c1ccc(-c2c3nc(c(-c4ccc(S(=O)(=O)[O-])cc4)c4ccc([nH]4)c(-c4ccc(S(=O)(=O)[O-])cc4)c4nc(c(-c5ccc(S(=O)(=O)[O-])cc5)c5ccc2[nH]5)C=C4)C=C3)cc1
REMARK SMILES IDX 5 1 4 2 3 3 1 4 2 5 29 7 30 8 88 9 31 10 87 11 32 12 33 13
REMARK SMILES IDX 34 14 81 15 35 16 86 17 80 18 82 19 36 20 85 21 79 22 78 23
REMARK SMILES IDX 37 25 67 26 48 27 66 28 49 29 52 30 65 31 83 32 50 33 51 34
REMARK SMILES IDX 64 36 84 37 53 38 38 39 39 40 47 41 40 42 46 43 41 44 42 45
REMARK SMILES IDX 43 46 44 47 45 48 68 49 69 50 77 51 70 52 76 53 71 54 72 55
REMARK SMILES IDX 73 56 74 57 75 58 54 59 55 60 63 61 56 62 62 63 57 64 58 65
REMARK SMILES IDX 59 66 60 67 61 68 6 69 7 70 8 71 9 72 10 73 11 74 12 76
REMARK SMILES IDX 13 77 14 78 28 79 15 80 27 81 16 82 17 83 18 84 26 85 19 86
REMARK SMILES IDX 22 88 25 89 20 90 21 91 23 92 24 93
REMARK H PARENT 3 6 82 24 52 35 10 75 18 87 21 94 23 95
REMARK Flexibility Score: inf
ROOT
ATOM      1  C   UNL     1       4.739  -2.201  -0.526  1.00  0.00     0.021 C 
ENDROOT
BRANCH   1   2
ATOM      2  C   UNL     1       4.555  -0.699  -0.740  1.00  0.00     0.116 C 
BRANCH   2   3
ATOM      3  N   UNL     1       3.186  -0.301  -0.980  1.00  0.00    -0.352 N 
ATOM      4  O   UNL     1       1.150   0.511  -0.757  1.00  0.00    -0.269 OA
ATOM      5  C   UNL     1       2.135   0.045  -0.178  1.00  0.00     0.251 C 
ATOM      6  H   UNL     1       2.960  -0.272  -1.938  1.00  0.00     0.163 HD
BRANCH   5   7
ATOM      7  C   UNL     1       2.071  -0.169   1.294  1.00  0.00     0.039 A 
ATOM      8  C   UNL     1       3.119  -0.597   2.111  1.00  0.00     0.014 A 
ATOM      9  C   UNL     1       0.803   0.023   1.877  1.00  0.00     0.014 A 
ATOM     10  C   UNL     1       2.886  -0.926   3.444  1.00  0.00     0.010 A 
ATOM     11  C   UNL     1       0.566  -0.294   3.208  1.00  0.00     0.010 A 
ATOM     12  C   UNL     1       1.601  -0.812   3.977  1.00  0.00    -0.014 A 
BRANCH  12  13
ATOM     13  C   UNL     1       1.405  -1.105   5.393  1.00  0.00     0.031 A 
ATOM     14  C   UNL     1       2.074  -0.142   6.312  1.00  0.00     0.074 A 
ATOM     15  C   UNL     1       0.569  -2.061   5.847  1.00  0.00     0.049 A 
ATOM     16  N   UNL     1       3.044  -0.367   7.137  1.00  0.00    -0.248 NA
ATOM     17  C   UNL     1       1.706   1.279   6.198  1.00  0.00     0.031 C 
ATOM     18  C   UNL     1      -0.365  -2.881   5.071  1.00  0.00     0.029 A 
ATOM     19  N   UNL     1       0.292  -2.420   7.133  1.00  0.00    -0.354 N 
ATOM     20  C   UNL     1       3.262   0.835   7.808  1.00  0.00     0.074 A 
ATOM     21  C   UNL     1       2.541   1.842   7.071  1.00  0.00     0.031 C 
ATOM     22  C   UNL     1      -1.262  -3.450   5.910  1.00  0.00     0.029 A 
ATOM     23  C   UNL     1      -0.884  -3.151   7.281  1.00  0.00     0.049 A 
ATOM     24  H   UNL     1       0.873  -2.184   7.891  1.00  0.00     0.167 HD
ATOM     25  C   UNL     1       3.812   0.874   9.054  1.00  0.00     0.031 A 
ATOM     26  C   UNL     1      -1.533  -3.429   8.443  1.00  0.00     0.031 A 
ATOM     27  C   UNL     1       4.453  -0.370   9.393  1.00  0.00     0.049 A 
ATOM     28  C   UNL     1      -0.554  -3.264   9.544  1.00  0.00     0.074 A 
ATOM     29  C   UNL     1       5.488  -1.116   8.867  1.00  0.00     0.029 A 
ATOM     30  N   UNL     1       3.766  -1.216  10.232  1.00  0.00    -0.354 N 
ATOM     31  N   UNL     1       0.484  -4.036   9.702  1.00  0.00    -0.248 NA
ATOM     32  C   UNL     1      -0.474  -1.968  10.201  1.00  0.00     0.031 C 
ATOM     33  C   UNL     1       5.082  -2.472   9.031  1.00  0.00     0.029 A 
ATOM     34  C   UNL     1       3.860  -2.477   9.707  1.00  0.00     0.049 A 
ATOM     35  H   UNL     1       3.294  -0.962  11.057  1.00  0.00     0.167 HD
ATOM     36  C   UNL     1       1.505  -3.181  10.088  1.00  0.00     0.074 A 
ATOM     37  C   UNL     1       0.835  -1.938  10.469  1.00  0.00     0.031 C 
ATOM     38  C   UNL     1       2.810  -3.466   9.802  1.00  0.00     0.031 A 
BRANCH  25  39
ATOM     39  C   UNL     1       3.388   1.858  10.124  1.00  0.00    -0.014 A 
ATOM     40  C   UNL     1       3.987   1.764  11.399  1.00  0.00     0.010 A 
ATOM     41  C   UNL     1       2.223   2.645  10.027  1.00  0.00     0.010 A 
ATOM     42  C   UNL     1       3.382   2.324  12.531  1.00  0.00     0.020 A 
ATOM     43  C   UNL     1       1.637   3.247  11.142  1.00  0.00     0.020 A 
ATOM     44  C   UNL     1       2.196   3.042  12.396  1.00  0.00     0.054 A 
BRANCH  44  45
ATOM     45  S   UNL     1       1.341   3.636  13.875  1.00  0.00     0.124 S 
ATOM     46  O   UNL     1       0.943   2.380  14.511  1.00  0.00    -0.237 OA
ATOM     47  O   UNL     1       2.397   4.382  14.559  1.00  0.00    -0.237 OA
ATOM     48  O   UNL     1       0.256   4.444  13.343  1.00  0.00    -0.744 OA
ENDBRANCH  44  45
ENDBRANCH  25  39
BRANCH  26  49
ATOM     49  C   UNL     1      -2.999  -3.487   8.685  1.00  0.00    -0.014 A 
ATOM     50  C   UNL     1      -3.527  -4.011   9.881  1.00  0.00     0.010 A 
ATOM     51  C   UNL     1      -3.874  -2.756   7.855  1.00  0.00     0.010 A 
ATOM     52  C   UNL     1      -4.861  -3.762  10.259  1.00  0.00     0.020 A 
ATOM     53  C   UNL     1      -5.203  -2.508   8.220  1.00  0.00     0.020 A 
ATOM     54  C   UNL     1      -5.686  -2.994   9.433  1.00  0.00     0.054 A 
BRANCH  54  55
ATOM     55  S   UNL     1      -7.349  -2.524  10.003  1.00  0.00     0.124 S 
ATOM     56  O   UNL     1      -8.070  -3.792   9.937  1.00  0.00    -0.237 OA
ATOM     57  O   UNL     1      -7.094  -2.011  11.345  1.00  0.00    -0.237 OA
ATOM     58  O   UNL     1      -7.775  -1.519   9.030  1.00  0.00    -0.744 OA
ENDBRANCH  54  55
ENDBRANCH  26  49
BRANCH  38  59
ATOM     59  C   UNL     1       3.160  -4.856   9.326  1.00  0.00    -0.014 A 
ATOM     60  C   UNL     1       2.664  -5.429   8.138  1.00  0.00     0.010 A 
ATOM     61  C   UNL     1       4.157  -5.544  10.038  1.00  0.00     0.010 A 
ATOM     62  C   UNL     1       3.142  -6.671   7.690  1.00  0.00     0.020 A 
ATOM     63  C   UNL     1       4.650  -6.770   9.589  1.00  0.00     0.020 A 
ATOM     64  C   UNL     1       4.135  -7.332   8.421  1.00  0.00     0.054 A 
BRANCH  64  65
ATOM     65  S   UNL     1       4.789  -8.913   7.814  1.00  0.00     0.124 S 
ATOM     66  O   UNL     1       3.654  -9.814   7.985  1.00  0.00    -0.237 OA
ATOM     67  O   UNL     1       5.148  -8.606   6.431  1.00  0.00    -0.237 OA
ATOM     68  O   UNL     1       5.928  -9.179   8.693  1.00  0.00    -0.744 OA
ENDBRANCH  64  65
ENDBRANCH  38  59
ENDBRANCH  12  13
ENDBRANCH   5   7
ENDBRANCH   2   3
ENDBRANCH   1   2
BRANCH   1  69
ATOM     69  C   UNL     1       4.262  -3.079  -1.689  1.00  0.00     0.002 C 
BRANCH  69  70
ATOM     70  C   UNL     1       4.844  -2.727  -3.061  1.00  0.00     0.002 C 
BRANCH  70  71
ATOM     71  C   UNL     1       6.375  -2.714  -3.142  1.00  0.00     0.021 C 
BRANCH  71  72
ATOM     72  C   UNL     1       7.044  -4.048  -2.812  1.00  0.00     0.116 C 
BRANCH  72  73
ATOM     73  N   UNL     1       6.662  -5.072  -3.767  1.00  0.00    -0.356 N 
ATOM     74  C   UNL     1       7.420  -5.874  -4.558  1.00  0.00     0.223 C 
ATOM     75  H   UNL     1       5.691  -5.207  -3.856  1.00  0.00     0.163 HD
ATOM     76  O   UNL     1       6.835  -6.624  -5.340  1.00  0.00    -0.275 OA
BRANCH  74  77
ATOM     77  C   UNL     1       8.939  -5.801  -4.490  1.00  0.00     0.087 C 
ATOM     78  C   UNL     1       9.482  -4.870  -5.582  1.00  0.00     0.068 C 
ATOM     79  C   UNL     1       9.549  -7.209  -4.571  1.00  0.00     0.068 C 
ATOM     80  C   UNL     1       9.507  -5.532  -6.957  1.00  0.00     0.277 C 
ATOM     81  C   UNL     1       9.543  -7.794  -5.984  1.00  0.00     0.277 C 
ATOM     82  N   UNL     1      10.163  -6.831  -6.884  1.00  0.00    -0.230 N 
ATOM     83  C   UNL     1      11.225  -7.188  -7.692  1.00  0.00     0.383 C 
ATOM     84  N   UNL     1      11.232  -8.320  -8.342  1.00  0.00    -0.155 N 
ATOM     85  C   UNL     1      12.405  -6.248  -7.839  1.00  0.00     0.523 C 
ATOM     86  C   UNL     1      12.292  -8.604  -9.168  1.00  0.00     0.414 C 
ATOM     87  H   UNL     1      10.491  -8.960  -8.241  1.00  0.00     0.367 HD
ATOM     88  C   UNL     1      13.557  -7.120  -8.161  1.00  0.00     0.389 C 
ATOM     89  N   UNL     1      12.860  -5.649  -6.562  1.00  0.00     0.003 NA
ATOM     90  Cl  UNL     1      12.006  -9.803 -10.355  1.00  0.00     0.028 Cl
ATOM     91  N   UNL     1      13.460  -8.049  -9.135  1.00  0.00    -0.155 N 
ATOM     92  N   UNL     1      14.554  -6.979  -7.363  1.00  0.00    -0.169 N 
ATOM     93  C   UNL     1      14.072  -6.102  -6.423  1.00  0.00     0.532 C 
ATOM     94  H   UNL     1      14.194  -8.278  -9.750  1.00  0.00     0.367 HD
ATOM     95  H   UNL     1      15.443  -7.397  -7.414  1.00  0.00     0.365 HD
ENDBRANCH  74  77
ENDBRANCH  72  73
ENDBRANCH  71  72
ENDBRANCH  70  71
ENDBRANCH  69  70
ENDBRANCH   1  69
TORSDOF 16
