REMARK SMILES C[C@H](O)[C@H](C)[N@H+]1Cc2ccccc2C[C@@H]1C(=O)NCCCCCCNC(=O)c1ccc(-c2c3nc(c(-c4ccc(S(=O)(=O)[O-])cc4)c4ccc([nH]4)c(-c4ccc(S(=O)(=O)[O-])cc4)c4nc(c(-c5ccc(S(=O)(=O)[O-])cc5)c5ccc2[nH]5)C=C4)C=C3)cc1
REMARK SMILES IDX 21 1 20 2 19 3 18 4 16 5 17 6 15 8 6 9 7 10 8 12 14 13 9 14
REMARK SMILES IDX 13 15 10 16 12 17 11 18 4 19 5 20 2 21 1 22 3 23 22 25 23 26
REMARK SMILES IDX 24 27 25 28 26 29 27 31 28 32 29 33 87 34 30 35 86 36 31 37
REMARK SMILES IDX 32 38 33 39 80 40 34 41 85 42 79 43 81 44 35 45 84 46 78 47
REMARK SMILES IDX 77 48 36 50 66 51 47 52 65 53 48 54 51 55 64 56 82 57 49 58
REMARK SMILES IDX 50 59 63 61 83 62 52 63 37 64 38 65 46 66 39 67 45 68 40 69
REMARK SMILES IDX 41 70 42 71 43 72 44 73 67 74 68 75 76 76 69 77 75 78 70 79
REMARK SMILES IDX 71 80 72 81 73 82 74 83 53 84 54 85 62 86 55 87 61 88 56 89
REMARK SMILES IDX 57 90 58 91 59 92 60 93
REMARK H PARENT 18 7 6 11 3 24 25 30 81 49 51 60
REMARK Flexibility Score: inf
ROOT
ATOM      1  C   UNL     1      -5.639  -2.508  -3.163  1.00  0.00     0.002 C 
ENDROOT
BRANCH   1   2
ATOM      2  C   UNL     1      -4.395  -2.142  -2.342  1.00  0.00     0.021 C 
BRANCH   2   3
ATOM      3  C   UNL     1      -3.091  -2.126  -3.137  1.00  0.00     0.116 C 
BRANCH   3   4
ATOM      4  N   UNL     1      -3.142  -1.135  -4.190  1.00  0.00    -0.351 N 
ATOM      5  C   UNL     1      -2.312  -0.094  -4.485  1.00  0.00     0.278 C 
ATOM      6  O   UNL     1      -2.678   0.640  -5.406  1.00  0.00    -0.268 OA
ATOM      7  H   UNL     1      -3.909  -1.229  -4.800  1.00  0.00     0.163 HD
BRANCH   5   8
ATOM      8  C   UNL     1      -0.984   0.097  -3.701  1.00  0.00     0.279 C 
ATOM      9  N   UNL     1      -1.182   1.139  -2.651  1.00  0.00    -0.316 N 
ATOM     10  C   UNL     1      -0.644   2.469  -2.976  1.00  0.00     0.300 C 
ATOM     11  H   UNL     1      -2.186   1.320  -2.653  1.00  0.00     0.349 HD
ATOM     12  C   UNL     1      -0.410   2.761  -4.442  1.00  0.00     0.010 A 
ATOM     13  C   UNL     1       0.164   0.363  -4.696  1.00  0.00     0.111 C 
ATOM     14  C   UNL     1      -0.597   4.044  -4.971  1.00  0.00     0.010 A 
ATOM     15  C   UNL     1       0.059   1.741  -5.279  1.00  0.00    -0.033 A 
ATOM     16  C   UNL     1      -0.333   4.295  -6.319  1.00  0.00     0.001 A 
ATOM     17  C   UNL     1       0.347   1.999  -6.622  1.00  0.00     0.004 A 
ATOM     18  C   UNL     1       0.143   3.275  -7.142  1.00  0.00     0.000 A 
BRANCH   9  19
ATOM     19  C   UNL     1      -0.903   0.650  -1.278  1.00  0.00     0.210 C 
ATOM     20  C   UNL     1       0.566   0.222  -1.079  1.00  0.00     0.078 C 
BRANCH  19  21
ATOM     21  C   UNL     1      -1.392   1.517  -0.059  1.00  0.00     0.169 C 
ATOM     22  C   UNL     1      -2.530   2.497  -0.314  1.00  0.00     0.045 C 
BRANCH  21  23
ATOM     23  O   UNL     1      -0.327   2.224   0.582  1.00  0.00    -0.387 OA
ATOM     24  H   UNL     1       0.016   2.905  -0.018  1.00  0.00     0.211 HD
ENDBRANCH  21  23
ENDBRANCH  19  21
ENDBRANCH   9  19
ENDBRANCH   5   8
ENDBRANCH   3   4
ENDBRANCH   2   3
ENDBRANCH   1   2
BRANCH   1  25
ATOM     25  C   UNL     1      -5.571  -3.854  -3.889  1.00  0.00     0.002 C 
BRANCH  25  26
ATOM     26  C   UNL     1      -5.277  -5.059  -2.994  1.00  0.00     0.021 C 
BRANCH  26  27
ATOM     27  C   UNL     1      -6.260  -5.254  -1.845  1.00  0.00     0.116 C 
BRANCH  27  28
ATOM     28  N   UNL     1      -7.610  -5.524  -2.313  1.00  0.00    -0.352 N 
ATOM     29  C   UNL     1      -8.457  -6.552  -1.976  1.00  0.00     0.251 C 
ATOM     30  H   UNL     1      -7.968  -4.878  -2.963  1.00  0.00     0.163 HD
ATOM     31  O   UNL     1      -9.493  -6.725  -2.607  1.00  0.00    -0.269 OA
BRANCH  29  32
ATOM     32  C   UNL     1      -8.100  -7.463  -0.866  1.00  0.00     0.039 A 
ATOM     33  C   UNL     1      -8.259  -8.840  -1.044  1.00  0.00     0.014 A 
ATOM     34  C   UNL     1      -7.606  -6.964   0.342  1.00  0.00     0.014 A 
ATOM     35  C   UNL     1      -7.864  -9.718  -0.032  1.00  0.00     0.010 A 
ATOM     36  C   UNL     1      -7.141  -7.842   1.317  1.00  0.00     0.010 A 
ATOM     37  C   UNL     1      -7.268  -9.228   1.143  1.00  0.00    -0.014 A 
BRANCH  37  38
ATOM     38  C   UNL     1      -6.768 -10.151   2.195  1.00  0.00     0.031 A 
ATOM     39  C   UNL     1      -7.374 -10.133   3.572  1.00  0.00     0.074 A 
ATOM     40  C   UNL     1      -5.727 -10.964   1.928  1.00  0.00     0.049 A 
ATOM     41  N   UNL     1      -7.044 -10.833   4.628  1.00  0.00    -0.248 NA
ATOM     42  C   UNL     1      -8.480  -9.189   3.800  1.00  0.00     0.031 C 
ATOM     43  C   UNL     1      -5.027 -11.051   0.644  1.00  0.00     0.029 A 
ATOM     44  N   UNL     1      -5.073 -11.873   2.723  1.00  0.00    -0.354 N 
ATOM     45  C   UNL     1      -7.889 -10.406   5.645  1.00  0.00     0.074 A 
ATOM     46  C   UNL     1      -8.707  -9.346   5.096  1.00  0.00     0.031 C 
ATOM     47  C   UNL     1      -4.067 -11.985   0.728  1.00  0.00     0.029 A 
ATOM     48  C   UNL     1      -4.050 -12.531   2.082  1.00  0.00     0.049 A 
ATOM     49  H   UNL     1      -5.313 -12.037   3.663  1.00  0.00     0.167 HD
ATOM     50  C   UNL     1      -7.991 -10.865   6.916  1.00  0.00     0.031 A 
ATOM     51  C   UNL     1      -3.190 -13.466   2.531  1.00  0.00     0.031 A 
ATOM     52  C   UNL     1      -7.172 -11.917   7.460  1.00  0.00     0.049 A 
ATOM     53  C   UNL     1      -3.300 -13.941   3.954  1.00  0.00     0.074 A 
ATOM     54  C   UNL     1      -7.230 -12.489   8.719  1.00  0.00     0.029 A 
ATOM     55  N   UNL     1      -6.141 -12.550   6.781  1.00  0.00    -0.354 N 
ATOM     56  N   UNL     1      -4.150 -13.571   4.882  1.00  0.00    -0.248 NA
ATOM     57  C   UNL     1      -2.342 -14.967   4.386  1.00  0.00     0.031 C 
ATOM     58  C   UNL     1      -6.194 -13.423   8.823  1.00  0.00     0.029 A 
ATOM     59  C   UNL     1      -5.534 -13.484   7.605  1.00  0.00     0.049 A 
ATOM     60  H   UNL     1      -5.879 -12.364   5.851  1.00  0.00     0.167 HD
ATOM     61  C   UNL     1      -3.846 -14.339   6.001  1.00  0.00     0.074 A 
ATOM     62  C   UNL     1      -2.745 -15.203   5.627  1.00  0.00     0.031 C 
ATOM     63  C   UNL     1      -4.430 -14.331   7.225  1.00  0.00     0.031 A 
BRANCH  50  64
ATOM     64  C   UNL     1      -9.016 -10.212   7.809  1.00  0.00    -0.014 A 
ATOM     65  C   UNL     1     -10.395 -10.362   7.568  1.00  0.00     0.010 A 
ATOM     66  C   UNL     1      -8.597  -9.449   8.914  1.00  0.00     0.010 A 
ATOM     67  C   UNL     1     -11.332  -9.714   8.378  1.00  0.00     0.020 A 
ATOM     68  C   UNL     1      -9.532  -8.827   9.747  1.00  0.00     0.020 A 
ATOM     69  C   UNL     1     -10.893  -8.944   9.459  1.00  0.00     0.054 A 
BRANCH  69  70
ATOM     70  S   UNL     1     -12.130  -8.110  10.490  1.00  0.00     0.124 S 
ATOM     71  O   UNL     1     -12.590  -7.044   9.604  1.00  0.00    -0.237 OA
ATOM     72  O   UNL     1     -13.099  -9.172  10.750  1.00  0.00    -0.237 OA
ATOM     73  O   UNL     1     -11.369  -7.666  11.655  1.00  0.00    -0.744 OA
ENDBRANCH  69  70
ENDBRANCH  50  64
BRANCH  51  74
ATOM     74  C   UNL     1      -2.164 -14.029   1.610  1.00  0.00    -0.014 A 
ATOM     75  C   UNL     1      -2.271 -15.353   1.150  1.00  0.00     0.010 A 
ATOM     76  C   UNL     1      -1.094 -13.234   1.162  1.00  0.00     0.010 A 
ATOM     77  C   UNL     1      -1.323 -15.874   0.264  1.00  0.00     0.020 A 
ATOM     78  C   UNL     1      -0.161 -13.742   0.254  1.00  0.00     0.020 A 
ATOM     79  C   UNL     1      -0.278 -15.062  -0.185  1.00  0.00     0.054 A 
BRANCH  79  80
ATOM     80  S   UNL     1       0.897 -15.737  -1.391  1.00  0.00     0.124 S 
ATOM     81  O   UNL     1       1.657 -16.683  -0.580  1.00  0.00    -0.237 OA
ATOM     82  O   UNL     1       0.014 -16.328  -2.393  1.00  0.00    -0.237 OA
ATOM     83  O   UNL     1       1.638 -14.561  -1.842  1.00  0.00    -0.744 OA
ENDBRANCH  79  80
ENDBRANCH  51  74
BRANCH  63  84
ATOM     84  C   UNL     1      -3.909 -15.307   8.249  1.00  0.00    -0.014 A 
ATOM     85  C   UNL     1      -2.646 -15.139   8.843  1.00  0.00     0.010 A 
ATOM     86  C   UNL     1      -4.722 -16.380   8.660  1.00  0.00     0.010 A 
ATOM     87  C   UNL     1      -2.193 -16.045   9.807  1.00  0.00     0.020 A 
ATOM     88  C   UNL     1      -4.286 -17.268   9.646  1.00  0.00     0.020 A 
ATOM     89  C   UNL     1      -3.017 -17.103  10.203  1.00  0.00     0.054 A 
BRANCH  89  90
ATOM     90  S   UNL     1      -2.422 -18.238  11.487  1.00  0.00     0.124 S 
ATOM     91  O   UNL     1      -1.398 -18.995  10.774  1.00  0.00    -0.237 OA
ATOM     92  O   UNL     1      -1.928 -17.326  12.515  1.00  0.00    -0.237 OA
ATOM     93  O   UNL     1      -3.614 -18.998  11.858  1.00  0.00    -0.744 OA
ENDBRANCH  89  90
ENDBRANCH  63  84
ENDBRANCH  37  38
ENDBRANCH  29  32
ENDBRANCH  27  28
ENDBRANCH  26  27
ENDBRANCH  25  26
ENDBRANCH   1  25
TORSDOF 19
