REMARK SMILES C=CCN1C(=O)/C(=C/c2ccc(-c3ccc(Cl)c(C(=O)NCCCCCCNC(=O)c4ccc(-c5c6nc(c(-c7ccc(S(=O)(=O)[O-])cc7)c7ccc([nH]7)c(-c7ccc(S(=O)(=O)[O-])cc7)c7nc(c(-c8ccc(S(=O)(=O)[O-])cc8)c8ccc5[nH]8)C=C7)C=C6)cc4)c3)o2)C(=O)NC1=S
REMARK SMILES IDX 24 1 23 2 22 3 21 4 19 5 20 6 18 8 13 9 14 10 91 11 15 12
REMARK SMILES IDX 16 13 17 14 12 15 9 16 10 17 92 18 11 19 8 20 4 21 5 22
REMARK SMILES IDX 96 23 6 24 7 25 95 26 97 27 93 28 94 30 3 31 2 32 1 33 25 34
REMARK SMILES IDX 26 35 27 36 28 37 29 38 30 40 31 41 32 42 90 43 33 44 89 45
REMARK SMILES IDX 34 46 35 47 36 48 83 49 37 50 88 51 82 52 84 53 38 54 87 55
REMARK SMILES IDX 81 56 80 57 39 59 69 60 50 61 68 62 51 63 54 64 67 65 85 66
REMARK SMILES IDX 52 67 53 68 66 70 86 71 55 72 40 73 41 74 49 75 42 76 48 77
REMARK SMILES IDX 43 78 44 79 45 80 46 81 47 82 70 83 71 84 79 85 72 86 78 87
REMARK SMILES IDX 73 88 74 89 75 90 76 91 77 92 56 93 57 94 65 95 58 96 64 97
REMARK SMILES IDX 59 98 60 99 61 100 62 101 63 102
REMARK H PARENT 21 7 95 29 28 39 84 58 54 69
REMARK Flexibility Score: inf
ROOT
ATOM      1  C   UNL     1       8.704 -10.787   0.093  1.00  0.00     0.002 C 
ENDROOT
BRANCH   1   2
ATOM      2  C   UNL     1       7.838 -10.306  -1.076  1.00  0.00     0.021 C 
BRANCH   2   3
ATOM      3  C   UNL     1       6.357 -10.672  -1.034  1.00  0.00     0.116 C 
BRANCH   3   4
ATOM      4  N   UNL     1       5.598 -10.052   0.037  1.00  0.00    -0.352 N 
ATOM      5  C   UNL     1       4.274  -9.670   0.092  1.00  0.00     0.252 C 
ATOM      6  O   UNL     1       3.850  -9.191   1.145  1.00  0.00    -0.269 OA
ATOM      7  H   UNL     1       6.112  -9.876   0.858  1.00  0.00     0.163 HD
BRANCH   5   8
ATOM      8  C   UNL     1       3.356  -9.726  -1.083  1.00  0.00     0.059 A 
ATOM      9  C   UNL     1       1.523  -8.621  -2.286  1.00  0.00     0.018 A 
ATOM     10  C   UNL     1       1.590  -9.623  -3.261  1.00  0.00     0.013 A 
ATOM     11  C   UNL     1       2.461  -8.637  -1.242  1.00  0.00     0.027 A 
ATOM     12  C   UNL     1       2.424 -10.721  -3.088  1.00  0.00     0.022 A 
ATOM     13  C   UNL     1       3.228 -10.819  -1.950  1.00  0.00     0.053 A 
ATOM     14  Cl  UNL     1       3.819 -12.405  -1.603  1.00  0.00    -0.083 Cl
BRANCH   9  15
ATOM     15  C   UNL     1       0.360  -7.742  -2.299  1.00  0.00     0.134 A 
ATOM     16  C   UNL     1      -0.737  -5.835  -2.007  1.00  0.00     0.128 A 
ATOM     17  C   UNL     1      -1.657  -6.793  -2.407  1.00  0.00     0.051 A 
ATOM     18  O   UNL     1       0.510  -6.434  -1.954  1.00  0.00    -0.457 OA
ATOM     19  C   UNL     1      -0.964  -8.003  -2.583  1.00  0.00     0.051 A 
BRANCH  16  20
ATOM     20  C   UNL     1      -0.955  -4.465  -1.721  1.00  0.00     0.066 C 
ATOM     21  N   UNL     1      -1.581  -2.114   0.891  1.00  0.00    -0.281 N 
ATOM     22  C   UNL     1      -1.597  -2.549  -0.437  1.00  0.00     0.266 C 
ATOM     23  C   UNL     1      -1.853  -2.948   1.972  1.00  0.00     0.183 C 
ATOM     24  O   UNL     1      -1.612  -1.796  -1.410  1.00  0.00    -0.268 OA
ATOM     25  C   UNL     1      -1.582  -4.019  -0.618  1.00  0.00     0.109 C 
ATOM     26  N   UNL     1      -2.158  -4.252   1.677  1.00  0.00    -0.298 N 
ATOM     27  S   UNL     1      -1.881  -2.529   3.596  1.00  0.00    -0.040 S 
ATOM     28  C   UNL     1      -2.133  -4.862   0.455  1.00  0.00     0.263 C 
ATOM     29  H   UNL     1      -2.426  -4.816   2.438  1.00  0.00     0.172 HD
ATOM     30  O   UNL     1      -2.571  -5.997   0.310  1.00  0.00    -0.269 OA
BRANCH  21  31
ATOM     31  C   UNL     1      -1.264  -0.694   1.065  1.00  0.00     0.155 C 
BRANCH  31  32
ATOM     32  C   UNL     1       0.236  -0.555   1.082  1.00  0.00    -0.013 C 
ATOM     33  C   UNL     1       0.950   0.019   0.104  1.00  0.00     0.006 C 
ENDBRANCH  31  32
ENDBRANCH  21  31
ENDBRANCH  16  20
ENDBRANCH   9  15
ENDBRANCH   5   8
ENDBRANCH   3   4
ENDBRANCH   2   3
ENDBRANCH   1   2
BRANCH   1  34
ATOM     34  C   UNL     1       8.615 -12.265   0.490  1.00  0.00     0.002 C 
BRANCH  34  35
ATOM     35  C   UNL     1       8.776 -13.308  -0.619  1.00  0.00     0.021 C 
BRANCH  35  36
ATOM     36  C   UNL     1      10.020 -13.196  -1.494  1.00  0.00     0.116 C 
BRANCH  36  37
ATOM     37  N   UNL     1      11.261 -13.332  -0.753  1.00  0.00    -0.352 N 
ATOM     38  C   UNL     1      12.353 -14.130  -1.001  1.00  0.00     0.251 C 
ATOM     39  H   UNL     1      11.333 -12.765   0.049  1.00  0.00     0.163 HD
ATOM     40  O   UNL     1      13.269 -14.170  -0.183  1.00  0.00    -0.269 OA
BRANCH  38  41
ATOM     41  C   UNL     1      12.425 -14.966  -2.224  1.00  0.00     0.039 A 
ATOM     42  C   UNL     1      12.879 -16.285  -2.108  1.00  0.00     0.014 A 
ATOM     43  C   UNL     1      12.075 -14.463  -3.480  1.00  0.00     0.014 A 
ATOM     44  C   UNL     1      12.918 -17.114  -3.233  1.00  0.00     0.010 A 
ATOM     45  C   UNL     1      12.055 -15.309  -4.591  1.00  0.00     0.010 A 
ATOM     46  C   UNL     1      12.474 -16.644  -4.480  1.00  0.00    -0.014 A 
BRANCH  46  47
ATOM     47  C   UNL     1      12.432 -17.535  -5.671  1.00  0.00     0.031 A 
ATOM     48  C   UNL     1      13.307 -17.255  -6.864  1.00  0.00     0.074 A 
ATOM     49  C   UNL     1      11.557 -18.561  -5.707  1.00  0.00     0.049 A 
ATOM     50  N   UNL     1      13.360 -17.879  -8.013  1.00  0.00    -0.248 NA
ATOM     51  C   UNL     1      14.229 -16.112  -6.760  1.00  0.00     0.031 C 
ATOM     52  C   UNL     1      10.629 -18.923  -4.633  1.00  0.00     0.029 A 
ATOM     53  N   UNL     1      11.299 -19.485  -6.691  1.00  0.00    -0.354 N 
ATOM     54  C   UNL     1      14.298 -17.193  -8.776  1.00  0.00     0.074 A 
ATOM     55  C   UNL     1      14.764 -16.084  -7.972  1.00  0.00     0.031 C 
ATOM     56  C   UNL     1       9.923 -20.003  -5.006  1.00  0.00     0.029 A 
ATOM     57  C   UNL     1      10.316 -20.387  -6.358  1.00  0.00     0.049 A 
ATOM     58  H   UNL     1      11.774 -19.499  -7.553  1.00  0.00     0.167 HD
ATOM     59  C   UNL     1      14.741 -17.468 -10.027  1.00  0.00     0.031 A 
ATOM     60  C   UNL     1       9.784 -21.406  -7.062  1.00  0.00     0.031 A 
ATOM     61  C   UNL     1      14.293 -18.584 -10.818  1.00  0.00     0.049 A 
ATOM     62  C   UNL     1      10.291 -21.687  -8.450  1.00  0.00     0.074 A 
ATOM     63  C   UNL     1      14.734 -18.982 -12.069  1.00  0.00     0.029 A 
ATOM     64  N   UNL     1      13.304 -19.478 -10.440  1.00  0.00    -0.354 N 
ATOM     65  N   UNL     1      11.224 -21.064  -9.128  1.00  0.00    -0.248 NA
ATOM     66  C   UNL     1       9.677 -22.816  -9.165  1.00  0.00     0.031 C 
ATOM     67  C   UNL     1      13.978 -20.090 -12.467  1.00  0.00     0.029 A 
ATOM     68  C   UNL     1      13.103 -20.412 -11.443  1.00  0.00     0.049 A 
ATOM     69  H   UNL     1      12.816 -19.453  -9.585  1.00  0.00     0.167 HD
ATOM     70  C   UNL     1      11.330 -21.743 -10.336  1.00  0.00     0.074 A 
ATOM     71  C   UNL     1      10.373 -22.830 -10.293  1.00  0.00     0.031 C 
ATOM     72  C   UNL     1      12.150 -21.491 -11.386  1.00  0.00     0.031 A 
BRANCH  59  73
ATOM     73  C   UNL     1      15.761 -16.536 -10.627  1.00  0.00    -0.014 A 
ATOM     74  C   UNL     1      17.088 -16.514 -10.164  1.00  0.00     0.010 A 
ATOM     75  C   UNL     1      15.397 -15.705 -11.703  1.00  0.00     0.010 A 
ATOM     76  C   UNL     1      18.024 -15.650 -10.740  1.00  0.00     0.020 A 
ATOM     77  C   UNL     1      16.337 -14.859 -12.299  1.00  0.00     0.020 A 
ATOM     78  C   UNL     1      17.641 -14.825 -11.801  1.00  0.00     0.054 A 
BRANCH  78  79
ATOM     79  S   UNL     1      18.881 -13.729 -12.545  1.00  0.00     0.124 S 
ATOM     80  O   UNL     1      19.009 -12.687 -11.529  1.00  0.00    -0.237 OA
ATOM     81  O   UNL     1      20.039 -14.607 -12.692  1.00  0.00    -0.237 OA
ATOM     82  O   UNL     1      18.262 -13.305 -13.798  1.00  0.00    -0.744 OA
ENDBRANCH  78  79
ENDBRANCH  59  73
BRANCH  60  83
ATOM     83  C   UNL     1       8.717 -22.251  -6.459  1.00  0.00    -0.014 A 
ATOM     84  C   UNL     1       8.993 -23.575  -6.074  1.00  0.00     0.010 A 
ATOM     85  C   UNL     1       7.422 -21.738  -6.265  1.00  0.00     0.010 A 
ATOM     86  C   UNL     1       7.989 -24.378  -5.525  1.00  0.00     0.020 A 
ATOM     87  C   UNL     1       6.422 -22.529  -5.692  1.00  0.00     0.020 A 
ATOM     88  C   UNL     1       6.709 -23.849  -5.338  1.00  0.00     0.054 A 
BRANCH  88  89
ATOM     89  S   UNL     1       5.431 -24.893  -4.583  1.00  0.00     0.124 S 
ATOM     90  O   UNL     1       5.079 -25.784  -5.683  1.00  0.00    -0.237 OA
ATOM     91  O   UNL     1       6.146 -25.513  -3.470  1.00  0.00    -0.237 OA
ATOM     92  O   UNL     1       4.397 -23.937  -4.193  1.00  0.00    -0.744 OA
ENDBRANCH  88  89
ENDBRANCH  60  83
BRANCH  72  93
ATOM     93  C   UNL     1      12.078 -22.425 -12.563  1.00  0.00    -0.014 A 
ATOM     94  C   UNL     1      10.992 -22.392 -13.456  1.00  0.00     0.010 A 
ATOM     95  C   UNL     1      13.142 -23.312 -12.810  1.00  0.00     0.010 A 
ATOM     96  C   UNL     1      10.959 -23.248 -14.560  1.00  0.00     0.020 A 
ATOM     97  C   UNL     1      13.125 -24.152 -13.927  1.00  0.00     0.020 A 
ATOM     98  C   UNL     1      12.026 -24.123 -14.788  1.00  0.00     0.054 A 
BRANCH  98  99
ATOM     99  S   UNL     1      11.984 -25.191 -16.254  1.00  0.00     0.124 S 
ATOM    100  O   UNL     1      11.020 -26.213 -15.858  1.00  0.00    -0.237 OA
ATOM    101  O   UNL     1      11.537 -24.278 -17.304  1.00  0.00    -0.237 OA
ATOM    102  O   UNL     1      13.364 -25.652 -16.385  1.00  0.00    -0.744 OA
ENDBRANCH  98  99
ENDBRANCH  72  93
ENDBRANCH  46  47
ENDBRANCH  38  41
ENDBRANCH  36  37
ENDBRANCH  35  36
ENDBRANCH  34  35
ENDBRANCH   1  34
TORSDOF 20
