REMARK SMILES Cc1ccc(C)c(S(=O)(=O)N[C@H](CC2=c3ccccc3=NC2)C(=O)NCCCCCCNC(=O)c2ccc(-c3c4nc(c(-c5ccc(S(=O)(=O)[O-])cc5)c5ccc([nH]5)c(-c5ccc(S(=O)(=O)[O-])cc5)c5nc(c(-c6ccc(S(=O)(=O)[O-])cc6)c6ccc3[nH]6)C=C5)C=C4)cc2)c1
REMARK SMILES IDX 28 1 27 2 26 3 25 4 23 5 24 6 12 8 11 9 8 11 9 12 10 13 7 14
REMARK SMILES IDX 1 15 2 16 3 17 95 18 4 19 5 20 6 21 13 22 14 23 15 24 22 25
REMARK SMILES IDX 16 26 20 27 21 28 17 29 19 30 18 31 29 32 30 33 31 34 32 35
REMARK SMILES IDX 33 36 34 38 35 39 36 40 94 41 37 42 93 43 38 44 39 45 40 46
REMARK SMILES IDX 87 47 41 48 92 49 86 50 88 51 42 52 91 53 85 54 84 55 43 57
REMARK SMILES IDX 73 58 54 59 72 60 55 61 58 62 71 63 89 64 56 65 57 66 70 68
REMARK SMILES IDX 90 69 59 70 44 71 45 72 53 73 46 74 52 75 47 76 48 77 49 78
REMARK SMILES IDX 50 79 51 80 74 81 75 82 83 83 76 84 82 85 77 86 78 87 79 88
REMARK SMILES IDX 80 89 81 90 60 91 61 92 69 93 62 94 68 95 63 96 64 97 65 98
REMARK SMILES IDX 66 99 67 100
REMARK H PARENT 25 7 11 10 32 37 88 56 58 67
REMARK Flexibility Score: inf
ROOT
ATOM      1  C   UNL     1      -0.354   9.260  -1.093  1.00  0.00     0.002 C 
ENDROOT
BRANCH   1   2
ATOM      2  C   UNL     1      -1.343   8.106  -1.269  1.00  0.00     0.021 C 
BRANCH   2   3
ATOM      3  C   UNL     1      -0.880   6.889  -2.093  1.00  0.00     0.116 C 
BRANCH   3   4
ATOM      4  N   UNL     1       0.529   6.532  -1.975  1.00  0.00    -0.355 N 
ATOM      5  C   UNL     1       1.216   5.415  -1.579  1.00  0.00     0.238 C 
ATOM      6  O   UNL     1       2.447   5.529  -1.545  1.00  0.00    -0.273 OA
ATOM      7  H   UNL     1       1.127   7.266  -2.242  1.00  0.00     0.163 HD
BRANCH   5   8
ATOM      8  C   UNL     1       0.549   4.081  -1.189  1.00  0.00     0.163 C 
BRANCH   8   9
ATOM      9  N   UNL     1      -0.454   3.714  -2.225  1.00  0.00    -0.198 NA
ATOM     10  H   UNL     1      -1.254   3.318  -1.731  1.00  0.00     0.142 HD
BRANCH   9  11
ATOM     11  S   UNL     1      -0.061   2.633  -3.444  1.00  0.00     0.241 S 
ATOM     12  O   UNL     1       1.353   2.719  -3.690  1.00  0.00    -0.207 OA
ATOM     13  O   UNL     1      -1.036   2.892  -4.492  1.00  0.00    -0.207 OA
BRANCH  11  14
ATOM     14  C   UNL     1      -0.442   1.035  -2.769  1.00  0.00     0.085 A 
ATOM     15  C   UNL     1      -1.803  -0.279   0.537  1.00  0.00     0.044 C 
ATOM     16  C   UNL     1      -1.235  -0.246  -0.854  1.00  0.00    -0.050 A 
ATOM     17  C   UNL     1      -0.848  -1.419  -1.501  1.00  0.00     0.004 A 
ATOM     18  C   UNL     1      -1.059   0.971  -1.511  1.00  0.00     0.025 A 
ATOM     19  C   UNL     1      -0.297  -1.369  -2.786  1.00  0.00     0.005 A 
ATOM     20  C   UNL     1      -0.084  -0.144  -3.443  1.00  0.00    -0.031 A 
ATOM     21  C   UNL     1       0.497  -0.190  -4.828  1.00  0.00     0.046 C 
ENDBRANCH  11  14
ENDBRANCH   9  11
ENDBRANCH   8   9
BRANCH   8  22
ATOM     22  C   UNL     1      -0.062   3.952   0.243  1.00  0.00     0.063 C 
BRANCH  22  23
ATOM     23  C   UNL     1       0.364   4.925   1.304  1.00  0.00    -0.037 C 
ATOM     24  C   UNL     1       1.070   4.783   2.426  1.00  0.00     0.001 A 
ATOM     25  C   UNL     1      -0.170   6.315   1.248  1.00  0.00     0.174 C 
ATOM     26  C   UNL     1       1.639   3.714   3.184  1.00  0.00     0.010 A 
ATOM     27  C   UNL     1       1.157   6.171   2.922  1.00  0.00     0.065 A 
ATOM     28  N   UNL     1       0.450   7.082   2.330  1.00  0.00    -0.280 NA
ATOM     29  C   UNL     1       2.308   4.011   4.314  1.00  0.00     0.001 A 
ATOM     30  C   UNL     1       2.070   6.429   4.045  1.00  0.00     0.028 A 
ATOM     31  C   UNL     1       2.575   5.383   4.711  1.00  0.00     0.002 A 
ENDBRANCH  22  23
ENDBRANCH   8  22
ENDBRANCH   5   8
ENDBRANCH   3   4
ENDBRANCH   2   3
ENDBRANCH   1   2
BRANCH   1  32
ATOM     32  C   UNL     1      -0.361  10.315  -2.199  1.00  0.00     0.002 C 
BRANCH  32  33
ATOM     33  C   UNL     1      -1.716  10.939  -2.573  1.00  0.00     0.021 C 
BRANCH  33  34
ATOM     34  C   UNL     1      -2.502  11.626  -1.453  1.00  0.00     0.116 C 
BRANCH  34  35
ATOM     35  N   UNL     1      -1.837  12.830  -0.948  1.00  0.00    -0.352 N 
ATOM     36  C   UNL     1      -1.909  13.512   0.253  1.00  0.00     0.251 C 
ATOM     37  H   UNL     1      -1.214  13.236  -1.594  1.00  0.00     0.163 HD
ATOM     38  O   UNL     1      -1.598  14.703   0.266  1.00  0.00    -0.269 OA
BRANCH  36  39
ATOM     39  C   UNL     1      -2.317  12.853   1.517  1.00  0.00     0.039 A 
ATOM     40  C   UNL     1      -2.630  13.586   2.673  1.00  0.00     0.014 A 
ATOM     41  C   UNL     1      -2.300  11.471   1.595  1.00  0.00     0.014 A 
ATOM     42  C   UNL     1      -2.894  12.909   3.873  1.00  0.00     0.010 A 
ATOM     43  C   UNL     1      -2.762  10.804   2.693  1.00  0.00     0.010 A 
ATOM     44  C   UNL     1      -2.936  11.513   3.868  1.00  0.00    -0.014 A 
BRANCH  44  45
ATOM     45  C   UNL     1      -3.183  10.686   5.037  1.00  0.00     0.031 A 
ATOM     46  C   UNL     1      -4.587  10.591   5.458  1.00  0.00     0.074 A 
ATOM     47  C   UNL     1      -2.288   9.772   5.470  1.00  0.00     0.049 A 
ATOM     48  N   UNL     1      -5.083  11.026   6.565  1.00  0.00    -0.248 NA
ATOM     49  C   UNL     1      -5.576  10.063   4.507  1.00  0.00     0.031 C 
ATOM     50  C   UNL     1      -0.942   9.533   4.947  1.00  0.00     0.029 A 
ATOM     51  N   UNL     1      -2.452   8.764   6.378  1.00  0.00    -0.354 N 
ATOM     52  C   UNL     1      -6.407  10.626   6.547  1.00  0.00     0.074 A 
ATOM     53  C   UNL     1      -6.706  10.287   5.178  1.00  0.00     0.031 C 
ATOM     54  C   UNL     1      -0.503   8.341   5.401  1.00  0.00     0.029 A 
ATOM     55  C   UNL     1      -1.477   7.776   6.305  1.00  0.00     0.049 A 
ATOM     56  H   UNL     1      -3.193   8.740   7.025  1.00  0.00     0.167 HD
ATOM     57  C   UNL     1      -7.074  10.324   7.695  1.00  0.00     0.031 A 
ATOM     58  C   UNL     1      -1.464   6.565   6.919  1.00  0.00     0.031 A 
ATOM     59  C   UNL     1      -6.336  10.726   8.869  1.00  0.00     0.049 A 
ATOM     60  C   UNL     1      -2.321   6.689   8.115  1.00  0.00     0.074 A 
ATOM     61  C   UNL     1      -5.782  11.918   9.299  1.00  0.00     0.029 A 
ATOM     62  N   UNL     1      -5.711   9.738   9.597  1.00  0.00    -0.354 N 
ATOM     63  N   UNL     1      -2.024   7.453   9.127  1.00  0.00    -0.248 NA
ATOM     64  C   UNL     1      -3.719   6.308   8.003  1.00  0.00     0.031 C 
ATOM     65  C   UNL     1      -4.543  11.558   9.904  1.00  0.00     0.029 A 
ATOM     66  C   UNL     1      -4.438  10.167   9.884  1.00  0.00     0.049 A 
ATOM     67  H   UNL     1      -6.107   8.877   9.864  1.00  0.00     0.167 HD
ATOM     68  C   UNL     1      -3.231   8.035   9.475  1.00  0.00     0.074 A 
ATOM     69  C   UNL     1      -4.251   7.201   8.840  1.00  0.00     0.031 C 
ATOM     70  C   UNL     1      -3.281   9.298   9.990  1.00  0.00     0.031 A 
BRANCH  57  71
ATOM     71  C   UNL     1      -8.230   9.362   7.744  1.00  0.00    -0.014 A 
ATOM     72  C   UNL     1      -8.501   8.421   6.728  1.00  0.00     0.010 A 
ATOM     73  C   UNL     1      -8.984   9.255   8.927  1.00  0.00     0.010 A 
ATOM     74  C   UNL     1      -9.518   7.477   6.838  1.00  0.00     0.020 A 
ATOM     75  C   UNL     1      -9.970   8.268   9.075  1.00  0.00     0.020 A 
ATOM     76  C   UNL     1     -10.244   7.401   8.018  1.00  0.00     0.054 A 
BRANCH  76  77
ATOM     77  S   UNL     1     -11.492   6.103   8.157  1.00  0.00     0.124 S 
ATOM     78  O   UNL     1     -12.532   6.591   7.254  1.00  0.00    -0.237 OA
ATOM     79  O   UNL     1     -10.766   4.921   7.700  1.00  0.00    -0.237 OA
ATOM     80  O   UNL     1     -11.837   6.112   9.575  1.00  0.00    -0.744 OA
ENDBRANCH  76  77
ENDBRANCH  57  71
BRANCH  58  81
ATOM     81  C   UNL     1      -1.251   5.248   6.257  1.00  0.00    -0.014 A 
ATOM     82  C   UNL     1      -1.607   5.085   4.904  1.00  0.00     0.010 A 
ATOM     83  C   UNL     1      -1.011   4.086   7.016  1.00  0.00     0.010 A 
ATOM     84  C   UNL     1      -1.764   3.814   4.339  1.00  0.00     0.020 A 
ATOM     85  C   UNL     1      -1.160   2.805   6.452  1.00  0.00     0.020 A 
ATOM     86  C   UNL     1      -1.545   2.679   5.116  1.00  0.00     0.054 A 
BRANCH  86  87
ATOM     87  S   UNL     1      -1.856   1.050   4.375  1.00  0.00     0.124 S 
ATOM     88  O   UNL     1      -3.076   1.270   3.602  1.00  0.00    -0.237 OA
ATOM     89  O   UNL     1      -0.650   0.847   3.575  1.00  0.00    -0.237 OA
ATOM     90  O   UNL     1      -2.001   0.165   5.526  1.00  0.00    -0.744 OA
ENDBRANCH  86  87
ENDBRANCH  58  81
BRANCH  70  91
ATOM     91  C   UNL     1      -1.994   9.951  10.460  1.00  0.00    -0.014 A 
ATOM     92  C   UNL     1      -1.989  10.515  11.748  1.00  0.00     0.010 A 
ATOM     93  C   UNL     1      -0.881  10.188   9.626  1.00  0.00     0.010 A 
ATOM     94  C   UNL     1      -0.932  11.319  12.181  1.00  0.00     0.020 A 
ATOM     95  C   UNL     1       0.198  10.975  10.064  1.00  0.00     0.020 A 
ATOM     96  C   UNL     1       0.150  11.557  11.332  1.00  0.00     0.054 A 
BRANCH  96  97
ATOM     97  S   UNL     1       1.468  12.661  11.916  1.00  0.00     0.124 S 
ATOM     98  O   UNL     1       0.813  13.967  11.889  1.00  0.00    -0.237 OA
ATOM     99  O   UNL     1       1.758  12.139  13.250  1.00  0.00    -0.237 OA
ATOM    100  O   UNL     1       2.539  12.483  10.938  1.00  0.00    -0.744 OA
ENDBRANCH  96  97
ENDBRANCH  70  91
ENDBRANCH  44  45
ENDBRANCH  36  39
ENDBRANCH  34  35
ENDBRANCH  33  34
ENDBRANCH  32  33
ENDBRANCH   1  32
TORSDOF 21
