REMARK SMILES O=C(NCCCCCCNC(=O)[C@H]1CSCN1C(=O)c1cnc2ccccn2c1=O)c1ccc(-c2c3nc(c(-c4ccc(S(=O)(=O)[O-])cc4)c4ccc([nH]4)c(-c4ccc(S(=O)(=O)[O-])cc4)c4nc(c(-c5ccc(S(=O)(=O)[O-])cc5)c5ccc2[nH]5)C=C4)C=C3)cc1
REMARK SMILES IDX 6 1 5 2 4 3 3 4 1 5 2 6 31 8 32 9 90 10 33 11 89 12 34 13
REMARK SMILES IDX 35 14 36 15 83 16 37 17 88 18 82 19 84 20 38 21 87 22 81 23
REMARK SMILES IDX 80 24 39 26 69 27 50 28 68 29 51 30 54 31 67 32 85 33 52 34
REMARK SMILES IDX 53 35 66 37 86 38 55 39 40 40 41 41 49 42 42 43 48 44 43 45
REMARK SMILES IDX 44 46 45 47 46 48 47 49 70 50 71 51 79 52 72 53 78 54 73 55
REMARK SMILES IDX 74 56 75 57 76 58 77 59 56 60 57 61 65 62 58 63 64 64 59 65
REMARK SMILES IDX 60 66 61 67 62 68 63 69 7 70 8 71 9 72 10 73 11 74 12 76
REMARK SMILES IDX 13 77 14 78 17 79 15 80 16 81 18 82 19 83 20 84 21 85 29 86
REMARK SMILES IDX 22 87 28 88 30 89 23 90 27 91 24 92 26 93 25 94
REMARK H PARENT 3 7 84 25 54 36 10 75
REMARK Flexibility Score: inf
ROOT
ATOM      1  C   UNL     1       4.154   2.952  -2.837  1.00  0.00     0.002 C 
ENDROOT
BRANCH   1   2
ATOM      2  C   UNL     1       4.738   1.612  -2.394  1.00  0.00     0.021 C 
BRANCH   2   3
ATOM      3  C   UNL     1       4.445   1.177  -0.966  1.00  0.00     0.116 C 
BRANCH   3   4
ATOM      4  N   UNL     1       3.032   1.007  -0.681  1.00  0.00    -0.352 N 
ATOM      5  O   UNL     1       1.171  -0.036   0.048  1.00  0.00    -0.269 OA
ATOM      6  C   UNL     1       2.392  -0.029  -0.036  1.00  0.00     0.251 C 
ATOM      7  H   UNL     1       2.447   1.735  -0.993  1.00  0.00     0.163 HD
BRANCH   6   8
ATOM      8  C   UNL     1       3.182  -1.152   0.526  1.00  0.00     0.039 A 
ATOM      9  C   UNL     1       4.350  -0.920   1.255  1.00  0.00     0.014 A 
ATOM     10  C   UNL     1       2.736  -2.463   0.325  1.00  0.00     0.014 A 
ATOM     11  C   UNL     1       5.141  -1.992   1.655  1.00  0.00     0.010 A 
ATOM     12  C   UNL     1       3.489  -3.541   0.804  1.00  0.00     0.010 A 
ATOM     13  C   UNL     1       4.713  -3.315   1.450  1.00  0.00    -0.014 A 
BRANCH  13  14
ATOM     14  C   UNL     1       5.527  -4.429   2.003  1.00  0.00     0.031 A 
ATOM     15  C   UNL     1       6.208  -5.428   1.108  1.00  0.00     0.074 A 
ATOM     16  C   UNL     1       5.685  -4.500   3.340  1.00  0.00     0.049 A 
ATOM     17  N   UNL     1       7.006  -6.413   1.440  1.00  0.00    -0.248 NA
ATOM     18  C   UNL     1       5.967  -5.317  -0.339  1.00  0.00     0.031 C 
ATOM     19  C   UNL     1       5.056  -3.598   4.311  1.00  0.00     0.029 A 
ATOM     20  N   UNL     1       6.438  -5.343   4.115  1.00  0.00    -0.354 N 
ATOM     21  C   UNL     1       7.349  -7.047   0.252  1.00  0.00     0.074 A 
ATOM     22  C   UNL     1       6.659  -6.347  -0.811  1.00  0.00     0.031 C 
ATOM     23  C   UNL     1       5.493  -3.900   5.541  1.00  0.00     0.029 A 
ATOM     24  C   UNL     1       6.383  -5.051   5.457  1.00  0.00     0.049 A 
ATOM     25  H   UNL     1       6.968  -6.087   3.746  1.00  0.00     0.167 HD
ATOM     26  C   UNL     1       8.168  -8.111   0.065  1.00  0.00     0.031 A 
ATOM     27  C   UNL     1       6.972  -5.646   6.510  1.00  0.00     0.031 A 
ATOM     28  C   UNL     1       8.848  -8.809   1.127  1.00  0.00     0.049 A 
ATOM     29  C   UNL     1       7.867  -6.827   6.272  1.00  0.00     0.074 A 
ATOM     30  C   UNL     1       9.713  -9.887   1.033  1.00  0.00     0.029 A 
ATOM     31  N   UNL     1       8.740  -8.504   2.476  1.00  0.00    -0.354 N 
ATOM     32  N   UNL     1       8.201  -7.387   5.134  1.00  0.00    -0.248 NA
ATOM     33  C   UNL     1       8.463  -7.454   7.458  1.00  0.00     0.031 C 
ATOM     34  C   UNL     1      10.096 -10.258   2.327  1.00  0.00     0.029 A 
ATOM     35  C   UNL     1       9.510  -9.380   3.224  1.00  0.00     0.049 A 
ATOM     36  H   UNL     1       8.196  -7.772   2.847  1.00  0.00     0.167 HD
ATOM     37  C   UNL     1       9.050  -8.435   5.469  1.00  0.00     0.074 A 
ATOM     38  C   UNL     1       9.206  -8.405   6.909  1.00  0.00     0.031 C 
ATOM     39  C   UNL     1       9.641  -9.346   4.657  1.00  0.00     0.031 A 
BRANCH  26  40
ATOM     40  C   UNL     1       8.375  -8.602  -1.344  1.00  0.00    -0.014 A 
ATOM     41  C   UNL     1       9.184  -7.888  -2.245  1.00  0.00     0.010 A 
ATOM     42  C   UNL     1       7.824  -9.833  -1.746  1.00  0.00     0.010 A 
ATOM     43  C   UNL     1       9.424  -8.387  -3.529  1.00  0.00     0.020 A 
ATOM     44  C   UNL     1       8.079 -10.345  -3.022  1.00  0.00     0.020 A 
ATOM     45  C   UNL     1       8.870  -9.613  -3.909  1.00  0.00     0.054 A 
BRANCH  45  46
ATOM     46  S   UNL     1       9.241 -10.260  -5.564  1.00  0.00     0.124 S 
ATOM     47  O   UNL     1       8.426  -9.396  -6.414  1.00  0.00    -0.237 OA
ATOM     48  O   UNL     1      10.685 -10.061  -5.668  1.00  0.00    -0.237 OA
ATOM     49  O   UNL     1       8.810 -11.654  -5.497  1.00  0.00    -0.744 OA
ENDBRANCH  45  46
ENDBRANCH  26  40
BRANCH  27  50
ATOM     50  C   UNL     1       6.712  -5.146   7.886  1.00  0.00    -0.014 A 
ATOM     51  C   UNL     1       7.723  -4.505   8.622  1.00  0.00     0.010 A 
ATOM     52  C   UNL     1       5.438  -5.303   8.463  1.00  0.00     0.010 A 
ATOM     53  C   UNL     1       7.471  -4.051   9.920  1.00  0.00     0.020 A 
ATOM     54  C   UNL     1       5.174  -4.825   9.747  1.00  0.00     0.020 A 
ATOM     55  C   UNL     1       6.198  -4.216  10.475  1.00  0.00     0.054 A 
BRANCH  55  56
ATOM     56  S   UNL     1       5.876  -3.586  12.145  1.00  0.00     0.124 S 
ATOM     57  O   UNL     1       6.475  -4.623  12.978  1.00  0.00    -0.237 OA
ATOM     58  O   UNL     1       6.567  -2.299  12.139  1.00  0.00    -0.237 OA
ATOM     59  O   UNL     1       4.418  -3.500  12.199  1.00  0.00    -0.744 OA
ENDBRANCH  55  56
ENDBRANCH  27  50
BRANCH  39  60
ATOM     60  C   UNL     1      10.517 -10.374   5.319  1.00  0.00    -0.014 A 
ATOM     61  C   UNL     1       9.959 -11.419   6.077  1.00  0.00     0.010 A 
ATOM     62  C   UNL     1      11.913 -10.296   5.177  1.00  0.00     0.010 A 
ATOM     63  C   UNL     1      10.786 -12.341   6.723  1.00  0.00     0.020 A 
ATOM     64  C   UNL     1      12.742 -11.232   5.799  1.00  0.00     0.020 A 
ATOM     65  C   UNL     1      12.174 -12.236   6.586  1.00  0.00     0.054 A 
BRANCH  65  66
ATOM     66  S   UNL     1      13.230 -13.448   7.424  1.00  0.00     0.124 S 
ATOM     67  O   UNL     1      13.201 -12.971   8.804  1.00  0.00    -0.237 OA
ATOM     68  O   UNL     1      12.533 -14.709   7.180  1.00  0.00    -0.237 OA
ATOM     69  O   UNL     1      14.516 -13.313   6.744  1.00  0.00    -0.744 OA
ENDBRANCH  65  66
ENDBRANCH  39  60
ENDBRANCH  13  14
ENDBRANCH   6   8
ENDBRANCH   3   4
ENDBRANCH   2   3
ENDBRANCH   1   2
BRANCH   1  70
ATOM     70  C   UNL     1       4.372   4.154  -1.915  1.00  0.00     0.002 C 
BRANCH  70  71
ATOM     71  C   UNL     1       5.798   4.437  -1.439  1.00  0.00     0.021 C 
BRANCH  71  72
ATOM     72  C   UNL     1       6.888   4.484  -2.501  1.00  0.00     0.116 C 
BRANCH  72  73
ATOM     73  N   UNL     1       6.709   5.498  -3.510  1.00  0.00    -0.354 N 
ATOM     74  C   UNL     1       7.629   5.986  -4.389  1.00  0.00     0.243 C 
ATOM     75  H   UNL     1       5.807   5.888  -3.571  1.00  0.00     0.163 HD
ATOM     76  O   UNL     1       7.222   6.825  -5.205  1.00  0.00    -0.273 OA
BRANCH  74  77
ATOM     77  C   UNL     1       9.155   5.710  -4.280  1.00  0.00     0.185 C 
ATOM     78  C   UNL     1       9.785   6.947  -3.618  1.00  0.00     0.106 C 
ATOM     79  N   UNL     1       9.652   4.481  -3.635  1.00  0.00    -0.316 N 
ATOM     80  S   UNL     1      10.594   6.382  -2.107  1.00  0.00    -0.138 SA
ATOM     81  C   UNL     1      10.733   4.694  -2.694  1.00  0.00     0.190 C 
BRANCH  79  82
ATOM     82  C   UNL     1       9.344   3.260  -4.206  1.00  0.00     0.262 C 
ATOM     83  O   UNL     1       8.758   3.204  -5.289  1.00  0.00    -0.269 OA
BRANCH  82  84
ATOM     84  C   UNL     1       9.672   1.994  -3.493  1.00  0.00     0.124 A 
ATOM     85  C   UNL     1      10.046   0.944  -4.236  1.00  0.00     0.133 A 
ATOM     86  C   UNL     1       9.434   1.731  -2.054  1.00  0.00     0.270 A 
ATOM     87  N   UNL     1      10.301  -0.315  -3.767  1.00  0.00    -0.237 NA
ATOM     88  N   UNL     1       9.778   0.466  -1.592  1.00  0.00    -0.267 N 
ATOM     89  O   UNL     1       8.925   2.595  -1.338  1.00  0.00    -0.268 OA
ATOM     90  C   UNL     1      10.165  -0.519  -2.493  1.00  0.00     0.139 A 
ATOM     91  C   UNL     1       9.687   0.192  -0.230  1.00  0.00     0.096 A 
ATOM     92  C   UNL     1      10.424  -1.877  -1.939  1.00  0.00     0.048 A 
ATOM     93  C   UNL     1       9.952  -1.022   0.266  1.00  0.00     0.019 A 
ATOM     94  C   UNL     1      10.316  -2.094  -0.623  1.00  0.00     0.005 A 
ENDBRANCH  82  84
ENDBRANCH  79  82
ENDBRANCH  74  77
ENDBRANCH  72  73
ENDBRANCH  71  72
ENDBRANCH  70  71
ENDBRANCH   1  70
TORSDOF 18
