REMARK SMILES CC(C)C[C@@H](NC(=O)Cn1nc(O)ccc1=O)C(=O)NCCCCCCNC(=O)c1ccc(-c2c3nc(c(-c4ccc(S(=O)(=O)[O-])cc4)c4ccc([nH]4)c(-c4ccc(S(=O)(=O)[O-])cc4)c4nc(c(-c5ccc(S(=O)(=O)[O-])cc5)c5ccc2[nH]5)C=C4)C=C3)cc1
REMARK SMILES IDX 23 1 22 2 21 3 20 4 18 5 19 6 5 8 4 9 2 10 1 11 3 12 6 13
REMARK SMILES IDX 7 14 8 16 9 17 10 18 11 19 16 20 12 21 15 22 17 23 14 24
REMARK SMILES IDX 13 25 24 27 25 28 26 29 27 30 28 31 29 33 30 34 31 35 89 36
REMARK SMILES IDX 32 37 88 38 33 39 34 40 35 41 82 42 36 43 87 44 81 45 83 46
REMARK SMILES IDX 37 47 86 48 80 49 79 50 38 52 68 53 49 54 67 55 50 56 53 57
REMARK SMILES IDX 66 58 84 59 51 60 52 61 65 63 85 64 54 65 39 66 40 67 48 68
REMARK SMILES IDX 41 69 47 70 42 71 43 72 44 73 45 74 46 75 69 76 70 77 78 78
REMARK SMILES IDX 71 79 77 80 72 81 73 82 74 83 75 84 76 85 55 86 56 87 64 88
REMARK SMILES IDX 57 89 63 90 58 91 59 92 60 93 61 94 62 95
REMARK H PARENT 20 7 6 15 13 26 27 32 83 51 53 62
REMARK Flexibility Score: inf
ROOT
ATOM      1  C   UNL     1      -5.803  -1.044   5.059  1.00  0.00     0.002 C 
ENDROOT
BRANCH   1   2
ATOM      2  C   UNL     1      -4.497  -0.586   4.402  1.00  0.00     0.021 C 
BRANCH   2   3
ATOM      3  C   UNL     1      -4.144  -1.462   3.009  1.00  0.00     0.116 C 
BRANCH   3   4
ATOM      4  N   UNL     1      -3.870  -0.929   1.010  1.00  0.00    -0.354 N 
ATOM      5  C   UNL     1      -3.017  -0.868  -0.157  1.00  0.00     0.242 C 
ATOM      6  O   UNL     1      -3.675  -0.636  -1.192  1.00  0.00    -0.273 OA
ATOM      7  H   UNL     1      -4.725  -0.530   0.728  1.00  0.00     0.163 HD
BRANCH   5   8
ATOM      8  C   UNL     1      -1.411  -1.165  -0.355  1.00  0.00     0.171 C 
BRANCH   8   9
ATOM      9  C   UNL     1      -0.384  -0.489   0.562  1.00  0.00     0.038 C 
BRANCH   9  10
ATOM     10  C   UNL     1       1.148  -0.544   0.417  1.00  0.00    -0.015 C 
ATOM     11  C   UNL     1       1.713   0.009  -0.873  1.00  0.00     0.007 C 
ATOM     12  C   UNL     1       1.733   0.214   1.631  1.00  0.00     0.007 C 
ENDBRANCH   9  10
ENDBRANCH   8   9
BRANCH   8  13
ATOM     13  N   UNL     1      -1.025  -2.559  -0.534  1.00  0.00    -0.343 N 
ATOM     14  C   UNL     1      -1.020  -3.514   0.440  1.00  0.00     0.242 C 
ATOM     15  H   UNL     1      -0.742  -2.836  -1.436  1.00  0.00     0.164 HD
ATOM     16  O   UNL     1      -0.194  -4.426   0.347  1.00  0.00    -0.273 OA
BRANCH  14  17
ATOM     17  C   UNL     1      -2.144  -3.583   1.454  1.00  0.00     0.248 C 
BRANCH  17  18
ATOM     18  N   UNL     1      -2.955  -2.407   1.706  1.00  0.00    -0.217 N 
ATOM     19  N   UNL     1      -4.753  -2.718   1.381  1.00  0.00    -0.131 NA
ATOM     20  C   UNL     1      -2.445  -0.727   2.314  1.00  0.00     0.267 A 
ATOM     21  C   UNL     1      -5.720  -1.649   1.619  1.00  0.00     0.229 A 
ATOM     22  C   UNL     1      -3.899   0.588   2.285  1.00  0.00     0.079 A 
ATOM     23  O   UNL     1      -1.462  -0.478   3.017  1.00  0.00    -0.268 OA
ATOM     24  C   UNL     1      -5.336   0.159   2.044  1.00  0.00     0.075 A 
BRANCH  21  25
ATOM     25  O   UNL     1      -7.039  -1.844   1.774  1.00  0.00    -0.492 OA
ATOM     26  H   UNL     1      -7.411  -2.687   1.605  1.00  0.00     0.295 HD
ENDBRANCH  21  25
ENDBRANCH  17  18
ENDBRANCH  14  17
ENDBRANCH   8  13
ENDBRANCH   5   8
ENDBRANCH   3   4
ENDBRANCH   2   3
ENDBRANCH   1   2
BRANCH   1  27
ATOM     27  C   UNL     1      -5.928  -2.553   5.325  1.00  0.00     0.002 C 
BRANCH  27  28
ATOM     28  C   UNL     1      -4.947  -3.092   6.360  1.00  0.00     0.021 C 
BRANCH  28  29
ATOM     29  C   UNL     1      -5.066  -2.407   7.710  1.00  0.00     0.116 C 
BRANCH  29  30
ATOM     30  N   UNL     1      -6.448  -2.079   8.076  1.00  0.00    -0.352 N 
ATOM     31  C   UNL     1      -6.991  -1.958   9.327  1.00  0.00     0.251 C 
ATOM     32  H   UNL     1      -7.065  -1.926   7.324  1.00  0.00     0.163 HD
ATOM     33  O   UNL     1      -8.177  -1.714   9.499  1.00  0.00    -0.269 OA
BRANCH  31  34
ATOM     34  C   UNL     1      -6.069  -2.172  10.441  1.00  0.00     0.039 A 
ATOM     35  C   UNL     1      -4.913  -1.394  10.478  1.00  0.00     0.014 A 
ATOM     36  C   UNL     1      -6.226  -3.310  11.230  1.00  0.00     0.014 A 
ATOM     37  C   UNL     1      -3.822  -1.878  11.169  1.00  0.00     0.010 A 
ATOM     38  C   UNL     1      -5.166  -3.714  12.033  1.00  0.00     0.010 A 
ATOM     39  C   UNL     1      -3.942  -3.028  11.970  1.00  0.00    -0.014 A 
BRANCH  39  40
ATOM     40  C   UNL     1      -2.777  -3.465  12.769  1.00  0.00     0.031 A 
ATOM     41  C   UNL     1      -2.157  -4.819  12.570  1.00  0.00     0.074 A 
ATOM     42  C   UNL     1      -2.265  -2.587  13.653  1.00  0.00     0.049 A 
ATOM     43  N   UNL     1      -1.161  -5.359  13.222  1.00  0.00    -0.248 NA
ATOM     44  C   UNL     1      -2.723  -5.684  11.520  1.00  0.00     0.031 C 
ATOM     45  C   UNL     1      -2.787  -1.236  13.889  1.00  0.00     0.029 A 
ATOM     46  N   UNL     1      -1.180  -2.670  14.481  1.00  0.00    -0.354 N 
ATOM     47  C   UNL     1      -1.002  -6.633  12.690  1.00  0.00     0.074 A 
ATOM     48  C   UNL     1      -2.016  -6.797  11.672  1.00  0.00     0.031 C 
ATOM     49  C   UNL     1      -1.970  -0.589  14.726  1.00  0.00     0.029 A 
ATOM     50  C   UNL     1      -0.942  -1.512  15.183  1.00  0.00     0.049 A 
ATOM     51  H   UNL     1      -0.624  -3.478  14.566  1.00  0.00     0.167 HD
ATOM     52  C   UNL     1      -0.086  -7.570  13.027  1.00  0.00     0.031 A 
ATOM     53  C   UNL     1      -0.019  -1.227  16.120  1.00  0.00     0.031 A 
ATOM     54  C   UNL     1       0.930  -7.363  14.030  1.00  0.00     0.049 A 
ATOM     55  C   UNL     1       0.953  -2.298  16.503  1.00  0.00     0.074 A 
ATOM     56  C   UNL     1       1.920  -8.240  14.436  1.00  0.00     0.029 A 
ATOM     57  N   UNL     1       1.095  -6.201  14.772  1.00  0.00    -0.354 N 
ATOM     58  N   UNL     1       1.077  -3.505  16.004  1.00  0.00    -0.248 NA
ATOM     59  C   UNL     1       1.900  -1.982  17.576  1.00  0.00     0.031 C 
ATOM     60  C   UNL     1       2.635  -7.638  15.473  1.00  0.00     0.029 A 
ATOM     61  C   UNL     1       2.150  -6.352  15.657  1.00  0.00     0.049 A 
ATOM     62  H   UNL     1       0.544  -5.391  14.683  1.00  0.00     0.167 HD
ATOM     63  C   UNL     1       2.122  -4.095  16.701  1.00  0.00     0.074 A 
ATOM     64  C   UNL     1       2.614  -3.100  17.634  1.00  0.00     0.031 C 
ATOM     65  C   UNL     1       2.619  -5.350  16.584  1.00  0.00     0.031 A 
BRANCH  52  66
ATOM     66  C   UNL     1      -0.121  -8.909  12.333  1.00  0.00    -0.014 A 
ATOM     67  C   UNL     1      -0.409 -10.070  13.078  1.00  0.00     0.010 A 
ATOM     68  C   UNL     1       0.266  -9.046  10.988  1.00  0.00     0.010 A 
ATOM     69  C   UNL     1      -0.267 -11.338  12.509  1.00  0.00     0.020 A 
ATOM     70  C   UNL     1       0.379 -10.313  10.405  1.00  0.00     0.020 A 
ATOM     71  C   UNL     1       0.139 -11.452  11.178  1.00  0.00     0.054 A 
BRANCH  71  72
ATOM     72  S   UNL     1       0.366 -13.108  10.472  1.00  0.00     0.124 S 
ATOM     73  O   UNL     1       1.600 -13.551  11.113  1.00  0.00    -0.237 OA
ATOM     74  O   UNL     1      -0.849 -13.803  10.892  1.00  0.00    -0.237 OA
ATOM     75  O   UNL     1       0.462 -12.857   9.035  1.00  0.00    -0.744 OA
ENDBRANCH  71  72
ENDBRANCH  52  66
BRANCH  53  76
ATOM     76  C   UNL     1      -0.006   0.132  16.726  1.00  0.00    -0.014 A 
ATOM     77  C   UNL     1      -1.107   0.586  17.479  1.00  0.00     0.010 A 
ATOM     78  C   UNL     1       1.041   1.024  16.442  1.00  0.00     0.010 A 
ATOM     79  C   UNL     1      -1.201   1.924  17.864  1.00  0.00     0.020 A 
ATOM     80  C   UNL     1       0.970   2.356  16.863  1.00  0.00     0.020 A 
ATOM     81  C   UNL     1      -0.168   2.804  17.539  1.00  0.00     0.054 A 
BRANCH  81  82
ATOM     82  S   UNL     1      -0.344   4.552  17.988  1.00  0.00     0.124 S 
ATOM     83  O   UNL     1      -1.312   5.019  16.998  1.00  0.00    -0.237 OA
ATOM     84  O   UNL     1      -0.834   4.480  19.361  1.00  0.00    -0.237 OA
ATOM     85  O   UNL     1       1.009   5.082  17.838  1.00  0.00    -0.744 OA
ENDBRANCH  81  82
ENDBRANCH  53  76
BRANCH  65  86
ATOM     86  C   UNL     1       3.756  -5.737  17.491  1.00  0.00    -0.014 A 
ATOM     87  C   UNL     1       5.023  -6.010  16.943  1.00  0.00     0.010 A 
ATOM     88  C   UNL     1       3.539  -5.951  18.863  1.00  0.00     0.010 A 
ATOM     89  C   UNL     1       6.042  -6.531  17.742  1.00  0.00     0.020 A 
ATOM     90  C   UNL     1       4.567  -6.439  19.673  1.00  0.00     0.020 A 
ATOM     91  C   UNL     1       5.803  -6.752  19.101  1.00  0.00     0.054 A 
BRANCH  91  92
ATOM     92  S   UNL     1       7.125  -7.467  20.114  1.00  0.00     0.124 S 
ATOM     93  O   UNL     1       7.113  -8.865  19.692  1.00  0.00    -0.237 OA
ATOM     94  O   UNL     1       8.296  -6.695  19.703  1.00  0.00    -0.237 OA
ATOM     95  O   UNL     1       6.678  -7.224  21.484  1.00  0.00    -0.744 OA
ENDBRANCH  91  92
ENDBRANCH  65  86
ENDBRANCH  39  40
ENDBRANCH  31  34
ENDBRANCH  29  30
ENDBRANCH  28  29
ENDBRANCH  27  28
ENDBRANCH   1  27
TORSDOF 22
