REMARK SMILES NC(=O)c1ccnc(N(CC(=O)NCCCCCCNC(=O)c2ccc(-c3c4nc(c(-c5ccc(S(=O)(=O)[O-])cc5)c5ccc([nH]5)c(-c5ccc(S(=O)(=O)[O-])cc5)c5nc(c(-c6ccc(S(=O)(=O)[O-])cc6)c6ccc3[nH]6)C=C5)C=C4)cc2)CC(F)(F)F)c1
REMARK SMILES IDX 16 1 15 2 14 3 13 4 11 5 12 6 10 8 9 9 8 10 4 11 5 12 88 13
REMARK SMILES IDX 6 14 7 15 2 16 1 17 3 20 83 21 84 22 85 23 86 24 87 25 17 26
REMARK SMILES IDX 18 27 19 28 20 29 21 30 22 32 23 33 24 34 82 35 25 36 81 37
REMARK SMILES IDX 26 38 27 39 28 40 75 41 29 42 80 43 74 44 76 45 30 46 79 47
REMARK SMILES IDX 73 48 72 49 31 51 61 52 42 53 60 54 43 55 46 56 59 57 77 58
REMARK SMILES IDX 44 59 45 60 58 62 78 63 47 64 32 65 33 66 41 67 34 68 40 69
REMARK SMILES IDX 35 70 36 71 37 72 38 73 39 74 62 75 63 76 71 77 64 78 70 79
REMARK SMILES IDX 65 80 66 81 67 82 68 83 69 84 48 85 49 86 57 87 50 88 56 89
REMARK SMILES IDX 51 90 52 91 53 92 54 93 55 94
REMARK H PARENT 13 7 1 18 1 19 20 31 76 50 46 61
REMARK Flexibility Score: inf
ROOT
ATOM      1  C   UNL     1      -1.624  -2.743   7.758  1.00  0.00     0.002 C 
ENDROOT
BRANCH   1   2
ATOM      2  C   UNL     1      -0.625  -2.595   6.604  1.00  0.00     0.021 C 
BRANCH   2   3
ATOM      3  C   UNL     1       0.772  -3.111   6.943  1.00  0.00     0.116 C 
BRANCH   3   4
ATOM      4  N   UNL     1       0.780  -4.555   7.081  1.00  0.00    -0.355 N 
ATOM      5  C   UNL     1       1.265  -5.486   6.208  1.00  0.00     0.239 C 
ATOM      6  O   UNL     1       1.070  -6.682   6.446  1.00  0.00    -0.273 OA
ATOM      7  H   UNL     1       0.385  -4.909   7.911  1.00  0.00     0.163 HD
BRANCH   5   8
ATOM      8  C   UNL     1       2.051  -5.043   4.971  1.00  0.00     0.218 C 
BRANCH   8   9
ATOM      9  N   UNL     1       1.189  -4.460   3.925  1.00  0.00    -0.338 N 
BRANCH   9  10
ATOM     10  C   UNL     1       1.497  -3.203   3.439  1.00  0.00     0.130 A 
ATOM     11  C   UNL     1       1.100  -1.276   2.039  1.00  0.00     0.044 A 
ATOM     12  C   UNL     1       2.151  -0.603   2.643  1.00  0.00     0.034 A 
ATOM     13  C   UNL     1       0.765  -2.574   2.443  1.00  0.00     0.060 A 
ATOM     14  C   UNL     1       2.847  -1.290   3.607  1.00  0.00     0.114 A 
ATOM     15  N   UNL     1       2.550  -2.553   3.986  1.00  0.00    -0.239 NA
BRANCH  11  16
ATOM     16  C   UNL     1       0.281  -0.646   0.982  1.00  0.00     0.248 C 
ATOM     17  N   UNL     1       0.917   0.205   0.128  1.00  0.00    -0.366 N 
ATOM     18  H   UNL     1       0.413   0.648  -0.592  1.00  0.00     0.159 HD
ATOM     19  H   UNL     1       1.881   0.377   0.232  1.00  0.00     0.159 HD
ATOM     20  O   UNL     1      -0.906  -0.919   0.852  1.00  0.00    -0.270 OA
ENDBRANCH  11  16
ENDBRANCH   9  10
BRANCH   9  21
ATOM     21  C   UNL     1       0.154  -5.337   3.324  1.00  0.00     0.234 C 
BRANCH  21  22
ATOM     22  C   UNL     1      -1.307  -5.070   3.727  1.00  0.00     0.405 C 
ATOM     23  F   UNL     1      -1.688  -3.795   3.507  1.00  0.00    -0.169 F 
ATOM     24  F   UNL     1      -2.135  -5.859   2.997  1.00  0.00    -0.169 F 
ATOM     25  F   UNL     1      -1.539  -5.355   5.027  1.00  0.00    -0.169 F 
ENDBRANCH  21  22
ENDBRANCH   9  21
ENDBRANCH   8   9
ENDBRANCH   5   8
ENDBRANCH   3   4
ENDBRANCH   2   3
ENDBRANCH   1   2
BRANCH   1  26
ATOM     26  C   UNL     1      -1.260  -1.939   9.011  1.00  0.00     0.002 C 
BRANCH  26  27
ATOM     27  C   UNL     1      -1.062  -0.442   8.769  1.00  0.00     0.021 C 
BRANCH  27  28
ATOM     28  C   UNL     1      -2.286   0.258   8.192  1.00  0.00     0.116 C 
BRANCH  28  29
ATOM     29  N   UNL     1      -3.393   0.268   9.139  1.00  0.00    -0.352 N 
ATOM     30  C   UNL     1      -4.101   1.347   9.606  1.00  0.00     0.251 C 
ATOM     31  H   UNL     1      -3.667  -0.611   9.488  1.00  0.00     0.163 HD
ATOM     32  O   UNL     1      -4.851   1.236  10.570  1.00  0.00    -0.269 OA
BRANCH  30  33
ATOM     33  C   UNL     1      -3.928   2.651   8.935  1.00  0.00     0.039 A 
ATOM     34  C   UNL     1      -3.658   3.788   9.697  1.00  0.00     0.014 A 
ATOM     35  C   UNL     1      -3.993   2.726   7.541  1.00  0.00     0.014 A 
ATOM     36  C   UNL     1      -3.391   4.999   9.054  1.00  0.00     0.010 A 
ATOM     37  C   UNL     1      -3.654   3.912   6.902  1.00  0.00     0.010 A 
ATOM     38  C   UNL     1      -3.356   5.061   7.651  1.00  0.00    -0.014 A 
BRANCH  38  39
ATOM     39  C   UNL     1      -3.035   6.316   6.924  1.00  0.00     0.031 A 
ATOM     40  C   UNL     1      -4.070   6.925   6.018  1.00  0.00     0.074 A 
ATOM     41  C   UNL     1      -1.798   6.845   6.998  1.00  0.00     0.049 A 
ATOM     42  N   UNL     1      -3.947   7.915   5.173  1.00  0.00    -0.248 NA
ATOM     43  C   UNL     1      -5.413   6.320   6.045  1.00  0.00     0.031 C 
ATOM     44  C   UNL     1      -0.704   6.338   7.829  1.00  0.00     0.029 A 
ATOM     45  N   UNL     1      -1.246   7.918   6.343  1.00  0.00    -0.354 N 
ATOM     46  C   UNL     1      -5.183   8.031   4.548  1.00  0.00     0.074 A 
ATOM     47  C   UNL     1      -6.027   6.984   5.078  1.00  0.00     0.031 C 
ATOM     48  C   UNL     1       0.382   7.106   7.643  1.00  0.00     0.029 A 
ATOM     49  C   UNL     1       0.081   8.124   6.641  1.00  0.00     0.049 A 
ATOM     50  H   UNL     1      -1.752   8.488   5.720  1.00  0.00     0.167 HD
ATOM     51  C   UNL     1      -5.583   8.937   3.626  1.00  0.00     0.031 A 
ATOM     52  C   UNL     1       0.963   9.015   6.146  1.00  0.00     0.031 A 
ATOM     53  C   UNL     1      -4.740   9.982   3.111  1.00  0.00     0.049 A 
ATOM     54  C   UNL     1       0.506   9.994   5.097  1.00  0.00     0.074 A 
ATOM     55  C   UNL     1      -5.062  10.979   2.209  1.00  0.00     0.029 A 
ATOM     56  N   UNL     1      -3.408  10.165   3.454  1.00  0.00    -0.354 N 
ATOM     57  N   UNL     1      -0.679  10.117   4.547  1.00  0.00    -0.248 NA
ATOM     58  C   UNL     1       1.499  10.960   4.605  1.00  0.00     0.031 C 
ATOM     59  C   UNL     1      -3.910  11.729   1.960  1.00  0.00     0.029 A 
ATOM     60  C   UNL     1      -2.889  11.246   2.764  1.00  0.00     0.049 A 
ATOM     61  H   UNL     1      -2.907   9.608   4.092  1.00  0.00     0.167 HD
ATOM     62  C   UNL     1      -0.585  11.200   3.680  1.00  0.00     0.074 A 
ATOM     63  C   UNL     1       0.772  11.696   3.775  1.00  0.00     0.031 C 
ATOM     64  C   UNL     1      -1.541  11.741   2.886  1.00  0.00     0.031 A 
BRANCH  51  65
ATOM     65  C   UNL     1      -6.992   8.829   3.103  1.00  0.00    -0.014 A 
ATOM     66  C   UNL     1      -8.099   9.104   3.926  1.00  0.00     0.010 A 
ATOM     67  C   UNL     1      -7.211   8.488   1.756  1.00  0.00     0.010 A 
ATOM     68  C   UNL     1      -9.399   8.997   3.424  1.00  0.00     0.020 A 
ATOM     69  C   UNL     1      -8.508   8.413   1.240  1.00  0.00     0.020 A 
ATOM     70  C   UNL     1      -9.594   8.651   2.084  1.00  0.00     0.054 A 
BRANCH  70  71
ATOM     71  S   UNL     1     -11.291   8.546   1.454  1.00  0.00     0.124 S 
ATOM     72  O   UNL     1     -11.780   7.333   2.106  1.00  0.00    -0.237 OA
ATOM     73  O   UNL     1     -11.885   9.794   1.926  1.00  0.00    -0.237 OA
ATOM     74  O   UNL     1     -11.120   8.449   0.006  1.00  0.00    -0.744 OA
ENDBRANCH  70  71
ENDBRANCH  51  65
BRANCH  52  75
ATOM     75  C   UNL     1       2.369   9.024   6.638  1.00  0.00    -0.014 A 
ATOM     76  C   UNL     1       2.847  10.091   7.419  1.00  0.00     0.010 A 
ATOM     77  C   UNL     1       3.237   7.958   6.337  1.00  0.00     0.010 A 
ATOM     78  C   UNL     1       4.170  10.103   7.871  1.00  0.00     0.020 A 
ATOM     79  C   UNL     1       4.551   7.951   6.813  1.00  0.00     0.020 A 
ATOM     80  C   UNL     1       5.013   9.031   7.567  1.00  0.00     0.054 A 
BRANCH  80  81
ATOM     81  S   UNL     1       6.713   9.047   8.203  1.00  0.00     0.124 S 
ATOM     82  O   UNL     1       7.332  10.086   7.387  1.00  0.00    -0.237 OA
ATOM     83  O   UNL     1       6.518   9.377   9.612  1.00  0.00    -0.237 OA
ATOM     84  O   UNL     1       7.185   7.687   7.948  1.00  0.00    -0.744 OA
ENDBRANCH  80  81
ENDBRANCH  52  75
BRANCH  64  85
ATOM     85  C   UNL     1      -1.193  12.977   2.100  1.00  0.00    -0.014 A 
ATOM     86  C   UNL     1      -0.371  12.919   0.962  1.00  0.00     0.010 A 
ATOM     87  C   UNL     1      -1.799  14.199   2.448  1.00  0.00     0.010 A 
ATOM     88  C   UNL     1      -0.157  14.064   0.189  1.00  0.00     0.020 A 
ATOM     89  C   UNL     1      -1.611  15.338   1.662  1.00  0.00     0.020 A 
ATOM     90  C   UNL     1      -0.787  15.264   0.538  1.00  0.00     0.054 A 
BRANCH  90  91
ATOM     91  S   UNL     1      -0.569  16.709  -0.535  1.00  0.00     0.124 S 
ATOM     92  O   UNL     1       0.819  17.079  -0.269  1.00  0.00    -0.237 OA
ATOM     93  O   UNL     1      -0.830  16.161  -1.864  1.00  0.00    -0.237 OA
ATOM     94  O   UNL     1      -1.570  17.657  -0.051  1.00  0.00    -0.744 OA
ENDBRANCH  90  91
ENDBRANCH  64  85
ENDBRANCH  38  39
ENDBRANCH  30  33
ENDBRANCH  28  29
ENDBRANCH  27  28
ENDBRANCH  26  27
ENDBRANCH   1  26
TORSDOF 21
