REMARK SMILES Cc1cc2c(c(C)c1Cl)C=C(C(=O)NCCCCCCNC(=O)c1ccc(-c3c4nc(c(-c5ccc(S(=O)(=O)[O-])cc5)c5ccc([nH]5)c(-c5ccc(S(=O)(=O)[O-])cc5)c5nc(c(-c6ccc(S(=O)(=O)[O-])cc6)c6ccc3[nH]6)C=C5)C=C4)cc1)[C@@H](C(F)(F)F)O2
REMARK SMILES IDX 18 1 17 2 16 3 15 4 14 5 12 6 13 7 11 9 1 10 2 11 3 12 8 13
REMARK SMILES IDX 4 14 6 15 9 16 5 17 89 18 7 19 10 20 84 21 85 22 86 23 87 24
REMARK SMILES IDX 88 25 19 26 20 27 21 28 22 29 23 31 24 32 25 33 83 34 26 35
REMARK SMILES IDX 82 36 27 37 28 38 29 39 76 40 30 41 81 42 75 43 77 44 31 45
REMARK SMILES IDX 80 46 74 47 73 48 32 50 62 51 43 52 61 53 44 54 47 55 60 56
REMARK SMILES IDX 78 57 45 58 46 59 59 61 79 62 48 63 33 64 34 65 42 66 35 67
REMARK SMILES IDX 41 68 36 69 37 70 38 71 39 72 40 73 63 74 64 75 72 76 65 77
REMARK SMILES IDX 71 78 66 79 67 80 68 81 69 82 70 83 49 84 50 85 58 86 51 87
REMARK SMILES IDX 57 88 52 89 53 90 54 91 55 92 56 93
REMARK H PARENT 14 8 21 30 77 49 47 60
REMARK Flexibility Score: inf
ROOT
ATOM      1  C   UNL     1      -4.875   6.877   8.022  1.00  0.00     0.002 C 
ENDROOT
BRANCH   1   2
ATOM      2  C   UNL     1      -3.344   6.780   8.051  1.00  0.00     0.002 C 
BRANCH   2   3
ATOM      3  C   UNL     1      -2.755   5.581   7.302  1.00  0.00     0.021 C 
BRANCH   3   4
ATOM      4  C   UNL     1      -3.186   5.500   5.842  1.00  0.00     0.116 C 
BRANCH   4   5
ATOM      5  N   UNL     1      -2.365   6.344   4.993  1.00  0.00    -0.352 N 
ATOM      6  C   UNL     1      -1.557   6.183   3.920  1.00  0.00     0.251 C 
ATOM      7  O   UNL     1      -1.048   7.221   3.484  1.00  0.00    -0.270 OA
ATOM      8  H   UNL     1      -2.407   7.287   5.273  1.00  0.00     0.163 HD
BRANCH   6   9
ATOM      9  C   UNL     1      -1.251   4.878   3.258  1.00  0.00     0.067 C 
ATOM     10  C   UNL     1       1.178  -0.125  -0.133  1.00  0.00     0.046 C 
ATOM     11  C   UNL     1       0.821   1.218   0.441  1.00  0.00    -0.028 A 
ATOM     12  C   UNL     1      -0.083   1.266   1.503  1.00  0.00     0.052 A 
ATOM     13  C   UNL     1       1.353   2.426  -0.053  1.00  0.00     0.047 A 
ATOM     14  C   UNL     1      -0.442   2.482   2.072  1.00  0.00     0.128 A 
ATOM     15  C   UNL     1       1.001   3.673   0.522  1.00  0.00    -0.021 A 
ATOM     16  Cl  UNL     1       2.467   2.349  -1.386  1.00  0.00    -0.084 Cl
ATOM     17  C   UNL     1       0.098   3.686   1.614  1.00  0.00     0.022 A 
ATOM     18  O   UNL     1      -1.306   2.388   3.121  1.00  0.00    -0.475 OA
ATOM     19  C   UNL     1       1.567   4.977   0.011  1.00  0.00     0.047 C 
ATOM     20  C   UNL     1      -0.273   4.909   2.333  1.00  0.00     0.026 C 
ATOM     21  C   UNL     1      -1.979   3.599   3.542  1.00  0.00     0.314 C 
BRANCH  21  22
ATOM     22  C   UNL     1      -3.417   3.596   2.993  1.00  0.00     0.429 C 
ATOM     23  F   UNL     1      -4.144   2.608   3.570  1.00  0.00    -0.167 F 
ATOM     24  F   UNL     1      -4.073   4.752   3.247  1.00  0.00    -0.167 F 
ATOM     25  F   UNL     1      -3.456   3.406   1.655  1.00  0.00    -0.167 F 
ENDBRANCH  21  22
ENDBRANCH   6   9
ENDBRANCH   4   5
ENDBRANCH   3   4
ENDBRANCH   2   3
ENDBRANCH   1   2
BRANCH   1  26
ATOM     26  C   UNL     1      -5.619   5.593   8.398  1.00  0.00     0.021 C 
BRANCH  26  27
ATOM     27  C   UNL     1      -5.261   5.038   9.772  1.00  0.00     0.116 C 
BRANCH  27  28
ATOM     28  N   UNL     1      -5.571   5.984  10.830  1.00  0.00    -0.352 N 
ATOM     29  C   UNL     1      -6.451   5.856  11.872  1.00  0.00     0.251 C 
ATOM     30  H   UNL     1      -5.079   6.836  10.793  1.00  0.00     0.163 HD
ATOM     31  O   UNL     1      -6.764   6.839  12.539  1.00  0.00    -0.269 OA
BRANCH  29  32
ATOM     32  C   UNL     1      -7.027   4.532  12.178  1.00  0.00     0.039 A 
ATOM     33  C   UNL     1      -8.399   4.427  12.417  1.00  0.00     0.014 A 
ATOM     34  C   UNL     1      -6.210   3.398  12.236  1.00  0.00     0.014 A 
ATOM     35  C   UNL     1      -8.958   3.175  12.673  1.00  0.00     0.010 A 
ATOM     36  C   UNL     1      -6.779   2.143  12.417  1.00  0.00     0.010 A 
ATOM     37  C   UNL     1      -8.156   2.021  12.653  1.00  0.00    -0.014 A 
BRANCH  37  38
ATOM     38  C   UNL     1      -8.739   0.684  12.921  1.00  0.00     0.031 A 
ATOM     39  C   UNL     1      -8.342  -0.070  14.160  1.00  0.00     0.074 A 
ATOM     40  C   UNL     1      -9.605   0.143  12.041  1.00  0.00     0.049 A 
ATOM     41  N   UNL     1      -8.730  -1.252  14.564  1.00  0.00    -0.248 NA
ATOM     42  C   UNL     1      -7.367   0.579  15.053  1.00  0.00     0.031 C 
ATOM     43  C   UNL     1     -10.049   0.770  10.794  1.00  0.00     0.029 A 
ATOM     44  N   UNL     1     -10.274  -1.055  12.067  1.00  0.00    -0.354 N 
ATOM     45  C   UNL     1      -8.050  -1.486  15.753  1.00  0.00     0.074 A 
ATOM     46  C   UNL     1      -7.177  -0.355  15.973  1.00  0.00     0.031 C 
ATOM     47  C   UNL     1     -10.947  -0.030  10.196  1.00  0.00     0.029 A 
ATOM     48  C   UNL     1     -11.114  -1.241  10.994  1.00  0.00     0.049 A 
ATOM     49  H   UNL     1     -10.164  -1.718  12.786  1.00  0.00     0.167 HD
ATOM     50  C   UNL     1      -8.164  -2.534  16.602  1.00  0.00     0.031 A 
ATOM     51  C   UNL     1     -11.928  -2.270  10.689  1.00  0.00     0.031 A 
ATOM     52  C   UNL     1      -9.040  -3.652  16.384  1.00  0.00     0.049 A 
ATOM     53  C   UNL     1     -12.002  -3.446  11.625  1.00  0.00     0.074 A 
ATOM     54  C   UNL     1      -9.257  -4.746  17.202  1.00  0.00     0.029 A 
ATOM     55  N   UNL     1      -9.845  -3.820  15.267  1.00  0.00    -0.354 N 
ATOM     56  N   UNL     1     -11.389  -3.625  12.771  1.00  0.00    -0.248 NA
ATOM     57  C   UNL     1     -12.876  -4.558  11.227  1.00  0.00     0.031 C 
ATOM     58  C   UNL     1     -10.152  -5.603  16.555  1.00  0.00     0.029 A 
ATOM     59  C   UNL     1     -10.537  -5.015  15.360  1.00  0.00     0.049 A 
ATOM     60  H   UNL     1      -9.915  -3.183  14.520  1.00  0.00     0.167 HD
ATOM     61  C   UNL     1     -11.816  -4.863  13.239  1.00  0.00     0.074 A 
ATOM     62  C   UNL     1     -12.754  -5.378  12.263  1.00  0.00     0.031 C 
ATOM     63  C   UNL     1     -11.459  -5.516  14.372  1.00  0.00     0.031 A 
BRANCH  50  64
ATOM     64  C   UNL     1      -7.324  -2.513  17.851  1.00  0.00    -0.014 A 
ATOM     65  C   UNL     1      -7.602  -1.606  18.890  1.00  0.00     0.010 A 
ATOM     66  C   UNL     1      -6.278  -3.439  18.012  1.00  0.00     0.010 A 
ATOM     67  C   UNL     1      -6.827  -1.602  20.052  1.00  0.00     0.020 A 
ATOM     68  C   UNL     1      -5.518  -3.457  19.185  1.00  0.00     0.020 A 
ATOM     69  C   UNL     1      -5.790  -2.529  20.193  1.00  0.00     0.054 A 
BRANCH  69  70
ATOM     70  S   UNL     1      -4.822  -2.518  21.727  1.00  0.00     0.124 S 
ATOM     71  O   UNL     1      -4.079  -1.266  21.605  1.00  0.00    -0.237 OA
ATOM     72  O   UNL     1      -5.858  -2.536  22.756  1.00  0.00    -0.237 OA
ATOM     73  O   UNL     1      -4.014  -3.732  21.637  1.00  0.00    -0.744 OA
ENDBRANCH  69  70
ENDBRANCH  50  64
BRANCH  51  74
ATOM     74  C   UNL     1     -12.755  -2.222   9.452  1.00  0.00    -0.014 A 
ATOM     75  C   UNL     1     -14.150  -2.068   9.535  1.00  0.00     0.010 A 
ATOM     76  C   UNL     1     -12.152  -2.307   8.184  1.00  0.00     0.010 A 
ATOM     77  C   UNL     1     -14.927  -2.008   8.374  1.00  0.00     0.020 A 
ATOM     78  C   UNL     1     -12.922  -2.220   7.020  1.00  0.00     0.020 A 
ATOM     79  C   UNL     1     -14.307  -2.079   7.124  1.00  0.00     0.054 A 
BRANCH  79  80
ATOM     80  S   UNL     1     -15.333  -1.939   5.633  1.00  0.00     0.124 S 
ATOM     81  O   UNL     1     -16.068  -3.200   5.650  1.00  0.00    -0.237 OA
ATOM     82  O   UNL     1     -16.122  -0.741   5.908  1.00  0.00    -0.237 OA
ATOM     83  O   UNL     1     -14.355  -1.799   4.557  1.00  0.00    -0.744 OA
ENDBRANCH  79  80
ENDBRANCH  51  74
BRANCH  63  84
ATOM     84  C   UNL     1     -12.079  -6.864  14.624  1.00  0.00    -0.014 A 
ATOM     85  C   UNL     1     -11.679  -7.989  13.881  1.00  0.00     0.010 A 
ATOM     86  C   UNL     1     -13.003  -7.026  15.673  1.00  0.00     0.010 A 
ATOM     87  C   UNL     1     -12.205  -9.250  14.174  1.00  0.00     0.020 A 
ATOM     88  C   UNL     1     -13.509  -8.289  15.986  1.00  0.00     0.020 A 
ATOM     89  C   UNL     1     -13.111  -9.393  15.229  1.00  0.00     0.054 A 
BRANCH  89  90
ATOM     90  S   UNL     1     -13.723 -11.053  15.627  1.00  0.00     0.124 S 
ATOM     91  O   UNL     1     -14.586 -11.342  14.485  1.00  0.00    -0.237 OA
ATOM     92  O   UNL     1     -12.492 -11.837  15.699  1.00  0.00    -0.237 OA
ATOM     93  O   UNL     1     -14.416 -10.873  16.901  1.00  0.00    -0.744 OA
ENDBRANCH  89  90
ENDBRANCH  63  84
ENDBRANCH  37  38
ENDBRANCH  29  32
ENDBRANCH  27  28
ENDBRANCH  26  27
ENDBRANCH   1  26
TORSDOF 17
