REMARK SMILES COc1ccc(-n2c(SCc3cn(-c4ccc(C(=O)NCCCCCCNC(=O)c5ccc(-c6c7nc(c(-c8ccc(S(=O)(=O)[O-])cc8)c8ccc([nH]8)c(-c8ccc(S(=O)(=O)[O-])cc8)c8nc(c(-c9ccc(S(=O)(=O)[O-])cc9)c9ccc6[nH]9)C=C8)C=C7)cc5)cc4)nn3)nc3ccccc3c2=O)cc1
REMARK SMILES IDX 22 1 21 2 20 3 18 4 19 5 17 7 14 8 15 9 91 10 16 11 90 12
REMARK SMILES IDX 13 13 11 14 12 15 93 16 92 17 10 18 9 19 8 20 7 21 101 22
REMARK SMILES IDX 94 23 100 24 102 25 95 26 99 27 96 28 98 29 97 30 6 31 3 32
REMARK SMILES IDX 4 33 104 34 5 35 103 36 2 37 1 38 23 39 24 40 25 41 26 42
REMARK SMILES IDX 27 43 28 44 29 46 30 47 31 48 89 49 32 50 88 51 33 52 34 53
REMARK SMILES IDX 35 54 82 55 36 56 87 57 81 58 83 59 37 60 86 61 80 62 79 63
REMARK SMILES IDX 38 65 68 66 49 67 67 68 50 69 53 70 66 71 84 72 51 73 52 74
REMARK SMILES IDX 65 76 85 77 54 78 39 79 40 80 48 81 41 82 47 83 42 84 43 85
REMARK SMILES IDX 44 86 45 87 46 88 69 89 70 90 78 91 71 92 77 93 72 94 73 95
REMARK SMILES IDX 74 96 75 97 76 98 55 99 56 100 64 101 57 102 63 103 58 104
REMARK SMILES IDX 59 105 60 106 61 107 62 108
REMARK H PARENT 20 6 27 45 83 64 53 75
REMARK Flexibility Score: inf
ROOT
ATOM      1  C   UNL     1       1.196  -6.705   7.846  1.00  0.00     0.021 C 
ENDROOT
BRANCH   1   2
ATOM      2  C   UNL     1       1.298  -6.724   6.320  1.00  0.00     0.116 C 
BRANCH   2   3
ATOM      3  N   UNL     1      -0.031  -6.830   5.740  1.00  0.00    -0.352 N 
ATOM      4  C   UNL     1      -0.870  -5.893   5.194  1.00  0.00     0.251 C 
ATOM      5  O   UNL     1      -1.973  -6.254   4.787  1.00  0.00    -0.269 OA
ATOM      6  H   UNL     1      -0.397  -7.744   5.741  1.00  0.00     0.163 HD
BRANCH   4   7
ATOM      7  C   UNL     1      -0.422  -4.502   4.957  1.00  0.00     0.039 A 
ATOM      8  C   UNL     1       0.755  -2.194   4.090  1.00  0.00     0.066 A 
ATOM      9  C   UNL     1      -0.332  -2.675   3.372  1.00  0.00     0.029 A 
ATOM     10  C   UNL     1       1.159  -2.732   5.310  1.00  0.00     0.029 A 
ATOM     11  C   UNL     1      -0.902  -3.865   3.799  1.00  0.00     0.016 A 
ATOM     12  C   UNL     1       0.508  -3.856   5.775  1.00  0.00     0.016 A 
BRANCH   8  13
ATOM     13  N   UNL     1       1.435  -1.079   3.637  1.00  0.00    -0.220 N 
ATOM     14  C   UNL     1       3.105   0.283   3.677  1.00  0.00     0.093 A 
ATOM     15  C   UNL     1       2.780  -1.013   3.375  1.00  0.00     0.141 A 
ATOM     16  N   UNL     1       1.970   0.939   4.037  1.00  0.00    -0.134 NA
ATOM     17  N   UNL     1       0.944   0.126   3.931  1.00  0.00    -0.062 NA
BRANCH  14  18
ATOM     18  C   UNL     1       4.407   0.952   3.760  1.00  0.00     0.138 C 
BRANCH  18  19
ATOM     19  S   UNL     1       4.691   1.590   5.401  1.00  0.00    -0.081 SA
BRANCH  19  20
ATOM     20  C   UNL     1       3.367   2.797   5.712  1.00  0.00     0.176 A 
ATOM     21  N   UNL     1       3.321   3.852   4.809  1.00  0.00    -0.255 N 
ATOM     22  C   UNL     1       4.020   5.001   5.157  1.00  0.00     0.266 A 
ATOM     23  N   UNL     1       3.229   3.053   6.979  1.00  0.00    -0.223 NA
ATOM     24  C   UNL     1       4.736   4.894   6.465  1.00  0.00     0.066 A 
ATOM     25  O   UNL     1       4.129   6.016   4.476  1.00  0.00    -0.268 OA
ATOM     26  C   UNL     1       4.242   3.949   7.385  1.00  0.00     0.079 A 
ATOM     27  C   UNL     1       5.971   5.504   6.668  1.00  0.00     0.016 A 
ATOM     28  C   UNL     1       4.957   3.669   8.548  1.00  0.00     0.029 A 
ATOM     29  C   UNL     1       6.720   5.151   7.793  1.00  0.00     0.001 A 
ATOM     30  C   UNL     1       6.208   4.254   8.738  1.00  0.00     0.002 A 
BRANCH  21  31
ATOM     31  C   UNL     1       2.476   3.797   3.665  1.00  0.00     0.052 A 
ATOM     32  C   UNL     1       1.022   2.769   1.506  1.00  0.00     0.119 A 
ATOM     33  C   UNL     1       0.364   3.052   2.701  1.00  0.00     0.048 A 
ATOM     34  C   UNL     1       2.344   3.175   1.328  1.00  0.00     0.048 A 
ATOM     35  C   UNL     1       1.100   3.542   3.794  1.00  0.00     0.030 A 
ATOM     36  C   UNL     1       3.060   3.729   2.397  1.00  0.00     0.030 A 
BRANCH  32  37
ATOM     37  O   UNL     1       0.346   2.107   0.514  1.00  0.00    -0.497 OA
ATOM     38  C   UNL     1       0.876   0.793   0.297  1.00  0.00     0.278 C 
ENDBRANCH  32  37
ENDBRANCH  21  31
ENDBRANCH  19  20
ENDBRANCH  18  19
ENDBRANCH  14  18
ENDBRANCH   8  13
ENDBRANCH   4   7
ENDBRANCH   2   3
ENDBRANCH   1   2
BRANCH   1  39
ATOM     39  C   UNL     1       0.913  -8.093   8.431  1.00  0.00     0.002 C 
BRANCH  39  40
ATOM     40  C   UNL     1       1.947  -9.167   8.064  1.00  0.00     0.002 C 
BRANCH  40  41
ATOM     41  C   UNL     1       3.411  -8.807   8.358  1.00  0.00     0.021 C 
BRANCH  41  42
ATOM     42  C   UNL     1       3.723  -8.755   9.846  1.00  0.00     0.116 C 
BRANCH  42  43
ATOM     43  N   UNL     1       3.607 -10.079  10.454  1.00  0.00    -0.352 N 
ATOM     44  C   UNL     1       3.684 -10.440  11.784  1.00  0.00     0.251 C 
ATOM     45  H   UNL     1       3.451 -10.820   9.824  1.00  0.00     0.163 HD
ATOM     46  O   UNL     1       3.934 -11.589  12.100  1.00  0.00    -0.269 OA
BRANCH  44  47
ATOM     47  C   UNL     1       3.447  -9.409  12.810  1.00  0.00     0.039 A 
ATOM     48  C   UNL     1       4.205  -9.376  13.984  1.00  0.00     0.014 A 
ATOM     49  C   UNL     1       2.448  -8.468  12.578  1.00  0.00     0.014 A 
ATOM     50  C   UNL     1       3.994  -8.341  14.892  1.00  0.00     0.010 A 
ATOM     51  C   UNL     1       2.341  -7.374  13.394  1.00  0.00     0.010 A 
ATOM     52  C   UNL     1       3.067  -7.337  14.580  1.00  0.00    -0.014 A 
BRANCH  52  53
ATOM     53  C   UNL     1       2.909  -6.165  15.431  1.00  0.00     0.031 A 
ATOM     54  C   UNL     1       4.132  -5.326  15.554  1.00  0.00     0.074 A 
ATOM     55  C   UNL     1       1.695  -5.723  15.823  1.00  0.00     0.049 A 
ATOM     56  N   UNL     1       4.870  -5.141  16.598  1.00  0.00    -0.248 NA
ATOM     57  C   UNL     1       4.691  -4.738  14.322  1.00  0.00     0.031 C 
ATOM     58  C   UNL     1       0.376  -6.247  15.447  1.00  0.00     0.029 A 
ATOM     59  N   UNL     1       1.376  -4.602  16.521  1.00  0.00    -0.354 N 
ATOM     60  C   UNL     1       5.845  -4.223  16.216  1.00  0.00     0.074 A 
ATOM     61  C   UNL     1       5.821  -4.193  14.776  1.00  0.00     0.031 C 
ATOM     62  C   UNL     1      -0.566  -5.307  15.684  1.00  0.00     0.029 A 
ATOM     63  C   UNL     1       0.053  -4.192  16.378  1.00  0.00     0.049 A 
ATOM     64  H   UNL     1       2.026  -4.119  17.081  1.00  0.00     0.167 HD
ATOM     65  C   UNL     1       6.402  -3.356  17.110  1.00  0.00     0.031 A 
ATOM     66  C   UNL     1      -0.467  -2.993  16.748  1.00  0.00     0.031 A 
ATOM     67  C   UNL     1       6.077  -3.715  18.468  1.00  0.00     0.049 A 
ATOM     68  C   UNL     1       0.490  -2.384  17.708  1.00  0.00     0.074 A 
ATOM     69  C   UNL     1       6.241  -4.848  19.240  1.00  0.00     0.029 A 
ATOM     70  N   UNL     1       5.101  -2.971  19.092  1.00  0.00    -0.354 N 
ATOM     71  N   UNL     1       0.733  -2.876  18.890  1.00  0.00    -0.248 NA
ATOM     72  C   UNL     1       1.521  -1.506  17.174  1.00  0.00     0.031 C 
ATOM     73  C   UNL     1       5.025  -4.965  19.976  1.00  0.00     0.029 A 
ATOM     74  C   UNL     1       4.234  -3.854  19.682  1.00  0.00     0.049 A 
ATOM     75  H   UNL     1       5.038  -1.989  19.112  1.00  0.00     0.167 HD
ATOM     76  C   UNL     1       2.104  -2.739  19.055  1.00  0.00     0.074 A 
ATOM     77  C   UNL     1       2.521  -1.808  18.007  1.00  0.00     0.031 C 
ATOM     78  C   UNL     1       2.815  -3.610  19.833  1.00  0.00     0.031 A 
BRANCH  65  79
ATOM     79  C   UNL     1       6.876  -1.963  16.756  1.00  0.00    -0.014 A 
ATOM     80  C   UNL     1       7.459  -1.170  17.767  1.00  0.00     0.010 A 
ATOM     81  C   UNL     1       6.528  -1.307  15.558  1.00  0.00     0.010 A 
ATOM     82  C   UNL     1       7.609   0.215  17.614  1.00  0.00     0.020 A 
ATOM     83  C   UNL     1       6.718   0.064  15.375  1.00  0.00     0.020 A 
ATOM     84  C   UNL     1       7.225   0.823  16.419  1.00  0.00     0.054 A 
BRANCH  84  85
ATOM     85  S   UNL     1       7.340   2.621  16.260  1.00  0.00     0.124 S 
ATOM     86  O   UNL     1       6.328   3.071  17.209  1.00  0.00    -0.237 OA
ATOM     87  O   UNL     1       8.727   2.876  16.640  1.00  0.00    -0.237 OA
ATOM     88  O   UNL     1       7.033   2.858  14.851  1.00  0.00    -0.744 OA
ENDBRANCH  84  85
ENDBRANCH  65  79
BRANCH  66  89
ATOM     89  C   UNL     1      -1.544  -2.200  16.097  1.00  0.00    -0.014 A 
ATOM     90  C   UNL     1      -2.060  -1.050  16.727  1.00  0.00     0.010 A 
ATOM     91  C   UNL     1      -1.850  -2.390  14.734  1.00  0.00     0.010 A 
ATOM     92  C   UNL     1      -2.771  -0.081  15.999  1.00  0.00     0.020 A 
ATOM     93  C   UNL     1      -2.569  -1.433  14.005  1.00  0.00     0.020 A 
ATOM     94  C   UNL     1      -2.994  -0.265  14.633  1.00  0.00     0.054 A 
BRANCH  94  95
ATOM     95  S   UNL     1      -3.705   1.091  13.652  1.00  0.00     0.124 S 
ATOM     96  O   UNL     1      -5.093   1.109  14.105  1.00  0.00    -0.237 OA
ATOM     97  O   UNL     1      -2.892   2.234  14.058  1.00  0.00    -0.237 OA
ATOM     98  O   UNL     1      -3.508   0.654  12.271  1.00  0.00    -0.744 OA
ENDBRANCH  94  95
ENDBRANCH  66  89
BRANCH  78  99
ATOM     99  C   UNL     1       2.069  -4.538  20.764  1.00  0.00    -0.014 A 
ATOM    100  C   UNL     1       1.083  -5.458  20.355  1.00  0.00     0.010 A 
ATOM    101  C   UNL     1       2.489  -4.564  22.105  1.00  0.00     0.010 A 
ATOM    102  C   UNL     1       0.503  -6.344  21.277  1.00  0.00     0.020 A 
ATOM    103  C   UNL     1       1.933  -5.456  23.022  1.00  0.00     0.020 A 
ATOM    104  C   UNL     1       0.930  -6.331  22.609  1.00  0.00     0.054 A 
BRANCH 104 105
ATOM    105  S   UNL     1       0.181  -7.474  23.803  1.00  0.00     0.124 S 
ATOM    106  O   UNL     1      -1.190  -6.981  23.896  1.00  0.00    -0.237 OA
ATOM    107  O   UNL     1       0.341  -8.773  23.154  1.00  0.00    -0.237 OA
ATOM    108  O   UNL     1       0.985  -7.292  25.011  1.00  0.00    -0.744 OA
ENDBRANCH 104 105
ENDBRANCH  78  99
ENDBRANCH  52  53
ENDBRANCH  44  47
ENDBRANCH  42  43
ENDBRANCH  41  42
ENDBRANCH  40  41
ENDBRANCH  39  40
ENDBRANCH   1  39
TORSDOF 22
