REMARK SMILES O=C(NCCCCCCNC(=O)c1ccc2nc(-c3c[nH]nc3-c3ccc(F)cc3F)[nH]c2c1)c1ccc(-c2c3nc(c(-c4ccc(S(=O)(=O)[O-])cc4)c4ccc([nH]4)c(-c4ccc(S(=O)(=O)[O-])cc4)c4nc(c(-c5ccc(S(=O)(=O)[O-])cc5)c5ccc2[nH]5)C=C4)C=C3)cc1
REMARK SMILES IDX 6 1 5 2 4 3 3 4 1 5 2 6 35 8 36 9 94 10 37 11 93 12 38 13
REMARK SMILES IDX 39 14 40 15 87 16 41 17 92 18 86 19 88 20 42 21 91 22 85 23
REMARK SMILES IDX 84 24 43 26 73 27 54 28 72 29 55 30 58 31 71 32 89 33 56 34
REMARK SMILES IDX 57 35 70 37 90 38 59 39 44 40 45 41 53 42 46 43 52 44 47 45
REMARK SMILES IDX 48 46 49 47 50 48 51 49 74 50 75 51 83 52 76 53 82 54 77 55
REMARK SMILES IDX 78 56 79 57 80 58 81 59 60 60 61 61 69 62 62 63 68 64 63 65
REMARK SMILES IDX 64 66 65 67 66 68 67 69 7 70 8 71 9 72 10 73 11 74 12 76
REMARK SMILES IDX 13 77 14 78 34 79 15 80 33 81 16 82 32 83 17 84 18 85 19 87
REMARK SMILES IDX 20 88 23 89 21 90 22 91 24 93 25 94 30 95 26 96 29 97 31 98
REMARK SMILES IDX 27 99 28 100
REMARK H PARENT 3 7 88 25 58 36 10 75 32 86 21 92
REMARK Flexibility Score: inf
ROOT
ATOM      1  C   UNL     1       4.178  -1.510   3.518  1.00  0.00     0.002 C 
ENDROOT
BRANCH   1   2
ATOM      2  C   UNL     1       4.661  -0.430   2.547  1.00  0.00     0.021 C 
BRANCH   2   3
ATOM      3  C   UNL     1       4.402  -0.733   1.075  1.00  0.00     0.116 C 
BRANCH   3   4
ATOM      4  N   UNL     1       2.984  -0.857   0.786  1.00  0.00    -0.352 N 
ATOM      5  O   UNL     1       0.987  -0.239  -0.049  1.00  0.00    -0.269 OA
ATOM      6  C   UNL     1       2.209  -0.132  -0.083  1.00  0.00     0.251 C 
ATOM      7  H   UNL     1       2.512  -1.563   1.284  1.00  0.00     0.163 HD
BRANCH   6   8
ATOM      8  C   UNL     1       2.849   0.787  -1.047  1.00  0.00     0.039 A 
ATOM      9  C   UNL     1       3.954   0.381  -1.802  1.00  0.00     0.014 A 
ATOM     10  C   UNL     1       2.314   2.066  -1.215  1.00  0.00     0.014 A 
ATOM     11  C   UNL     1       4.590   1.287  -2.645  1.00  0.00     0.010 A 
ATOM     12  C   UNL     1       2.912   2.952  -2.112  1.00  0.00     0.010 A 
ATOM     13  C   UNL     1       4.067   2.577  -2.820  1.00  0.00    -0.014 A 
BRANCH  13  14
ATOM     14  C   UNL     1       4.686   3.517  -3.786  1.00  0.00     0.031 A 
ATOM     15  C   UNL     1       5.311   4.799  -3.315  1.00  0.00     0.074 A 
ATOM     16  C   UNL     1       4.633   3.232  -5.101  1.00  0.00     0.049 A 
ATOM     17  N   UNL     1       5.806   5.782  -4.022  1.00  0.00    -0.248 NA
ATOM     18  C   UNL     1       5.381   5.007  -1.861  1.00  0.00     0.031 C 
ATOM     19  C   UNL     1       4.053   2.016  -5.676  1.00  0.00     0.029 A 
ATOM     20  N   UNL     1       5.055   3.949  -6.191  1.00  0.00    -0.354 N 
ATOM     21  C   UNL     1       6.218   6.740  -3.104  1.00  0.00     0.074 A 
ATOM     22  C   UNL     1       5.898   6.226  -1.789  1.00  0.00     0.031 C 
ATOM     23  C   UNL     1       4.154   2.072  -7.012  1.00  0.00     0.029 A 
ATOM     24  C   UNL     1       4.746   3.351  -7.389  1.00  0.00     0.049 A 
ATOM     25  H   UNL     1       5.531   4.808  -6.122  1.00  0.00     0.167 HD
ATOM     26  C   UNL     1       6.805   7.939  -3.339  1.00  0.00     0.031 A 
ATOM     27  C   UNL     1       4.881   3.794  -8.654  1.00  0.00     0.031 A 
ATOM     28  C   UNL     1       7.099   8.447  -4.654  1.00  0.00     0.049 A 
ATOM     29  C   UNL     1       5.491   5.144  -8.895  1.00  0.00     0.074 A 
ATOM     30  C   UNL     1       7.723   9.633  -4.998  1.00  0.00     0.029 A 
ATOM     31  N   UNL     1       6.773   7.808  -5.842  1.00  0.00    -0.354 N 
ATOM     32  N   UNL     1       5.916   6.020  -8.016  1.00  0.00    -0.248 NA
ATOM     33  C   UNL     1       5.648   5.565 -10.293  1.00  0.00     0.031 C 
ATOM     34  C   UNL     1       7.717   9.740  -6.393  1.00  0.00     0.029 A 
ATOM     35  C   UNL     1       7.155   8.588  -6.920  1.00  0.00     0.049 A 
ATOM     36  H   UNL     1       6.334   6.929  -5.908  1.00  0.00     0.167 HD
ATOM     37  C   UNL     1       6.418   7.085  -8.754  1.00  0.00     0.074 A 
ATOM     38  C   UNL     1       6.243   6.743 -10.152  1.00  0.00     0.031 C 
ATOM     39  C   UNL     1       6.980   8.235  -8.309  1.00  0.00     0.031 A 
BRANCH  26  40
ATOM     40  C   UNL     1       7.115   8.805  -2.143  1.00  0.00    -0.014 A 
ATOM     41  C   UNL     1       8.106   8.446  -1.211  1.00  0.00     0.010 A 
ATOM     42  C   UNL     1       6.400  10.002  -1.951  1.00  0.00     0.010 A 
ATOM     43  C   UNL     1       8.325   9.230  -0.074  1.00  0.00     0.020 A 
ATOM     44  C   UNL     1       6.638  10.805  -0.832  1.00  0.00     0.020 A 
ATOM     45  C   UNL     1       7.579  10.397   0.115  1.00  0.00     0.054 A 
BRANCH  45  46
ATOM     46  S   UNL     1       7.855  11.374   1.618  1.00  0.00     0.124 S 
ATOM     47  O   UNL     1       7.223  10.539   2.637  1.00  0.00    -0.237 OA
ATOM     48  O   UNL     1       9.312  11.453   1.688  1.00  0.00    -0.237 OA
ATOM     49  O   UNL     1       7.177  12.638   1.341  1.00  0.00    -0.744 OA
ENDBRANCH  45  46
ENDBRANCH  26  40
BRANCH  27  50
ATOM     50  C   UNL     1       4.403   2.936  -9.770  1.00  0.00    -0.014 A 
ATOM     51  C   UNL     1       5.315   2.258 -10.595  1.00  0.00     0.010 A 
ATOM     52  C   UNL     1       3.023   2.718  -9.949  1.00  0.00     0.010 A 
ATOM     53  C   UNL     1       4.857   1.366 -11.569  1.00  0.00     0.020 A 
ATOM     54  C   UNL     1       2.563   1.807 -10.903  1.00  0.00     0.020 A 
ATOM     55  C   UNL     1       3.484   1.137 -11.708  1.00  0.00     0.054 A 
BRANCH  55  56
ATOM     56  S   UNL     1       2.923  -0.106 -12.905  1.00  0.00     0.124 S 
ATOM     57  O   UNL     1       3.167   0.565 -14.177  1.00  0.00    -0.237 OA
ATOM     58  O   UNL     1       3.795  -1.241 -12.610  1.00  0.00    -0.237 OA
ATOM     59  O   UNL     1       1.518  -0.305 -12.560  1.00  0.00    -0.744 OA
ENDBRANCH  55  56
ENDBRANCH  27  50
BRANCH  39  60
ATOM     60  C   UNL     1       7.502   9.205  -9.336  1.00  0.00    -0.014 A 
ATOM     61  C   UNL     1       6.634  10.011 -10.092  1.00  0.00     0.010 A 
ATOM     62  C   UNL     1       8.892   9.386  -9.460  1.00  0.00     0.010 A 
ATOM     63  C   UNL     1       7.149  10.982 -10.956  1.00  0.00     0.020 A 
ATOM     64  C   UNL     1       9.409  10.373 -10.303  1.00  0.00     0.020 A 
ATOM     65  C   UNL     1       8.533  11.164 -11.048  1.00  0.00     0.054 A 
BRANCH  65  66
ATOM     66  S   UNL     1       9.172  12.497 -12.100  1.00  0.00     0.124 S 
ATOM     67  O   UNL     1       8.930  11.970 -13.440  1.00  0.00    -0.237 OA
ATOM     68  O   UNL     1       8.343  13.635 -11.712  1.00  0.00    -0.237 OA
ATOM     69  O   UNL     1      10.579  12.599 -11.715  1.00  0.00    -0.744 OA
ENDBRANCH  65  66
ENDBRANCH  39  60
ENDBRANCH  13  14
ENDBRANCH   6   8
ENDBRANCH   3   4
ENDBRANCH   2   3
ENDBRANCH   1   2
BRANCH   1  70
ATOM     70  C   UNL     1       4.719  -2.917   3.249  1.00  0.00     0.002 C 
BRANCH  70  71
ATOM     71  C   UNL     1       6.245  -3.026   3.173  1.00  0.00     0.021 C 
BRANCH  71  72
ATOM     72  C   UNL     1       6.982  -2.505   4.404  1.00  0.00     0.116 C 
BRANCH  72  73
ATOM     73  N   UNL     1       6.650  -3.279   5.588  1.00  0.00    -0.352 N 
ATOM     74  C   UNL     1       7.490  -3.990   6.401  1.00  0.00     0.251 C 
ATOM     75  H   UNL     1       5.698  -3.294   5.837  1.00  0.00     0.163 HD
ATOM     76  O   UNL     1       7.051  -4.767   7.245  1.00  0.00    -0.269 OA
BRANCH  74  77
ATOM     77  C   UNL     1       8.946  -3.823   6.250  1.00  0.00     0.042 A 
ATOM     78  C   UNL     1       9.519  -2.554   6.412  1.00  0.00     0.016 A 
ATOM     79  C   UNL     1       9.716  -4.961   5.967  1.00  0.00     0.042 A 
ATOM     80  C   UNL     1      10.902  -2.386   6.304  1.00  0.00     0.031 A 
ATOM     81  C   UNL     1      11.089  -4.751   5.838  1.00  0.00     0.067 A 
ATOM     82  C   UNL     1      11.692  -3.513   6.040  1.00  0.00     0.089 A 
ATOM     83  N   UNL     1      12.133  -5.583   5.518  1.00  0.00    -0.338 N 
ATOM     84  N   UNL     1      13.052  -3.621   5.975  1.00  0.00    -0.228 NA
ATOM     85  C   UNL     1      13.297  -4.875   5.663  1.00  0.00     0.142 A 
ATOM     86  H   UNL     1      12.058  -6.523   5.234  1.00  0.00     0.168 HD
BRANCH  85  87
ATOM     87  C   UNL     1      14.660  -5.435   5.553  1.00  0.00     0.063 A 
ATOM     88  C   UNL     1      15.069  -6.457   4.733  1.00  0.00     0.117 A 
ATOM     89  C   UNL     1      15.811  -5.039   6.289  1.00  0.00     0.106 A 
ATOM     90  N   UNL     1      16.416  -6.553   4.931  1.00  0.00    -0.284 N 
ATOM     91  N   UNL     1      16.880  -5.761   5.912  1.00  0.00    -0.175 NA
ATOM     92  H   UNL     1      16.996  -7.149   4.404  1.00  0.00     0.189 HD
BRANCH  89  93
ATOM     93  C   UNL     1      15.861  -4.125   7.424  1.00  0.00     0.039 A 
ATOM     94  C   UNL     1      15.035  -4.367   8.538  1.00  0.00     0.016 A 
ATOM     95  C   UNL     1      16.693  -3.004   7.431  1.00  0.00     0.135 A 
ATOM     96  C   UNL     1      15.039  -3.492   9.625  1.00  0.00     0.040 A 
ATOM     97  C   UNL     1      16.704  -2.130   8.516  1.00  0.00     0.079 A 
ATOM     98  F   UNL     1      17.488  -2.729   6.385  1.00  0.00    -0.206 F 
ATOM     99  C   UNL     1      15.875  -2.382   9.602  1.00  0.00     0.126 A 
ATOM    100  F   UNL     1      15.880  -1.545  10.647  1.00  0.00    -0.207 F 
ENDBRANCH  89  93
ENDBRANCH  85  87
ENDBRANCH  74  77
ENDBRANCH  72  73
ENDBRANCH  71  72
ENDBRANCH  70  71
ENDBRANCH   1  70
TORSDOF 18
