REMARK SMILES Cc1c(NC(=O)c2ccc(I)cc2)cccc1C(=O)NCCCCCCNC(=O)c1ccc(-c2c3nc(c(-c4ccc(S(=O)(=O)[O-])cc4)c4ccc([nH]4)c(-c4ccc(S(=O)(=O)[O-])cc4)c4nc(c(-c5ccc(S(=O)(=O)[O-])cc5)c5ccc2[nH]5)C=C4)C=C3)cc1
REMARK SMILES IDX 24 1 23 2 22 3 21 4 20 5 18 6 19 7 17 9 1 10 2 11 3 12 14 13
REMARK SMILES IDX 16 14 15 15 4 16 5 17 6 19 7 20 8 21 13 22 9 23 12 24 10 25
REMARK SMILES IDX 11 26 25 27 26 28 27 29 28 30 29 32 30 33 31 34 89 35 32 36
REMARK SMILES IDX 88 37 33 38 34 39 35 40 82 41 36 42 87 43 81 44 83 45 37 46
REMARK SMILES IDX 86 47 80 48 79 49 38 51 68 52 49 53 67 54 50 55 53 56 66 57
REMARK SMILES IDX 84 58 51 59 52 60 65 62 85 63 54 64 39 65 40 66 48 67 41 68
REMARK SMILES IDX 47 69 42 70 43 71 44 72 45 73 46 74 69 75 70 76 78 77 71 78
REMARK SMILES IDX 77 79 72 80 73 81 74 82 75 83 76 84 55 85 56 86 64 87 57 88
REMARK SMILES IDX 63 89 58 90 59 91 60 92 61 93 62 94
REMARK H PARENT 20 8 4 18 27 31 83 50 53 61
REMARK Flexibility Score: inf
ROOT
ATOM      1  C   UNL     1       6.360   2.983   0.527  1.00  0.00     0.002 C 
ENDROOT
BRANCH   1   2
ATOM      2  C   UNL     1       5.458   2.830  -0.708  1.00  0.00     0.002 C 
BRANCH   2   3
ATOM      3  C   UNL     1       4.369   1.752  -0.631  1.00  0.00     0.021 C 
BRANCH   3   4
ATOM      4  C   UNL     1       3.266   2.003   0.410  1.00  0.00     0.116 C 
BRANCH   4   5
ATOM      5  N   UNL     1       2.140   2.689  -0.202  1.00  0.00    -0.352 N 
ATOM      6  C   UNL     1       0.844   2.332  -0.467  1.00  0.00     0.251 C 
ATOM      7  O   UNL     1       0.119   3.184  -0.986  1.00  0.00    -0.269 OA
ATOM      8  H   UNL     1       2.355   3.607  -0.487  1.00  0.00     0.163 HD
BRANCH   6   9
ATOM      9  C   UNL     1       0.223   1.024  -0.094  1.00  0.00     0.044 A 
ATOM     10  C   UNL     1       2.006  -0.498  -1.117  1.00  0.00     0.047 C 
ATOM     11  C   UNL     1       0.746  -0.265  -0.329  1.00  0.00    -0.015 A 
ATOM     12  C   UNL     1      -0.014  -1.397   0.061  1.00  0.00     0.045 A 
ATOM     13  C   UNL     1      -1.315  -1.250   0.554  1.00  0.00     0.026 A 
ATOM     14  C   UNL     1      -1.090   1.140   0.410  1.00  0.00     0.014 A 
ATOM     15  C   UNL     1      -1.860   0.018   0.711  1.00  0.00     0.003 A 
BRANCH  12  16
ATOM     16  N   UNL     1       0.581  -2.674  -0.003  1.00  0.00    -0.322 N 
ATOM     17  C   UNL     1       0.004  -3.907  -0.195  1.00  0.00     0.255 C 
ATOM     18  H   UNL     1       1.559  -2.683   0.107  1.00  0.00     0.170 HD
ATOM     19  O   UNL     1       0.532  -4.915   0.271  1.00  0.00    -0.269 OA
BRANCH  17  20
ATOM     20  C   UNL     1      -1.177  -4.054  -1.093  1.00  0.00     0.040 A 
ATOM     21  C   UNL     1      -2.022  -5.156  -0.914  1.00  0.00     0.015 A 
ATOM     22  C   UNL     1      -1.386  -3.195  -2.181  1.00  0.00     0.015 A 
ATOM     23  C   UNL     1      -3.091  -5.372  -1.790  1.00  0.00     0.015 A 
ATOM     24  C   UNL     1      -2.461  -3.403  -3.049  1.00  0.00     0.015 A 
ATOM     25  C   UNL     1      -3.311  -4.490  -2.848  1.00  0.00     0.013 A 
ATOM     26  I   UNL     1      -4.897  -4.810  -4.151  1.00  0.00    -0.044 I 
ENDBRANCH  17  20
ENDBRANCH  12  16
ENDBRANCH   6   9
ENDBRANCH   4   5
ENDBRANCH   3   4
ENDBRANCH   2   3
ENDBRANCH   1   2
BRANCH   1  27
ATOM     27  C   UNL     1       6.909   1.686   1.129  1.00  0.00     0.021 C 
BRANCH  27  28
ATOM     28  C   UNL     1       7.828   0.903   0.201  1.00  0.00     0.116 C 
BRANCH  28  29
ATOM     29  N   UNL     1       9.244   1.155   0.423  1.00  0.00    -0.352 N 
ATOM     30  C   UNL     1      10.201   0.225   0.047  1.00  0.00     0.251 C 
ATOM     31  H   UNL     1       9.526   1.997   0.847  1.00  0.00     0.163 HD
ATOM     32  O   UNL     1      11.045  -0.254   0.795  1.00  0.00    -0.269 OA
BRANCH  30  33
ATOM     33  C   UNL     1      10.136  -0.176  -1.372  1.00  0.00     0.039 A 
ATOM     34  C   UNL     1      10.904   0.514  -2.313  1.00  0.00     0.014 A 
ATOM     35  C   UNL     1       9.136  -1.066  -1.764  1.00  0.00     0.014 A 
ATOM     36  C   UNL     1      10.583   0.402  -3.665  1.00  0.00     0.010 A 
ATOM     37  C   UNL     1       8.773  -1.114  -3.098  1.00  0.00     0.010 A 
ATOM     38  C   UNL     1       9.470  -0.353  -4.046  1.00  0.00    -0.014 A 
BRANCH  38  39
ATOM     39  C   UNL     1       8.911  -0.346  -5.396  1.00  0.00     0.031 A 
ATOM     40  C   UNL     1       9.124  -1.495  -6.308  1.00  0.00     0.074 A 
ATOM     41  C   UNL     1       8.152   0.689  -5.819  1.00  0.00     0.049 A 
ATOM     42  N   UNL     1       9.034  -1.430  -7.596  1.00  0.00    -0.248 NA
ATOM     43  C   UNL     1       9.511  -2.816  -5.824  1.00  0.00     0.031 C 
ATOM     44  C   UNL     1       7.296   0.722  -7.003  1.00  0.00     0.029 A 
ATOM     45  N   UNL     1       8.190   2.018  -5.397  1.00  0.00    -0.354 N 
ATOM     46  C   UNL     1       9.066  -2.717  -8.081  1.00  0.00     0.074 A 
ATOM     47  C   UNL     1       9.434  -3.537  -6.947  1.00  0.00     0.031 C 
ATOM     48  C   UNL     1       7.161   1.997  -7.394  1.00  0.00     0.029 A 
ATOM     49  C   UNL     1       8.034   2.800  -6.555  1.00  0.00     0.049 A 
ATOM     50  H   UNL     1       8.303   2.343  -4.474  1.00  0.00     0.167 HD
ATOM     51  C   UNL     1       8.663  -2.983  -9.355  1.00  0.00     0.031 A 
ATOM     52  C   UNL     1       8.962   3.700  -6.996  1.00  0.00     0.031 A 
ATOM     53  C   UNL     1       8.324  -1.777 -10.107  1.00  0.00     0.049 A 
ATOM     54  C   UNL     1       9.453   3.432  -8.408  1.00  0.00     0.074 A 
ATOM     55  C   UNL     1       7.142  -1.187 -10.524  1.00  0.00     0.029 A 
ATOM     56  N   UNL     1       9.320  -0.845 -10.347  1.00  0.00    -0.354 N 
ATOM     57  N   UNL     1       9.062   2.433  -9.150  1.00  0.00    -0.248 NA
ATOM     58  C   UNL     1      10.514   4.214  -9.049  1.00  0.00     0.031 C 
ATOM     59  C   UNL     1       7.444   0.112 -11.025  1.00  0.00     0.029 A 
ATOM     60  C   UNL     1       8.807   0.306 -10.910  1.00  0.00     0.049 A 
ATOM     61  H   UNL     1      10.272  -0.986 -10.142  1.00  0.00     0.167 HD
ATOM     62  C   UNL     1       9.819   2.391 -10.290  1.00  0.00     0.074 A 
ATOM     63  C   UNL     1      10.704   3.535 -10.193  1.00  0.00     0.031 C 
ATOM     64  C   UNL     1       9.715   1.395 -11.213  1.00  0.00     0.031 A 
BRANCH  51  65
ATOM     65  C   UNL     1       8.358  -4.381  -9.843  1.00  0.00    -0.014 A 
ATOM     66  C   UNL     1       7.343  -4.583 -10.800  1.00  0.00     0.010 A 
ATOM     67  C   UNL     1       9.002  -5.538  -9.365  1.00  0.00     0.010 A 
ATOM     68  C   UNL     1       6.910  -5.866 -11.167  1.00  0.00     0.020 A 
ATOM     69  C   UNL     1       8.551  -6.828  -9.687  1.00  0.00     0.020 A 
ATOM     70  C   UNL     1       7.494  -6.983 -10.577  1.00  0.00     0.054 A 
BRANCH  70  71
ATOM     71  S   UNL     1       6.840  -8.627 -10.965  1.00  0.00     0.124 S 
ATOM     72  O   UNL     1       5.413  -8.473 -10.691  1.00  0.00    -0.237 OA
ATOM     73  O   UNL     1       7.199  -8.784 -12.371  1.00  0.00    -0.237 OA
ATOM     74  O   UNL     1       7.549  -9.509 -10.039  1.00  0.00    -0.744 OA
ENDBRANCH  70  71
ENDBRANCH  51  65
BRANCH  52  75
ATOM     75  C   UNL     1       9.788   4.297  -5.909  1.00  0.00    -0.014 A 
ATOM     76  C   UNL     1       9.133   5.124  -4.971  1.00  0.00     0.010 A 
ATOM     77  C   UNL     1      11.033   3.738  -5.573  1.00  0.00     0.010 A 
ATOM     78  C   UNL     1       9.618   5.239  -3.666  1.00  0.00     0.020 A 
ATOM     79  C   UNL     1      11.527   3.865  -4.268  1.00  0.00     0.020 A 
ATOM     80  C   UNL     1      10.776   4.550  -3.307  1.00  0.00     0.054 A 
BRANCH  80  81
ATOM     81  S   UNL     1      11.191   4.421  -1.540  1.00  0.00     0.124 S 
ATOM     82  O   UNL     1      11.223   5.818  -1.122  1.00  0.00    -0.237 OA
ATOM     83  O   UNL     1      10.077   3.627  -1.015  1.00  0.00    -0.237 OA
ATOM     84  O   UNL     1      12.478   3.734  -1.550  1.00  0.00    -0.744 OA
ENDBRANCH  80  81
ENDBRANCH  52  75
BRANCH  64  85
ATOM     85  C   UNL     1      10.515   1.359 -12.480  1.00  0.00    -0.014 A 
ATOM     86  C   UNL     1      10.641   2.486 -13.310  1.00  0.00     0.010 A 
ATOM     87  C   UNL     1      11.059   0.141 -12.938  1.00  0.00     0.010 A 
ATOM     88  C   UNL     1      11.331   2.409 -14.527  1.00  0.00     0.020 A 
ATOM     89  C   UNL     1      11.734   0.050 -14.158  1.00  0.00     0.020 A 
ATOM     90  C   UNL     1      11.882   1.192 -14.939  1.00  0.00     0.054 A 
BRANCH  90  91
ATOM     91  S   UNL     1      12.737   1.100 -16.533  1.00  0.00     0.124 S 
ATOM     92  O   UNL     1      11.902   1.931 -17.398  1.00  0.00    -0.237 OA
ATOM     93  O   UNL     1      14.046   1.658 -16.204  1.00  0.00    -0.237 OA
ATOM     94  O   UNL     1      12.726  -0.325 -16.851  1.00  0.00    -0.744 OA
ENDBRANCH  90  91
ENDBRANCH  64  85
ENDBRANCH  38  39
ENDBRANCH  30  33
ENDBRANCH  28  29
ENDBRANCH  27  28
ENDBRANCH   1  27
TORSDOF 18
