REMARK SMILES CO[C@@H]1C[C@H](C(=O)NCCCCCCNC(=O)c2ccc(-c3c4nc(c(-c5ccc(S(=O)(=O)[O-])cc5)c5ccc([nH]5)c(-c5ccc(S(=O)(=O)[O-])cc5)c5nc(c(-c6ccc(S(=O)(=O)[O-])cc6)c6ccc3[nH]6)C=C5)C=C4)cc2)N(C(=O)c2ccc([N+](=O)[O-])s2)C1
REMARK SMILES IDX 11 1 10 2 9 3 8 4 6 5 7 6 5 8 3 9 4 10 89 11 78 12 2 13 1 14
REMARK SMILES IDX 79 15 80 16 81 17 82 18 88 19 83 20 84 21 85 22 86 23 87 24
REMARK SMILES IDX 12 25 13 26 14 27 15 28 16 29 17 31 18 32 19 33 77 34 20 35
REMARK SMILES IDX 76 36 21 37 22 38 23 39 70 40 24 41 75 42 69 43 71 44 25 45
REMARK SMILES IDX 74 46 68 47 67 48 26 50 56 51 37 52 55 53 38 54 41 55 54 56
REMARK SMILES IDX 72 57 39 58 40 59 53 61 73 62 42 63 27 64 28 65 36 66 29 67
REMARK SMILES IDX 35 68 30 69 31 70 32 71 33 72 34 73 57 74 58 75 66 76 59 77
REMARK SMILES IDX 65 78 60 79 61 80 62 81 63 82 64 83 43 84 44 85 52 86 45 87
REMARK SMILES IDX 51 88 46 89 47 90 48 91 49 92 50 93
REMARK H PARENT 8 7 15 30 71 49 41 60
REMARK Flexibility Score: inf
ROOT
ATOM      1  C   UNL     1      -2.188   0.146   2.255  1.00  0.00     0.002 C 
ENDROOT
BRANCH   1   2
ATOM      2  C   UNL     1      -0.959  -0.621   1.757  1.00  0.00     0.021 C 
BRANCH   2   3
ATOM      3  C   UNL     1      -0.882  -2.084   2.196  1.00  0.00     0.116 C 
BRANCH   3   4
ATOM      4  N   UNL     1      -1.730  -2.933   1.378  1.00  0.00    -0.354 N 
ATOM      5  C   UNL     1      -1.442  -3.757   0.337  1.00  0.00     0.242 C 
ATOM      6  O   UNL     1      -2.406  -4.246  -0.267  1.00  0.00    -0.273 OA
ATOM      7  H   UNL     1      -2.684  -2.905   1.621  1.00  0.00     0.163 HD
BRANCH   5   8
ATOM      8  C   UNL     1      -0.014  -4.018  -0.199  1.00  0.00     0.177 C 
ATOM      9  C   UNL     1       1.832  -2.394  -0.328  1.00  0.00     0.139 C 
ATOM     10  C   UNL     1       0.537  -2.844  -1.011  1.00  0.00     0.069 C 
ATOM     11  C   UNL     1       2.156  -3.469   0.707  1.00  0.00     0.152 C 
ATOM     12  N   UNL     1       1.006  -4.350   0.785  1.00  0.00    -0.323 N 
BRANCH   9  13
ATOM     13  O   UNL     1       1.656  -1.136   0.321  1.00  0.00    -0.380 OA
ATOM     14  C   UNL     1       1.829  -0.029  -0.559  1.00  0.00     0.195 C 
ENDBRANCH   9  13
BRANCH  12  15
ATOM     15  C   UNL     1       1.066  -5.481   1.589  1.00  0.00     0.264 C 
ATOM     16  O   UNL     1       1.952  -5.601   2.433  1.00  0.00    -0.268 OA
BRANCH  15  17
ATOM     17  C   UNL     1       0.091  -6.531   1.358  1.00  0.00     0.099 A 
ATOM     18  C   UNL     1      -0.098  -7.302   0.224  1.00  0.00     0.033 A 
ATOM     19  S   UNL     1      -0.927  -7.038   2.640  1.00  0.00    -0.058 S 
ATOM     20  C   UNL     1      -1.106  -8.295   0.405  1.00  0.00     0.099 A 
ATOM     21  C   UNL     1      -1.627  -8.253   1.680  1.00  0.00     0.324 A 
BRANCH  21  22
ATOM     22  N   UNL     1      -2.636  -9.129   2.216  1.00  0.00     0.074 N 
ATOM     23  O   UNL     1      -3.025 -10.038   1.469  1.00  0.00    -0.258 OA
ATOM     24  O   UNL     1      -3.045  -8.927   3.367  1.00  0.00    -0.258 OA
ENDBRANCH  21  22
ENDBRANCH  15  17
ENDBRANCH  12  15
ENDBRANCH   5   8
ENDBRANCH   3   4
ENDBRANCH   2   3
ENDBRANCH   1   2
BRANCH   1  25
ATOM     25  C   UNL     1      -2.249   0.396   3.765  1.00  0.00     0.002 C 
BRANCH  25  26
ATOM     26  C   UNL     1      -1.004   1.024   4.406  1.00  0.00     0.021 C 
BRANCH  26  27
ATOM     27  C   UNL     1      -0.509   2.333   3.786  1.00  0.00     0.116 C 
BRANCH  27  28
ATOM     28  N   UNL     1      -1.476   3.409   3.907  1.00  0.00    -0.352 N 
ATOM     29  C   UNL     1      -1.279   4.726   4.242  1.00  0.00     0.251 C 
ATOM     30  H   UNL     1      -2.409   3.158   3.721  1.00  0.00     0.163 HD
ATOM     31  O   UNL     1      -2.251   5.455   4.422  1.00  0.00    -0.269 OA
BRANCH  29  32
ATOM     32  C   UNL     1       0.087   5.275   4.410  1.00  0.00     0.039 A 
ATOM     33  C   UNL     1       0.352   6.065   5.535  1.00  0.00     0.014 A 
ATOM     34  C   UNL     1       1.083   5.079   3.447  1.00  0.00     0.014 A 
ATOM     35  C   UNL     1       1.622   6.619   5.721  1.00  0.00     0.010 A 
ATOM     36  C   UNL     1       2.357   5.623   3.640  1.00  0.00     0.010 A 
ATOM     37  C   UNL     1       2.637   6.393   4.779  1.00  0.00    -0.014 A 
BRANCH  37  38
ATOM     38  C   UNL     1       3.994   6.956   4.982  1.00  0.00     0.031 A 
ATOM     39  C   UNL     1       4.426   8.191   4.247  1.00  0.00     0.074 A 
ATOM     40  C   UNL     1       4.853   6.341   5.815  1.00  0.00     0.049 A 
ATOM     41  N   UNL     1       5.601   8.768   4.228  1.00  0.00    -0.248 NA
ATOM     42  C   UNL     1       3.409   8.858   3.421  1.00  0.00     0.031 C 
ATOM     43  C   UNL     1       4.566   5.133   6.589  1.00  0.00     0.029 A 
ATOM     44  N   UNL     1       6.148   6.653   6.146  1.00  0.00    -0.354 N 
ATOM     45  C   UNL     1       5.477   9.849   3.367  1.00  0.00     0.074 A 
ATOM     46  C   UNL     1       4.106   9.857   2.895  1.00  0.00     0.031 C 
ATOM     47  C   UNL     1       5.653   4.808   7.310  1.00  0.00     0.029 A 
ATOM     48  C   UNL     1       6.712   5.777   7.039  1.00  0.00     0.049 A 
ATOM     49  H   UNL     1       6.626   7.431   5.777  1.00  0.00     0.167 HD
ATOM     50  C   UNL     1       6.419  10.748   2.991  1.00  0.00     0.031 A 
ATOM     51  C   UNL     1       7.946   5.751   7.577  1.00  0.00     0.031 A 
ATOM     52  C   UNL     1       7.778  10.760   3.459  1.00  0.00     0.049 A 
ATOM     53  C   UNL     1       8.949   6.802   7.206  1.00  0.00     0.074 A 
ATOM     54  C   UNL     1       8.813  11.602   3.090  1.00  0.00     0.029 A 
ATOM     55  N   UNL     1       8.286   9.900   4.418  1.00  0.00    -0.354 N 
ATOM     56  N   UNL     1       8.827   7.785   6.348  1.00  0.00    -0.248 NA
ATOM     57  C   UNL     1      10.255   6.738   7.877  1.00  0.00     0.031 C 
ATOM     58  C   UNL     1       9.948  11.257   3.837  1.00  0.00     0.029 A 
ATOM     59  C   UNL     1       9.614  10.203   4.671  1.00  0.00     0.049 A 
ATOM     60  H   UNL     1       7.779   9.180   4.856  1.00  0.00     0.167 HD
ATOM     61  C   UNL     1      10.045   8.453   6.369  1.00  0.00     0.074 A 
ATOM     62  C   UNL     1      10.884   7.774   7.336  1.00  0.00     0.031 C 
ATOM     63  C   UNL     1      10.435   9.527   5.640  1.00  0.00     0.031 A 
BRANCH  50  64
ATOM     64  C   UNL     1       5.994  11.781   1.990  1.00  0.00    -0.014 A 
ATOM     65  C   UNL     1       5.390  12.978   2.410  1.00  0.00     0.010 A 
ATOM     66  C   UNL     1       6.178  11.541   0.618  1.00  0.00     0.010 A 
ATOM     67  C   UNL     1       4.937  13.905   1.468  1.00  0.00     0.020 A 
ATOM     68  C   UNL     1       5.731  12.468  -0.326  1.00  0.00     0.020 A 
ATOM     69  C   UNL     1       5.093  13.635   0.105  1.00  0.00     0.054 A 
BRANCH  69  70
ATOM     70  S   UNL     1       4.482  14.820  -1.125  1.00  0.00     0.124 S 
ATOM     71  O   UNL     1       3.147  14.297  -1.404  1.00  0.00    -0.237 OA
ATOM     72  O   UNL     1       4.520  16.095  -0.414  1.00  0.00    -0.237 OA
ATOM     73  O   UNL     1       5.445  14.692  -2.217  1.00  0.00    -0.744 OA
ENDBRANCH  69  70
ENDBRANCH  50  64
BRANCH  51  74
ATOM     74  C   UNL     1       8.296   4.675   8.534  1.00  0.00    -0.014 A 
ATOM     75  C   UNL     1       8.120   4.873   9.914  1.00  0.00     0.010 A 
ATOM     76  C   UNL     1       8.762   3.437   8.064  1.00  0.00     0.010 A 
ATOM     77  C   UNL     1       8.401   3.843  10.814  1.00  0.00     0.020 A 
ATOM     78  C   UNL     1       9.038   2.403   8.962  1.00  0.00     0.020 A 
ATOM     79  C   UNL     1       8.858   2.614  10.332  1.00  0.00     0.054 A 
BRANCH  79  80
ATOM     80  S   UNL     1       9.146   1.240  11.482  1.00  0.00     0.124 S 
ATOM     81  O   UNL     1      10.590   1.310  11.681  1.00  0.00    -0.237 OA
ATOM     82  O   UNL     1       8.332   1.596  12.641  1.00  0.00    -0.237 OA
ATOM     83  O   UNL     1       8.667   0.083  10.728  1.00  0.00    -0.744 OA
ENDBRANCH  79  80
ENDBRANCH  51  74
BRANCH  63  84
ATOM     84  C   UNL     1      11.830  10.029   5.865  1.00  0.00    -0.014 A 
ATOM     85  C   UNL     1      12.905   9.481   5.145  1.00  0.00     0.010 A 
ATOM     86  C   UNL     1      12.068  11.063   6.785  1.00  0.00     0.010 A 
ATOM     87  C   UNL     1      14.206   9.947   5.356  1.00  0.00     0.020 A 
ATOM     88  C   UNL     1      13.367  11.533   6.997  1.00  0.00     0.020 A 
ATOM     89  C   UNL     1      14.430  10.963   6.290  1.00  0.00     0.054 A 
BRANCH  89  90
ATOM     90  S   UNL     1      16.114  11.589   6.546  1.00  0.00     0.124 S 
ATOM     91  O   UNL     1      16.589  10.741   7.636  1.00  0.00    -0.237 OA
ATOM     92  O   UNL     1      16.756  11.365   5.253  1.00  0.00    -0.237 OA
ATOM     93  O   UNL     1      15.901  12.993   6.891  1.00  0.00    -0.744 OA
ENDBRANCH  89  90
ENDBRANCH  63  84
ENDBRANCH  37  38
ENDBRANCH  29  32
ENDBRANCH  27  28
ENDBRANCH  26  27
ENDBRANCH  25  26
ENDBRANCH   1  25
TORSDOF 20
