REMARK SMILES Cc1nc(-c2ccccc2)sc1C(=O)N[C@@H](CC1=c2ccccc2=NC1)C(=O)NCCCCCCNC(=O)c1ccc(-c2c3nc(c(-c4ccc(S(=O)(=O)[O-])cc4)c4ccc([nH]4)c(-c4ccc(S(=O)(=O)[O-])cc4)c4nc(c(-c5ccc(S(=O)(=O)[O-])cc5)c5ccc2[nH]5)C=C4)C=C3)cc1
REMARK SMILES IDX 32 1 31 2 30 3 29 4 27 5 28 6 16 8 15 9 13 10 14 11 12 13
REMARK SMILES IDX 1 14 2 15 3 16 4 17 11 18 5 19 6 20 10 21 7 22 9 23 8 24
REMARK SMILES IDX 17 25 18 26 19 27 26 28 20 29 24 30 25 31 21 32 23 33 22 34
REMARK SMILES IDX 33 35 34 36 35 37 36 38 37 39 38 41 39 42 40 43 98 44 41 45
REMARK SMILES IDX 97 46 42 47 43 48 44 49 91 50 45 51 96 52 90 53 92 54 46 55
REMARK SMILES IDX 95 56 89 57 88 58 47 60 77 61 58 62 76 63 59 64 62 65 75 66
REMARK SMILES IDX 93 67 60 68 61 69 74 71 94 72 63 73 48 74 49 75 57 76 50 77
REMARK SMILES IDX 56 78 51 79 52 80 53 81 54 82 55 83 78 84 79 85 87 86 80 87
REMARK SMILES IDX 86 88 81 89 82 90 83 91 84 92 85 93 64 94 65 95 73 96 66 97
REMARK SMILES IDX 72 98 67 99 68 100 69 101 70 102 71 103
REMARK H PARENT 29 7 15 12 36 40 92 59 62 70
REMARK Flexibility Score: inf
ROOT
ATOM      1  C   UNL     1      -4.512  -6.744   3.212  1.00  0.00     0.002 C 
ENDROOT
BRANCH   1   2
ATOM      2  C   UNL     1      -3.364  -6.275   2.318  1.00  0.00     0.021 C 
BRANCH   2   3
ATOM      3  C   UNL     1      -3.738  -5.175   1.345  1.00  0.00     0.116 C 
BRANCH   3   4
ATOM      4  N   UNL     1      -4.084  -3.932   1.981  1.00  0.00    -0.354 N 
ATOM      5  C   UNL     1      -3.963  -2.669   1.505  1.00  0.00     0.242 C 
ATOM      6  O   UNL     1      -4.604  -1.787   2.090  1.00  0.00    -0.273 OA
ATOM      7  H   UNL     1      -4.461  -4.010   2.887  1.00  0.00     0.163 HD
BRANCH   5   8
ATOM      8  C   UNL     1      -3.118  -2.305   0.267  1.00  0.00     0.175 C 
BRANCH   8   9
ATOM      9  N   UNL     1      -1.729  -2.720   0.301  1.00  0.00    -0.339 N 
ATOM     10  C   UNL     1      -0.549  -2.049   0.126  1.00  0.00     0.263 C 
ATOM     11  O   UNL     1       0.423  -2.816   0.126  1.00  0.00    -0.268 OA
ATOM     12  H   UNL     1      -1.611  -3.679   0.489  1.00  0.00     0.164 HD
BRANCH  10  13
ATOM     13  C   UNL     1      -0.402  -0.600  -0.018  1.00  0.00     0.115 A 
ATOM     14  C   UNL     1      -2.638   0.766  -0.491  1.00  0.00     0.068 C 
ATOM     15  C   UNL     1      -1.194   0.533  -0.230  1.00  0.00     0.062 A 
ATOM     16  N   UNL     1      -0.514   1.735  -0.184  1.00  0.00    -0.241 NA
ATOM     17  C   UNL     1       0.772   1.562  -0.051  1.00  0.00     0.124 A 
ATOM     18  S   UNL     1       1.274  -0.047   0.079  1.00  0.00    -0.108 S 
BRANCH  17  19
ATOM     19  C   UNL     1       1.679   2.696   0.000  1.00  0.00     0.010 A 
ATOM     20  C   UNL     1       1.474   3.663   0.996  1.00  0.00     0.011 A 
ATOM     21  C   UNL     1       2.593   2.945  -1.028  1.00  0.00     0.011 A 
ATOM     22  C   UNL     1       2.151   4.877   0.950  1.00  0.00     0.001 A 
ATOM     23  C   UNL     1       3.266   4.167  -1.076  1.00  0.00     0.001 A 
ATOM     24  C   UNL     1       3.037   5.133  -0.094  1.00  0.00     0.000 A 
ENDBRANCH  17  19
ENDBRANCH  10  13
ENDBRANCH   8   9
BRANCH   8  25
ATOM     25  C   UNL     1      -3.783  -2.506  -1.121  1.00  0.00     0.068 C 
BRANCH  25  26
ATOM     26  C   UNL     1      -3.990  -3.905  -1.611  1.00  0.00    -0.037 C 
ATOM     27  C   UNL     1      -3.086  -4.826  -1.941  1.00  0.00     0.001 A 
ATOM     28  C   UNL     1      -5.376  -4.473  -1.720  1.00  0.00     0.174 C 
ATOM     29  C   UNL     1      -1.663  -4.867  -2.037  1.00  0.00     0.010 A 
ATOM     30  C   UNL     1      -3.898  -6.056  -1.998  1.00  0.00     0.065 A 
ATOM     31  N   UNL     1      -5.185  -5.931  -1.889  1.00  0.00    -0.280 NA
ATOM     32  C   UNL     1      -1.051  -6.062  -2.062  1.00  0.00     0.001 A 
ATOM     33  C   UNL     1      -3.153  -7.333  -2.037  1.00  0.00     0.028 A 
ATOM     34  C   UNL     1      -1.810  -7.301  -2.022  1.00  0.00     0.002 A 
ENDBRANCH  25  26
ENDBRANCH   8  25
ENDBRANCH   5   8
ENDBRANCH   3   4
ENDBRANCH   2   3
ENDBRANCH   1   2
BRANCH   1  35
ATOM     35  C   UNL     1      -5.814  -7.108   2.490  1.00  0.00     0.002 C 
BRANCH  35  36
ATOM     36  C   UNL     1      -5.681  -8.102   1.333  1.00  0.00     0.021 C 
BRANCH  36  37
ATOM     37  C   UNL     1      -4.918  -9.377   1.662  1.00  0.00     0.116 C 
BRANCH  37  38
ATOM     38  N   UNL     1      -5.492 -10.083   2.795  1.00  0.00    -0.352 N 
ATOM     39  C   UNL     1      -5.931 -11.382   2.874  1.00  0.00     0.251 C 
ATOM     40  H   UNL     1      -5.578  -9.556   3.622  1.00  0.00     0.163 HD
ATOM     41  O   UNL     1      -6.564 -11.763   3.848  1.00  0.00    -0.269 OA
BRANCH  39  42
ATOM     42  C   UNL     1      -5.647 -12.302   1.754  1.00  0.00     0.039 A 
ATOM     43  C   UNL     1      -6.691 -13.061   1.224  1.00  0.00     0.014 A 
ATOM     44  C   UNL     1      -4.360 -12.383   1.214  1.00  0.00     0.014 A 
ATOM     45  C   UNL     1      -6.458 -13.855   0.100  1.00  0.00     0.010 A 
ATOM     46  C   UNL     1      -4.149 -13.118   0.053  1.00  0.00     0.010 A 
ATOM     47  C   UNL     1      -5.197 -13.856  -0.518  1.00  0.00    -0.014 A 
BRANCH  47  48
ATOM     48  C   UNL     1      -4.955 -14.600  -1.778  1.00  0.00     0.031 A 
ATOM     49  C   UNL     1      -3.976 -15.739  -1.805  1.00  0.00     0.074 A 
ATOM     50  C   UNL     1      -5.564 -14.199  -2.912  1.00  0.00     0.049 A 
ATOM     51  N   UNL     1      -3.570 -16.452  -2.824  1.00  0.00    -0.248 NA
ATOM     52  C   UNL     1      -3.355 -16.110  -0.523  1.00  0.00     0.031 C 
ATOM     53  C   UNL     1      -6.520 -13.094  -3.014  1.00  0.00     0.029 A 
ATOM     54  N   UNL     1      -5.463 -14.670  -4.196  1.00  0.00    -0.354 N 
ATOM     55  C   UNL     1      -2.643 -17.350  -2.309  1.00  0.00     0.074 A 
ATOM     56  C   UNL     1      -2.504 -17.053  -0.900  1.00  0.00     0.031 C 
ATOM     57  C   UNL     1      -6.941 -12.993  -4.285  1.00  0.00     0.029 A 
ATOM     58  C   UNL     1      -6.245 -13.986  -5.097  1.00  0.00     0.049 A 
ATOM     59  H   UNL     1      -4.885 -15.425  -4.449  1.00  0.00     0.167 HD
ATOM     60  C   UNL     1      -1.981 -18.344  -2.949  1.00  0.00     0.031 A 
ATOM     61  C   UNL     1      -6.378 -14.133  -6.430  1.00  0.00     0.031 A 
ATOM     62  C   UNL     1      -2.115 -18.624  -4.354  1.00  0.00     0.049 A 
ATOM     63  C   UNL     1      -5.578 -15.195  -7.131  1.00  0.00     0.074 A 
ATOM     64  C   UNL     1      -1.518 -19.630  -5.092  1.00  0.00     0.029 A 
ATOM     65  N   UNL     1      -2.893 -17.889  -5.237  1.00  0.00    -0.354 N 
ATOM     66  N   UNL     1      -4.751 -16.076  -6.619  1.00  0.00    -0.248 NA
ATOM     67  C   UNL     1      -5.726 -15.284  -8.590  1.00  0.00     0.031 C 
ATOM     68  C   UNL     1      -1.881 -19.463  -6.432  1.00  0.00     0.029 A 
ATOM     69  C   UNL     1      -2.760 -18.394  -6.519  1.00  0.00     0.049 A 
ATOM     70  H   UNL     1      -3.457 -17.121  -4.988  1.00  0.00     0.167 HD
ATOM     71  C   UNL     1      -4.297 -16.837  -7.690  1.00  0.00     0.074 A 
ATOM     72  C   UNL     1      -4.954 -16.324  -8.876  1.00  0.00     0.031 C 
ATOM     73  C   UNL     1      -3.416 -17.867  -7.691  1.00  0.00     0.031 A 
BRANCH  60  74
ATOM     74  C   UNL     1      -1.037 -19.186  -2.129  1.00  0.00    -0.014 A 
ATOM     75  C   UNL     1      -1.516 -20.052  -1.129  1.00  0.00     0.010 A 
ATOM     76  C   UNL     1       0.348 -19.123  -2.369  1.00  0.00     0.010 A 
ATOM     77  C   UNL     1      -0.627 -20.793  -0.346  1.00  0.00     0.020 A 
ATOM     78  C   UNL     1       1.239 -19.889  -1.611  1.00  0.00     0.020 A 
ATOM     79  C   UNL     1       0.746 -20.701  -0.588  1.00  0.00     0.054 A 
BRANCH  79  80
ATOM     80  S   UNL     1       1.877 -21.669   0.449  1.00  0.00     0.124 S 
ATOM     81  O   UNL     1       1.794 -20.961   1.724  1.00  0.00    -0.237 OA
ATOM     82  O   UNL     1       1.271 -22.997   0.428  1.00  0.00    -0.237 OA
ATOM     83  O   UNL     1       3.160 -21.560  -0.241  1.00  0.00    -0.744 OA
ENDBRANCH  79  80
ENDBRANCH  60  74
BRANCH  61  84
ATOM     84  C   UNL     1      -7.314 -13.254  -7.183  1.00  0.00    -0.014 A 
ATOM     85  C   UNL     1      -8.493 -13.783  -7.737  1.00  0.00     0.010 A 
ATOM     86  C   UNL     1      -7.048 -11.879  -7.330  1.00  0.00     0.010 A 
ATOM     87  C   UNL     1      -9.383 -12.959  -8.431  1.00  0.00     0.020 A 
ATOM     88  C   UNL     1      -7.950 -11.046  -7.997  1.00  0.00     0.020 A 
ATOM     89  C   UNL     1      -9.109 -11.593  -8.551  1.00  0.00     0.054 A 
BRANCH  89  90
ATOM     90  S   UNL     1     -10.311 -10.535  -9.404  1.00  0.00     0.124 S 
ATOM     91  O   UNL     1     -10.155 -10.957 -10.793  1.00  0.00    -0.237 OA
ATOM     92  O   UNL     1     -11.569 -10.912  -8.765  1.00  0.00    -0.237 OA
ATOM     93  O   UNL     1      -9.848  -9.182  -9.106  1.00  0.00    -0.744 OA
ENDBRANCH  89  90
ENDBRANCH  61  84
BRANCH  73  94
ATOM     94  C   UNL     1      -3.114 -18.525  -9.012  1.00  0.00    -0.014 A 
ATOM     95  C   UNL     1      -2.326 -17.878  -9.980  1.00  0.00     0.010 A 
ATOM     96  C   UNL     1      -3.552 -19.841  -9.252  1.00  0.00     0.010 A 
ATOM     97  C   UNL     1      -1.991 -18.532 -11.169  1.00  0.00     0.020 A 
ATOM     98  C   UNL     1      -3.194 -20.508 -10.426  1.00  0.00     0.020 A 
ATOM     99  C   UNL     1      -2.420 -19.846 -11.380  1.00  0.00     0.054 A 
BRANCH  99 100
ATOM    100  S   UNL     1      -1.900 -20.697 -12.895  1.00  0.00     0.124 S 
ATOM    101  O   UNL     1      -2.678 -20.004 -13.918  1.00  0.00    -0.237 OA
ATOM    102  O   UNL     1      -0.461 -20.446 -12.923  1.00  0.00    -0.237 OA
ATOM    103  O   UNL     1      -2.279 -22.088 -12.660  1.00  0.00    -0.744 OA
ENDBRANCH  99 100
ENDBRANCH  73  94
ENDBRANCH  47  48
ENDBRANCH  39  42
ENDBRANCH  37  38
ENDBRANCH  36  37
ENDBRANCH  35  36
ENDBRANCH   1  35
TORSDOF 21
