REMARK SMILES COc1ccc(Nc2c(C(=O)NCCCCCCNC(=O)c3ccc(-c4c5nc(c(-c6ccc(S(=O)(=O)[O-])cc6)c6ccc([nH]6)c(-c6ccc(S(=O)(=O)[O-])cc6)c6nc(c(-c7ccc(S(=O)(=O)[O-])cc7)c7ccc4[nH]7)C=C6)C=C5)cc3)[nH]c(=O)[nH]c2=O)cc1
REMARK SMILES IDX 15 1 14 2 13 3 12 4 10 5 11 6 9 8 8 9 86 10 82 11 85 12
REMARK SMILES IDX 87 13 83 14 84 17 7 18 6 20 3 21 4 22 89 23 5 24 88 25 2 26
REMARK SMILES IDX 1 27 16 28 17 29 18 30 19 31 20 32 21 34 22 35 23 36 81 37
REMARK SMILES IDX 24 38 80 39 25 40 26 41 27 42 74 43 28 44 79 45 73 46 75 47
REMARK SMILES IDX 29 48 78 49 72 50 71 51 30 53 60 54 41 55 59 56 42 57 45 58
REMARK SMILES IDX 58 59 76 60 43 61 44 62 57 64 77 65 46 66 31 67 32 68 40 69
REMARK SMILES IDX 33 70 39 71 34 72 35 73 36 74 37 75 38 76 61 77 62 78 70 79
REMARK SMILES IDX 63 80 69 81 64 82 65 83 66 84 67 85 68 86 47 87 48 88 56 89
REMARK SMILES IDX 49 90 55 91 50 92 51 93 52 94 53 95 54 96
REMARK H PARENT 12 7 82 15 85 16 7 19 19 33 75 52 45 63
REMARK Flexibility Score: inf
ROOT
ATOM      1  C   UNL     1       5.465   5.072  -1.895  1.00  0.00     0.002 C 
ENDROOT
BRANCH   1   2
ATOM      2  C   UNL     1       3.937   5.126  -1.873  1.00  0.00     0.021 C 
BRANCH   2   3
ATOM      3  C   UNL     1       3.272   5.973  -0.797  1.00  0.00     0.116 C 
BRANCH   3   4
ATOM      4  N   UNL     1       3.541   7.383  -0.849  1.00  0.00    -0.351 N 
ATOM      5  C   UNL     1       2.833   8.415  -0.328  1.00  0.00     0.270 C 
ATOM      6  O   UNL     1       3.268   9.553  -0.556  1.00  0.00    -0.268 OA
ATOM      7  H   UNL     1       4.360   7.636  -1.333  1.00  0.00     0.163 HD
BRANCH   5   8
ATOM      8  C   UNL     1       1.500   8.323   0.399  1.00  0.00     0.137 A 
ATOM      9  C   UNL     1       1.052   7.400   1.281  1.00  0.00     0.134 A 
ATOM     10  C   UNL     1      -0.238   7.749   2.004  1.00  0.00     0.278 A 
ATOM     11  N   UNL     1       0.742   9.458   0.148  1.00  0.00    -0.301 N 
ATOM     12  N   UNL     1      -0.941   8.830   1.570  1.00  0.00    -0.272 N 
ATOM     13  O   UNL     1      -0.623   7.098   2.973  1.00  0.00    -0.267 OA
ATOM     14  C   UNL     1      -0.471   9.738   0.683  1.00  0.00     0.326 A 
ATOM     15  H   UNL     1       1.119  10.120  -0.475  1.00  0.00     0.172 HD
ATOM     16  H   UNL     1      -1.850   8.960   1.925  1.00  0.00     0.175 HD
ATOM     17  O   UNL     1      -1.091  10.761   0.407  1.00  0.00    -0.248 OA
BRANCH   9  18
ATOM     18  N   UNL     1       1.632   6.216   1.717  1.00  0.00    -0.349 N 
ATOM     19  H   UNL     1       2.394   6.277   2.337  1.00  0.00     0.167 HD
BRANCH  18  20
ATOM     20  C   UNL     1       1.195   4.917   1.324  1.00  0.00     0.039 A 
ATOM     21  C   UNL     1       0.652   2.324   0.337  1.00  0.00     0.119 A 
ATOM     22  C   UNL     1      -0.090   3.421  -0.099  1.00  0.00     0.048 A 
ATOM     23  C   UNL     1       1.655   2.518   1.284  1.00  0.00     0.048 A 
ATOM     24  C   UNL     1       0.180   4.705   0.382  1.00  0.00     0.030 A 
ATOM     25  C   UNL     1       1.918   3.804   1.776  1.00  0.00     0.030 A 
BRANCH  21  26
ATOM     26  O   UNL     1       0.309   1.139  -0.250  1.00  0.00    -0.497 OA
ATOM     27  C   UNL     1       0.995  -0.026   0.192  1.00  0.00     0.278 C 
ENDBRANCH  21  26
ENDBRANCH  18  20
ENDBRANCH   9  18
ENDBRANCH   5   8
ENDBRANCH   3   4
ENDBRANCH   2   3
ENDBRANCH   1   2
BRANCH   1  28
ATOM     28  C   UNL     1       6.212   4.851  -0.578  1.00  0.00     0.002 C 
BRANCH  28  29
ATOM     29  C   UNL     1       5.772   3.705   0.337  1.00  0.00     0.021 C 
BRANCH  29  30
ATOM     30  C   UNL     1       5.559   2.331  -0.288  1.00  0.00     0.116 C 
BRANCH  30  31
ATOM     31  N   UNL     1       6.741   1.806  -0.940  1.00  0.00    -0.352 N 
ATOM     32  C   UNL     1       7.334   0.570  -0.866  1.00  0.00     0.251 C 
ATOM     33  H   UNL     1       7.196   2.443  -1.538  1.00  0.00     0.163 HD
ATOM     34  O   UNL     1       8.397   0.396  -1.462  1.00  0.00    -0.269 OA
BRANCH  32  35
ATOM     35  C   UNL     1       6.752  -0.549  -0.077  1.00  0.00     0.039 A 
ATOM     36  C   UNL     1       7.637  -1.422   0.569  1.00  0.00     0.014 A 
ATOM     37  C   UNL     1       5.380  -0.812  -0.024  1.00  0.00     0.014 A 
ATOM     38  C   UNL     1       7.155  -2.527   1.281  1.00  0.00     0.010 A 
ATOM     39  C   UNL     1       4.894  -1.883   0.737  1.00  0.00     0.010 A 
ATOM     40  C   UNL     1       5.777  -2.764   1.381  1.00  0.00    -0.014 A 
BRANCH  40  41
ATOM     41  C   UNL     1       5.261  -3.956   2.110  1.00  0.00     0.031 A 
ATOM     42  C   UNL     1       4.575  -5.069   1.356  1.00  0.00     0.074 A 
ATOM     43  C   UNL     1       5.386  -4.041   3.450  1.00  0.00     0.049 A 
ATOM     44  N   UNL     1       4.041  -6.171   1.818  1.00  0.00    -0.248 NA
ATOM     45  C   UNL     1       4.456  -4.912  -0.103  1.00  0.00     0.031 C 
ATOM     46  C   UNL     1       5.995  -3.026   4.312  1.00  0.00     0.029 A 
ATOM     47  N   UNL     1       5.003  -5.030   4.323  1.00  0.00    -0.354 N 
ATOM     48  C   UNL     1       3.503  -6.826   0.715  1.00  0.00     0.074 A 
ATOM     49  C   UNL     1       3.746  -5.981  -0.435  1.00  0.00     0.031 C 
ATOM     50  C   UNL     1       5.959  -3.453   5.586  1.00  0.00     0.029 A 
ATOM     51  C   UNL     1       5.309  -4.759   5.636  1.00  0.00     0.049 A 
ATOM     52  H   UNL     1       4.551  -5.856   4.035  1.00  0.00     0.167 HD
ATOM     53  C   UNL     1       2.877  -8.027   0.656  1.00  0.00     0.031 A 
ATOM     54  C   UNL     1       5.096  -5.480   6.754  1.00  0.00     0.031 A 
ATOM     55  C   UNL     1       2.666  -8.892   1.785  1.00  0.00     0.049 A 
ATOM     56  C   UNL     1       4.447  -6.834   6.655  1.00  0.00     0.074 A 
ATOM     57  C   UNL     1       2.085 -10.149   1.810  1.00  0.00     0.029 A 
ATOM     58  N   UNL     1       3.041  -8.601   3.087  1.00  0.00    -0.354 N 
ATOM     59  N   UNL     1       3.990  -7.452   5.593  1.00  0.00    -0.248 NA
ATOM     60  C   UNL     1       4.309  -7.598   7.904  1.00  0.00     0.031 C 
ATOM     61  C   UNL     1       2.088 -10.609   3.131  1.00  0.00     0.029 A 
ATOM     62  C   UNL     1       2.704  -9.653   3.921  1.00  0.00     0.049 A 
ATOM     63  H   UNL     1       3.482  -7.769   3.375  1.00  0.00     0.167 HD
ATOM     64  C   UNL     1       3.539  -8.689   6.042  1.00  0.00     0.074 A 
ATOM     65  C   UNL     1       3.787  -8.736   7.467  1.00  0.00     0.031 C 
ATOM     66  C   UNL     1       2.972  -9.696   5.335  1.00  0.00     0.031 A 
BRANCH  53  67
ATOM     67  C   UNL     1       2.374  -8.484  -0.686  1.00  0.00    -0.014 A 
ATOM     68  C   UNL     1       3.263  -8.953  -1.670  1.00  0.00     0.010 A 
ATOM     69  C   UNL     1       0.992  -8.496  -0.947  1.00  0.00     0.010 A 
ATOM     70  C   UNL     1       2.780  -9.395  -2.904  1.00  0.00     0.020 A 
ATOM     71  C   UNL     1       0.504  -8.959  -2.172  1.00  0.00     0.020 A 
ATOM     72  C   UNL     1       1.403  -9.391  -3.149  1.00  0.00     0.054 A 
BRANCH  72  73
ATOM     73  S   UNL     1       0.798 -10.000  -4.747  1.00  0.00     0.124 S 
ATOM     74  O   UNL     1       1.083  -8.868  -5.626  1.00  0.00    -0.237 OA
ATOM     75  O   UNL     1       1.615 -11.190  -4.971  1.00  0.00    -0.237 OA
ATOM     76  O   UNL     1      -0.619 -10.258  -4.503  1.00  0.00    -0.744 OA
ENDBRANCH  72  73
ENDBRANCH  53  67
BRANCH  54  77
ATOM     77  C   UNL     1       5.521  -4.950   8.077  1.00  0.00    -0.014 A 
ATOM     78  C   UNL     1       6.639  -5.491   8.737  1.00  0.00     0.010 A 
ATOM     79  C   UNL     1       4.796  -3.914   8.692  1.00  0.00     0.010 A 
ATOM     80  C   UNL     1       7.007  -5.026  10.002  1.00  0.00     0.020 A 
ATOM     81  C   UNL     1       5.175  -3.432   9.948  1.00  0.00     0.020 A 
ATOM     82  C   UNL     1       6.269  -4.003  10.603  1.00  0.00     0.054 A 
BRANCH  82  83
ATOM     83  S   UNL     1       6.777  -3.386  12.232  1.00  0.00     0.124 S 
ATOM     84  O   UNL     1       6.204  -4.388  13.125  1.00  0.00    -0.237 OA
ATOM     85  O   UNL     1       8.234  -3.383  12.134  1.00  0.00    -0.237 OA
ATOM     86  O   UNL     1       6.163  -2.062  12.297  1.00  0.00    -0.744 OA
ENDBRANCH  82  83
ENDBRANCH  54  77
BRANCH  66  87
ATOM     87  C   UNL     1       2.628 -10.956   6.080  1.00  0.00    -0.014 A 
ATOM     88  C   UNL     1       1.518 -11.016   6.940  1.00  0.00     0.010 A 
ATOM     89  C   UNL     1       3.414 -12.107   5.890  1.00  0.00     0.010 A 
ATOM     90  C   UNL     1       1.222 -12.196   7.628  1.00  0.00     0.020 A 
ATOM     91  C   UNL     1       3.109 -13.294   6.561  1.00  0.00     0.020 A 
ATOM     92  C   UNL     1       2.025 -13.326   7.440  1.00  0.00     0.054 A 
BRANCH  92  93
ATOM     93  S   UNL     1       1.612 -14.857   8.322  1.00  0.00     0.124 S 
ATOM     94  O   UNL     1       2.170 -14.603   9.646  1.00  0.00    -0.237 OA
ATOM     95  O   UNL     1       0.153 -14.890   8.251  1.00  0.00    -0.237 OA
ATOM     96  O   UNL     1       2.289 -15.893   7.546  1.00  0.00    -0.744 OA
ENDBRANCH  92  93
ENDBRANCH  66  87
ENDBRANCH  40  41
ENDBRANCH  32  35
ENDBRANCH  30  31
ENDBRANCH  29  30
ENDBRANCH  28  29
ENDBRANCH   1  28
TORSDOF 19
