REMARK SMILES CC1(C)[C@@]2(C(=O)NCCCCCCNC(=O)c3ccc(-c4c5nc(c(-c6ccc(S(=O)(=O)[O-])cc6)c6ccc([nH]6)c(-c6ccc(S(=O)(=O)[O-])cc6)c6nc(c(-c7ccc(S(=O)(=O)[O-])cc7)c7ccc4[nH]7)C=C6)C=C5)cc3)CC[C@]1(C)/C(=N/NC(=O)c1ccc(Cl)cc1)C2
REMARK SMILES IDX 11 1 10 2 9 3 8 4 7 5 5 6 6 7 4 9 1 10 2 11 3 12 79 13 77 14
REMARK SMILES IDX 93 15 78 16 80 17 81 18 82 19 83 20 84 21 85 23 86 24 87 25
REMARK SMILES IDX 92 26 88 27 91 28 89 29 90 30 12 31 13 32 14 33 15 34 16 36
REMARK SMILES IDX 17 37 18 38 76 39 19 40 75 41 20 42 21 43 22 44 69 45 23 46
REMARK SMILES IDX 74 47 68 48 70 49 24 50 73 51 67 52 66 53 25 55 55 56 36 57
REMARK SMILES IDX 54 58 37 59 40 60 53 61 71 62 38 63 39 64 52 66 72 67 41 68
REMARK SMILES IDX 26 69 27 70 35 71 28 72 34 73 29 74 30 75 31 76 32 77 33 78
REMARK SMILES IDX 56 79 57 80 65 81 58 82 64 83 59 84 60 85 61 86 62 87 63 88
REMARK SMILES IDX 42 89 43 90 51 91 44 92 50 93 45 94 46 95 47 96 48 97 49 98
REMARK H PARENT 7 8 83 22 14 35 70 54 40 65
REMARK Flexibility Score: inf
ROOT
ATOM      1  C   UNL     1      -5.677   2.319  -4.617  1.00  0.00     0.002 C 
ENDROOT
BRANCH   1   2
ATOM      2  C   UNL     1      -4.767   1.377  -3.812  1.00  0.00     0.002 C 
BRANCH   2   3
ATOM      3  C   UNL     1      -3.311   1.355  -4.287  1.00  0.00     0.021 C 
BRANCH   3   4
ATOM      4  C   UNL     1      -2.206   1.371  -3.216  1.00  0.00     0.116 C 
BRANCH   4   5
ATOM      5  N   UNL     1      -2.395   0.564  -2.013  1.00  0.00    -0.356 N 
ATOM      6  C   UNL     1      -1.458   0.096  -1.119  1.00  0.00     0.227 C 
ATOM      7  O   UNL     1      -1.758   0.165   0.077  1.00  0.00    -0.274 OA
ATOM      8  H   UNL     1      -3.327   0.318  -1.813  1.00  0.00     0.163 HD
BRANCH   6   9
ATOM      9  C   UNL     1      -0.204  -0.674  -1.562  1.00  0.00     0.060 C 
ATOM     10  C   UNL     1       1.593   0.375  -0.011  1.00  0.00     0.013 C 
ATOM     11  C   UNL     1       0.946  -0.931  -0.525  1.00  0.00    -0.010 C 
ATOM     12  C   UNL     1       0.629  -1.787   0.720  1.00  0.00     0.013 C 
ATOM     13  C   UNL     1       1.796  -1.733  -1.572  1.00  0.00     0.014 C 
ATOM     14  C   UNL     1       0.576  -0.078  -2.779  1.00  0.00     0.019 C 
ATOM     15  C   UNL     1      -0.610  -2.122  -1.932  1.00  0.00     0.071 C 
ATOM     16  C   UNL     1       1.971  -0.725  -2.715  1.00  0.00     0.014 C 
ATOM     17  C   UNL     1       3.084  -2.375  -1.103  1.00  0.00     0.018 C 
ATOM     18  C   UNL     1       0.740  -2.718  -2.157  1.00  0.00     0.046 C 
ATOM     19  N   UNL     1       1.146  -3.747  -2.822  1.00  0.00    -0.181 NA
BRANCH  19  20
ATOM     20  N   UNL     1       0.532  -4.710  -3.553  1.00  0.00    -0.243 N 
ATOM     21  C   UNL     1      -0.708  -5.105  -4.001  1.00  0.00     0.271 C 
ATOM     22  H   UNL     1       1.209  -5.348  -3.876  1.00  0.00     0.194 HD
ATOM     23  O   UNL     1      -0.800  -6.164  -4.629  1.00  0.00    -0.267 OA
BRANCH  21  24
ATOM     24  C   UNL     1      -1.957  -4.393  -3.761  1.00  0.00     0.041 A 
ATOM     25  C   UNL     1      -2.920  -5.003  -2.949  1.00  0.00     0.015 A 
ATOM     26  C   UNL     1      -2.234  -3.179  -4.386  1.00  0.00     0.015 A 
ATOM     27  C   UNL     1      -4.059  -4.294  -2.571  1.00  0.00     0.021 A 
ATOM     28  C   UNL     1      -3.358  -2.457  -3.971  1.00  0.00     0.021 A 
ATOM     29  C   UNL     1      -4.232  -2.992  -3.025  1.00  0.00     0.041 A 
ATOM     30  Cl  UNL     1      -5.485  -2.025  -2.353  1.00  0.00    -0.084 Cl
ENDBRANCH  21  24
ENDBRANCH  19  20
ENDBRANCH   6   9
ENDBRANCH   4   5
ENDBRANCH   3   4
ENDBRANCH   2   3
ENDBRANCH   1   2
BRANCH   1  31
ATOM     31  C   UNL     1      -5.709   2.106  -6.136  1.00  0.00     0.021 C 
BRANCH  31  32
ATOM     32  C   UNL     1      -6.329   0.786  -6.589  1.00  0.00     0.116 C 
BRANCH  32  33
ATOM     33  N   UNL     1      -7.779   0.805  -6.468  1.00  0.00    -0.352 N 
ATOM     34  C   UNL     1      -8.728   0.941  -7.459  1.00  0.00     0.251 C 
ATOM     35  H   UNL     1      -8.130   0.707  -5.554  1.00  0.00     0.163 HD
ATOM     36  O   UNL     1      -9.886   1.207  -7.175  1.00  0.00    -0.269 OA
BRANCH  34  37
ATOM     37  C   UNL     1      -8.331   0.767  -8.875  1.00  0.00     0.039 A 
ATOM     38  C   UNL     1      -8.682   1.740  -9.813  1.00  0.00     0.014 A 
ATOM     39  C   UNL     1      -7.627  -0.373  -9.272  1.00  0.00     0.014 A 
ATOM     40  C   UNL     1      -8.274   1.598 -11.144  1.00  0.00     0.010 A 
ATOM     41  C   UNL     1      -7.175  -0.486 -10.585  1.00  0.00     0.010 A 
ATOM     42  C   UNL     1      -7.495   0.496 -11.535  1.00  0.00    -0.014 A 
BRANCH  42  43
ATOM     43  C   UNL     1      -7.009   0.347 -12.932  1.00  0.00     0.031 A 
ATOM     44  C   UNL     1      -7.499  -0.794 -13.784  1.00  0.00     0.074 A 
ATOM     45  C   UNL     1      -6.074   1.192 -13.411  1.00  0.00     0.049 A 
ATOM     46  N   UNL     1      -7.139  -1.133 -14.996  1.00  0.00    -0.248 NA
ATOM     47  C   UNL     1      -8.509  -1.683 -13.187  1.00  0.00     0.031 C 
ATOM     48  C   UNL     1      -5.489   2.314 -12.674  1.00  0.00     0.029 A 
ATOM     49  N   UNL     1      -5.442   1.232 -14.630  1.00  0.00    -0.354 N 
ATOM     50  C   UNL     1      -7.861  -2.282 -15.298  1.00  0.00     0.074 A 
ATOM     51  C   UNL     1      -8.646  -2.607 -14.127  1.00  0.00     0.031 C 
ATOM     52  C   UNL     1      -4.599   2.941 -13.461  1.00  0.00     0.029 A 
ATOM     53  C   UNL     1      -4.522   2.247 -14.743  1.00  0.00     0.049 A 
ATOM     54  H   UNL     1      -5.630   0.593 -15.354  1.00  0.00     0.167 HD
ATOM     55  C   UNL     1      -7.883  -2.993 -16.451  1.00  0.00     0.031 A 
ATOM     56  C   UNL     1      -3.703   2.580 -15.760  1.00  0.00     0.031 A 
ATOM     57  C   UNL     1      -7.111  -2.662 -17.619  1.00  0.00     0.049 A 
ATOM     58  C   UNL     1      -3.742   1.774 -17.029  1.00  0.00     0.074 A 
ATOM     59  C   UNL     1      -7.108  -3.286 -18.854  1.00  0.00     0.029 A 
ATOM     60  N   UNL     1      -6.205  -1.615 -17.697  1.00  0.00    -0.354 N 
ATOM     61  N   UNL     1      -4.480   0.728 -17.318  1.00  0.00    -0.248 NA
ATOM     62  C   UNL     1      -2.845   2.198 -18.114  1.00  0.00     0.031 C 
ATOM     63  C   UNL     1      -6.165  -2.645 -19.665  1.00  0.00     0.029 A 
ATOM     64  C   UNL     1      -5.620  -1.589 -18.952  1.00  0.00     0.049 A 
ATOM     65  H   UNL     1      -6.006  -0.984 -16.968  1.00  0.00     0.167 HD
ATOM     66  C   UNL     1      -4.155   0.385 -18.625  1.00  0.00     0.074 A 
ATOM     67  C   UNL     1      -3.164   1.341 -19.076  1.00  0.00     0.031 C 
ATOM     68  C   UNL     1      -4.636  -0.630 -19.385  1.00  0.00     0.031 A 
BRANCH  55  69
ATOM     69  C   UNL     1      -8.773  -4.208 -16.501  1.00  0.00    -0.014 A 
ATOM     70  C   UNL     1     -10.174  -4.082 -16.522  1.00  0.00     0.010 A 
ATOM     71  C   UNL     1      -8.201  -5.493 -16.562  1.00  0.00     0.010 A 
ATOM     72  C   UNL     1     -10.987  -5.217 -16.557  1.00  0.00     0.020 A 
ATOM     73  C   UNL     1      -9.012  -6.631 -16.625  1.00  0.00     0.020 A 
ATOM     74  C   UNL     1     -10.401  -6.486 -16.603  1.00  0.00     0.054 A 
BRANCH  74  75
ATOM     75  S   UNL     1     -11.481  -7.942 -16.662  1.00  0.00     0.124 S 
ATOM     76  O   UNL     1     -11.980  -8.002 -15.291  1.00  0.00    -0.237 OA
ATOM     77  O   UNL     1     -12.468  -7.569 -17.673  1.00  0.00    -0.237 OA
ATOM     78  O   UNL     1     -10.581  -9.026 -17.046  1.00  0.00    -0.744 OA
ENDBRANCH  74  75
ENDBRANCH  55  69
BRANCH  56  79
ATOM     79  C   UNL     1      -2.786   3.745 -15.624  1.00  0.00    -0.014 A 
ATOM     80  C   UNL     1      -3.030   4.931 -16.338  1.00  0.00     0.010 A 
ATOM     81  C   UNL     1      -1.672   3.679 -14.767  1.00  0.00     0.010 A 
ATOM     82  C   UNL     1      -2.170   6.026 -16.208  1.00  0.00     0.020 A 
ATOM     83  C   UNL     1      -0.825   4.781 -14.616  1.00  0.00     0.020 A 
ATOM     84  C   UNL     1      -1.074   5.945 -15.345  1.00  0.00     0.054 A 
BRANCH  84  85
ATOM     85  S   UNL     1      -0.004   7.398 -15.147  1.00  0.00     0.124 S 
ATOM     86  O   UNL     1       0.756   7.388 -16.392  1.00  0.00    -0.237 OA
ATOM     87  O   UNL     1      -0.971   8.484 -15.002  1.00  0.00    -0.237 OA
ATOM     88  O   UNL     1       0.762   7.093 -13.940  1.00  0.00    -0.744 OA
ENDBRANCH  84  85
ENDBRANCH  56  79
BRANCH  68  89
ATOM     89  C   UNL     1      -4.122  -0.745 -20.795  1.00  0.00    -0.014 A 
ATOM     90  C   UNL     1      -2.824  -1.215 -21.061  1.00  0.00     0.010 A 
ATOM     91  C   UNL     1      -4.976  -0.440 -21.871  1.00  0.00     0.010 A 
ATOM     92  C   UNL     1      -2.380  -1.355 -22.378  1.00  0.00     0.020 A 
ATOM     93  C   UNL     1      -4.544  -0.603 -23.190  1.00  0.00     0.020 A 
ATOM     94  C   UNL     1      -3.244  -1.048 -23.435  1.00  0.00     0.054 A 
BRANCH  94  95
ATOM     95  S   UNL     1      -2.663  -1.289 -25.136  1.00  0.00     0.124 S 
ATOM     96  O   UNL     1      -1.758  -0.157 -25.311  1.00  0.00    -0.237 OA
ATOM     97  O   UNL     1      -2.023  -2.601 -25.075  1.00  0.00    -0.237 OA
ATOM     98  O   UNL     1      -3.888  -1.237 -25.931  1.00  0.00    -0.744 OA
ENDBRANCH  94  95
ENDBRANCH  68  89
ENDBRANCH  42  43
ENDBRANCH  34  37
ENDBRANCH  32  33
ENDBRANCH  31  32
ENDBRANCH   1  31
TORSDOF 18
