REMARK SMILES Cc1ccc(S(=O)(=O)Nc2ccc(C(=O)CCC(=O)NCCCCCCNC(=O)c3ccc(-c4c5nc(c(-c6ccc(S(=O)(=O)[O-])cc6)c6ccc([nH]6)c(-c6ccc(S(=O)(=O)[O-])cc6)c6nc(c(-c7ccc(S(=O)(=O)[O-])cc7)c7ccc4[nH]7)C=C6)C=C5)cc3)cc2)c(C)c1
REMARK SMILES IDX 22 1 21 2 20 3 18 4 19 5 17 7 16 8 14 9 15 10 13 11 10 12
REMARK SMILES IDX 11 13 91 14 12 15 90 16 9 17 6 19 7 20 8 21 5 22 1 23 2 24
REMARK SMILES IDX 3 25 94 26 4 27 92 28 93 29 23 30 24 31 25 32 26 33 27 34
REMARK SMILES IDX 28 35 29 37 30 38 31 39 89 40 32 41 88 42 33 43 34 44 35 45
REMARK SMILES IDX 82 46 36 47 87 48 81 49 83 50 37 51 86 52 80 53 79 54 38 56
REMARK SMILES IDX 68 57 49 58 67 59 50 60 53 61 66 62 84 63 51 64 52 65 65 67
REMARK SMILES IDX 85 68 54 69 39 70 40 71 48 72 41 73 47 74 42 75 43 76 44 77
REMARK SMILES IDX 45 78 46 79 69 80 70 81 78 82 71 83 77 84 72 85 73 86 74 87
REMARK SMILES IDX 75 88 76 89 55 90 56 91 64 92 57 93 63 94 58 95 59 96 60 97
REMARK SMILES IDX 61 98 62 99
REMARK H PARENT 20 6 9 18 27 36 83 55 53 66
REMARK Flexibility Score: inf
ROOT
ATOM      1  C   UNL     1       1.234  -4.234   0.071  1.00  0.00     0.021 C 
ENDROOT
BRANCH   1   2
ATOM      2  C   UNL     1       2.062  -3.073  -0.743  1.00  0.00     0.116 C 
BRANCH   2   3
ATOM      3  N   UNL     1       2.924  -2.403   0.260  1.00  0.00    -0.356 N 
ATOM      4  C   UNL     1       3.773  -3.005   1.164  1.00  0.00     0.220 C 
ATOM      5  O   UNL     1       4.062  -2.389   2.192  1.00  0.00    -0.275 OA
ATOM      6  H   UNL     1       2.885  -1.420   0.284  1.00  0.00     0.163 HD
BRANCH   4   7
ATOM      7  C   UNL     1       4.332  -4.417   0.903  1.00  0.00     0.108 C 
BRANCH   7   8
ATOM      8  C   UNL     1       3.711  -5.561   1.754  1.00  0.00     0.091 C 
BRANCH   8   9
ATOM      9  C   UNL     1       2.876  -6.633   0.994  1.00  0.00     0.163 C 
ATOM     10  O   UNL     1       3.358  -7.679   0.578  1.00  0.00    -0.294 OA
BRANCH   9  11
ATOM     11  C   UNL     1       1.462  -6.282   0.598  1.00  0.00     0.018 A 
ATOM     12  C   UNL     1      -0.618  -3.499  -0.516  1.00  0.00     0.049 A 
ATOM     13  C   UNL     1       0.288  -4.516  -1.733  1.00  0.00     0.027 A 
ATOM     14  C   UNL     1      -0.512  -3.906   1.222  1.00  0.00     0.027 A 
ATOM     15  C   UNL     1       1.306  -5.917  -1.184  1.00  0.00     0.014 A 
ATOM     16  C   UNL     1       0.524  -5.301   1.774  1.00  0.00     0.014 A 
BRANCH  12  17
ATOM     17  N   UNL     1      -1.667  -2.666  -1.047  1.00  0.00    -0.280 N 
ATOM     18  H   UNL     1      -2.061  -2.948  -1.904  1.00  0.00     0.180 HD
BRANCH  17  19
ATOM     19  S   UNL     1      -2.284  -1.274  -0.363  1.00  0.00     0.262 S 
ATOM     20  O   UNL     1      -2.392  -1.478   1.065  1.00  0.00    -0.201 OA
ATOM     21  O   UNL     1      -3.446  -0.951  -1.163  1.00  0.00    -0.201 OA
BRANCH  19  22
ATOM     22  C   UNL     1      -1.082  -0.020  -0.671  1.00  0.00     0.090 A 
ATOM     23  C   UNL     1       2.560   2.044   0.057  1.00  0.00     0.044 C 
ATOM     24  C   UNL     1       1.249   1.419  -0.306  1.00  0.00    -0.051 A 
ATOM     25  C   UNL     1       1.216   0.381  -1.236  1.00  0.00     0.005 A 
ATOM     26  C   UNL     1       0.048   1.874   0.255  1.00  0.00     0.008 A 
ATOM     27  C   UNL     1       0.037  -0.324  -1.440  1.00  0.00     0.023 A 
ATOM     28  C   UNL     1      -1.143   1.164   0.068  1.00  0.00    -0.030 A 
ATOM     29  C   UNL     1      -2.453   1.744   0.522  1.00  0.00     0.046 C 
ENDBRANCH  19  22
ENDBRANCH  17  19
ENDBRANCH  12  17
ENDBRANCH   9  11
ENDBRANCH   8   9
ENDBRANCH   7   8
ENDBRANCH   4   7
ENDBRANCH   2   3
ENDBRANCH   1   2
BRANCH   1  30
ATOM     30  C   UNL     1      -0.462  -5.573  -0.125  1.00  0.00     0.002 C 
BRANCH  30  31
ATOM     31  C   UNL     1      -1.790  -5.719  -1.202  1.00  0.00     0.002 C 
BRANCH  31  32
ATOM     32  C   UNL     1      -1.659  -6.523  -2.489  1.00  0.00     0.021 C 
BRANCH  32  33
ATOM     33  C   UNL     1      -2.436  -7.811  -2.385  1.00  0.00     0.116 C 
BRANCH  33  34
ATOM     34  N   UNL     1      -3.878  -7.562  -2.269  1.00  0.00    -0.352 N 
ATOM     35  C   UNL     1      -4.879  -7.958  -3.124  1.00  0.00     0.251 C 
ATOM     36  H   UNL     1      -4.164  -7.046  -1.481  1.00  0.00     0.163 HD
ATOM     37  O   UNL     1      -6.007  -7.490  -3.052  1.00  0.00    -0.269 OA
BRANCH  35  38
ATOM     38  C   UNL     1      -4.524  -8.957  -4.144  1.00  0.00     0.039 A 
ATOM     39  C   UNL     1      -4.816  -8.721  -5.487  1.00  0.00     0.014 A 
ATOM     40  C   UNL     1      -3.746 -10.046  -3.748  1.00  0.00     0.014 A 
ATOM     41  C   UNL     1      -4.251  -9.553  -6.450  1.00  0.00     0.010 A 
ATOM     42  C   UNL     1      -3.066 -10.765  -4.707  1.00  0.00     0.010 A 
ATOM     43  C   UNL     1      -3.340 -10.550  -6.065  1.00  0.00    -0.014 A 
BRANCH  43  44
ATOM     44  C   UNL     1      -2.688 -11.444  -7.044  1.00  0.00     0.031 A 
ATOM     45  C   UNL     1      -2.918 -12.926  -6.925  1.00  0.00     0.074 A 
ATOM     46  C   UNL     1      -1.823 -10.941  -7.944  1.00  0.00     0.049 A 
ATOM     47  N   UNL     1      -2.362 -13.902  -7.591  1.00  0.00    -0.248 NA
ATOM     48  C   UNL     1      -3.861 -13.373  -5.882  1.00  0.00     0.031 C 
ATOM     49  C   UNL     1      -1.476  -9.524  -8.091  1.00  0.00     0.029 A 
ATOM     50  N   UNL     1      -1.062 -11.569  -8.894  1.00  0.00    -0.354 N 
ATOM     51  C   UNL     1      -2.858 -15.068  -7.021  1.00  0.00     0.074 A 
ATOM     52  C   UNL     1      -3.700 -14.684  -5.914  1.00  0.00     0.031 C 
ATOM     53  C   UNL     1      -0.589  -9.391  -9.090  1.00  0.00     0.029 A 
ATOM     54  C   UNL     1      -0.269 -10.713  -9.620  1.00  0.00     0.049 A 
ATOM     55  H   UNL     1      -1.080 -12.542  -9.042  1.00  0.00     0.167 HD
ATOM     56  C   UNL     1      -2.651 -16.347  -7.405  1.00  0.00     0.031 A 
ATOM     57  C   UNL     1       0.627 -10.970 -10.592  1.00  0.00     0.031 A 
ATOM     58  C   UNL     1      -1.829 -16.705  -8.527  1.00  0.00     0.049 A 
ATOM     59  C   UNL     1       0.832 -12.397 -11.019  1.00  0.00     0.074 A 
ATOM     60  C   UNL     1      -1.620 -17.955  -9.075  1.00  0.00     0.029 A 
ATOM     61  N   UNL     1      -1.072 -15.805  -9.265  1.00  0.00    -0.354 N 
ATOM     62  N   UNL     1       0.266 -13.484 -10.548  1.00  0.00    -0.248 NA
ATOM     63  C   UNL     1       1.788 -12.634 -12.107  1.00  0.00     0.031 C 
ATOM     64  C   UNL     1      -0.679 -17.822 -10.100  1.00  0.00     0.029 A 
ATOM     65  C   UNL     1      -0.354 -16.480 -10.235  1.00  0.00     0.049 A 
ATOM     66  H   UNL     1      -1.050 -14.832  -9.119  1.00  0.00     0.167 HD
ATOM     67  C   UNL     1       0.794 -14.537 -11.285  1.00  0.00     0.074 A 
ATOM     68  C   UNL     1       1.702 -13.951 -12.252  1.00  0.00     0.031 C 
ATOM     69  C   UNL     1       0.556 -15.867 -11.171  1.00  0.00     0.031 A 
BRANCH  56  70
ATOM     70  C   UNL     1      -3.307 -17.433  -6.595  1.00  0.00    -0.014 A 
ATOM     71  C   UNL     1      -4.707 -17.579  -6.556  1.00  0.00     0.010 A 
ATOM     72  C   UNL     1      -2.509 -18.323  -5.854  1.00  0.00     0.010 A 
ATOM     73  C   UNL     1      -5.296 -18.556  -5.750  1.00  0.00     0.020 A 
ATOM     74  C   UNL     1      -3.093 -19.325  -5.074  1.00  0.00     0.020 A 
ATOM     75  C   UNL     1      -4.484 -19.421  -5.011  1.00  0.00     0.054 A 
BRANCH  75  76
ATOM     76  S   UNL     1      -5.276 -20.686  -3.982  1.00  0.00     0.124 S 
ATOM     77  O   UNL     1      -5.838 -19.884  -2.898  1.00  0.00    -0.237 OA
ATOM     78  O   UNL     1      -6.250 -21.277  -4.895  1.00  0.00    -0.237 OA
ATOM     79  O   UNL     1      -4.173 -21.564  -3.599  1.00  0.00    -0.744 OA
ENDBRANCH  75  76
ENDBRANCH  56  70
BRANCH  57  80
ATOM     80  C   UNL     1       1.384  -9.847 -11.210  1.00  0.00    -0.014 A 
ATOM     81  C   UNL     1       1.107  -9.427 -12.522  1.00  0.00     0.010 A 
ATOM     82  C   UNL     1       2.347  -9.147 -10.458  1.00  0.00     0.010 A 
ATOM     83  C   UNL     1       1.775  -8.326 -13.070  1.00  0.00     0.020 A 
ATOM     84  C   UNL     1       2.996  -8.030 -10.992  1.00  0.00     0.020 A 
ATOM     85  C   UNL     1       2.708  -7.628 -12.297  1.00  0.00     0.054 A 
BRANCH  85  86
ATOM     86  S   UNL     1       3.493  -6.149 -12.996  1.00  0.00     0.124 S 
ATOM     87  O   UNL     1       4.392  -6.722 -13.992  1.00  0.00    -0.237 OA
ATOM     88  O   UNL     1       2.350  -5.408 -13.524  1.00  0.00    -0.237 OA
ATOM     89  O   UNL     1       4.145  -5.531 -11.843  1.00  0.00    -0.744 OA
ENDBRANCH  85  86
ENDBRANCH  57  80
BRANCH  69  90
ATOM     90  C   UNL     1       1.296 -16.784 -12.106  1.00  0.00    -0.014 A 
ATOM     91  C   UNL     1       2.669 -17.030 -11.934  1.00  0.00     0.010 A 
ATOM     92  C   UNL     1       0.590 -17.476 -13.106  1.00  0.00     0.010 A 
ATOM     93  C   UNL     1       3.328 -17.943 -12.758  1.00  0.00     0.020 A 
ATOM     94  C   UNL     1       1.240 -18.413 -13.912  1.00  0.00     0.020 A 
ATOM     95  C   UNL     1       2.607 -18.634 -13.737  1.00  0.00     0.054 A 
BRANCH  95  96
ATOM     96  S   UNL     1       3.475 -19.867 -14.744  1.00  0.00     0.124 S 
ATOM     97  O   UNL     1       4.317 -19.028 -15.592  1.00  0.00    -0.237 OA
ATOM     98  O   UNL     1       4.182 -20.658 -13.740  1.00  0.00    -0.237 OA
ATOM     99  O   UNL     1       2.397 -20.569 -15.438  1.00  0.00    -0.744 OA
ENDBRANCH  95  96
ENDBRANCH  69  90
ENDBRANCH  43  44
ENDBRANCH  35  38
ENDBRANCH  33  34
ENDBRANCH  32  33
ENDBRANCH  31  32
ENDBRANCH  30  31
ENDBRANCH   1  30
TORSDOF 22
