REMARK SMILES CC(C)[C@@H](C[NH+](C)C)NC(=O)N[C@@](C)(C(=O)NCCCCCCNC(=O)c1ccc(-c2c3nc(c(-c4ccc(S(=O)(=O)[O-])cc4)c4ccc([nH]4)c(-c4ccc(S(=O)(=O)[O-])cc4)c4nc(c(-c5ccc(S(=O)(=O)[O-])cc5)c5ccc2[nH]5)C=C4)C=C3)cc1)C(F)(F)F
REMARK SMILES IDX 20 1 19 2 18 3 17 4 15 5 16 6 13 8 14 9 12 10 9 11 10 12
REMARK SMILES IDX 11 14 4 16 2 17 1 18 3 19 5 20 6 21 7 22 8 23 87 25 88 26
REMARK SMILES IDX 89 27 90 28 21 29 22 30 23 31 24 32 25 33 26 35 27 36 28 37
REMARK SMILES IDX 86 38 29 39 85 40 30 41 31 42 32 43 79 44 33 45 84 46 78 47
REMARK SMILES IDX 80 48 34 49 83 50 77 51 76 52 35 54 65 55 46 56 64 57 47 58
REMARK SMILES IDX 50 59 63 60 81 61 48 62 49 63 62 65 82 66 51 67 36 68 37 69
REMARK SMILES IDX 45 70 38 71 44 72 39 73 40 74 41 75 42 76 43 77 66 78 67 79
REMARK SMILES IDX 75 80 68 81 74 82 69 83 70 84 71 85 72 86 73 87 52 88 53 89
REMARK SMILES IDX 61 90 54 91 60 92 55 93 56 94 57 95 58 96 59 97
REMARK H PARENT 17 7 9 13 12 15 6 24 24 34 80 53 50 64
REMARK Flexibility Score: inf
ROOT
ATOM      1  C   UNL     1      -2.655  -7.109  -3.297  1.00  0.00     0.002 C 
ENDROOT
BRANCH   1   2
ATOM      2  C   UNL     1      -3.267  -5.724  -3.531  1.00  0.00     0.021 C 
BRANCH   2   3
ATOM      3  C   UNL     1      -3.503  -4.905  -2.268  1.00  0.00     0.116 C 
BRANCH   3   4
ATOM      4  N   UNL     1      -2.270  -4.694  -1.541  1.00  0.00    -0.354 N 
ATOM      5  C   UNL     1      -1.765  -3.652  -0.834  1.00  0.00     0.255 C 
ATOM      6  O   UNL     1      -0.646  -3.866  -0.357  1.00  0.00    -0.272 OA
ATOM      7  H   UNL     1      -1.669  -5.473  -1.565  1.00  0.00     0.163 HD
BRANCH   5   8
ATOM      8  C   UNL     1      -2.493  -2.302  -0.675  1.00  0.00     0.213 C 
ATOM      9  C   UNL     1      -3.960  -2.457  -0.199  1.00  0.00     0.056 C 
BRANCH   8  10
ATOM     10  N   UNL     1      -2.600  -1.675  -2.063  1.00  0.00    -0.316 N 
ATOM     11  N   UNL     1      -1.236   0.148  -2.754  1.00  0.00    -0.329 N 
ATOM     12  C   UNL     1      -2.134  -0.809  -2.954  1.00  0.00     0.316 C 
ATOM     13  H   UNL     1      -1.074   0.725  -3.535  1.00  0.00     0.165 HD
ATOM     14  O   UNL     1      -2.625  -0.900  -4.084  1.00  0.00    -0.249 OA
ATOM     15  H   UNL     1      -3.367  -2.115  -2.496  1.00  0.00     0.166 HD
BRANCH  11  16
ATOM     16  C   UNL     1      -0.458   0.487  -1.591  1.00  0.00     0.141 C 
BRANCH  16  17
ATOM     17  C   UNL     1       1.061   0.316  -1.806  1.00  0.00     0.011 C 
ATOM     18  C   UNL     1       1.813   0.317  -0.469  1.00  0.00     0.010 C 
ATOM     19  C   UNL     1       1.390  -1.000  -2.536  1.00  0.00     0.010 C 
ENDBRANCH  16  17
BRANCH  16  20
ATOM     20  C   UNL     1      -1.013   1.746  -0.859  1.00  0.00     0.287 C 
BRANCH  20  21
ATOM     21  N   UNL     1      -0.775   3.118  -1.363  1.00  0.00    -0.338 N 
ATOM     22  C   UNL     1      -1.549   4.046  -0.516  1.00  0.00     0.332 C 
ATOM     23  C   UNL     1       0.631   3.514  -1.305  1.00  0.00     0.332 C 
ATOM     24  H   UNL     1      -1.060   3.146  -2.342  1.00  0.00     0.347 HD
ENDBRANCH  20  21
ENDBRANCH  16  20
ENDBRANCH  11  16
ENDBRANCH   8  10
BRANCH   8  25
ATOM     25  C   UNL     1      -1.797  -1.632   0.546  1.00  0.00     0.420 C 
ATOM     26  F   UNL     1      -0.451  -1.550   0.499  1.00  0.00    -0.168 F 
ATOM     27  F   UNL     1      -2.267  -0.371   0.738  1.00  0.00    -0.168 F 
ATOM     28  F   UNL     1      -2.076  -2.303   1.698  1.00  0.00    -0.168 F 
ENDBRANCH   8  25
ENDBRANCH   5   8
ENDBRANCH   3   4
ENDBRANCH   2   3
ENDBRANCH   1   2
BRANCH   1  29
ATOM     29  C   UNL     1      -3.359  -7.966  -2.240  1.00  0.00     0.002 C 
BRANCH  29  30
ATOM     30  C   UNL     1      -4.864  -8.139  -2.446  1.00  0.00     0.021 C 
BRANCH  30  31
ATOM     31  C   UNL     1      -5.259  -8.643  -3.826  1.00  0.00     0.116 C 
BRANCH  31  32
ATOM     32  N   UNL     1      -4.705  -9.955  -4.107  1.00  0.00    -0.352 N 
ATOM     33  C   UNL     1      -5.353 -11.080  -4.554  1.00  0.00     0.251 C 
ATOM     34  H   UNL     1      -3.737 -10.051  -3.957  1.00  0.00     0.163 HD
ATOM     35  O   UNL     1      -4.783 -12.162  -4.557  1.00  0.00    -0.269 OA
BRANCH  33  36
ATOM     36  C   UNL     1      -6.756 -10.967  -5.006  1.00  0.00     0.039 A 
ATOM     37  C   UNL     1      -7.690 -11.897  -4.548  1.00  0.00     0.014 A 
ATOM     38  C   UNL     1      -7.149  -9.929  -5.857  1.00  0.00     0.014 A 
ATOM     39  C   UNL     1      -9.032 -11.756  -4.904  1.00  0.00     0.010 A 
ATOM     40  C   UNL     1      -8.498  -9.743  -6.143  1.00  0.00     0.010 A 
ATOM     41  C   UNL     1      -9.452 -10.660  -5.677  1.00  0.00    -0.014 A 
BRANCH  41  42
ATOM     42  C   UNL     1     -10.884 -10.462  -6.013  1.00  0.00     0.031 A 
ATOM     43  C   UNL     1     -11.334 -10.498  -7.449  1.00  0.00     0.074 A 
ATOM     44  C   UNL     1     -11.770 -10.200  -5.031  1.00  0.00     0.049 A 
ATOM     45  N   UNL     1     -12.530 -10.305  -7.942  1.00  0.00    -0.248 NA
ATOM     46  C   UNL     1     -10.302 -10.762  -8.466  1.00  0.00     0.031 C 
ATOM     47  C   UNL     1     -11.450 -10.102  -3.604  1.00  0.00     0.029 A 
ATOM     48  N   UNL     1     -13.121  -9.966  -5.083  1.00  0.00    -0.354 N 
ATOM     49  C   UNL     1     -12.393 -10.413  -9.321  1.00  0.00     0.074 A 
ATOM     50  C   UNL     1     -10.989 -10.632  -9.591  1.00  0.00     0.031 C 
ATOM     51  C   UNL     1     -12.577  -9.860  -2.916  1.00  0.00     0.029 A 
ATOM     52  C   UNL     1     -13.690  -9.739  -3.851  1.00  0.00     0.049 A 
ATOM     53  H   UNL     1     -13.635  -9.962  -5.922  1.00  0.00     0.167 HD
ATOM     54  C   UNL     1     -13.351 -10.356 -10.276  1.00  0.00     0.031 A 
ATOM     55  C   UNL     1     -14.963  -9.456  -3.513  1.00  0.00     0.031 A 
ATOM     56  C   UNL     1     -14.748 -10.145 -10.001  1.00  0.00     0.049 A 
ATOM     57  C   UNL     1     -16.006  -9.374  -4.595  1.00  0.00     0.074 A 
ATOM     58  C   UNL     1     -15.805 -10.122 -10.894  1.00  0.00     0.029 A 
ATOM     59  N   UNL     1     -15.283  -9.919  -8.742  1.00  0.00    -0.354 N 
ATOM     60  N   UNL     1     -15.866  -9.545  -5.888  1.00  0.00    -0.248 NA
ATOM     61  C   UNL     1     -17.380  -9.074  -4.171  1.00  0.00     0.031 C 
ATOM     62  C   UNL     1     -16.970  -9.820 -10.183  1.00  0.00     0.029 A 
ATOM     63  C   UNL     1     -16.651  -9.727  -8.838  1.00  0.00     0.049 A 
ATOM     64  H   UNL     1     -14.766  -9.898  -7.904  1.00  0.00     0.167 HD
ATOM     65  C   UNL     1     -17.140  -9.403  -6.428  1.00  0.00     0.074 A 
ATOM     66  C   UNL     1     -18.038  -9.150  -5.320  1.00  0.00     0.031 C 
ATOM     67  C   UNL     1     -17.532  -9.478  -7.724  1.00  0.00     0.031 A 
BRANCH  54  68
ATOM     68  C   UNL     1     -12.922 -10.522 -11.711  1.00  0.00    -0.014 A 
ATOM     69  C   UNL     1     -12.456 -11.759 -12.193  1.00  0.00     0.010 A 
ATOM     70  C   UNL     1     -13.036  -9.441 -12.604  1.00  0.00     0.010 A 
ATOM     71  C   UNL     1     -12.080 -11.902 -13.531  1.00  0.00     0.020 A 
ATOM     72  C   UNL     1     -12.691  -9.588 -13.951  1.00  0.00     0.020 A 
ATOM     73  C   UNL     1     -12.201 -10.815 -14.402  1.00  0.00     0.054 A 
BRANCH  73  74
ATOM     74  S   UNL     1     -11.741 -11.042 -16.142  1.00  0.00     0.124 S 
ATOM     75  O   UNL     1     -10.286 -11.152 -16.056  1.00  0.00    -0.237 OA
ATOM     76  O   UNL     1     -12.443 -12.272 -16.499  1.00  0.00    -0.237 OA
ATOM     77  O   UNL     1     -12.235  -9.832 -16.794  1.00  0.00    -0.744 OA
ENDBRANCH  73  74
ENDBRANCH  54  68
BRANCH  55  78
ATOM     78  C   UNL     1     -15.325  -9.233  -2.085  1.00  0.00    -0.014 A 
ATOM     79  C   UNL     1     -16.141 -10.150  -1.400  1.00  0.00     0.010 A 
ATOM     80  C   UNL     1     -14.854  -8.097  -1.402  1.00  0.00     0.010 A 
ATOM     81  C   UNL     1     -16.501  -9.923  -0.068  1.00  0.00     0.020 A 
ATOM     82  C   UNL     1     -15.184  -7.882  -0.061  1.00  0.00     0.020 A 
ATOM     83  C   UNL     1     -16.018  -8.790   0.594  1.00  0.00     0.054 A 
BRANCH  83  84
ATOM     84  S   UNL     1     -16.466  -8.535   2.333  1.00  0.00     0.124 S 
ATOM     85  O   UNL     1     -17.875  -8.168   2.233  1.00  0.00    -0.237 OA
ATOM     86  O   UNL     1     -16.192  -9.843   2.924  1.00  0.00    -0.237 OA
ATOM     87  O   UNL     1     -15.568  -7.465   2.764  1.00  0.00    -0.744 OA
ENDBRANCH  83  84
ENDBRANCH  55  78
BRANCH  67  88
ATOM     88  C   UNL     1     -19.002  -9.324  -8.017  1.00  0.00    -0.014 A 
ATOM     89  C   UNL     1     -19.650  -8.084  -7.885  1.00  0.00     0.010 A 
ATOM     90  C   UNL     1     -19.732 -10.432  -8.487  1.00  0.00     0.010 A 
ATOM     91  C   UNL     1     -21.009  -7.962  -8.186  1.00  0.00     0.020 A 
ATOM     92  C   UNL     1     -21.082 -10.307  -8.820  1.00  0.00     0.020 A 
ATOM     93  C   UNL     1     -21.716  -9.074  -8.654  1.00  0.00     0.054 A 
BRANCH  93  94
ATOM     94  S   UNL     1     -23.468  -8.878  -9.080  1.00  0.00     0.124 S 
ATOM     95  O   UNL     1     -24.087  -8.737  -7.765  1.00  0.00    -0.237 OA
ATOM     96  O   UNL     1     -23.462  -7.672  -9.904  1.00  0.00    -0.237 OA
ATOM     97  O   UNL     1     -23.793 -10.111  -9.792  1.00  0.00    -0.744 OA
ENDBRANCH  93  94
ENDBRANCH  67  88
ENDBRANCH  41  42
ENDBRANCH  33  36
ENDBRANCH  31  32
ENDBRANCH  30  31
ENDBRANCH  29  30
ENDBRANCH   1  29
TORSDOF 22
