REMARK SMILES O=C(NCCCCCCNC(=O)c1ccc(-c2ccn(C(F)F)c(=O)c2)cc1O)c1ccc(-c2c3nc(c(-c4ccc(S(=O)(=O)[O-])cc4)c4ccc([nH]4)c(-c4ccc(S(=O)(=O)[O-])cc4)c4nc(c(-c5ccc(S(=O)(=O)[O-])cc5)c5ccc2[nH]5)C=C4)C=C3)cc1
REMARK SMILES IDX 6 1 5 2 4 3 3 4 1 5 2 6 30 8 31 9 89 10 32 11 88 12 33 13
REMARK SMILES IDX 34 14 35 15 82 16 36 17 87 18 81 19 83 20 37 21 86 22 80 23
REMARK SMILES IDX 79 24 38 26 68 27 49 28 67 29 50 30 53 31 66 32 84 33 51 34
REMARK SMILES IDX 52 35 65 37 85 38 54 39 39 40 40 41 48 42 41 43 47 44 42 45
REMARK SMILES IDX 43 46 44 47 45 48 46 49 69 50 70 51 78 52 71 53 77 54 72 55
REMARK SMILES IDX 73 56 74 57 75 58 76 59 55 60 56 61 64 62 57 63 63 64 58 65
REMARK SMILES IDX 59 66 60 67 61 68 62 69 7 70 8 71 9 72 10 73 11 74 12 76
REMARK SMILES IDX 13 77 14 78 28 79 15 80 27 81 16 82 29 83 17 85 18 86 26 87
REMARK SMILES IDX 19 88 24 89 20 90 25 91 21 92 22 93 23 94
REMARK H PARENT 3 7 83 25 53 36 10 75 29 84
REMARK Flexibility Score: inf
ROOT
ATOM      1  C   UNL     1       4.219  -3.481  -1.839  1.00  0.00     0.002 C 
ENDROOT
BRANCH   1   2
ATOM      2  C   UNL     1       4.725  -2.641  -0.665  1.00  0.00     0.021 C 
BRANCH   2   3
ATOM      3  C   UNL     1       4.489  -1.142  -0.798  1.00  0.00     0.116 C 
BRANCH   3   4
ATOM      4  N   UNL     1       3.079  -0.811  -0.877  1.00  0.00    -0.352 N 
ATOM      5  O   UNL     1       1.097  -0.001  -0.203  1.00  0.00    -0.269 OA
ATOM      6  C   UNL     1       2.321   0.007  -0.080  1.00  0.00     0.251 C 
ATOM      7  H   UNL     1       2.591  -1.241  -1.616  1.00  0.00     0.163 HD
BRANCH   6   8
ATOM      8  C   UNL     1       2.956   0.892   0.924  1.00  0.00     0.039 A 
ATOM      9  C   UNL     1       2.299   1.107   2.139  1.00  0.00     0.014 A 
ATOM     10  C   UNL     1       4.152   1.565   0.656  1.00  0.00     0.014 A 
ATOM     11  C   UNL     1       2.839   1.991   3.076  1.00  0.00     0.010 A 
ATOM     12  C   UNL     1       4.740   2.367   1.631  1.00  0.00     0.010 A 
ATOM     13  C   UNL     1       4.064   2.631   2.830  1.00  0.00    -0.014 A 
BRANCH  13  14
ATOM     14  C   UNL     1       4.588   3.664   3.762  1.00  0.00     0.031 A 
ATOM     15  C   UNL     1       4.709   5.093   3.293  1.00  0.00     0.074 A 
ATOM     16  C   UNL     1       4.937   3.332   5.021  1.00  0.00     0.049 A 
ATOM     17  N   UNL     1       5.120   6.144   3.955  1.00  0.00    -0.248 NA
ATOM     18  C   UNL     1       4.340   5.381   1.895  1.00  0.00     0.031 C 
ATOM     19  C   UNL     1       4.875   1.984   5.587  1.00  0.00     0.029 A 
ATOM     20  N   UNL     1       5.391   4.107   6.061  1.00  0.00    -0.354 N 
ATOM     21  C   UNL     1       5.069   7.202   3.055  1.00  0.00     0.074 A 
ATOM     22  C   UNL     1       4.655   6.663   1.782  1.00  0.00     0.031 C 
ATOM     23  C   UNL     1       5.216   2.036   6.885  1.00  0.00     0.029 A 
ATOM     24  C   UNL     1       5.562   3.412   7.237  1.00  0.00     0.049 A 
ATOM     25  H   UNL     1       5.577   5.070   5.974  1.00  0.00     0.167 HD
ATOM     26  C   UNL     1       5.306   8.515   3.278  1.00  0.00     0.031 A 
ATOM     27  C   UNL     1       5.933   3.835   8.463  1.00  0.00     0.031 A 
ATOM     28  C   UNL     1       5.666   9.056   4.560  1.00  0.00     0.049 A 
ATOM     29  C   UNL     1       6.197   5.302   8.684  1.00  0.00     0.074 A 
ATOM     30  C   UNL     1       5.878  10.381   4.897  1.00  0.00     0.029 A 
ATOM     31  N   UNL     1       5.844   8.313   5.716  1.00  0.00    -0.354 N 
ATOM     32  N   UNL     1       6.103   6.292   7.829  1.00  0.00    -0.248 NA
ATOM     33  C   UNL     1       6.595   5.714  10.037  1.00  0.00     0.031 C 
ATOM     34  C   UNL     1       6.253  10.432   6.240  1.00  0.00     0.029 A 
ATOM     35  C   UNL     1       6.185   9.150   6.763  1.00  0.00     0.049 A 
ATOM     36  H   UNL     1       5.744   7.335   5.782  1.00  0.00     0.167 HD
ATOM     37  C   UNL     1       6.383   7.448   8.552  1.00  0.00     0.074 A 
ATOM     38  C   UNL     1       6.646   7.034   9.914  1.00  0.00     0.031 C 
ATOM     39  C   UNL     1       6.415   8.733   8.124  1.00  0.00     0.031 A 
BRANCH  26  40
ATOM     40  C   UNL     1       5.150   9.482   2.132  1.00  0.00    -0.014 A 
ATOM     41  C   UNL     1       6.268  10.202   1.671  1.00  0.00     0.010 A 
ATOM     42  C   UNL     1       3.878   9.788   1.614  1.00  0.00     0.010 A 
ATOM     43  C   UNL     1       6.111  11.245   0.755  1.00  0.00     0.020 A 
ATOM     44  C   UNL     1       3.722  10.808   0.671  1.00  0.00     0.020 A 
ATOM     45  C   UNL     1       4.836  11.551   0.273  1.00  0.00     0.054 A 
BRANCH  45  46
ATOM     46  S   UNL     1       4.644  12.955  -0.859  1.00  0.00     0.124 S 
ATOM     47  O   UNL     1       4.835  14.095   0.032  1.00  0.00    -0.237 OA
ATOM     48  O   UNL     1       5.709  12.726  -1.832  1.00  0.00    -0.237 OA
ATOM     49  O   UNL     1       3.289  12.790  -1.382  1.00  0.00    -0.744 OA
ENDBRANCH  45  46
ENDBRANCH  26  40
BRANCH  27  50
ATOM     50  C   UNL     1       5.993   2.861   9.592  1.00  0.00    -0.014 A 
ATOM     51  C   UNL     1       6.943   1.822   9.598  1.00  0.00     0.010 A 
ATOM     52  C   UNL     1       5.061   2.934  10.643  1.00  0.00     0.010 A 
ATOM     53  C   UNL     1       6.928   0.852  10.604  1.00  0.00     0.020 A 
ATOM     54  C   UNL     1       5.065   1.985  11.670  1.00  0.00     0.020 A 
ATOM     55  C   UNL     1       5.982   0.933  11.629  1.00  0.00     0.054 A 
BRANCH  55  56
ATOM     56  S   UNL     1       5.962  -0.360  12.900  1.00  0.00     0.124 S 
ATOM     57  O   UNL     1       5.384  -1.486  12.172  1.00  0.00    -0.237 OA
ATOM     58  O   UNL     1       7.375  -0.491  13.243  1.00  0.00    -0.237 OA
ATOM     59  O   UNL     1       5.118   0.204  13.951  1.00  0.00    -0.744 OA
ENDBRANCH  55  56
ENDBRANCH  27  50
BRANCH  39  60
ATOM     60  C   UNL     1       6.697   9.823   9.126  1.00  0.00    -0.014 A 
ATOM     61  C   UNL     1       5.701  10.782   9.398  1.00  0.00     0.010 A 
ATOM     62  C   UNL     1       7.978   9.994   9.680  1.00  0.00     0.010 A 
ATOM     63  C   UNL     1       5.989  11.909  10.170  1.00  0.00     0.020 A 
ATOM     64  C   UNL     1       8.259  11.103  10.483  1.00  0.00     0.020 A 
ATOM     65  C   UNL     1       7.271  12.067  10.700  1.00  0.00     0.054 A 
BRANCH  65  66
ATOM     66  S   UNL     1       7.636  13.554  11.671  1.00  0.00     0.124 S 
ATOM     67  O   UNL     1       7.759  14.576  10.636  1.00  0.00    -0.237 OA
ATOM     68  O   UNL     1       6.464  13.670  12.535  1.00  0.00    -0.237 OA
ATOM     69  O   UNL     1       8.878  13.214  12.363  1.00  0.00    -0.744 OA
ENDBRANCH  65  66
ENDBRANCH  39  60
ENDBRANCH  13  14
ENDBRANCH   6   8
ENDBRANCH   3   4
ENDBRANCH   2   3
ENDBRANCH   1   2
BRANCH   1  70
ATOM     70  C   UNL     1       4.727  -3.056  -3.219  1.00  0.00     0.002 C 
BRANCH  70  71
ATOM     71  C   UNL     1       6.248  -2.940  -3.355  1.00  0.00     0.021 C 
BRANCH  71  72
ATOM     72  C   UNL     1       7.024  -4.196  -2.973  1.00  0.00     0.116 C 
BRANCH  72  73
ATOM     73  N   UNL     1       6.709  -5.319  -3.837  1.00  0.00    -0.352 N 
ATOM     74  C   UNL     1       7.574  -6.183  -4.457  1.00  0.00     0.255 C 
ATOM     75  H   UNL     1       5.751  -5.481  -3.998  1.00  0.00     0.163 HD
ATOM     76  O   UNL     1       7.154  -7.039  -5.236  1.00  0.00    -0.269 OA
BRANCH  74  77
ATOM     77  C   UNL     1       9.028  -6.039  -4.252  1.00  0.00     0.081 A 
ATOM     78  C   UNL     1       9.820  -5.814  -5.384  1.00  0.00     0.018 A 
ATOM     79  C   UNL     1       9.621  -6.117  -2.988  1.00  0.00     0.128 A 
ATOM     80  C   UNL     1      11.197  -5.619  -5.247  1.00  0.00     0.010 A 
ATOM     81  C   UNL     1      10.992  -5.912  -2.849  1.00  0.00     0.055 A 
ATOM     82  C   UNL     1      11.789  -5.654  -3.976  1.00  0.00    -0.014 A 
BRANCH  79  83
ATOM     83  O   UNL     1       8.866  -6.382  -1.880  1.00  0.00    -0.507 OA
ATOM     84  H   UNL     1       7.943  -6.521  -1.965  1.00  0.00     0.293 HD
ENDBRANCH  79  83
BRANCH  82  85
ATOM     85  C   UNL     1      13.235  -5.436  -3.790  1.00  0.00    -0.011 A 
ATOM     86  C   UNL     1      14.090  -6.421  -3.155  1.00  0.00     0.027 A 
ATOM     87  C   UNL     1      13.763  -4.255  -4.158  1.00  0.00     0.080 A 
ATOM     88  C   UNL     1      15.370  -6.143  -2.892  1.00  0.00     0.095 A 
ATOM     89  C   UNL     1      15.197  -3.945  -3.902  1.00  0.00     0.255 A 
ATOM     90  N   UNL     1      15.920  -4.925  -3.243  1.00  0.00    -0.258 N 
ATOM     91  O   UNL     1      15.637  -2.859  -4.273  1.00  0.00    -0.269 OA
BRANCH  90  92
ATOM     92  C   UNL     1      17.290  -4.622  -2.920  1.00  0.00     0.451 C 
ATOM     93  F   UNL     1      18.013  -4.362  -4.036  1.00  0.00    -0.185 F 
ATOM     94  F   UNL     1      17.369  -3.543  -2.104  1.00  0.00    -0.185 F 
ENDBRANCH  90  92
ENDBRANCH  82  85
ENDBRANCH  74  77
ENDBRANCH  72  73
ENDBRANCH  71  72
ENDBRANCH  70  71
ENDBRANCH   1  70
TORSDOF 19
