REMARK SMILES CC(C)(C)N(CC(=O)NCCCCCCNC(=O)c1ccc(-c2c3nc(c(-c4ccc(S(=O)(=O)[O-])cc4)c4ccc([nH]4)c(-c4ccc(S(=O)(=O)[O-])cc4)c4nc(c(-c5ccc(S(=O)(=O)[O-])cc5)c5ccc2[nH]5)C=C4)C=C3)cc1)C(=O)C[NH2+]C1CCCC1
REMARK SMILES IDX 11 1 10 2 9 3 7 4 8 5 6 7 5 8 2 9 1 10 3 11 4 12 79 13 80 14
REMARK SMILES IDX 81 15 82 16 83 19 84 20 87 21 85 22 86 23 12 24 13 25 14 26
REMARK SMILES IDX 15 27 16 28 17 29 18 31 19 32 20 33 78 34 21 35 77 36 22 37
REMARK SMILES IDX 23 38 24 39 71 40 25 41 76 42 70 43 72 44 26 45 75 46 69 47
REMARK SMILES IDX 68 48 27 50 57 51 38 52 56 53 39 54 42 55 55 56 73 57 40 58
REMARK SMILES IDX 41 59 54 61 74 62 43 63 28 64 29 65 37 66 30 67 36 68 31 69
REMARK SMILES IDX 32 70 33 71 34 72 35 73 58 74 59 75 67 76 60 77 66 78 61 79
REMARK SMILES IDX 62 80 63 81 64 82 65 83 44 84 45 85 53 86 46 87 52 88 47 89
REMARK SMILES IDX 48 90 49 91 50 92 51 93
REMARK H PARENT 9 6 82 17 82 18 16 30 72 49 42 60
REMARK Flexibility Score: inf
ROOT
ATOM      1  C   UNL     1       3.992  -2.605   1.632  1.00  0.00     0.021 C 
ENDROOT
BRANCH   1   2
ATOM      2  C   UNL     1       3.954  -1.651   0.442  1.00  0.00     0.116 C 
BRANCH   2   3
ATOM      3  N   UNL     1       4.106  -2.333  -0.822  1.00  0.00    -0.355 N 
ATOM      4  C   UNL     1       3.223  -2.419  -1.858  1.00  0.00     0.239 C 
ATOM      5  O   UNL     1       3.661  -2.827  -2.939  1.00  0.00    -0.273 OA
ATOM      6  H   UNL     1       4.963  -2.800  -0.953  1.00  0.00     0.163 HD
BRANCH   4   7
ATOM      7  C   UNL     1       1.778  -1.889  -1.736  1.00  0.00     0.220 C 
BRANCH   7   8
ATOM      8  N   UNL     1       0.974  -2.278  -0.552  1.00  0.00    -0.324 N 
BRANCH   8   9
ATOM      9  C   UNL     1       0.194  -1.232   0.227  1.00  0.00     0.035 C 
ATOM     10  C   UNL     1       0.554   0.235  -0.129  1.00  0.00     0.034 C 
ATOM     11  C   UNL     1       0.428  -1.368   1.751  1.00  0.00     0.034 C 
ATOM     12  C   UNL     1      -1.321  -1.364  -0.067  1.00  0.00     0.034 C 
ENDBRANCH   8   9
BRANCH   8  13
ATOM     13  C   UNL     1       0.627  -3.635  -0.366  1.00  0.00     0.278 C 
ATOM     14  O   UNL     1      -0.122  -4.013   0.540  1.00  0.00    -0.268 OA
BRANCH  13  15
ATOM     15  C   UNL     1       1.163  -4.706  -1.334  1.00  0.00     0.362 C 
BRANCH  15  16
ATOM     16  N   UNL     1       0.440  -4.625  -2.614  1.00  0.00    -0.336 N 
ATOM     17  H   UNL     1       0.536  -3.681  -2.987  1.00  0.00     0.346 HD
ATOM     18  H   UNL     1      -0.538  -4.857  -2.437  1.00  0.00     0.346 HD
BRANCH  16  19
ATOM     19  C   UNL     1       0.954  -5.573  -3.598  1.00  0.00     0.182 C 
ATOM     20  C   UNL     1       0.757  -7.047  -3.245  1.00  0.00     0.065 C 
ATOM     21  C   UNL     1       0.199  -5.456  -4.925  1.00  0.00     0.065 C 
ATOM     22  C   UNL     1       0.960  -7.755  -4.577  1.00  0.00     0.006 C 
ATOM     23  C   UNL     1       0.433  -6.789  -5.637  1.00  0.00     0.006 C 
ENDBRANCH  16  19
ENDBRANCH  15  16
ENDBRANCH  13  15
ENDBRANCH   8  13
ENDBRANCH   7   8
ENDBRANCH   4   7
ENDBRANCH   2   3
ENDBRANCH   1   2
BRANCH   1  24
ATOM     24  C   UNL     1       5.393  -3.105   2.000  1.00  0.00     0.002 C 
BRANCH  24  25
ATOM     25  C   UNL     1       6.422  -2.012   2.316  1.00  0.00     0.002 C 
BRANCH  25  26
ATOM     26  C   UNL     1       5.999  -0.972   3.360  1.00  0.00     0.021 C 
BRANCH  26  27
ATOM     27  C   UNL     1       5.607  -1.529   4.728  1.00  0.00     0.116 C 
BRANCH  27  28
ATOM     28  N   UNL     1       6.681  -2.291   5.340  1.00  0.00    -0.352 N 
ATOM     29  C   UNL     1       7.261  -2.175   6.574  1.00  0.00     0.251 C 
ATOM     30  H   UNL     1       7.051  -3.007   4.776  1.00  0.00     0.163 HD
ATOM     31  O   UNL     1       8.289  -2.820   6.810  1.00  0.00    -0.269 OA
BRANCH  29  32
ATOM     32  C   UNL     1       6.697  -1.292   7.619  1.00  0.00     0.039 A 
ATOM     33  C   UNL     1       7.583  -0.581   8.435  1.00  0.00     0.014 A 
ATOM     34  C   UNL     1       5.321  -1.205   7.853  1.00  0.00     0.014 A 
ATOM     35  C   UNL     1       7.093   0.241   9.452  1.00  0.00     0.010 A 
ATOM     36  C   UNL     1       4.829  -0.337   8.831  1.00  0.00     0.010 A 
ATOM     37  C   UNL     1       5.710   0.386   9.648  1.00  0.00    -0.014 A 
BRANCH  37  38
ATOM     38  C   UNL     1       5.196   1.305  10.696  1.00  0.00     0.031 A 
ATOM     39  C   UNL     1       4.466   0.778  11.901  1.00  0.00     0.074 A 
ATOM     40  C   UNL     1       5.360   2.634  10.544  1.00  0.00     0.049 A 
ATOM     41  N   UNL     1       4.012   1.434  12.940  1.00  0.00    -0.248 NA
ATOM     42  C   UNL     1       4.188  -0.665  11.934  1.00  0.00     0.031 C 
ATOM     43  C   UNL     1       5.980   3.280   9.385  1.00  0.00     0.029 A 
ATOM     44  N   UNL     1       5.021   3.678  11.367  1.00  0.00    -0.354 N 
ATOM     45  C   UNL     1       3.382   0.489  13.741  1.00  0.00     0.074 A 
ATOM     46  C   UNL     1       3.475  -0.777  13.046  1.00  0.00     0.031 C 
ATOM     47  C   UNL     1       5.997   4.608   9.581  1.00  0.00     0.029 A 
ATOM     48  C   UNL     1       5.380   4.908  10.870  1.00  0.00     0.049 A 
ATOM     49  H   UNL     1       4.563   3.558  12.230  1.00  0.00     0.167 HD
ATOM     50  C   UNL     1       2.792   0.654  14.951  1.00  0.00     0.031 A 
ATOM     51  C   UNL     1       5.244   6.140  11.395  1.00  0.00     0.031 A 
ATOM     52  C   UNL     1       2.704   1.913  15.645  1.00  0.00     0.049 A 
ATOM     53  C   UNL     1       4.654   6.296  12.766  1.00  0.00     0.074 A 
ATOM     54  C   UNL     1       2.197   2.170  16.907  1.00  0.00     0.029 A 
ATOM     55  N   UNL     1       3.124   3.131  15.130  1.00  0.00    -0.354 N 
ATOM     56  N   UNL     1       4.157   5.374  13.557  1.00  0.00    -0.248 NA
ATOM     57  C   UNL     1       4.633   7.652  13.327  1.00  0.00     0.031 C 
ATOM     58  C   UNL     1       2.274   3.549  17.139  1.00  0.00     0.029 A 
ATOM     59  C   UNL     1       2.871   4.145  16.040  1.00  0.00     0.049 A 
ATOM     60  H   UNL     1       3.542   3.256  14.248  1.00  0.00     0.167 HD
ATOM     61  C   UNL     1       3.776   6.037  14.717  1.00  0.00     0.074 A 
ATOM     62  C   UNL     1       4.121   7.434  14.531  1.00  0.00     0.031 C 
ATOM     63  C   UNL     1       3.195   5.535  15.835  1.00  0.00     0.031 A 
BRANCH  50  64
ATOM     64  C   UNL     1       2.181  -0.567  15.589  1.00  0.00    -0.014 A 
ATOM     65  C   UNL     1       2.986  -1.610  16.085  1.00  0.00     0.010 A 
ATOM     66  C   UNL     1       0.783  -0.674  15.695  1.00  0.00     0.010 A 
ATOM     67  C   UNL     1       2.402  -2.764  16.615  1.00  0.00     0.020 A 
ATOM     68  C   UNL     1       0.196  -1.815  16.250  1.00  0.00     0.020 A 
ATOM     69  C   UNL     1       1.010  -2.865  16.683  1.00  0.00     0.054 A 
BRANCH  69  70
ATOM     70  S   UNL     1       0.274  -4.379  17.357  1.00  0.00     0.124 S 
ATOM     71  O   UNL     1       0.420  -5.307  16.238  1.00  0.00    -0.237 OA
ATOM     72  O   UNL     1       1.115  -4.660  18.518  1.00  0.00    -0.237 OA
ATOM     73  O   UNL     1      -1.099  -3.988  17.667  1.00  0.00    -0.744 OA
ENDBRANCH  69  70
ENDBRANCH  50  64
BRANCH  51  74
ATOM     74  C   UNL     1       5.726   7.314  10.620  1.00  0.00    -0.014 A 
ATOM     75  C   UNL     1       6.935   7.945  10.957  1.00  0.00     0.010 A 
ATOM     76  C   UNL     1       5.008   7.758   9.495  1.00  0.00     0.010 A 
ATOM     77  C   UNL     1       7.423   8.998  10.178  1.00  0.00     0.020 A 
ATOM     78  C   UNL     1       5.504   8.795   8.701  1.00  0.00     0.020 A 
ATOM     79  C   UNL     1       6.708   9.411   9.049  1.00  0.00     0.054 A 
BRANCH  79  80
ATOM     80  S   UNL     1       7.411  10.706   7.990  1.00  0.00     0.124 S 
ATOM     81  O   UNL     1       7.118  11.915   8.753  1.00  0.00    -0.237 OA
ATOM     82  O   UNL     1       8.820  10.328   7.918  1.00  0.00    -0.237 OA
ATOM     83  O   UNL     1       6.672  10.558   6.738  1.00  0.00    -0.744 OA
ENDBRANCH  79  80
ENDBRANCH  51  74
BRANCH  63  84
ATOM     84  C   UNL     1       2.902   6.507  16.946  1.00  0.00    -0.014 A 
ATOM     85  C   UNL     1       1.867   7.452  16.832  1.00  0.00     0.010 A 
ATOM     86  C   UNL     1       3.671   6.471  18.124  1.00  0.00     0.010 A 
ATOM     87  C   UNL     1       1.639   8.378  17.853  1.00  0.00     0.020 A 
ATOM     88  C   UNL     1       3.429   7.379  19.158  1.00  0.00     0.020 A 
ATOM     89  C   UNL     1       2.430   8.343  19.006  1.00  0.00     0.054 A 
BRANCH  89  90
ATOM     90  S   UNL     1       2.121   9.553  20.321  1.00  0.00     0.124 S 
ATOM     91  O   UNL     1       2.771  10.748  19.790  1.00  0.00    -0.237 OA
ATOM     92  O   UNL     1       0.662   9.605  20.379  1.00  0.00    -0.237 OA
ATOM     93  O   UNL     1       2.763   8.961  21.492  1.00  0.00    -0.744 OA
ENDBRANCH  89  90
ENDBRANCH  63  84
ENDBRANCH  37  38
ENDBRANCH  29  32
ENDBRANCH  27  28
ENDBRANCH  26  27
ENDBRANCH  25  26
ENDBRANCH  24  25
ENDBRANCH   1  24
TORSDOF 22
