REMARK SMILES O=C(NCCCCCCNC(=O)c1ccc2c(c1)[C@@H]1C=CC[C@@H]1[C@H](c1ccncc1)N2)c1ccc(-c2c3nc(c(-c4ccc(S(=O)(=O)[O-])cc4)c4ccc([nH]4)c(-c4ccc(S(=O)(=O)[O-])cc4)c4nc(c(-c5ccc(S(=O)(=O)[O-])cc5)c5ccc2[nH]5)C=C4)C=C3)cc1
REMARK SMILES IDX 5 1 4 2 3 3 1 4 2 5 32 7 33 8 91 9 34 10 90 11 35 12 36 13
REMARK SMILES IDX 37 14 84 15 38 16 89 17 83 18 85 19 39 20 88 21 82 22 81 23
REMARK SMILES IDX 40 25 70 26 51 27 69 28 52 29 55 30 68 31 86 32 53 33 54 34
REMARK SMILES IDX 67 36 87 37 56 38 41 39 42 40 50 41 43 42 49 43 44 44 45 45
REMARK SMILES IDX 46 46 47 47 48 48 71 49 72 50 80 51 73 52 79 53 74 54 75 55
REMARK SMILES IDX 76 56 77 57 78 58 57 59 58 60 66 61 59 62 65 63 60 64 61 65
REMARK SMILES IDX 62 66 63 67 64 68 6 69 7 70 8 71 9 72 10 73 11 74 12 76
REMARK SMILES IDX 13 77 14 78 18 79 15 80 17 81 16 82 19 83 31 84 20 85 23 86
REMARK SMILES IDX 24 87 21 89 22 90 25 91 26 92 30 93 27 94 29 95 28 96
REMARK H PARENT 3 6 85 24 55 35 10 75 31 88
REMARK Flexibility Score: inf
ROOT
ATOM      1  C   UNL     1       4.703   1.324  -2.544  1.00  0.00     0.021 C 
ENDROOT
BRANCH   1   2
ATOM      2  C   UNL     1       4.479   0.970  -1.081  1.00  0.00     0.116 C 
BRANCH   2   3
ATOM      3  N   UNL     1       3.073   0.881  -0.725  1.00  0.00    -0.352 N 
ATOM      4  O   UNL     1       1.198  -0.091   0.068  1.00  0.00    -0.269 OA
ATOM      5  C   UNL     1       2.421  -0.111  -0.031  1.00  0.00     0.251 C 
ATOM      6  H   UNL     1       2.511   1.634  -1.021  1.00  0.00     0.163 HD
BRANCH   5   7
ATOM      7  C   UNL     1       3.199  -1.219   0.571  1.00  0.00     0.039 A 
ATOM      8  C   UNL     1       4.373  -0.961   1.280  1.00  0.00     0.014 A 
ATOM      9  C   UNL     1       2.745  -2.534   0.424  1.00  0.00     0.014 A 
ATOM     10  C   UNL     1       5.162  -2.018   1.720  1.00  0.00     0.010 A 
ATOM     11  C   UNL     1       3.498  -3.594   0.943  1.00  0.00     0.010 A 
ATOM     12  C   UNL     1       4.726  -3.346   1.573  1.00  0.00    -0.014 A 
BRANCH  12  13
ATOM     13  C   UNL     1       5.542  -4.437   2.167  1.00  0.00     0.031 A 
ATOM     14  C   UNL     1       6.222  -5.470   1.312  1.00  0.00     0.074 A 
ATOM     15  C   UNL     1       5.711  -4.447   3.505  1.00  0.00     0.049 A 
ATOM     16  N   UNL     1       7.027  -6.436   1.680  1.00  0.00    -0.248 NA
ATOM     17  C   UNL     1       5.969  -5.423  -0.137  1.00  0.00     0.031 C 
ATOM     18  C   UNL     1       5.084  -3.506   4.440  1.00  0.00     0.029 A 
ATOM     19  N   UNL     1       6.480  -5.248   4.309  1.00  0.00    -0.354 N 
ATOM     20  C   UNL     1       7.369  -7.116   0.517  1.00  0.00     0.074 A 
ATOM     21  C   UNL     1       6.665  -6.468  -0.569  1.00  0.00     0.031 C 
ATOM     22  C   UNL     1       5.541  -3.745   5.677  1.00  0.00     0.029 A 
ATOM     23  C   UNL     1       6.444  -4.888   5.636  1.00  0.00     0.049 A 
ATOM     24  H   UNL     1       7.007  -6.007   3.970  1.00  0.00     0.167 HD
ATOM     25  C   UNL     1       8.198  -8.178   0.369  1.00  0.00     0.031 A 
ATOM     26  C   UNL     1       7.061  -5.421   6.706  1.00  0.00     0.031 A 
ATOM     27  C   UNL     1       8.894  -8.822   1.454  1.00  0.00     0.049 A 
ATOM     28  C   UNL     1       7.969  -6.599   6.511  1.00  0.00     0.074 A 
ATOM     29  C   UNL     1       9.763  -9.900   1.401  1.00  0.00     0.029 A 
ATOM     30  N   UNL     1       8.806  -8.449   2.786  1.00  0.00    -0.354 N 
ATOM     31  N   UNL     1       8.290  -7.212   5.397  1.00  0.00    -0.248 NA
ATOM     32  C   UNL     1       8.596  -7.156   7.716  1.00  0.00     0.031 C 
ATOM     33  C   UNL     1      10.169 -10.202   2.705  1.00  0.00     0.029 A 
ATOM     34  C   UNL     1       9.592  -9.283   3.566  1.00  0.00     0.049 A 
ATOM     35  H   UNL     1       8.265  -7.702   3.129  1.00  0.00     0.167 HD
ATOM     36  C   UNL     1       9.159  -8.230   5.768  1.00  0.00     0.074 A 
ATOM     37  C   UNL     1       9.341  -8.125   7.202  1.00  0.00     0.031 C 
ATOM     38  C   UNL     1       9.746  -9.175   4.993  1.00  0.00     0.031 A 
BRANCH  25  39
ATOM     39  C   UNL     1       8.397  -8.727  -1.020  1.00  0.00    -0.014 A 
ATOM     40  C   UNL     1       9.197  -8.048  -1.956  1.00  0.00     0.010 A 
ATOM     41  C   UNL     1       7.846  -9.974  -1.367  1.00  0.00     0.010 A 
ATOM     42  C   UNL     1       9.425  -8.596  -3.222  1.00  0.00     0.020 A 
ATOM     43  C   UNL     1       8.088 -10.535  -2.625  1.00  0.00     0.020 A 
ATOM     44  C   UNL     1       8.868  -9.837  -3.549  1.00  0.00     0.054 A 
BRANCH  44  45
ATOM     45  S   UNL     1       9.218 -10.545  -5.183  1.00  0.00     0.124 S 
ATOM     46  O   UNL     1       8.384  -9.719  -6.053  1.00  0.00    -0.237 OA
ATOM     47  O   UNL     1      10.658 -10.343  -5.319  1.00  0.00    -0.237 OA
ATOM     48  O   UNL     1       8.796 -11.938  -5.056  1.00  0.00    -0.744 OA
ENDBRANCH  44  45
ENDBRANCH  25  39
BRANCH  26  49
ATOM     49  C   UNL     1       6.815  -4.855   8.059  1.00  0.00    -0.014 A 
ATOM     50  C   UNL     1       7.825  -4.158   8.743  1.00  0.00     0.010 A 
ATOM     51  C   UNL     1       5.554  -5.005   8.665  1.00  0.00     0.010 A 
ATOM     52  C   UNL     1       7.585  -3.639  10.019  1.00  0.00     0.020 A 
ATOM     53  C   UNL     1       5.301  -4.463   9.926  1.00  0.00     0.020 A 
ATOM     54  C   UNL     1       6.325  -3.797  10.602  1.00  0.00     0.054 A 
BRANCH  54  55
ATOM     55  S   UNL     1       6.014  -3.082  12.240  1.00  0.00     0.124 S 
ATOM     56  O   UNL     1       6.627  -4.070  13.122  1.00  0.00    -0.237 OA
ATOM     57  O   UNL     1       6.696  -1.792  12.162  1.00  0.00    -0.237 OA
ATOM     58  O   UNL     1       4.556  -3.002  12.303  1.00  0.00    -0.744 OA
ENDBRANCH  54  55
ENDBRANCH  26  49
BRANCH  38  59
ATOM     59  C   UNL     1      10.641 -10.161   5.691  1.00  0.00    -0.014 A 
ATOM     60  C   UNL     1      10.102 -11.175   6.504  1.00  0.00     0.010 A 
ATOM     61  C   UNL     1      12.035 -10.074   5.531  1.00  0.00     0.010 A 
ATOM     62  C   UNL     1      10.946 -12.056   7.183  1.00  0.00     0.020 A 
ATOM     63  C   UNL     1      12.881 -10.970   6.190  1.00  0.00     0.020 A 
ATOM     64  C   UNL     1      12.331 -11.943   7.028  1.00  0.00     0.054 A 
BRANCH  64  65
ATOM     65  S   UNL     1      13.408 -13.102   7.913  1.00  0.00     0.124 S 
ATOM     66  O   UNL     1      13.395 -12.555   9.267  1.00  0.00    -0.237 OA
ATOM     67  O   UNL     1      12.718 -14.379   7.744  1.00  0.00    -0.237 OA
ATOM     68  O   UNL     1      14.684 -12.993   7.208  1.00  0.00    -0.744 OA
ENDBRANCH  64  65
ENDBRANCH  38  59
ENDBRANCH  12  13
ENDBRANCH   5   7
ENDBRANCH   2   3
ENDBRANCH   1   2
BRANCH   1  69
ATOM     69  C   UNL     1       4.235   2.718  -2.961  1.00  0.00     0.002 C 
BRANCH  69  70
ATOM     70  C   UNL     1       4.793   3.884  -2.140  1.00  0.00     0.002 C 
BRANCH  70  71
ATOM     71  C   UNL     1       6.316   3.928  -1.981  1.00  0.00     0.021 C 
BRANCH  71  72
ATOM     72  C   UNL     1       7.116   3.878  -3.280  1.00  0.00     0.116 C 
BRANCH  72  73
ATOM     73  N   UNL     1       6.830   5.004  -4.153  1.00  0.00    -0.352 N 
ATOM     74  C   UNL     1       7.701   5.886  -4.741  1.00  0.00     0.251 C 
ATOM     75  H   UNL     1       5.877   5.155  -4.350  1.00  0.00     0.163 HD
ATOM     76  O   UNL     1       7.280   6.876  -5.332  1.00  0.00    -0.269 OA
BRANCH  74  77
ATOM     77  C   UNL     1       9.157   5.653  -4.647  1.00  0.00     0.040 A 
ATOM     78  C   UNL     1       9.979   6.687  -4.207  1.00  0.00     0.016 A 
ATOM     79  C   UNL     1       9.709   4.416  -4.988  1.00  0.00     0.020 A 
ATOM     80  C   UNL     1      11.353   6.468  -4.084  1.00  0.00     0.027 A 
ATOM     81  C   UNL     1      11.081   4.174  -4.803  1.00  0.00    -0.017 A 
ATOM     82  C   UNL     1      11.922   5.226  -4.404  1.00  0.00     0.038 A 
ATOM     83  C   UNL     1      11.629   2.782  -5.026  1.00  0.00     0.049 C 
ATOM     84  N   UNL     1      13.288   5.043  -4.236  1.00  0.00    -0.378 N 
ATOM     85  C   UNL     1      10.945   1.746  -4.166  1.00  0.00    -0.023 C 
ATOM     86  C   UNL     1      13.088   2.606  -4.567  1.00  0.00     0.031 C 
ATOM     87  C   UNL     1      13.925   3.863  -4.804  1.00  0.00     0.114 C 
ATOM     88  H   UNL     1      13.821   5.704  -3.737  1.00  0.00     0.161 HD
ATOM     89  C   UNL     1      11.695   1.387  -3.117  1.00  0.00    -0.030 C 
ATOM     90  C   UNL     1      13.004   2.112  -3.112  1.00  0.00     0.034 C 
BRANCH  87  91
ATOM     91  C   UNL     1      15.361   3.700  -4.325  1.00  0.00    -0.022 A 
ATOM     92  C   UNL     1      16.214   2.818  -5.004  1.00  0.00     0.026 A 
ATOM     93  C   UNL     1      15.880   4.374  -3.213  1.00  0.00     0.026 A 
ATOM     94  C   UNL     1      17.520   2.665  -4.563  1.00  0.00     0.111 A 
ATOM     95  C   UNL     1      17.205   4.167  -2.858  1.00  0.00     0.111 A 
ATOM     96  N   UNL     1      18.039   3.333  -3.514  1.00  0.00    -0.265 NA
ENDBRANCH  87  91
ENDBRANCH  74  77
ENDBRANCH  72  73
ENDBRANCH  71  72
ENDBRANCH  70  71
ENDBRANCH  69  70
ENDBRANCH   1  69
TORSDOF 17
