REMARK SMILES CC(C)C[C@H](CNC(=O)c1cc(F)ccc1Br)C(=O)NCCCCCCNC(=O)c1ccc(-c2c3nc(c(-c4ccc(S(=O)(=O)[O-])cc4)c4ccc([nH]4)c(-c4ccc(S(=O)(=O)[O-])cc4)c4nc(c(-c5ccc(S(=O)(=O)[O-])cc5)c5ccc2[nH]5)C=C4)C=C3)cc1
REMARK SMILES IDX 23 1 22 2 21 3 20 4 18 5 19 6 5 8 4 9 2 10 1 11 3 12 6 13
REMARK SMILES IDX 7 14 8 15 9 17 10 18 11 19 16 20 12 21 15 22 17 23 13 24
REMARK SMILES IDX 14 25 24 26 25 27 26 28 27 29 28 30 29 32 30 33 31 34 89 35
REMARK SMILES IDX 32 36 88 37 33 38 34 39 35 40 82 41 36 42 87 43 81 44 83 45
REMARK SMILES IDX 37 46 86 47 80 48 79 49 38 51 68 52 49 53 67 54 50 55 53 56
REMARK SMILES IDX 66 57 84 58 51 59 52 60 65 62 85 63 54 64 39 65 40 66 48 67
REMARK SMILES IDX 41 68 47 69 42 70 43 71 44 72 45 73 46 74 69 75 70 76 78 77
REMARK SMILES IDX 71 78 77 79 72 80 73 81 74 82 75 83 76 84 55 85 56 86 64 87
REMARK SMILES IDX 57 88 63 89 58 90 59 91 60 92 61 93 62 94
REMARK H PARENT 20 7 7 16 27 31 83 50 53 61
REMARK Flexibility Score: inf
ROOT
ATOM      1  C   UNL     1      -5.249   1.210   4.059  1.00  0.00     0.002 C 
ENDROOT
BRANCH   1   2
ATOM      2  C   UNL     1      -3.743   1.165   3.783  1.00  0.00     0.021 C 
BRANCH   2   3
ATOM      3  C   UNL     1      -3.206  -0.216   3.416  1.00  0.00     0.116 C 
BRANCH   3   4
ATOM      4  N   UNL     1      -3.631  -0.618   2.088  1.00  0.00    -0.356 N 
ATOM      5  C   UNL     1      -2.907  -1.009   1.006  1.00  0.00     0.224 C 
ATOM      6  O   UNL     1      -3.517  -1.252  -0.038  1.00  0.00    -0.275 OA
ATOM      7  H   UNL     1      -4.606  -0.606   1.948  1.00  0.00     0.163 HD
BRANCH   5   8
ATOM      8  C   UNL     1      -1.389  -1.156   1.063  1.00  0.00     0.098 C 
BRANCH   8   9
ATOM      9  C   UNL     1      -0.930  -2.263   2.034  1.00  0.00     0.018 C 
BRANCH   9  10
ATOM     10  C   UNL     1      -1.627  -3.629   1.837  1.00  0.00    -0.017 C 
ATOM     11  C   UNL     1      -1.301  -4.259   0.482  1.00  0.00     0.007 C 
ATOM     12  C   UNL     1      -1.223  -4.585   2.963  1.00  0.00     0.007 C 
ENDBRANCH   9  10
ENDBRANCH   8   9
BRANCH   8  13
ATOM     13  C   UNL     1      -0.733   0.230   1.227  1.00  0.00     0.129 C 
BRANCH  13  14
ATOM     14  N   UNL     1       0.291   0.317   2.260  1.00  0.00    -0.351 N 
ATOM     15  C   UNL     1       1.654   0.355   2.151  1.00  0.00     0.252 C 
ATOM     16  H   UNL     1      -0.053   0.353   3.182  1.00  0.00     0.163 HD
ATOM     17  O   UNL     1       2.356   0.374   3.159  1.00  0.00    -0.269 OA
BRANCH  15  18
ATOM     18  C   UNL     1       2.286   0.420   0.826  1.00  0.00     0.056 A 
ATOM     19  C   UNL     1       2.102   1.586   0.071  1.00  0.00     0.054 A 
ATOM     20  C   UNL     1       3.117  -0.603   0.354  1.00  0.00     0.030 A 
ATOM     21  C   UNL     1       2.721   1.699  -1.165  1.00  0.00     0.124 A 
ATOM     22  C   UNL     1       3.745  -0.465  -0.890  1.00  0.00     0.019 A 
ATOM     23  Br  UNL     1       3.415  -2.213   1.312  1.00  0.00    -0.050 Br
ATOM     24  F   UNL     1       2.528   2.800  -1.901  1.00  0.00    -0.207 F 
ATOM     25  C   UNL     1       3.541   0.686  -1.652  1.00  0.00     0.040 A 
ENDBRANCH  15  18
ENDBRANCH  13  14
ENDBRANCH   8  13
ENDBRANCH   5   8
ENDBRANCH   3   4
ENDBRANCH   2   3
ENDBRANCH   1   2
BRANCH   1  26
ATOM     26  C   UNL     1      -5.738   0.290   5.182  1.00  0.00     0.002 C 
BRANCH  26  27
ATOM     27  C   UNL     1      -5.010   0.434   6.522  1.00  0.00     0.021 C 
BRANCH  27  28
ATOM     28  C   UNL     1      -4.999   1.842   7.113  1.00  0.00     0.116 C 
BRANCH  28  29
ATOM     29  N   UNL     1      -6.336   2.338   7.388  1.00  0.00    -0.352 N 
ATOM     30  C   UNL     1      -6.816   2.962   8.513  1.00  0.00     0.251 C 
ATOM     31  H   UNL     1      -6.991   2.209   6.665  1.00  0.00     0.163 HD
ATOM     32  O   UNL     1      -8.022   3.172   8.624  1.00  0.00    -0.269 OA
BRANCH  30  33
ATOM     33  C   UNL     1      -5.893   3.360   9.598  1.00  0.00     0.039 A 
ATOM     34  C   UNL     1      -6.256   3.090  10.920  1.00  0.00     0.014 A 
ATOM     35  C   UNL     1      -4.691   4.021   9.322  1.00  0.00     0.014 A 
ATOM     36  C   UNL     1      -5.395   3.440  11.963  1.00  0.00     0.010 A 
ATOM     37  C   UNL     1      -3.809   4.322  10.359  1.00  0.00     0.010 A 
ATOM     38  C   UNL     1      -4.155   4.040  11.690  1.00  0.00    -0.014 A 
BRANCH  38  39
ATOM     39  C   UNL     1      -3.219   4.393  12.786  1.00  0.00     0.031 A 
ATOM     40  C   UNL     1      -2.927   5.837  13.095  1.00  0.00     0.074 A 
ATOM     41  C   UNL     1      -2.595   3.417  13.473  1.00  0.00     0.049 A 
ATOM     42  N   UNL     1      -2.103   6.341  13.978  1.00  0.00    -0.248 NA
ATOM     43  C   UNL     1      -3.639   6.844  12.292  1.00  0.00     0.031 C 
ATOM     44  C   UNL     1      -2.764   1.979  13.247  1.00  0.00     0.029 A 
ATOM     45  N   UNL     1      -1.686   3.487  14.499  1.00  0.00    -0.354 N 
ATOM     46  C   UNL     1      -2.185   7.720  13.828  1.00  0.00     0.074 A 
ATOM     47  C   UNL     1      -3.109   7.972  12.742  1.00  0.00     0.031 C 
ATOM     48  C   UNL     1      -1.997   1.305  14.120  1.00  0.00     0.029 A 
ATOM     49  C   UNL     1      -1.264   2.258  14.947  1.00  0.00     0.049 A 
ATOM     50  H   UNL     1      -1.366   4.338  14.877  1.00  0.00     0.167 HD
ATOM     51  C   UNL     1      -1.562   8.691  14.539  1.00  0.00     0.031 A 
ATOM     52  C   UNL     1      -0.385   1.935  15.915  1.00  0.00     0.031 A 
ATOM     53  C   UNL     1      -0.654   8.443  15.626  1.00  0.00     0.049 A 
ATOM     54  C   UNL     1       0.281   3.029  16.702  1.00  0.00     0.074 A 
ATOM     55  C   UNL     1       0.002   9.361  16.429  1.00  0.00     0.029 A 
ATOM     56  N   UNL     1      -0.278   7.184  16.069  1.00  0.00    -0.354 N 
ATOM     57  N   UNL     1       0.157   4.328  16.571  1.00  0.00    -0.248 NA
ATOM     58  C   UNL     1       1.193   2.612  17.776  1.00  0.00     0.031 C 
ATOM     59  C   UNL     1       0.795   8.655  17.341  1.00  0.00     0.029 A 
ATOM     60  C   UNL     1       0.603   7.299  17.130  1.00  0.00     0.049 A 
ATOM     61  H   UNL     1      -0.592   6.333  15.684  1.00  0.00     0.167 HD
ATOM     62  C   UNL     1       0.957   4.884  17.564  1.00  0.00     0.074 A 
ATOM     63  C   UNL     1       1.549   3.781  18.293  1.00  0.00     0.031 C 
ATOM     64  C   UNL     1       1.179   6.191  17.846  1.00  0.00     0.031 A 
BRANCH  51  65
ATOM     65  C   UNL     1      -1.850  10.117  14.154  1.00  0.00    -0.014 A 
ATOM     66  C   UNL     1      -3.093  10.706  14.449  1.00  0.00     0.010 A 
ATOM     67  C   UNL     1      -0.865  10.883  13.506  1.00  0.00     0.010 A 
ATOM     68  C   UNL     1      -3.362  12.021  14.062  1.00  0.00     0.020 A 
ATOM     69  C   UNL     1      -1.122  12.207  13.139  1.00  0.00     0.020 A 
ATOM     70  C   UNL     1      -2.377  12.761  13.401  1.00  0.00     0.054 A 
BRANCH  70  71
ATOM     71  S   UNL     1      -2.748  14.468  12.912  1.00  0.00     0.124 S 
ATOM     72  O   UNL     1      -3.571  14.266  11.722  1.00  0.00    -0.237 OA
ATOM     73  O   UNL     1      -3.451  14.995  14.079  1.00  0.00    -0.237 OA
ATOM     74  O   UNL     1      -1.431  15.050  12.667  1.00  0.00    -0.744 OA
ENDBRANCH  70  71
ENDBRANCH  51  65
BRANCH  52  75
ATOM     75  C   UNL     1      -0.100   0.506  16.210  1.00  0.00    -0.014 A 
ATOM     76  C   UNL     1      -0.615  -0.096  17.372  1.00  0.00     0.010 A 
ATOM     77  C   UNL     1       0.680  -0.262  15.328  1.00  0.00     0.010 A 
ATOM     78  C   UNL     1      -0.339  -1.436  17.656  1.00  0.00     0.020 A 
ATOM     79  C   UNL     1       0.939  -1.609  15.598  1.00  0.00     0.020 A 
ATOM     80  C   UNL     1       0.438  -2.184  16.768  1.00  0.00     0.054 A 
BRANCH  80  81
ATOM     81  S   UNL     1       0.744  -3.937  17.126  1.00  0.00     0.124 S 
ATOM     82  O   UNL     1       1.811  -3.861  18.119  1.00  0.00    -0.237 OA
ATOM     83  O   UNL     1      -0.552  -4.392  17.623  1.00  0.00    -0.237 OA
ATOM     84  O   UNL     1       1.130  -4.485  15.828  1.00  0.00    -0.744 OA
ENDBRANCH  80  81
ENDBRANCH  52  75
BRANCH  64  85
ATOM     85  C   UNL     1       2.073   6.498  19.016  1.00  0.00    -0.014 A 
ATOM     86  C   UNL     1       3.467   6.347  18.923  1.00  0.00     0.010 A 
ATOM     87  C   UNL     1       1.510   6.983  20.210  1.00  0.00     0.010 A 
ATOM     88  C   UNL     1       4.282   6.646  20.018  1.00  0.00     0.020 A 
ATOM     89  C   UNL     1       2.324   7.302  21.299  1.00  0.00     0.020 A 
ATOM     90  C   UNL     1       3.704   7.117  21.202  1.00  0.00     0.054 A 
BRANCH  90  91
ATOM     91  S   UNL     1       4.782   7.534  22.600  1.00  0.00     0.124 S 
ATOM     92  O   UNL     1       5.074   6.218  23.160  1.00  0.00    -0.237 OA
ATOM     93  O   UNL     1       5.907   8.206  21.954  1.00  0.00    -0.237 OA
ATOM     94  O   UNL     1       3.946   8.396  23.433  1.00  0.00    -0.744 OA
ENDBRANCH  90  91
ENDBRANCH  64  85
ENDBRANCH  38  39
ENDBRANCH  30  33
ENDBRANCH  28  29
ENDBRANCH  27  28
ENDBRANCH  26  27
ENDBRANCH   1  26
TORSDOF 21
