REMARK SMILES Cc1cc2[nH]c(=O)[nH]c2cc1S(=O)(=O)NCCC(=O)NCCCCCCNC(=O)c1ccc(-c2c3nc(c(-c4ccc(S(=O)(=O)[O-])cc4)c4ccc([nH]4)c(-c4ccc(S(=O)(=O)[O-])cc4)c4nc(c(-c5ccc(S(=O)(=O)[O-])cc5)c5ccc2[nH]5)C=C4)C=C3)cc1
REMARK SMILES IDX 23 1 22 2 21 3 20 4 18 5 19 6 17 8 16 9 15 10 12 12 13 13
REMARK SMILES IDX 14 14 11 15 1 16 2 17 3 18 4 19 10 20 5 21 9 22 6 23 8 25
REMARK SMILES IDX 7 26 24 28 25 29 26 30 27 31 28 32 29 34 30 35 31 36 89 37
REMARK SMILES IDX 32 38 88 39 33 40 34 41 35 42 82 43 36 44 87 45 81 46 83 47
REMARK SMILES IDX 37 48 86 49 80 50 79 51 38 53 68 54 49 55 67 56 50 57 53 58
REMARK SMILES IDX 66 59 84 60 51 61 52 62 65 64 85 65 54 66 39 67 40 68 48 69
REMARK SMILES IDX 41 70 47 71 42 72 43 73 44 74 45 75 46 76 69 77 70 78 78 79
REMARK SMILES IDX 71 80 77 81 72 82 73 83 74 84 75 85 76 86 55 87 56 88 64 89
REMARK SMILES IDX 57 90 63 91 58 92 59 93 60 94 61 95 62 96
REMARK H PARENT 20 7 15 11 5 24 8 27 27 33 83 52 53 63
REMARK Flexibility Score: inf
ROOT
ATOM      1  C   UNL     1      -2.026   4.921  -3.510  1.00  0.00     0.002 C 
ENDROOT
BRANCH   1   2
ATOM      2  C   UNL     1      -1.151   3.752  -3.058  1.00  0.00     0.021 C 
BRANCH   2   3
ATOM      3  C   UNL     1      -0.041   3.416  -4.055  1.00  0.00     0.116 C 
BRANCH   3   4
ATOM      4  N   UNL     1       1.199   4.063  -3.668  1.00  0.00    -0.356 N 
ATOM      5  C   UNL     1       2.335   3.510  -3.161  1.00  0.00     0.221 C 
ATOM      6  O   UNL     1       3.240   4.257  -2.782  1.00  0.00    -0.275 OA
ATOM      7  H   UNL     1       1.222   5.040  -3.789  1.00  0.00     0.163 HD
BRANCH   5   8
ATOM      8  C   UNL     1       2.485   2.007  -3.073  1.00  0.00     0.116 C 
BRANCH   8   9
ATOM      9  C   UNL     1       2.025   1.417  -1.750  1.00  0.00     0.109 C 
BRANCH   9  10
ATOM     10  N   UNL     1       0.585   1.197  -1.615  1.00  0.00    -0.211 NA
ATOM     11  H   UNL     1       0.428   1.015  -0.624  1.00  0.00     0.141 HD
BRANCH  10  12
ATOM     12  S   UNL     1      -0.284   0.025  -2.426  1.00  0.00     0.240 S 
ATOM     13  O   UNL     1       0.245  -0.041  -3.778  1.00  0.00    -0.207 OA
ATOM     14  O   UNL     1      -1.667   0.324  -2.171  1.00  0.00    -0.207 OA
BRANCH  12  15
ATOM     15  C   UNL     1       0.035  -1.561  -1.692  1.00  0.00     0.087 A 
ATOM     16  C   UNL     1       0.628  -0.672   0.661  1.00  0.00     0.046 C 
ATOM     17  C   UNL     1       0.457  -1.771  -0.348  1.00  0.00    -0.029 A 
ATOM     18  C   UNL     1       0.747  -3.087   0.077  1.00  0.00     0.033 A 
ATOM     19  C   UNL     1       0.551  -4.117  -0.815  1.00  0.00     0.067 A 
ATOM     20  C   UNL     1      -0.175  -2.643  -2.575  1.00  0.00     0.050 A 
ATOM     21  N   UNL     1       0.742  -5.484  -0.656  1.00  0.00    -0.306 N 
ATOM     22  C   UNL     1       0.086  -3.901  -2.104  1.00  0.00     0.068 A 
ATOM     23  C   UNL     1       0.385  -6.132  -1.850  1.00  0.00     0.323 A 
ATOM     24  H   UNL     1       1.073  -5.926   0.159  1.00  0.00     0.171 HD
ATOM     25  N   UNL     1      -0.026  -5.130  -2.740  1.00  0.00    -0.306 N 
ATOM     26  O   UNL     1       0.431  -7.330  -2.062  1.00  0.00    -0.248 OA
ATOM     27  H   UNL     1      -0.342  -5.274  -3.661  1.00  0.00     0.171 HD
ENDBRANCH  12  15
ENDBRANCH  10  12
ENDBRANCH   9  10
ENDBRANCH   8   9
ENDBRANCH   5   8
ENDBRANCH   3   4
ENDBRANCH   2   3
ENDBRANCH   1   2
BRANCH   1  28
ATOM     28  C   UNL     1      -2.925   4.603  -4.711  1.00  0.00     0.002 C 
BRANCH  28  29
ATOM     29  C   UNL     1      -3.945   3.477  -4.496  1.00  0.00     0.021 C 
BRANCH  29  30
ATOM     30  C   UNL     1      -4.887   3.687  -3.310  1.00  0.00     0.116 C 
BRANCH  30  31
ATOM     31  N   UNL     1      -5.557   4.973  -3.320  1.00  0.00    -0.352 N 
ATOM     32  C   UNL     1      -6.637   5.499  -3.971  1.00  0.00     0.251 C 
ATOM     33  H   UNL     1      -5.133   5.621  -2.712  1.00  0.00     0.163 HD
ATOM     34  O   UNL     1      -6.917   6.667  -3.684  1.00  0.00    -0.269 OA
BRANCH  32  35
ATOM     35  C   UNL     1      -7.450   4.800  -5.006  1.00  0.00     0.039 A 
ATOM     36  C   UNL     1      -7.333   3.459  -5.366  1.00  0.00     0.014 A 
ATOM     37  C   UNL     1      -8.399   5.591  -5.684  1.00  0.00     0.014 A 
ATOM     38  C   UNL     1      -8.073   2.945  -6.429  1.00  0.00     0.010 A 
ATOM     39  C   UNL     1      -9.161   5.075  -6.729  1.00  0.00     0.010 A 
ATOM     40  C   UNL     1      -8.965   3.759  -7.133  1.00  0.00    -0.014 A 
BRANCH  40  41
ATOM     41  C   UNL     1      -9.701   3.157  -8.243  1.00  0.00     0.031 A 
ATOM     42  C   UNL     1     -10.560   1.984  -7.905  1.00  0.00     0.074 A 
ATOM     43  C   UNL     1      -9.709   3.644  -9.499  1.00  0.00     0.049 A 
ATOM     44  N   UNL     1     -10.460   0.767  -8.335  1.00  0.00    -0.248 NA
ATOM     45  C   UNL     1     -11.619   2.181  -6.905  1.00  0.00     0.031 C 
ATOM     46  C   UNL     1      -9.199   4.927  -9.987  1.00  0.00     0.029 A 
ATOM     47  N   UNL     1     -10.290   3.102 -10.607  1.00  0.00    -0.354 N 
ATOM     48  C   UNL     1     -11.529   0.065  -7.779  1.00  0.00     0.074 A 
ATOM     49  C   UNL     1     -12.148   0.959  -6.830  1.00  0.00     0.031 C 
ATOM     50  C   UNL     1      -9.703   5.164 -11.220  1.00  0.00     0.029 A 
ATOM     51  C   UNL     1     -10.429   3.986 -11.665  1.00  0.00     0.049 A 
ATOM     52  H   UNL     1     -10.586   2.163 -10.651  1.00  0.00     0.167 HD
ATOM     53  C   UNL     1     -11.925  -1.160  -8.230  1.00  0.00     0.031 A 
ATOM     54  C   UNL     1     -11.160   3.789 -12.789  1.00  0.00     0.031 A 
ATOM     55  C   UNL     1     -10.921  -1.790  -9.043  1.00  0.00     0.049 A 
ATOM     56  C   UNL     1     -11.329   2.325 -12.958  1.00  0.00     0.074 A 
ATOM     57  C   UNL     1      -9.627  -2.216  -8.820  1.00  0.00     0.029 A 
ATOM     58  N   UNL     1     -11.072  -1.753 -10.408  1.00  0.00    -0.354 N 
ATOM     59  N   UNL     1     -10.348   1.505 -13.215  1.00  0.00    -0.248 NA
ATOM     60  C   UNL     1     -12.539   1.709 -12.439  1.00  0.00     0.031 C 
ATOM     61  C   UNL     1      -8.933  -1.921 -10.027  1.00  0.00     0.029 A 
ATOM     62  C   UNL     1      -9.857  -1.385 -10.928  1.00  0.00     0.049 A 
ATOM     63  H   UNL     1     -11.893  -1.952 -10.914  1.00  0.00     0.167 HD
ATOM     64  C   UNL     1     -10.656   0.349 -12.511  1.00  0.00     0.074 A 
ATOM     65  C   UNL     1     -12.059   0.502 -12.133  1.00  0.00     0.031 C 
ATOM     66  C   UNL     1      -9.685  -0.504 -12.068  1.00  0.00     0.031 A 
BRANCH  53  67
ATOM     67  C   UNL     1     -13.335  -1.686  -8.144  1.00  0.00    -0.014 A 
ATOM     68  C   UNL     1     -14.446  -0.851  -7.908  1.00  0.00     0.010 A 
ATOM     69  C   UNL     1     -13.609  -3.013  -8.540  1.00  0.00     0.010 A 
ATOM     70  C   UNL     1     -15.759  -1.308  -8.039  1.00  0.00     0.020 A 
ATOM     71  C   UNL     1     -14.924  -3.470  -8.718  1.00  0.00     0.020 A 
ATOM     72  C   UNL     1     -15.992  -2.613  -8.460  1.00  0.00     0.054 A 
BRANCH  72  73
ATOM     73  S   UNL     1     -17.704  -3.124  -8.746  1.00  0.00     0.124 S 
ATOM     74  O   UNL     1     -18.235  -3.172  -7.386  1.00  0.00    -0.237 OA
ATOM     75  O   UNL     1     -18.217  -2.045  -9.585  1.00  0.00    -0.237 OA
ATOM     76  O   UNL     1     -17.570  -4.418  -9.411  1.00  0.00    -0.744 OA
ENDBRANCH  72  73
ENDBRANCH  53  67
BRANCH  54  77
ATOM     77  C   UNL     1     -12.097   4.772 -13.396  1.00  0.00    -0.014 A 
ATOM     78  C   UNL     1     -12.647   5.801 -12.603  1.00  0.00     0.010 A 
ATOM     79  C   UNL     1     -12.686   4.523 -14.650  1.00  0.00     0.010 A 
ATOM     80  C   UNL     1     -13.787   6.501 -13.005  1.00  0.00     0.020 A 
ATOM     81  C   UNL     1     -13.836   5.220 -15.059  1.00  0.00     0.020 A 
ATOM     82  C   UNL     1     -14.399   6.178 -14.214  1.00  0.00     0.054 A 
BRANCH  82  83
ATOM     83  S   UNL     1     -15.986   6.969 -14.604  1.00  0.00     0.124 S 
ATOM     84  O   UNL     1     -16.866   6.401 -13.587  1.00  0.00    -0.237 OA
ATOM     85  O   UNL     1     -15.679   8.388 -14.444  1.00  0.00    -0.237 OA
ATOM     86  O   UNL     1     -16.257   6.545 -15.975  1.00  0.00    -0.744 OA
ENDBRANCH  82  83
ENDBRANCH  54  77
BRANCH  66  87
ATOM     87  C   UNL     1      -8.261  -0.341 -12.561  1.00  0.00    -0.014 A 
ATOM     88  C   UNL     1      -7.587  -1.497 -12.999  1.00  0.00     0.010 A 
ATOM     89  C   UNL     1      -7.514   0.843 -12.395  1.00  0.00     0.010 A 
ATOM     90  C   UNL     1      -6.207  -1.490 -13.219  1.00  0.00     0.020 A 
ATOM     91  C   UNL     1      -6.131   0.864 -12.640  1.00  0.00     0.020 A 
ATOM     92  C   UNL     1      -5.483  -0.313 -13.023  1.00  0.00     0.054 A 
BRANCH  92  93
ATOM     93  S   UNL     1      -3.683  -0.369 -13.239  1.00  0.00     0.124 S 
ATOM     94  O   UNL     1      -3.255  -1.150 -12.080  1.00  0.00    -0.237 OA
ATOM     95  O   UNL     1      -3.533  -1.038 -14.530  1.00  0.00    -0.237 OA
ATOM     96  O   UNL     1      -3.279   1.035 -13.223  1.00  0.00    -0.744 OA
ENDBRANCH  92  93
ENDBRANCH  66  87
ENDBRANCH  40  41
ENDBRANCH  32  35
ENDBRANCH  30  31
ENDBRANCH  29  30
ENDBRANCH  28  29
ENDBRANCH   1  28
TORSDOF 20
