REMARK SMILES O=C(CCCCCn1cc(Cl)c(I)n1)NCCCCCCNC(=O)c1ccc(-c2c3nc(c(-c4ccc(S(=O)(=O)[O-])cc4)c4ccc([nH]4)c(-c4ccc(S(=O)(=O)[O-])cc4)c4nc(c(-c5ccc(S(=O)(=O)[O-])cc5)c5ccc2[nH]5)C=C4)C=C3)cc1
REMARK SMILES IDX 17 1 16 2 15 3 1 4 2 5 3 7 4 8 5 9 6 10 7 11 8 12 9 13 14 14
REMARK SMILES IDX 10 15 12 16 11 17 13 18 18 19 19 20 20 21 21 22 22 23 23 24
REMARK SMILES IDX 24 26 25 27 26 28 84 29 27 30 83 31 28 32 29 33 30 34 77 35
REMARK SMILES IDX 31 36 82 37 76 38 78 39 32 40 81 41 75 42 74 43 33 45 63 46
REMARK SMILES IDX 44 47 62 48 45 49 48 50 61 51 79 52 46 53 47 54 60 56 80 57
REMARK SMILES IDX 49 58 34 59 35 60 43 61 36 62 42 63 37 64 38 65 39 66 40 67
REMARK SMILES IDX 41 68 64 69 65 70 73 71 66 72 72 73 67 74 68 75 69 76 70 77
REMARK SMILES IDX 71 78 50 79 51 80 59 81 52 82 58 83 53 84 54 85 55 86 56 87
REMARK SMILES IDX 57 88
REMARK H PARENT 15 6 22 25 78 44 48 55
REMARK Flexibility Score: inf
ROOT
ATOM      1  C   UNL     1       2.578   1.546   3.328  1.00  0.00     0.021 C 
ENDROOT
BRANCH   1   2
ATOM      2  C   UNL     1       1.958   1.595   1.933  1.00  0.00     0.116 C 
BRANCH   2   3
ATOM      3  N   UNL     1       2.505   0.562   1.080  1.00  0.00    -0.356 N 
ATOM      4  O   UNL     1       0.707   0.373  -0.341  1.00  0.00    -0.275 OA
ATOM      5  C   UNL     1       1.843   0.054  -0.011  1.00  0.00     0.219 C 
ATOM      6  H   UNL     1       3.397   0.205   1.293  1.00  0.00     0.163 HD
BRANCH   5   7
ATOM      7  C   UNL     1       2.688  -0.908  -0.824  1.00  0.00     0.100 C 
BRANCH   7   8
ATOM      8  C   UNL     1       3.598  -0.169  -1.808  1.00  0.00     0.010 C 
BRANCH   8   9
ATOM      9  C   UNL     1       4.701   0.695  -1.185  1.00  0.00     0.002 C 
BRANCH   9  10
ATOM     10  C   UNL     1       5.750  -0.058  -0.352  1.00  0.00     0.024 C 
BRANCH  10  11
ATOM     11  C   UNL     1       6.740  -0.892  -1.172  1.00  0.00     0.144 C 
BRANCH  11  12
ATOM     12  N   UNL     1       7.597  -0.157  -2.087  1.00  0.00    -0.270 N 
ATOM     13  C   UNL     1       7.851   1.185  -2.128  1.00  0.00     0.130 A 
ATOM     14  N   UNL     1       8.241  -0.842  -3.055  1.00  0.00    -0.165 NA
ATOM     15  C   UNL     1       8.610   1.401  -3.253  1.00  0.00     0.092 A 
ATOM     16  C   UNL     1       8.845   0.112  -3.769  1.00  0.00     0.141 A 
ATOM     17  Cl  UNL     1       9.118   2.904  -3.850  1.00  0.00    -0.080 Cl
ATOM     18  I   UNL     1       9.964  -0.331  -5.419  1.00  0.00    -0.018 I 
ENDBRANCH  11  12
ENDBRANCH  10  11
ENDBRANCH   9  10
ENDBRANCH   8   9
ENDBRANCH   7   8
ENDBRANCH   5   7
ENDBRANCH   2   3
ENDBRANCH   1   2
BRANCH   1  19
ATOM     19  C   UNL     1       4.089   1.821   3.383  1.00  0.00     0.002 C 
BRANCH  19  20
ATOM     20  C   UNL     1       4.555   3.199   2.890  1.00  0.00     0.002 C 
BRANCH  20  21
ATOM     21  C   UNL     1       3.898   4.424   3.540  1.00  0.00     0.021 C 
BRANCH  21  22
ATOM     22  C   UNL     1       4.049   4.498   5.054  1.00  0.00     0.116 C 
BRANCH  22  23
ATOM     23  N   UNL     1       5.426   4.732   5.490  1.00  0.00    -0.352 N 
ATOM     24  C   UNL     1       5.901   4.859   6.788  1.00  0.00     0.251 C 
ATOM     25  H   UNL     1       6.098   4.809   4.775  1.00  0.00     0.163 HD
ATOM     26  O   UNL     1       6.950   5.441   7.012  1.00  0.00    -0.269 OA
BRANCH  24  27
ATOM     27  C   UNL     1       5.119   4.264   7.892  1.00  0.00     0.039 A 
ATOM     28  C   UNL     1       5.027   4.867   9.151  1.00  0.00     0.014 A 
ATOM     29  C   UNL     1       4.459   3.066   7.637  1.00  0.00     0.014 A 
ATOM     30  C   UNL     1       4.202   4.286  10.116  1.00  0.00     0.010 A 
ATOM     31  C   UNL     1       3.511   2.606   8.509  1.00  0.00     0.010 A 
ATOM     32  C   UNL     1       3.432   3.161   9.778  1.00  0.00    -0.014 A 
BRANCH  32  33
ATOM     33  C   UNL     1       2.423   2.612  10.676  1.00  0.00     0.031 A 
ATOM     34  C   UNL     1       1.404   3.605  11.100  1.00  0.00     0.074 A 
ATOM     35  C   UNL     1       2.280   1.285  10.896  1.00  0.00     0.049 A 
ATOM     36  N   UNL     1       1.286   4.140  12.268  1.00  0.00    -0.248 NA
ATOM     37  C   UNL     1       0.538   4.216  10.076  1.00  0.00     0.031 C 
ATOM     38  C   UNL     1       3.049   0.181  10.304  1.00  0.00     0.029 A 
ATOM     39  N   UNL     1       1.323   0.621  11.601  1.00  0.00    -0.354 N 
ATOM     40  C   UNL     1       0.155   4.942  12.198  1.00  0.00     0.074 A 
ATOM     41  C   UNL     1      -0.107   5.139  10.794  1.00  0.00     0.031 C 
ATOM     42  C   UNL     1       2.380  -0.982  10.468  1.00  0.00     0.029 A 
ATOM     43  C   UNL     1       1.223  -0.740  11.311  1.00  0.00     0.049 A 
ATOM     44  H   UNL     1       0.747   1.067  12.264  1.00  0.00     0.167 HD
ATOM     45  C   UNL     1      -0.648   5.114  13.285  1.00  0.00     0.031 A 
ATOM     46  C   UNL     1       0.247  -1.599  11.711  1.00  0.00     0.031 A 
ATOM     47  C   UNL     1      -0.018   4.622  14.487  1.00  0.00     0.049 A 
ATOM     48  C   UNL     1      -0.399  -0.987  12.898  1.00  0.00     0.074 A 
ATOM     49  C   UNL     1       1.173   4.882  15.137  1.00  0.00     0.029 A 
ATOM     50  N   UNL     1      -0.448   3.400  14.953  1.00  0.00    -0.354 N 
ATOM     51  N   UNL     1       0.220  -0.826  14.033  1.00  0.00    -0.248 NA
ATOM     52  C   UNL     1      -1.546  -0.118  12.685  1.00  0.00     0.031 C 
ATOM     53  C   UNL     1       1.633   3.608  15.583  1.00  0.00     0.029 A 
ATOM     54  C   UNL     1       0.658   2.658  15.273  1.00  0.00     0.049 A 
ATOM     55  H   UNL     1      -1.385   3.111  15.041  1.00  0.00     0.167 HD
ATOM     56  C   UNL     1      -0.142   0.447  14.448  1.00  0.00     0.074 A 
ATOM     57  C   UNL     1      -1.312   0.789  13.638  1.00  0.00     0.031 C 
ATOM     58  C   UNL     1       0.715   1.214  15.186  1.00  0.00     0.031 A 
BRANCH  45  59
ATOM     59  C   UNL     1      -2.146   5.287  13.201  1.00  0.00    -0.014 A 
ATOM     60  C   UNL     1      -2.864   5.495  14.397  1.00  0.00     0.010 A 
ATOM     61  C   UNL     1      -2.897   4.967  12.052  1.00  0.00     0.010 A 
ATOM     62  C   UNL     1      -4.250   5.308  14.455  1.00  0.00     0.020 A 
ATOM     63  C   UNL     1      -4.285   4.824  12.088  1.00  0.00     0.020 A 
ATOM     64  C   UNL     1      -4.948   4.961  13.299  1.00  0.00     0.054 A 
BRANCH  64  65
ATOM     65  S   UNL     1      -6.722   4.630  13.404  1.00  0.00     0.124 S 
ATOM     66  O   UNL     1      -6.753   3.426  14.229  1.00  0.00    -0.237 OA
ATOM     67  O   UNL     1      -7.224   5.847  14.035  1.00  0.00    -0.237 OA
ATOM     68  O   UNL     1      -7.118   4.447  12.009  1.00  0.00    -0.744 OA
ENDBRANCH  64  65
ENDBRANCH  45  59
BRANCH  46  69
ATOM     69  C   UNL     1      -0.342  -2.764  10.995  1.00  0.00    -0.014 A 
ATOM     70  C   UNL     1      -1.242  -3.637  11.641  1.00  0.00     0.010 A 
ATOM     71  C   UNL     1      -0.257  -2.846   9.591  1.00  0.00     0.010 A 
ATOM     72  C   UNL     1      -2.086  -4.491  10.905  1.00  0.00     0.020 A 
ATOM     73  C   UNL     1      -1.089  -3.699   8.851  1.00  0.00     0.020 A 
ATOM     74  C   UNL     1      -2.023  -4.495   9.510  1.00  0.00     0.054 A 
BRANCH  74  75
ATOM     75  S   UNL     1      -3.261  -5.425   8.553  1.00  0.00     0.124 S 
ATOM     76  O   UNL     1      -2.857  -6.809   8.780  1.00  0.00    -0.237 OA
ATOM     77  O   UNL     1      -4.517  -5.022   9.178  1.00  0.00    -0.237 OA
ATOM     78  O   UNL     1      -3.071  -4.941   7.186  1.00  0.00    -0.744 OA
ENDBRANCH  74  75
ENDBRANCH  46  69
BRANCH  58  79
ATOM     79  C   UNL     1       1.934   0.552  15.790  1.00  0.00    -0.014 A 
ATOM     80  C   UNL     1       2.945  -0.086  15.042  1.00  0.00     0.010 A 
ATOM     81  C   UNL     1       2.126   0.708  17.173  1.00  0.00     0.010 A 
ATOM     82  C   UNL     1       4.094  -0.589  15.672  1.00  0.00     0.020 A 
ATOM     83  C   UNL     1       3.276   0.229  17.803  1.00  0.00     0.020 A 
ATOM     84  C   UNL     1       4.248  -0.432  17.053  1.00  0.00     0.054 A 
BRANCH  84  85
ATOM     85  S   UNL     1       5.738  -1.070  17.869  1.00  0.00     0.124 S 
ATOM     86  O   UNL     1       5.570  -2.516  17.750  1.00  0.00    -0.237 OA
ATOM     87  O   UNL     1       6.819  -0.495  17.070  1.00  0.00    -0.237 OA
ATOM     88  O   UNL     1       5.641  -0.546  19.231  1.00  0.00    -0.744 OA
ENDBRANCH  84  85
ENDBRANCH  58  79
ENDBRANCH  32  33
ENDBRANCH  24  27
ENDBRANCH  22  23
ENDBRANCH  21  22
ENDBRANCH  20  21
ENDBRANCH  19  20
ENDBRANCH   1  19
TORSDOF 21
