REMARK SMILES O=C(NCCCCCCNC(=O)[C@H]1[C@@H](C(=O)NN2CCOCC2)[C@H]2C=C[C@@H]1CC2)c1ccc(-c2c3nc(c(-c4ccc(S(=O)(=O)[O-])cc4)c4ccc([nH]4)c(-c4ccc(S(=O)(=O)[O-])cc4)c4nc(c(-c5ccc(S(=O)(=O)[O-])cc5)c5ccc2[nH]5)C=C4)C=C3)cc1
REMARK SMILES IDX 6 1 5 2 4 3 3 4 1 5 2 6 30 8 31 9 89 10 32 11 88 12 33 13
REMARK SMILES IDX 34 14 35 15 82 16 36 17 87 18 81 19 83 20 37 21 86 22 80 23
REMARK SMILES IDX 79 24 38 26 68 27 49 28 67 29 50 30 53 31 66 32 84 33 51 34
REMARK SMILES IDX 52 35 65 37 85 38 54 39 39 40 40 41 48 42 41 43 47 44 42 45
REMARK SMILES IDX 43 46 44 47 45 48 46 49 69 50 70 51 78 52 71 53 77 54 72 55
REMARK SMILES IDX 73 56 74 57 75 58 76 59 55 60 56 61 64 62 57 63 63 64 58 65
REMARK SMILES IDX 59 66 60 67 61 68 62 69 7 70 8 71 9 72 10 73 11 74 12 76
REMARK SMILES IDX 13 77 14 78 27 79 24 80 26 81 28 82 25 83 29 84 15 85 16 86
REMARK SMILES IDX 17 87 18 89 19 90 23 91 20 92 22 93 21 94
REMARK H PARENT 3 7 83 25 53 36 10 75 17 88
REMARK Flexibility Score: inf
ROOT
ATOM      1  C   UNL     1       7.164  10.933  -3.334  1.00  0.00     0.002 C 
ENDROOT
BRANCH   1   2
ATOM      2  C   UNL     1       6.345  11.277  -4.579  1.00  0.00     0.021 C 
BRANCH   2   3
ATOM      3  C   UNL     1       4.871  11.553  -4.334  1.00  0.00     0.116 C 
BRANCH   3   4
ATOM      4  N   UNL     1       4.642  12.738  -3.527  1.00  0.00    -0.352 N 
ATOM      5  O   UNL     1       3.745  14.744  -3.017  1.00  0.00    -0.269 OA
ATOM      6  C   UNL     1       3.720  13.739  -3.722  1.00  0.00     0.251 C 
ATOM      7  H   UNL     1       5.223  12.838  -2.739  1.00  0.00     0.163 HD
BRANCH   6   8
ATOM      8  C   UNL     1       2.716  13.610  -4.804  1.00  0.00     0.039 A 
ATOM      9  C   UNL     1       2.038  12.406  -5.006  1.00  0.00     0.014 A 
ATOM     10  C   UNL     1       2.452  14.709  -5.628  1.00  0.00     0.014 A 
ATOM     11  C   UNL     1       1.200  12.261  -6.105  1.00  0.00     0.010 A 
ATOM     12  C   UNL     1       1.541  14.586  -6.683  1.00  0.00     0.010 A 
ATOM     13  C   UNL     1       0.923  13.354  -6.943  1.00  0.00    -0.014 A 
BRANCH  13  14
ATOM     14  C   UNL     1      -0.086  13.190  -8.020  1.00  0.00     0.031 A 
ATOM     15  C   UNL     1       0.288  13.271  -9.473  1.00  0.00     0.074 A 
ATOM     16  C   UNL     1      -1.354  12.906  -7.660  1.00  0.00     0.049 A 
ATOM     17  N   UNL     1      -0.468  13.078 -10.524  1.00  0.00    -0.248 NA
ATOM     18  C   UNL     1       1.682  13.617  -9.794  1.00  0.00     0.031 C 
ATOM     19  C   UNL     1      -1.838  12.821  -6.277  1.00  0.00     0.029 A 
ATOM     20  N   UNL     1      -2.458  12.603  -8.414  1.00  0.00    -0.354 N 
ATOM     21  C   UNL     1       0.349  13.287 -11.629  1.00  0.00     0.074 A 
ATOM     22  C   UNL     1       1.657  13.645 -11.121  1.00  0.00     0.031 C 
ATOM     23  C   UNL     1      -3.120  12.429  -6.282  1.00  0.00     0.029 A 
ATOM     24  C   UNL     1      -3.567  12.293  -7.663  1.00  0.00     0.049 A 
ATOM     25  H   UNL     1      -2.457  12.607  -9.399  1.00  0.00     0.167 HD
ATOM     26  C   UNL     1       0.037  13.185 -12.944  1.00  0.00     0.031 A 
ATOM     27  C   UNL     1      -4.811  11.945  -8.038  1.00  0.00     0.031 A 
ATOM     28  C   UNL     1      -1.268  12.832 -13.444  1.00  0.00     0.049 A 
ATOM     29  C   UNL     1      -5.126  11.843  -9.501  1.00  0.00     0.074 A 
ATOM     30  C   UNL     1      -1.679  12.695 -14.759  1.00  0.00     0.029 A 
ATOM     31  N   UNL     1      -2.373  12.556 -12.652  1.00  0.00    -0.354 N 
ATOM     32  N   UNL     1      -4.330  12.029 -10.527  1.00  0.00    -0.248 NA
ATOM     33  C   UNL     1      -6.505  11.484  -9.856  1.00  0.00     0.031 C 
ATOM     34  C   UNL     1      -3.042  12.375 -14.763  1.00  0.00     0.029 A 
ATOM     35  C   UNL     1      -3.467  12.265 -13.450  1.00  0.00     0.049 A 
ATOM     36  H   UNL     1      -2.379  12.567 -11.668  1.00  0.00     0.167 HD
ATOM     37  C   UNL     1      -5.114  11.811 -11.652  1.00  0.00     0.074 A 
ATOM     38  C   UNL     1      -6.434  11.443 -11.179  1.00  0.00     0.031 C 
ATOM     39  C   UNL     1      -4.777  11.918 -12.960  1.00  0.00     0.031 A 
BRANCH  26  40
ATOM     40  C   UNL     1       1.123  13.468 -13.949  1.00  0.00    -0.014 A 
ATOM     41  C   UNL     1       2.152  12.538 -14.182  1.00  0.00     0.010 A 
ATOM     42  C   UNL     1       1.071  14.640 -14.726  1.00  0.00     0.010 A 
ATOM     43  C   UNL     1       3.120  12.785 -15.159  1.00  0.00     0.020 A 
ATOM     44  C   UNL     1       2.027  14.881 -15.718  1.00  0.00     0.020 A 
ATOM     45  C   UNL     1       3.052  13.955 -15.921  1.00  0.00     0.054 A 
BRANCH  45  46
ATOM     46  S   UNL     1       4.295  14.226 -17.216  1.00  0.00     0.124 S 
ATOM     47  O   UNL     1       5.476  14.576 -16.429  1.00  0.00    -0.237 OA
ATOM     48  O   UNL     1       4.350  12.929 -17.885  1.00  0.00    -0.237 OA
ATOM     49  O   UNL     1       3.734  15.313 -18.014  1.00  0.00    -0.744 OA
ENDBRANCH  45  46
ENDBRANCH  26  40
BRANCH  27  50
ATOM     50  C   UNL     1      -5.852  11.695  -7.006  1.00  0.00    -0.014 A 
ATOM     51  C   UNL     1      -6.348  10.400  -6.781  1.00  0.00     0.010 A 
ATOM     52  C   UNL     1      -6.343  12.762  -6.231  1.00  0.00     0.010 A 
ATOM     53  C   UNL     1      -7.331  10.179  -5.813  1.00  0.00     0.020 A 
ATOM     54  C   UNL     1      -7.304  12.541  -5.243  1.00  0.00     0.020 A 
ATOM     55  C   UNL     1      -7.804  11.252  -5.051  1.00  0.00     0.054 A 
BRANCH  55  56
ATOM     56  S   UNL     1      -9.048  10.944  -3.768  1.00  0.00     0.124 S 
ATOM     57  O   UNL     1     -10.277  10.867  -4.551  1.00  0.00    -0.237 OA
ATOM     58  O   UNL     1      -8.593   9.688  -3.176  1.00  0.00    -0.237 OA
ATOM     59  O   UNL     1      -8.931  12.111  -2.896  1.00  0.00    -0.744 OA
ENDBRANCH  55  56
ENDBRANCH  27  50
BRANCH  39  60
ATOM     60  C   UNL     1      -5.859  11.626 -13.962  1.00  0.00    -0.014 A 
ATOM     61  C   UNL     1      -6.913  12.533 -14.170  1.00  0.00     0.010 A 
ATOM     62  C   UNL     1      -5.820  10.433 -14.705  1.00  0.00     0.010 A 
ATOM     63  C   UNL     1      -7.938  12.229 -15.069  1.00  0.00     0.020 A 
ATOM     64  C   UNL     1      -6.830  10.137 -15.623  1.00  0.00     0.020 A 
ATOM     65  C   UNL     1      -7.893  11.028 -15.784  1.00  0.00     0.054 A 
BRANCH  65  66
ATOM     66  S   UNL     1      -9.229  10.655 -16.952  1.00  0.00     0.124 S 
ATOM     67  O   UNL     1     -10.299  10.219 -16.058  1.00  0.00    -0.237 OA
ATOM     68  O   UNL     1      -9.448  11.938 -17.615  1.00  0.00    -0.237 OA
ATOM     69  O   UNL     1      -8.662   9.610 -17.801  1.00  0.00    -0.744 OA
ENDBRANCH  65  66
ENDBRANCH  39  60
ENDBRANCH  13  14
ENDBRANCH   6   8
ENDBRANCH   3   4
ENDBRANCH   2   3
ENDBRANCH   1   2
BRANCH   1  70
ATOM     70  C   UNL     1       6.646   9.766  -2.486  1.00  0.00     0.002 C 
BRANCH  70  71
ATOM     71  C   UNL     1       6.367   8.456  -3.231  1.00  0.00     0.021 C 
BRANCH  71  72
ATOM     72  C   UNL     1       7.494   7.973  -4.138  1.00  0.00     0.116 C 
BRANCH  72  73
ATOM     73  N   UNL     1       8.718   7.692  -3.411  1.00  0.00    -0.356 N 
ATOM     74  C   UNL     1       9.589   6.646  -3.521  1.00  0.00     0.224 C 
ATOM     75  H   UNL     1       8.959   8.361  -2.730  1.00  0.00     0.163 HD
ATOM     76  O   UNL     1      10.606   6.671  -2.828  1.00  0.00    -0.275 OA
BRANCH  74  77
ATOM     77  C   UNL     1       9.256   5.499  -4.458  1.00  0.00     0.098 C 
ATOM     78  C   UNL     1       9.942   5.543  -5.856  1.00  0.00     0.100 C 
ATOM     79  C   UNL     1       9.495   4.113  -3.780  1.00  0.00     0.025 C 
ATOM     80  C   UNL     1      10.469   4.105  -6.186  1.00  0.00     0.025 C 
ATOM     81  C   UNL     1      10.956   3.733  -3.859  1.00  0.00    -0.027 C 
ATOM     82  C   UNL     1       8.746   3.063  -4.643  1.00  0.00     0.009 C 
ATOM     83  C   UNL     1      11.449   3.688  -5.105  1.00  0.00    -0.027 C 
ATOM     84  C   UNL     1       9.277   3.119  -6.097  1.00  0.00     0.009 C 
BRANCH  78  85
ATOM     85  C   UNL     1      11.068   6.568  -6.065  1.00  0.00     0.238 C 
ATOM     86  O   UNL     1      12.263   6.291  -5.922  1.00  0.00    -0.273 OA
ATOM     87  N   UNL     1      10.799   7.837  -6.510  1.00  0.00    -0.288 N 
ATOM     88  H   UNL     1      11.580   8.399  -6.719  1.00  0.00     0.185 HD
BRANCH  87  89
ATOM     89  N   UNL     1       9.541   8.428  -6.701  1.00  0.00    -0.217 NA
ATOM     90  C   UNL     1       8.986   8.183  -8.053  1.00  0.00     0.136 C 
ATOM     91  C   UNL     1       9.634   9.903  -6.506  1.00  0.00     0.136 C 
ATOM     92  C   UNL     1       9.691   8.958  -9.173  1.00  0.00     0.177 C 
ATOM     93  C   UNL     1      10.334  10.641  -7.660  1.00  0.00     0.177 C 
ATOM     94  O   UNL     1       9.694  10.364  -8.907  1.00  0.00    -0.379 OA
ENDBRANCH  87  89
ENDBRANCH  78  85
ENDBRANCH  74  77
ENDBRANCH  72  73
ENDBRANCH  71  72
ENDBRANCH  70  71
ENDBRANCH   1  70
TORSDOF 18
