REMARK SMILES C[C@@H]1CCC[C@H]1NC(=O)c1csc(/C=C/C(=O)NCCCCCCNC(=O)c2ccc(-c3c4nc(c(-c5ccc(S(=O)(=O)[O-])cc5)c5ccc([nH]5)c(-c5ccc(S(=O)(=O)[O-])cc5)c5nc(c(-c6ccc(S(=O)(=O)[O-])cc6)c6ccc3[nH]6)C=C5)C=C4)cc2)c1
REMARK SMILES IDX 21 1 20 2 19 3 18 4 16 5 17 6 15 8 14 9 13 10 10 11 11 12
REMARK SMILES IDX 88 13 12 14 8 15 7 16 9 18 6 19 1 20 2 21 3 22 4 23 5 24
REMARK SMILES IDX 22 25 23 26 24 27 25 28 26 29 27 31 28 32 29 33 87 34 30 35
REMARK SMILES IDX 86 36 31 37 32 38 33 39 80 40 34 41 85 42 79 43 81 44 35 45
REMARK SMILES IDX 84 46 78 47 77 48 36 50 66 51 47 52 65 53 48 54 51 55 64 56
REMARK SMILES IDX 82 57 49 58 50 59 63 61 83 62 52 63 37 64 38 65 46 66 39 67
REMARK SMILES IDX 45 68 40 69 41 70 42 71 43 72 44 73 67 74 68 75 76 76 69 77
REMARK SMILES IDX 75 78 70 79 71 80 72 81 73 82 74 83 53 84 54 85 62 86 55 87
REMARK SMILES IDX 61 88 56 89 57 90 58 91 59 92 60 93
REMARK H PARENT 18 7 7 17 25 30 81 49 51 60
REMARK Flexibility Score: inf
ROOT
ATOM      1  C   UNL     1       6.284   8.046   5.424  1.00  0.00     0.002 C 
ENDROOT
BRANCH   1   2
ATOM      2  C   UNL     1       5.235   7.200   4.691  1.00  0.00     0.021 C 
BRANCH   2   3
ATOM      3  C   UNL     1       4.035   8.015   4.207  1.00  0.00     0.116 C 
BRANCH   3   4
ATOM      4  N   UNL     1       4.382   8.748   3.001  1.00  0.00    -0.353 N 
ATOM      5  C   UNL     1       3.922   8.651   1.726  1.00  0.00     0.244 C 
ATOM      6  O   UNL     1       4.340   9.425   0.868  1.00  0.00    -0.270 OA
ATOM      7  H   UNL     1       5.074   9.437   3.131  1.00  0.00     0.163 HD
BRANCH   5   8
ATOM      8  C   UNL     1       2.842   7.703   1.381  1.00  0.00     0.072 C 
ATOM      9  C   UNL     1       2.825   6.415   1.751  1.00  0.00     0.024 C 
BRANCH   9  10
ATOM     10  C   UNL     1       1.724   5.551   1.489  1.00  0.00     0.028 A 
ATOM     11  C   UNL     1       0.178   3.786   1.753  1.00  0.00     0.051 A 
ATOM     12  C   UNL     1      -0.205   4.320   0.539  1.00  0.00     0.079 A 
ATOM     13  C   UNL     1       1.255   4.545   2.316  1.00  0.00     0.033 A 
ATOM     14  S   UNL     1       0.795   5.613   0.044  1.00  0.00    -0.144 S 
BRANCH  11  15
ATOM     15  C   UNL     1      -0.452   2.652   2.413  1.00  0.00     0.252 C 
ATOM     16  N   UNL     1      -0.579   1.470   1.730  1.00  0.00    -0.349 N 
ATOM     17  H   UNL     1      -1.072   0.762   2.205  1.00  0.00     0.164 HD
ATOM     18  O   UNL     1      -0.822   2.713   3.582  1.00  0.00    -0.269 OA
BRANCH  16  19
ATOM     19  C   UNL     1      -0.093   1.105   0.403  1.00  0.00     0.085 C 
ATOM     20  C   UNL     1       1.779  -0.155  -0.745  1.00  0.00     0.010 C 
ATOM     21  C   UNL     1       0.838  -0.114   0.461  1.00  0.00     0.008 C 
ATOM     22  C   UNL     1      -0.130  -1.296   0.466  1.00  0.00     0.005 C 
ATOM     23  C   UNL     1      -1.300  -0.865  -0.413  1.00  0.00     0.002 C 
ATOM     24  C   UNL     1      -1.262   0.662  -0.479  1.00  0.00     0.025 C 
ENDBRANCH  16  19
ENDBRANCH  11  15
ENDBRANCH   9  10
ENDBRANCH   5   8
ENDBRANCH   3   4
ENDBRANCH   2   3
ENDBRANCH   1   2
BRANCH   1  25
ATOM     25  C   UNL     1       5.777   8.735   6.697  1.00  0.00     0.002 C 
BRANCH  25  26
ATOM     26  C   UNL     1       5.133   7.799   7.723  1.00  0.00     0.021 C 
BRANCH  26  27
ATOM     27  C   UNL     1       6.067   6.718   8.255  1.00  0.00     0.116 C 
BRANCH  27  28
ATOM     28  N   UNL     1       7.184   7.292   8.988  1.00  0.00    -0.352 N 
ATOM     29  C   UNL     1       7.616   7.020  10.260  1.00  0.00     0.251 C 
ATOM     30  H   UNL     1       7.703   7.972   8.502  1.00  0.00     0.163 HD
ATOM     31  O   UNL     1       8.419   7.773  10.804  1.00  0.00    -0.269 OA
BRANCH  29  32
ATOM     32  C   UNL     1       7.116   5.825  10.973  1.00  0.00     0.039 A 
ATOM     33  C   UNL     1       6.835   5.920  12.338  1.00  0.00     0.014 A 
ATOM     34  C   UNL     1       6.971   4.602  10.311  1.00  0.00     0.014 A 
ATOM     35  C   UNL     1       6.392   4.793  13.033  1.00  0.00     0.010 A 
ATOM     36  C   UNL     1       6.451   3.502  10.986  1.00  0.00     0.010 A 
ATOM     37  C   UNL     1       6.188   3.577  12.361  1.00  0.00    -0.014 A 
BRANCH  37  38
ATOM     38  C   UNL     1       5.761   2.360  13.095  1.00  0.00     0.031 A 
ATOM     39  C   UNL     1       6.683   1.170  13.176  1.00  0.00     0.074 A 
ATOM     40  C   UNL     1       4.540   2.311  13.664  1.00  0.00     0.049 A 
ATOM     41  N   UNL     1       6.490   0.013  13.756  1.00  0.00    -0.248 NA
ATOM     42  C   UNL     1       7.983   1.286  12.493  1.00  0.00     0.031 C 
ATOM     43  C   UNL     1       3.542   3.382  13.622  1.00  0.00     0.029 A 
ATOM     44  N   UNL     1       3.933   1.320  14.392  1.00  0.00    -0.354 N 
ATOM     45  C   UNL     1       7.632  -0.736  13.495  1.00  0.00     0.074 A 
ATOM     46  C   UNL     1       8.485   0.072  12.653  1.00  0.00     0.031 C 
ATOM     47  C   UNL     1       2.462   3.004  14.325  1.00  0.00     0.029 A 
ATOM     48  C   UNL     1       2.675   1.653  14.836  1.00  0.00     0.049 A 
ATOM     49  H   UNL     1       4.358   0.452  14.579  1.00  0.00     0.167 HD
ATOM     50  C   UNL     1       7.957  -1.975  13.937  1.00  0.00     0.031 A 
ATOM     51  C   UNL     1       1.795   0.951  15.576  1.00  0.00     0.031 A 
ATOM     52  C   UNL     1       7.111  -2.771  14.787  1.00  0.00     0.049 A 
ATOM     53  C   UNL     1       2.179  -0.422  16.057  1.00  0.00     0.074 A 
ATOM     54  C   UNL     1       7.364  -4.018  15.329  1.00  0.00     0.029 A 
ATOM     55  N   UNL     1       5.849  -2.393  15.222  1.00  0.00    -0.354 N 
ATOM     56  N   UNL     1       3.288  -1.092  15.846  1.00  0.00    -0.248 NA
ATOM     57  C   UNL     1       1.199  -1.125  16.896  1.00  0.00     0.031 C 
ATOM     58  C   UNL     1       6.234  -4.417  16.051  1.00  0.00     0.029 A 
ATOM     59  C   UNL     1       5.304  -3.390  16.012  1.00  0.00     0.049 A 
ATOM     60  H   UNL     1       5.407  -1.542  15.001  1.00  0.00     0.167 HD
ATOM     61  C   UNL     1       3.152  -2.281  16.555  1.00  0.00     0.074 A 
ATOM     62  C   UNL     1       1.862  -2.227  17.214  1.00  0.00     0.031 C 
ATOM     63  C   UNL     1       4.016  -3.323  16.656  1.00  0.00     0.031 A 
BRANCH  50  64
ATOM     64  C   UNL     1       9.285  -2.543  13.503  1.00  0.00    -0.014 A 
ATOM     65  C   UNL     1      10.497  -1.997  13.966  1.00  0.00     0.010 A 
ATOM     66  C   UNL     1       9.323  -3.655  12.642  1.00  0.00     0.010 A 
ATOM     67  C   UNL     1      11.720  -2.521  13.540  1.00  0.00     0.020 A 
ATOM     68  C   UNL     1      10.545  -4.203  12.239  1.00  0.00     0.020 A 
ATOM     69  C   UNL     1      11.736  -3.620  12.676  1.00  0.00     0.054 A 
BRANCH  69  70
ATOM     70  S   UNL     1      13.338  -4.292  12.156  1.00  0.00     0.124 S 
ATOM     71  O   UNL     1      13.812  -3.261  11.236  1.00  0.00    -0.237 OA
ATOM     72  O   UNL     1      14.069  -4.392  13.417  1.00  0.00    -0.237 OA
ATOM     73  O   UNL     1      12.994  -5.569  11.535  1.00  0.00    -0.744 OA
ENDBRANCH  69  70
ENDBRANCH  50  64
BRANCH  51  74
ATOM     74  C   UNL     1       0.478   1.546  15.933  1.00  0.00    -0.014 A 
ATOM     75  C   UNL     1       0.195   1.912  17.262  1.00  0.00     0.010 A 
ATOM     76  C   UNL     1      -0.503   1.752  14.946  1.00  0.00     0.010 A 
ATOM     77  C   UNL     1      -1.052   2.446  17.601  1.00  0.00     0.020 A 
ATOM     78  C   UNL     1      -1.739   2.314  15.275  1.00  0.00     0.020 A 
ATOM     79  C   UNL     1      -2.011   2.644  16.604  1.00  0.00     0.054 A 
BRANCH  79  80
ATOM     80  S   UNL     1      -3.608   3.375  17.061  1.00  0.00     0.124 S 
ATOM     81  O   UNL     1      -4.252   2.276  17.774  1.00  0.00    -0.237 OA
ATOM     82  O   UNL     1      -3.209   4.515  17.883  1.00  0.00    -0.237 OA
ATOM     83  O   UNL     1      -4.205   3.723  15.774  1.00  0.00    -0.744 OA
ENDBRANCH  79  80
ENDBRANCH  51  74
BRANCH  63  84
ATOM     84  C   UNL     1       3.611  -4.467  17.548  1.00  0.00    -0.014 A 
ATOM     85  C   UNL     1       2.555  -5.331  17.204  1.00  0.00     0.010 A 
ATOM     86  C   UNL     1       4.314  -4.690  18.747  1.00  0.00     0.010 A 
ATOM     87  C   UNL     1       2.172  -6.358  18.070  1.00  0.00     0.020 A 
ATOM     88  C   UNL     1       3.956  -5.737  19.599  1.00  0.00     0.020 A 
ATOM     89  C   UNL     1       2.872  -6.550  19.266  1.00  0.00     0.054 A 
BRANCH  89  90
ATOM     90  S   UNL     1       2.358  -7.891  20.373  1.00  0.00     0.124 S 
ATOM     91  O   UNL     1       1.129  -7.353  20.950  1.00  0.00    -0.237 OA
ATOM     92  O   UNL     1       2.183  -9.015  19.457  1.00  0.00    -0.237 OA
ATOM     93  O   UNL     1       3.478  -8.021  21.303  1.00  0.00    -0.744 OA
ENDBRANCH  89  90
ENDBRANCH  63  84
ENDBRANCH  37  38
ENDBRANCH  29  32
ENDBRANCH  27  28
ENDBRANCH  26  27
ENDBRANCH  25  26
ENDBRANCH   1  25
TORSDOF 19
