REMARK SMILES Cc1ccc([C@H](C)NC(=O)[C@H]2[C@@H]3CC[C@@H](C3)[C@@H]2C(=O)NCCCCCCNC(=O)c2ccc(-c3c4nc(c(-c5ccc(S(=O)(=O)[O-])cc5)c5ccc([nH]5)c(-c5ccc(S(=O)(=O)[O-])cc5)c5nc(c(-c6ccc(S(=O)(=O)[O-])cc6)c6ccc3[nH]6)C=C5)C=C4)cc2)cc1
REMARK SMILES IDX 23 1 22 2 21 3 20 4 18 5 19 6 17 8 11 9 12 10 13 11 16 12
REMARK SMILES IDX 15 13 14 14 9 15 8 16 10 18 6 19 7 20 5 21 1 22 2 23 3 24
REMARK SMILES IDX 91 25 4 26 90 27 24 28 25 29 26 30 27 31 28 32 29 34 30 35
REMARK SMILES IDX 31 36 89 37 32 38 88 39 33 40 34 41 35 42 82 43 36 44 87 45
REMARK SMILES IDX 81 46 83 47 37 48 86 49 80 50 79 51 38 53 68 54 49 55 67 56
REMARK SMILES IDX 50 57 53 58 66 59 84 60 51 61 52 62 65 64 85 65 54 66 39 67
REMARK SMILES IDX 40 68 48 69 41 70 47 71 42 72 43 73 44 74 45 75 46 76 69 77
REMARK SMILES IDX 70 78 78 79 71 80 77 81 72 82 73 83 74 84 75 85 76 86 55 87
REMARK SMILES IDX 56 88 64 89 57 90 63 91 58 92 59 93 60 94 61 95 62 96
REMARK H PARENT 20 7 8 17 27 33 83 52 53 63
REMARK Flexibility Score: inf
ROOT
ATOM      1  C   UNL     1      -9.943   0.225   1.665  1.00  0.00     0.002 C 
ENDROOT
BRANCH   1   2
ATOM      2  C   UNL     1      -8.425   0.117   1.887  1.00  0.00     0.021 C 
BRANCH   2   3
ATOM      3  C   UNL     1      -7.589   0.166   0.607  1.00  0.00     0.116 C 
BRANCH   3   4
ATOM      4  N   UNL     1      -7.587   1.493   0.021  1.00  0.00    -0.356 N 
ATOM      5  C   UNL     1      -6.625   2.439  -0.112  1.00  0.00     0.224 C 
ATOM      6  O   UNL     1      -6.935   3.442  -0.766  1.00  0.00    -0.275 OA
ATOM      7  H   UNL     1      -8.457   1.760  -0.355  1.00  0.00     0.163 HD
BRANCH   5   8
ATOM      8  C   UNL     1      -5.182   2.242   0.360  1.00  0.00     0.094 C 
ATOM      9  C   UNL     1      -4.908   1.671   1.757  1.00  0.00     0.094 C 
ATOM     10  C   UNL     1      -3.963   2.714   2.415  1.00  0.00     0.002 C 
ATOM     11  C   UNL     1      -4.808   3.940   2.809  1.00  0.00     0.005 C 
ATOM     12  C   UNL     1      -3.177   3.285   1.241  1.00  0.00     0.009 C 
ATOM     13  C   UNL     1      -4.437   3.618   0.442  1.00  0.00     0.002 C 
ATOM     14  C   UNL     1      -5.137   4.568   1.445  1.00  0.00     0.005 C 
BRANCH   9  15
ATOM     15  C   UNL     1      -4.357   0.252   1.905  1.00  0.00     0.224 C 
ATOM     16  N   UNL     1      -3.453  -0.366   1.118  1.00  0.00    -0.349 N 
ATOM     17  H   UNL     1      -3.217  -1.258   1.461  1.00  0.00     0.164 HD
ATOM     18  O   UNL     1      -4.733  -0.418   2.879  1.00  0.00    -0.275 OA
BRANCH  16  19
ATOM     19  C   UNL     1      -2.735  -0.051  -0.111  1.00  0.00     0.109 C 
ATOM     20  C   UNL     1      -1.242  -0.341   0.070  1.00  0.00     0.036 C 
BRANCH  19  21
ATOM     21  C   UNL     1      -3.296  -0.815  -1.299  1.00  0.00    -0.026 A 
ATOM     22  C   UNL     1      -4.816  -2.904  -4.770  1.00  0.00     0.044 C 
ATOM     23  C   UNL     1      -4.283  -2.190  -3.564  1.00  0.00    -0.051 A 
ATOM     24  C   UNL     1      -4.225  -0.794  -3.552  1.00  0.00     0.004 A 
ATOM     25  C   UNL     1      -3.856  -2.895  -2.435  1.00  0.00     0.004 A 
ATOM     26  C   UNL     1      -3.731  -0.116  -2.436  1.00  0.00     0.006 A 
ATOM     27  C   UNL     1      -3.368  -2.216  -1.314  1.00  0.00     0.006 A 
ENDBRANCH  19  21
ENDBRANCH  16  19
ENDBRANCH   9  15
ENDBRANCH   5   8
ENDBRANCH   3   4
ENDBRANCH   2   3
ENDBRANCH   1   2
BRANCH   1  28
ATOM     28  C   UNL     1     -10.600  -0.904   0.851  1.00  0.00     0.002 C 
BRANCH  28  29
ATOM     29  C   UNL     1     -10.278  -2.334   1.298  1.00  0.00     0.021 C 
BRANCH  29  30
ATOM     30  C   UNL     1     -10.707  -2.650   2.728  1.00  0.00     0.116 C 
BRANCH  30  31
ATOM     31  N   UNL     1     -11.945  -3.401   2.821  1.00  0.00    -0.352 N 
ATOM     32  C   UNL     1     -12.361  -4.022   3.988  1.00  0.00     0.251 C 
ATOM     33  H   UNL     1     -12.514  -3.474   2.021  1.00  0.00     0.163 HD
ATOM     34  O   UNL     1     -12.818  -5.155   4.030  1.00  0.00    -0.269 OA
BRANCH  32  35
ATOM     35  C   UNL     1     -12.312  -3.178   5.201  1.00  0.00     0.039 A 
ATOM     36  C   UNL     1     -13.473  -2.507   5.595  1.00  0.00     0.014 A 
ATOM     37  C   UNL     1     -11.085  -2.895   5.799  1.00  0.00     0.014 A 
ATOM     38  C   UNL     1     -13.383  -1.467   6.526  1.00  0.00     0.010 A 
ATOM     39  C   UNL     1     -10.993  -1.815   6.669  1.00  0.00     0.010 A 
ATOM     40  C   UNL     1     -12.131  -1.067   7.012  1.00  0.00    -0.014 A 
BRANCH  40  41
ATOM     41  C   UNL     1     -11.919   0.203   7.722  1.00  0.00     0.031 A 
ATOM     42  C   UNL     1     -11.495   0.276   9.152  1.00  0.00     0.074 A 
ATOM     43  C   UNL     1     -12.115   1.394   7.106  1.00  0.00     0.049 A 
ATOM     44  N   UNL     1     -11.860   1.228   9.960  1.00  0.00    -0.248 NA
ATOM     45  C   UNL     1     -10.643  -0.722   9.792  1.00  0.00     0.031 C 
ATOM     46  C   UNL     1     -11.652   2.693   7.593  1.00  0.00     0.029 A 
ATOM     47  N   UNL     1     -12.963   1.721   6.048  1.00  0.00    -0.354 N 
ATOM     48  C   UNL     1     -11.087   1.128  11.094  1.00  0.00     0.074 A 
ATOM     49  C   UNL     1     -10.406  -0.145  10.977  1.00  0.00     0.031 C 
ATOM     50  C   UNL     1     -12.447   3.647   7.093  1.00  0.00     0.029 A 
ATOM     51  C   UNL     1     -13.494   2.990   6.330  1.00  0.00     0.049 A 
ATOM     52  H   UNL     1     -13.154   1.168   5.257  1.00  0.00     0.167 HD
ATOM     53  C   UNL     1     -10.948   2.168  11.965  1.00  0.00     0.031 A 
ATOM     54  C   UNL     1     -14.813   3.330   6.321  1.00  0.00     0.031 A 
ATOM     55  C   UNL     1     -11.621   3.390  11.545  1.00  0.00     0.049 A 
ATOM     56  C   UNL     1     -15.277   4.082   7.543  1.00  0.00     0.074 A 
ATOM     57  C   UNL     1     -11.154   4.561  10.969  1.00  0.00     0.029 A 
ATOM     58  N   UNL     1     -13.004   3.473  11.542  1.00  0.00    -0.354 N 
ATOM     59  N   UNL     1     -14.560   4.223   8.619  1.00  0.00    -0.248 NA
ATOM     60  C   UNL     1     -16.617   4.650   7.692  1.00  0.00     0.031 C 
ATOM     61  C   UNL     1     -12.265   5.369  10.640  1.00  0.00     0.029 A 
ATOM     62  C   UNL     1     -13.407   4.674  10.991  1.00  0.00     0.049 A 
ATOM     63  H   UNL     1     -13.611   2.776  11.883  1.00  0.00     0.167 HD
ATOM     64  C   UNL     1     -15.313   4.819   9.598  1.00  0.00     0.074 A 
ATOM     65  C   UNL     1     -16.582   5.104   8.958  1.00  0.00     0.031 C 
ATOM     66  C   UNL     1     -14.820   4.989  10.858  1.00  0.00     0.031 A 
BRANCH  53  67
ATOM     67  C   UNL     1      -9.917   2.159  13.070  1.00  0.00    -0.014 A 
ATOM     68  C   UNL     1      -9.211   3.340  13.381  1.00  0.00     0.010 A 
ATOM     69  C   UNL     1      -9.579   1.010  13.808  1.00  0.00     0.010 A 
ATOM     70  C   UNL     1      -8.129   3.347  14.267  1.00  0.00     0.020 A 
ATOM     71  C   UNL     1      -8.473   0.994  14.674  1.00  0.00     0.020 A 
ATOM     72  C   UNL     1      -7.739   2.160  14.878  1.00  0.00     0.054 A 
BRANCH  72  73
ATOM     73  S   UNL     1      -6.222   2.152  15.868  1.00  0.00     0.124 S 
ATOM     74  O   UNL     1      -5.275   2.857  15.008  1.00  0.00    -0.237 OA
ATOM     75  O   UNL     1      -6.630   2.869  17.073  1.00  0.00    -0.237 OA
ATOM     76  O   UNL     1      -5.940   0.730  16.052  1.00  0.00    -0.744 OA
ENDBRANCH  72  73
ENDBRANCH  53  67
BRANCH  54  77
ATOM     77  C   UNL     1     -15.681   2.454   5.502  1.00  0.00    -0.014 A 
ATOM     78  C   UNL     1     -15.547   2.529   4.101  1.00  0.00     0.010 A 
ATOM     79  C   UNL     1     -16.303   1.334   6.078  1.00  0.00     0.010 A 
ATOM     80  C   UNL     1     -15.883   1.437   3.303  1.00  0.00     0.020 A 
ATOM     81  C   UNL     1     -16.645   0.238   5.277  1.00  0.00     0.020 A 
ATOM     82  C   UNL     1     -16.370   0.276   3.906  1.00  0.00     0.054 A 
BRANCH  82  83
ATOM     83  S   UNL     1     -16.459  -1.234   2.901  1.00  0.00     0.124 S 
ATOM     84  O   UNL     1     -17.303  -0.818   1.784  1.00  0.00    -0.237 OA
ATOM     85  O   UNL     1     -15.050  -1.464   2.576  1.00  0.00    -0.237 OA
ATOM     86  O   UNL     1     -17.049  -2.210   3.808  1.00  0.00    -0.744 OA
ENDBRANCH  82  83
ENDBRANCH  54  77
BRANCH  66  87
ATOM     87  C   UNL     1     -15.562   5.519  12.060  1.00  0.00    -0.014 A 
ATOM     88  C   UNL     1     -16.954   5.460  12.222  1.00  0.00     0.010 A 
ATOM     89  C   UNL     1     -14.812   6.012  13.157  1.00  0.00     0.010 A 
ATOM     90  C   UNL     1     -17.574   5.915  13.397  1.00  0.00     0.020 A 
ATOM     91  C   UNL     1     -15.416   6.437  14.345  1.00  0.00     0.020 A 
ATOM     92  C   UNL     1     -16.802   6.403  14.451  1.00  0.00     0.054 A 
BRANCH  92  93
ATOM     93  S   UNL     1     -17.587   6.918  16.002  1.00  0.00     0.124 S 
ATOM     94  O   UNL     1     -17.663   8.367  15.838  1.00  0.00    -0.237 OA
ATOM     95  O   UNL     1     -18.871   6.220  15.977  1.00  0.00    -0.237 OA
ATOM     96  O   UNL     1     -16.653   6.447  17.021  1.00  0.00    -0.744 OA
ENDBRANCH  92  93
ENDBRANCH  66  87
ENDBRANCH  40  41
ENDBRANCH  32  35
ENDBRANCH  30  31
ENDBRANCH  29  30
ENDBRANCH  28  29
ENDBRANCH   1  28
TORSDOF 19
