REMARK SMILES CC1(C)CCN(C(=O)N[C@](C)(C(=O)NCCCCCCNC(=O)c2ccc(-c3c4nc(c(-c5ccc(S(=O)(=O)[O-])cc5)c5ccc([nH]5)c(-c5ccc(S(=O)(=O)[O-])cc5)c5nc(c(-c6ccc(S(=O)(=O)[O-])cc6)c6ccc3[nH]6)C=C5)C=C4)cc2)c2ccccc2)C1
REMARK SMILES IDX 18 1 17 2 16 3 15 4 14 5 12 6 13 7 10 9 11 10 9 11 7 12 8 13
REMARK SMILES IDX 6 15 1 16 2 17 3 18 4 19 90 20 5 21 84 22 85 23 89 24 86 25
REMARK SMILES IDX 88 26 87 27 19 28 20 29 21 30 22 31 23 33 24 34 25 35 83 36
REMARK SMILES IDX 26 37 82 38 27 39 28 40 29 41 76 42 30 43 81 44 75 45 77 46
REMARK SMILES IDX 31 47 80 48 74 49 73 50 32 52 62 53 43 54 61 55 44 56 47 57
REMARK SMILES IDX 60 58 78 59 45 60 46 61 59 63 79 64 48 65 33 66 34 67 42 68
REMARK SMILES IDX 35 69 41 70 36 71 37 72 38 73 39 74 40 75 63 76 64 77 72 78
REMARK SMILES IDX 65 79 71 80 66 81 67 82 68 83 69 84 70 85 49 86 50 87 58 88
REMARK SMILES IDX 51 89 57 90 52 91 53 92 54 93 55 94 56 95
REMARK H PARENT 14 8 9 14 21 32 77 51 47 62
REMARK Flexibility Score: inf
ROOT
ATOM      1  C   UNL     1       3.226   8.425  -3.096  1.00  0.00     0.002 C 
ENDROOT
BRANCH   1   2
ATOM      2  C   UNL     1       3.297   6.914  -3.332  1.00  0.00     0.002 C 
BRANCH   2   3
ATOM      3  C   UNL     1       3.649   6.078  -2.091  1.00  0.00     0.021 C 
BRANCH   3   4
ATOM      4  C   UNL     1       2.739   6.328  -0.879  1.00  0.00     0.116 C 
BRANCH   4   5
ATOM      5  N   UNL     1       1.373   5.968  -1.191  1.00  0.00    -0.354 N 
ATOM      6  C   UNL     1       0.783   4.745  -1.321  1.00  0.00     0.250 C 
ATOM      7  O   UNL     1      -0.013   4.688  -2.268  1.00  0.00    -0.272 OA
ATOM      8  H   UNL     1       0.769   6.732  -1.333  1.00  0.00     0.163 HD
BRANCH   6   9
ATOM      9  C   UNL     1       1.112   3.491  -0.382  1.00  0.00     0.143 C 
ATOM     10  C   UNL     1       2.601   3.093  -0.549  1.00  0.00     0.051 C 
BRANCH   9  11
ATOM     11  N   UNL     1       0.993   3.920   1.048  1.00  0.00    -0.320 N 
ATOM     12  C   UNL     1      -0.048   4.126   1.879  1.00  0.00     0.318 C 
ATOM     13  O   UNL     1      -0.149   5.271   2.332  1.00  0.00    -0.249 OA
ATOM     14  H   UNL     1       1.864   4.089   1.474  1.00  0.00     0.166 HD
BRANCH  12  15
ATOM     15  N   UNL     1      -0.818   3.107   2.357  1.00  0.00    -0.324 N 
ATOM     16  C   UNL     1      -1.419  -0.097   3.865  1.00  0.00     0.013 C 
ATOM     17  C   UNL     1      -1.855   1.013   2.904  1.00  0.00    -0.016 C 
ATOM     18  C   UNL     1      -2.793   0.392   1.856  1.00  0.00     0.013 C 
ATOM     19  C   UNL     1      -2.600   2.163   3.610  1.00  0.00     0.030 C 
ATOM     20  C   UNL     1      -0.607   1.676   2.282  1.00  0.00     0.127 C 
ATOM     21  C   UNL     1      -1.708   3.385   3.466  1.00  0.00     0.122 C 
ENDBRANCH  12  15
ENDBRANCH   9  11
BRANCH   9  22
ATOM     22  C   UNL     1       0.217   2.296  -0.779  1.00  0.00    -0.013 A 
ATOM     23  C   UNL     1      -1.170   2.477  -0.962  1.00  0.00     0.007 A 
ATOM     24  C   UNL     1       0.720   0.988  -0.960  1.00  0.00     0.007 A 
ATOM     25  C   UNL     1      -2.003   1.415  -1.319  1.00  0.00     0.000 A 
ATOM     26  C   UNL     1      -0.120  -0.081  -1.280  1.00  0.00     0.000 A 
ATOM     27  C   UNL     1      -1.481   0.134  -1.463  1.00  0.00     0.000 A 
ENDBRANCH   9  22
ENDBRANCH   6   9
ENDBRANCH   4   5
ENDBRANCH   3   4
ENDBRANCH   2   3
ENDBRANCH   1   2
BRANCH   1  28
ATOM     28  C   UNL     1       4.466   9.023  -2.430  1.00  0.00     0.021 C 
BRANCH  28  29
ATOM     29  C   UNL     1       5.753   8.820  -3.217  1.00  0.00     0.116 C 
BRANCH  29  30
ATOM     30  N   UNL     1       5.732   9.548  -4.475  1.00  0.00    -0.352 N 
ATOM     31  C   UNL     1       6.609  10.504  -4.928  1.00  0.00     0.251 C 
ATOM     32  H   UNL     1       4.991   9.325  -5.084  1.00  0.00     0.163 HD
ATOM     33  O   UNL     1       6.324  11.196  -5.895  1.00  0.00    -0.269 OA
BRANCH  31  34
ATOM     34  C   UNL     1       7.893  10.694  -4.220  1.00  0.00     0.039 A 
ATOM     35  C   UNL     1       8.318  11.988  -3.917  1.00  0.00     0.014 A 
ATOM     36  C   UNL     1       8.666   9.590  -3.847  1.00  0.00     0.014 A 
ATOM     37  C   UNL     1       9.497  12.172  -3.193  1.00  0.00     0.010 A 
ATOM     38  C   UNL     1       9.795   9.772  -3.056  1.00  0.00     0.010 A 
ATOM     39  C   UNL     1      10.229  11.066  -2.729  1.00  0.00    -0.014 A 
BRANCH  39  40
ATOM     40  C   UNL     1      11.457  11.242  -1.915  1.00  0.00     0.031 A 
ATOM     41  C   UNL     1      12.785  10.765  -2.442  1.00  0.00     0.074 A 
ATOM     42  C   UNL     1      11.371  11.788  -0.685  1.00  0.00     0.049 A 
ATOM     43  N   UNL     1      13.957  10.785  -1.862  1.00  0.00    -0.248 NA
ATOM     44  C   UNL     1      12.794  10.169  -3.790  1.00  0.00     0.031 C 
ATOM     45  C   UNL     1      10.138  12.260  -0.050  1.00  0.00     0.029 A 
ATOM     46  N   UNL     1      12.341  12.040   0.253  1.00  0.00    -0.354 N 
ATOM     47  C   UNL     1      14.838  10.203  -2.766  1.00  0.00     0.074 A 
ATOM     48  C   UNL     1      14.057   9.784  -3.909  1.00  0.00     0.031 C 
ATOM     49  C   UNL     1      10.431  12.773   1.156  1.00  0.00     0.029 A 
ATOM     50  C   UNL     1      11.862  12.626   1.402  1.00  0.00     0.049 A 
ATOM     51  H   UNL     1      13.292  11.822   0.116  1.00  0.00     0.167 HD
ATOM     52  C   UNL     1      16.180  10.055  -2.668  1.00  0.00     0.031 A 
ATOM     53  C   UNL     1      12.501  12.995   2.529  1.00  0.00     0.031 A 
ATOM     54  C   UNL     1      16.955  10.480  -1.533  1.00  0.00     0.049 A 
ATOM     55  C   UNL     1      13.989  12.782   2.627  1.00  0.00     0.074 A 
ATOM     56  C   UNL     1      18.325  10.406  -1.352  1.00  0.00     0.029 A 
ATOM     57  N   UNL     1      16.431  11.063  -0.389  1.00  0.00    -0.354 N 
ATOM     58  N   UNL     1      14.811  12.280   1.736  1.00  0.00    -0.248 NA
ATOM     59  C   UNL     1      14.637  13.197   3.878  1.00  0.00     0.031 C 
ATOM     60  C   UNL     1      18.623  10.893  -0.076  1.00  0.00     0.029 A 
ATOM     61  C   UNL     1      17.448  11.334   0.510  1.00  0.00     0.049 A 
ATOM     62  H   UNL     1      15.477  11.256  -0.239  1.00  0.00     0.167 HD
ATOM     63  C   UNL     1      16.078  12.354   2.307  1.00  0.00     0.074 A 
ATOM     64  C   UNL     1      15.914  12.964   3.610  1.00  0.00     0.031 C 
ATOM     65  C   UNL     1      17.269  11.953   1.799  1.00  0.00     0.031 A 
BRANCH  52  66
ATOM     66  C   UNL     1      16.902   9.412  -3.823  1.00  0.00    -0.014 A 
ATOM     67  C   UNL     1      17.034  10.080  -5.054  1.00  0.00     0.010 A 
ATOM     68  C   UNL     1      17.514   8.156  -3.659  1.00  0.00     0.010 A 
ATOM     69  C   UNL     1      17.741   9.494  -6.107  1.00  0.00     0.020 A 
ATOM     70  C   UNL     1      18.247   7.579  -4.699  1.00  0.00     0.020 A 
ATOM     71  C   UNL     1      18.347   8.248  -5.921  1.00  0.00     0.054 A 
BRANCH  71  72
ATOM     72  S   UNL     1      19.301   7.536  -7.289  1.00  0.00     0.124 S 
ATOM     73  O   UNL     1      18.249   7.188  -8.241  1.00  0.00    -0.237 OA
ATOM     74  O   UNL     1      20.165   8.645  -7.686  1.00  0.00    -0.237 OA
ATOM     75  O   UNL     1      19.989   6.401  -6.680  1.00  0.00    -0.744 OA
ENDBRANCH  71  72
ENDBRANCH  52  66
BRANCH  53  76
ATOM     76  C   UNL     1      11.748  13.607   3.659  1.00  0.00    -0.014 A 
ATOM     77  C   UNL     1      11.972  14.945   4.029  1.00  0.00     0.010 A 
ATOM     78  C   UNL     1      10.822  12.844   4.394  1.00  0.00     0.010 A 
ATOM     79  C   UNL     1      11.319  15.495   5.137  1.00  0.00     0.020 A 
ATOM     80  C   UNL     1      10.141  13.400   5.481  1.00  0.00     0.020 A 
ATOM     81  C   UNL     1      10.410  14.716   5.858  1.00  0.00     0.054 A 
BRANCH  81  82
ATOM     82  S   UNL     1       9.570  15.451   7.288  1.00  0.00     0.124 S 
ATOM     83  O   UNL     1      10.647  15.517   8.271  1.00  0.00    -0.237 OA
ATOM     84  O   UNL     1       9.113  16.734   6.760  1.00  0.00    -0.237 OA
ATOM     85  O   UNL     1       8.506  14.494   7.587  1.00  0.00    -0.744 OA
ENDBRANCH  81  82
ENDBRANCH  53  76
BRANCH  65  86
ATOM     86  C   UNL     1      18.499  12.206   2.630  1.00  0.00    -0.014 A 
ATOM     87  C   UNL     1      18.750  11.484   3.809  1.00  0.00     0.010 A 
ATOM     88  C   UNL     1      19.447  13.150   2.190  1.00  0.00     0.010 A 
ATOM     89  C   UNL     1      19.909  11.725   4.552  1.00  0.00     0.020 A 
ATOM     90  C   UNL     1      20.622  13.370   2.912  1.00  0.00     0.020 A 
ATOM     91  C   UNL     1      20.838  12.666   4.097  1.00  0.00     0.054 A 
BRANCH  91  92
ATOM     92  S   UNL     1      22.354  12.927   5.057  1.00  0.00     0.124 S 
ATOM     93  O   UNL     1      21.853  13.639   6.229  1.00  0.00    -0.237 OA
ATOM     94  O   UNL     1      22.817  11.563   5.301  1.00  0.00    -0.237 OA
ATOM     95  O   UNL     1      23.200  13.716   4.163  1.00  0.00    -0.744 OA
ENDBRANCH  91  92
ENDBRANCH  65  86
ENDBRANCH  39  40
ENDBRANCH  31  34
ENDBRANCH  29  30
ENDBRANCH  28  29
ENDBRANCH   1  28
TORSDOF 19
