REMARK SMILES O=C(NCCCCCCNC(=O)c1cc(-c2cncnc2)cc(S(=O)(=O)N2CCCC2)c1)c1ccc(-c2c3nc(c(-c4ccc(S(=O)(=O)[O-])cc4)c4ccc([nH]4)c(-c4ccc(S(=O)(=O)[O-])cc4)c4nc(c(-c5ccc(S(=O)(=O)[O-])cc5)c5ccc2[nH]5)C=C4)C=C3)cc1
REMARK SMILES IDX 6 1 5 2 4 3 3 4 1 5 2 6 33 8 34 9 92 10 35 11 91 12 36 13
REMARK SMILES IDX 37 14 38 15 85 16 39 17 90 18 84 19 86 20 40 21 89 22 83 23
REMARK SMILES IDX 82 24 41 26 71 27 52 28 70 29 53 30 56 31 69 32 87 33 54 34
REMARK SMILES IDX 55 35 68 37 88 38 57 39 42 40 43 41 51 42 44 43 50 44 45 45
REMARK SMILES IDX 46 46 47 47 48 48 49 49 72 50 73 51 81 52 74 53 80 54 75 55
REMARK SMILES IDX 76 56 77 57 78 58 79 59 58 60 59 61 67 62 60 63 66 64 61 65
REMARK SMILES IDX 62 66 63 67 64 68 65 69 7 70 8 71 9 72 10 73 11 74 12 76
REMARK SMILES IDX 13 77 14 78 32 79 15 80 23 81 22 82 16 83 17 84 21 85 18 86
REMARK SMILES IDX 20 87 19 88 24 89 25 90 26 91 27 92 28 93 31 94 29 95 30 96
REMARK H PARENT 3 7 86 25 56 36 10 75
REMARK Flexibility Score: inf
ROOT
ATOM      1  C   UNL     1       4.213  -3.795   1.206  1.00  0.00     0.002 C 
ENDROOT
BRANCH   1   2
ATOM      2  C   UNL     1       4.729  -2.383   1.488  1.00  0.00     0.021 C 
BRANCH   2   3
ATOM      3  C   UNL     1       4.447  -1.341   0.411  1.00  0.00     0.116 C 
BRANCH   3   4
ATOM      4  N   UNL     1       3.032  -1.115   0.186  1.00  0.00    -0.352 N 
ATOM      5  O   UNL     1       1.128   0.068  -0.024  1.00  0.00    -0.269 OA
ATOM      6  C   UNL     1       2.353   0.074   0.060  1.00  0.00     0.251 C 
ATOM      7  H   UNL     1       2.480  -1.927   0.113  1.00  0.00     0.163 HD
BRANCH   6   8
ATOM      8  C   UNL     1       3.090   1.360   0.060  1.00  0.00     0.039 A 
ATOM      9  C   UNL     1       4.253   1.530  -0.695  1.00  0.00     0.014 A 
ATOM     10  C   UNL     1       2.590   2.423   0.819  1.00  0.00     0.014 A 
ATOM     11  C   UNL     1       4.978   2.716  -0.597  1.00  0.00     0.010 A 
ATOM     12  C   UNL     1       3.281   3.638   0.861  1.00  0.00     0.010 A 
ATOM     13  C   UNL     1       4.495   3.786   0.173  1.00  0.00    -0.014 A 
BRANCH  13  14
ATOM     14  C   UNL     1       5.238   5.072   0.189  1.00  0.00     0.031 A 
ATOM     15  C   UNL     1       5.902   5.576   1.440  1.00  0.00     0.074 A 
ATOM     16  C   UNL     1       5.324   5.783  -0.953  1.00  0.00     0.049 A 
ATOM     17  N   UNL     1       6.613   6.662   1.612  1.00  0.00    -0.248 NA
ATOM     18  C   UNL     1       5.748   4.762   2.656  1.00  0.00     0.031 C 
ATOM     19  C   UNL     1       4.710   5.404  -2.228  1.00  0.00     0.029 A 
ATOM     20  N   UNL     1       5.971   6.958  -1.232  1.00  0.00    -0.354 N 
ATOM     21  C   UNL     1       6.977   6.674   2.953  1.00  0.00     0.074 A 
ATOM     22  C   UNL     1       6.392   5.494   3.556  1.00  0.00     0.031 C 
ATOM     23  C   UNL     1       5.047   6.305  -3.163  1.00  0.00     0.029 A 
ATOM     24  C   UNL     1       5.854   7.351  -2.544  1.00  0.00     0.049 A 
ATOM     25  H   UNL     1       6.472   7.472  -0.558  1.00  0.00     0.167 HD
ATOM     26  C   UNL     1       7.731   7.582   3.620  1.00  0.00     0.031 A 
ATOM     27  C   UNL     1       6.333   8.435  -3.182  1.00  0.00     0.031 A 
ATOM     28  C   UNL     1       8.308   8.756   3.019  1.00  0.00     0.049 A 
ATOM     29  C   UNL     1       7.150   9.434  -2.417  1.00  0.00     0.074 A 
ATOM     30  C   UNL     1       9.112   9.718   3.608  1.00  0.00     0.029 A 
ATOM     31  N   UNL     1       8.140   9.133   1.695  1.00  0.00    -0.354 N 
ATOM     32  N   UNL     1       7.509   9.407  -1.156  1.00  0.00    -0.248 NA
ATOM     33  C   UNL     1       7.625  10.608  -3.160  1.00  0.00     0.031 C 
ATOM     34  C   UNL     1       9.395  10.699   2.650  1.00  0.00     0.029 A 
ATOM     35  C   UNL     1       8.805  10.324   1.453  1.00  0.00     0.049 A 
ATOM     36  H   UNL     1       7.625   8.628   1.026  1.00  0.00     0.167 HD
ATOM     37  C   UNL     1       8.259  10.558  -0.955  1.00  0.00     0.074 A 
ATOM     38  C   UNL     1       8.320  11.248  -2.229  1.00  0.00     0.031 C 
ATOM     39  C   UNL     1       8.842  11.005   0.184  1.00  0.00     0.031 A 
BRANCH  26  40
ATOM     40  C   UNL     1       7.953   7.352   5.092  1.00  0.00    -0.014 A 
ATOM     41  C   UNL     1       8.832   6.352   5.547  1.00  0.00     0.010 A 
ATOM     42  C   UNL     1       7.303   8.172   6.032  1.00  0.00     0.010 A 
ATOM     43  C   UNL     1       9.022   6.149   6.917  1.00  0.00     0.020 A 
ATOM     44  C   UNL     1       7.507   7.985   7.402  1.00  0.00     0.020 A 
ATOM     45  C   UNL     1       8.351   6.961   7.836  1.00  0.00     0.054 A 
BRANCH  45  46
ATOM     46  S   UNL     1       8.617   6.678   9.609  1.00  0.00     0.124 S 
ATOM     47  O   UNL     1       7.815   5.479   9.843  1.00  0.00    -0.237 OA
ATOM     48  O   UNL     1      10.063   6.491   9.694  1.00  0.00    -0.237 OA
ATOM     49  O   UNL     1       8.111   7.897  10.234  1.00  0.00    -0.744 OA
ENDBRANCH  45  46
ENDBRANCH  26  40
BRANCH  27  50
ATOM     50  C   UNL     1       6.039   8.621  -4.627  1.00  0.00    -0.014 A 
ATOM     51  C   UNL     1       7.043   8.427  -5.590  1.00  0.00     0.010 A 
ATOM     52  C   UNL     1       4.736   8.945  -5.048  1.00  0.00     0.010 A 
ATOM     53  C   UNL     1       6.750   8.553  -6.951  1.00  0.00     0.020 A 
ATOM     54  C   UNL     1       4.434   9.048  -6.407  1.00  0.00     0.020 A 
ATOM     55  C   UNL     1       5.445   8.858  -7.351  1.00  0.00     0.054 A 
BRANCH  55  56
ATOM     56  S   UNL     1       5.064   8.936  -9.123  1.00  0.00     0.124 S 
ATOM     57  O   UNL     1       5.581  10.252  -9.486  1.00  0.00    -0.237 OA
ATOM     58  O   UNL     1       5.803   7.795  -9.658  1.00  0.00    -0.237 OA
ATOM     59  O   UNL     1       3.610   8.799  -9.163  1.00  0.00    -0.744 OA
ENDBRANCH  55  56
ENDBRANCH  27  50
BRANCH  39  60
ATOM     60  C   UNL     1       9.604  12.299   0.098  1.00  0.00    -0.014 A 
ATOM     61  C   UNL     1       8.929  13.530   0.021  1.00  0.00     0.010 A 
ATOM     62  C   UNL     1      11.009  12.284   0.128  1.00  0.00     0.010 A 
ATOM     63  C   UNL     1       9.649  14.725  -0.057  1.00  0.00     0.020 A 
ATOM     64  C   UNL     1      11.732  13.479   0.072  1.00  0.00     0.020 A 
ATOM     65  C   UNL     1      11.046  14.691  -0.035  1.00  0.00     0.054 A 
BRANCH  65  66
ATOM     66  S   UNL     1      11.962  16.256  -0.103  1.00  0.00     0.124 S 
ATOM     67  O   UNL     1      11.877  16.595  -1.521  1.00  0.00    -0.237 OA
ATOM     68  O   UNL     1      11.197  17.117   0.796  1.00  0.00    -0.237 OA
ATOM     69  O   UNL     1      13.295  15.896   0.375  1.00  0.00    -0.744 OA
ENDBRANCH  65  66
ENDBRANCH  39  60
ENDBRANCH  13  14
ENDBRANCH   6   8
ENDBRANCH   3   4
ENDBRANCH   2   3
ENDBRANCH   1   2
BRANCH   1  70
ATOM     70  C   UNL     1       4.609  -4.405  -0.141  1.00  0.00     0.002 C 
BRANCH  70  71
ATOM     71  C   UNL     1       6.101  -4.377  -0.493  1.00  0.00     0.021 C 
BRANCH  71  72
ATOM     72  C   UNL     1       7.037  -5.022   0.525  1.00  0.00     0.116 C 
BRANCH  72  73
ATOM     73  N   UNL     1       6.811  -6.448   0.661  1.00  0.00    -0.352 N 
ATOM     74  C   UNL     1       7.708  -7.475   0.801  1.00  0.00     0.251 C 
ATOM     75  H   UNL     1       5.865  -6.721   0.651  1.00  0.00     0.163 HD
ATOM     76  O   UNL     1       7.311  -8.636   0.742  1.00  0.00    -0.269 OA
BRANCH  74  77
ATOM     77  C   UNL     1       9.150  -7.222   1.037  1.00  0.00     0.041 A 
ATOM     78  C   UNL     1      10.081  -8.083   0.443  1.00  0.00     0.022 A 
ATOM     79  C   UNL     1       9.583  -6.245   1.931  1.00  0.00     0.035 A 
ATOM     80  C   UNL     1      11.456  -7.970   0.715  1.00  0.00    -0.013 A 
ATOM     81  C   UNL     1      10.941  -6.111   2.211  1.00  0.00     0.084 A 
ATOM     82  C   UNL     1      11.873  -6.969   1.607  1.00  0.00     0.030 A 
BRANCH  80  83
ATOM     83  C   UNL     1      12.408  -8.905   0.113  1.00  0.00     0.018 A 
ATOM     84  C   UNL     1      13.282  -9.680   0.859  1.00  0.00     0.123 A 
ATOM     85  C   UNL     1      12.493  -9.127  -1.253  1.00  0.00     0.123 A 
ATOM     86  N   UNL     1      14.140 -10.584   0.338  1.00  0.00    -0.244 NA
ATOM     87  N   UNL     1      13.328 -10.015  -1.835  1.00  0.00    -0.244 NA
ATOM     88  C   UNL     1      14.115 -10.705  -0.997  1.00  0.00     0.221 A 
ENDBRANCH  80  83
BRANCH  81  89
ATOM     89  S   UNL     1      11.558  -4.911   3.379  1.00  0.00     0.243 S 
ATOM     90  O   UNL     1      12.410  -5.656   4.284  1.00  0.00    -0.207 OA
ATOM     91  O   UNL     1      12.056  -3.812   2.586  1.00  0.00    -0.207 OA
BRANCH  89  92
ATOM     92  N   UNL     1      10.245  -4.369   4.262  1.00  0.00    -0.198 NA
ATOM     93  C   UNL     1       9.560  -5.225   5.239  1.00  0.00     0.102 C 
ATOM     94  C   UNL     1       9.353  -3.318   3.753  1.00  0.00     0.102 C 
ATOM     95  C   UNL     1       8.082  -4.937   5.017  1.00  0.00     0.018 C 
ATOM     96  C   UNL     1       8.058  -3.493   4.542  1.00  0.00     0.018 C 
ENDBRANCH  89  92
ENDBRANCH  81  89
ENDBRANCH  74  77
ENDBRANCH  72  73
ENDBRANCH  71  72
ENDBRANCH  70  71
ENDBRANCH   1  70
TORSDOF 19
