REMARK SMILES O=C(C[C@@H]1C[N@@H+](C[C@H]2CCOC2)CCO1)NCCCCCCNC(=O)c1ccc(-c2c3nc(c(-c4ccc(S(=O)(=O)[O-])cc4)c4ccc([nH]4)c(-c4ccc(S(=O)(=O)[O-])cc4)c4nc(c(-c5ccc(S(=O)(=O)[O-])cc5)c5ccc2[nH]5)C=C4)C=C3)cc1
REMARK SMILES IDX 19 1 18 2 17 3 16 4 1 5 2 6 3 8 4 9 5 10 15 11 6 12 14 13
REMARK SMILES IDX 13 14 7 16 8 17 9 18 12 19 10 20 11 21 20 22 21 23 22 24
REMARK SMILES IDX 23 25 24 26 25 28 26 29 27 30 85 31 28 32 84 33 29 34 30 35
REMARK SMILES IDX 31 36 78 37 32 38 83 39 77 40 79 41 33 42 82 43 76 44 75 45
REMARK SMILES IDX 34 47 64 48 45 49 63 50 46 51 49 52 62 53 80 54 47 55 48 56
REMARK SMILES IDX 61 58 81 59 50 60 35 61 36 62 44 63 37 64 43 65 38 66 39 67
REMARK SMILES IDX 40 68 41 69 42 70 65 71 66 72 74 73 67 74 73 75 68 76 69 77
REMARK SMILES IDX 70 78 71 79 72 80 51 81 52 82 60 83 53 84 59 85 54 86 55 87
REMARK SMILES IDX 56 88 57 89 58 90
REMARK H PARENT 16 7 6 15 23 27 79 46 49 57
REMARK Flexibility Score: inf
ROOT
ATOM      1  C   UNL     1      10.697   6.366  -6.116  1.00  0.00     0.002 C 
ENDROOT
BRANCH   1   2
ATOM      2  C   UNL     1      11.210   6.581  -4.681  1.00  0.00     0.021 C 
BRANCH   2   3
ATOM      3  C   UNL     1      10.148   6.468  -3.591  1.00  0.00     0.116 C 
BRANCH   3   4
ATOM      4  N   UNL     1       9.430   5.230  -3.720  1.00  0.00    -0.356 N 
ATOM      5  O   UNL     1       9.988   4.208  -1.737  1.00  0.00    -0.275 OA
ATOM      6  C   UNL     1       9.398   4.208  -2.810  1.00  0.00     0.222 C 
ATOM      7  H   UNL     1       8.908   5.105  -4.545  1.00  0.00     0.163 HD
BRANCH   6   8
ATOM      8  C   UNL     1       8.656   2.994  -3.330  1.00  0.00     0.138 C 
BRANCH   8   9
ATOM      9  C   UNL     1       7.240   3.256  -3.872  1.00  0.00     0.182 C 
ATOM     10  C   UNL     1       6.955   2.321  -5.067  1.00  0.00     0.295 C 
ATOM     11  O   UNL     1       7.069   4.613  -4.321  1.00  0.00    -0.366 OA
ATOM     12  N   UNL     1       5.624   2.508  -5.650  1.00  0.00    -0.331 N 
ATOM     13  C   UNL     1       5.728   4.872  -4.749  1.00  0.00     0.222 C 
ATOM     14  C   UNL     1       5.305   3.921  -5.873  1.00  0.00     0.291 C 
ATOM     15  H   UNL     1       5.683   2.121  -6.592  1.00  0.00     0.348 HD
BRANCH  12  16
ATOM     16  C   UNL     1       4.565   1.646  -5.144  1.00  0.00     0.268 C 
BRANCH  16  17
ATOM     17  C   UNL     1       4.354   1.477  -3.634  1.00  0.00     0.072 C 
ATOM     18  C   UNL     1       3.739   2.640  -2.885  1.00  0.00     0.040 C 
ATOM     19  C   UNL     1       3.335   0.379  -3.350  1.00  0.00     0.169 C 
ATOM     20  C   UNL     1       3.130   1.971  -1.671  1.00  0.00     0.160 C 
ATOM     21  O   UNL     1       2.787   0.635  -2.053  1.00  0.00    -0.381 OA
ENDBRANCH  16  17
ENDBRANCH  12  16
ENDBRANCH   8   9
ENDBRANCH   6   8
ENDBRANCH   3   4
ENDBRANCH   2   3
ENDBRANCH   1   2
BRANCH   1  22
ATOM     22  C   UNL     1       9.579   7.307  -6.576  1.00  0.00     0.002 C 
BRANCH  22  23
ATOM     23  C   UNL     1       9.886   8.798  -6.440  1.00  0.00     0.021 C 
BRANCH  23  24
ATOM     24  C   UNL     1      11.175   9.254  -7.114  1.00  0.00     0.116 C 
BRANCH  24  25
ATOM     25  N   UNL     1      11.138   9.091  -8.558  1.00  0.00    -0.352 N 
ATOM     26  C   UNL     1      11.469   9.995  -9.540  1.00  0.00     0.251 C 
ATOM     27  H   UNL     1      10.834   8.211  -8.877  1.00  0.00     0.163 HD
ATOM     28  O   UNL     1      11.222   9.743 -10.713  1.00  0.00    -0.269 OA
BRANCH  26  29
ATOM     29  C   UNL     1      12.097  11.285  -9.171  1.00  0.00     0.039 A 
ATOM     30  C   UNL     1      11.634  12.457  -9.772  1.00  0.00     0.014 A 
ATOM     31  C   UNL     1      13.132  11.341  -8.233  1.00  0.00     0.014 A 
ATOM     32  C   UNL     1      12.168  13.690  -9.389  1.00  0.00     0.010 A 
ATOM     33  C   UNL     1      13.606  12.575  -7.794  1.00  0.00     0.010 A 
ATOM     34  C   UNL     1      13.134  13.763  -8.371  1.00  0.00    -0.014 A 
BRANCH  34  35
ATOM     35  C   UNL     1      13.652  15.074  -7.899  1.00  0.00     0.031 A 
ATOM     36  C   UNL     1      15.106  15.426  -8.065  1.00  0.00     0.074 A 
ATOM     37  C   UNL     1      12.819  15.931  -7.275  1.00  0.00     0.049 A 
ATOM     38  N   UNL     1      15.734  16.521  -7.718  1.00  0.00    -0.248 NA
ATOM     39  C   UNL     1      15.973  14.408  -8.679  1.00  0.00     0.031 C 
ATOM     40  C   UNL     1      11.396  15.694  -7.017  1.00  0.00     0.029 A 
ATOM     41  N   UNL     1      13.046  17.179  -6.749  1.00  0.00    -0.354 N 
ATOM     42  C   UNL     1      17.068  16.316  -8.053  1.00  0.00     0.074 A 
ATOM     43  C   UNL     1      17.167  14.973  -8.582  1.00  0.00     0.031 C 
ATOM     44  C   UNL     1      10.868  16.779  -6.429  1.00  0.00     0.029 A 
ATOM     45  C   UNL     1      11.920  17.770  -6.225  1.00  0.00     0.049 A 
ATOM     46  H   UNL     1      13.931  17.610  -6.748  1.00  0.00     0.167 HD
ATOM     47  C   UNL     1      18.114  17.172  -7.946  1.00  0.00     0.031 A 
ATOM     48  C   UNL     1      11.750  18.976  -5.648  1.00  0.00     0.031 A 
ATOM     49  C   UNL     1      18.010  18.508  -7.418  1.00  0.00     0.049 A 
ATOM     50  C   UNL     1      12.930  19.900  -5.520  1.00  0.00     0.074 A 
ATOM     51  C   UNL     1      18.995  19.476  -7.329  1.00  0.00     0.029 A 
ATOM     52  N   UNL     1      16.858  19.059  -6.877  1.00  0.00    -0.354 N 
ATOM     53  N   UNL     1      14.167  19.720  -5.919  1.00  0.00    -0.248 NA
ATOM     54  C   UNL     1      12.686  21.195  -4.872  1.00  0.00     0.031 C 
ATOM     55  C   UNL     1      18.457  20.587  -6.671  1.00  0.00     0.029 A 
ATOM     56  C   UNL     1      17.117  20.341  -6.417  1.00  0.00     0.049 A 
ATOM     57  H   UNL     1      15.985  18.607  -6.828  1.00  0.00     0.167 HD
ATOM     58  C   UNL     1      14.842  20.893  -5.599  1.00  0.00     0.074 A 
ATOM     59  C   UNL     1      13.871  21.779  -4.988  1.00  0.00     0.031 C 
ATOM     60  C   UNL     1      16.146  21.209  -5.798  1.00  0.00     0.031 A 
BRANCH  47  61
ATOM     61  C   UNL     1      19.469  16.672  -8.384  1.00  0.00    -0.014 A 
ATOM     62  C   UNL     1      19.746  16.389  -9.735  1.00  0.00     0.010 A 
ATOM     63  C   UNL     1      20.488  16.498  -7.430  1.00  0.00     0.010 A 
ATOM     64  C   UNL     1      20.994  15.883 -10.112  1.00  0.00     0.020 A 
ATOM     65  C   UNL     1      21.748  16.026  -7.808  1.00  0.00     0.020 A 
ATOM     66  C   UNL     1      21.985  15.699  -9.144  1.00  0.00     0.054 A 
BRANCH  66  67
ATOM     67  S   UNL     1      23.593  15.036  -9.660  1.00  0.00     0.124 S 
ATOM     68  O   UNL     1      23.265  13.642  -9.947  1.00  0.00    -0.237 OA
ATOM     69  O   UNL     1      23.918  15.856 -10.824  1.00  0.00    -0.237 OA
ATOM     70  O   UNL     1      24.447  15.247  -8.494  1.00  0.00    -0.744 OA
ENDBRANCH  66  67
ENDBRANCH  47  61
BRANCH  48  71
ATOM     71  C   UNL     1      10.398  19.394  -5.185  1.00  0.00    -0.014 A 
ATOM     72  C   UNL     1       9.702  20.413  -5.860  1.00  0.00     0.010 A 
ATOM     73  C   UNL     1       9.790  18.767  -4.083  1.00  0.00     0.010 A 
ATOM     74  C   UNL     1       8.429  20.805  -5.435  1.00  0.00     0.020 A 
ATOM     75  C   UNL     1       8.505  19.135  -3.673  1.00  0.00     0.020 A 
ATOM     76  C   UNL     1       7.836  20.158  -4.348  1.00  0.00     0.054 A 
BRANCH  76  77
ATOM     77  S   UNL     1       6.157  20.641  -3.856  1.00  0.00     0.124 S 
ATOM     78  O   UNL     1       6.378  21.962  -3.275  1.00  0.00    -0.237 OA
ATOM     79  O   UNL     1       5.440  20.621  -5.128  1.00  0.00    -0.237 OA
ATOM     80  O   UNL     1       5.764  19.598  -2.911  1.00  0.00    -0.744 OA
ENDBRANCH  76  77
ENDBRANCH  48  71
BRANCH  60  81
ATOM     81  C   UNL     1      16.594  22.587  -5.380  1.00  0.00    -0.014 A 
ATOM     82  C   UNL     1      16.680  22.951  -4.024  1.00  0.00     0.010 A 
ATOM     83  C   UNL     1      16.968  23.521  -6.363  1.00  0.00     0.010 A 
ATOM     84  C   UNL     1      17.087  24.239  -3.662  1.00  0.00     0.020 A 
ATOM     85  C   UNL     1      17.408  24.798  -6.005  1.00  0.00     0.020 A 
ATOM     86  C   UNL     1      17.447  25.154  -4.656  1.00  0.00     0.054 A 
BRANCH  86  87
ATOM     87  S   UNL     1      17.997  26.810  -4.160  1.00  0.00     0.124 S 
ATOM     88  O   UNL     1      16.747  27.427  -3.722  1.00  0.00    -0.237 OA
ATOM     89  O   UNL     1      18.961  26.523  -3.100  1.00  0.00    -0.237 OA
ATOM     90  O   UNL     1      18.571  27.366  -5.382  1.00  0.00    -0.744 OA
ENDBRANCH  86  87
ENDBRANCH  60  81
ENDBRANCH  34  35
ENDBRANCH  26  29
ENDBRANCH  24  25
ENDBRANCH  23  24
ENDBRANCH  22  23
ENDBRANCH   1  22
TORSDOF 19
