REMARK SMILES CC[NH2+][C@@]1(C(=O)NCCCCCCNC(=O)c2ccc(-c3c4nc(c(-c5ccc(S(=O)(=O)[O-])cc5)c5ccc([nH]5)c(-c5ccc(S(=O)(=O)[O-])cc5)c5nc(c(-c6ccc(S(=O)(=O)[O-])cc6)c6ccc3[nH]6)C=C5)C=C4)cc2)CC[C@@H](n2cnc3ccccc32)C1
REMARK SMILES IDX 11 1 10 2 9 3 8 4 7 5 5 6 6 7 4 9 77 10 89 11 78 12 79 13
REMARK SMILES IDX 3 14 2 17 1 18 80 19 81 20 88 21 82 22 83 23 87 24 84 25
REMARK SMILES IDX 86 26 85 27 12 28 13 29 14 30 15 31 16 33 17 34 18 35 76 36
REMARK SMILES IDX 19 37 75 38 20 39 21 40 22 41 69 42 23 43 74 44 68 45 70 46
REMARK SMILES IDX 24 47 73 48 67 49 66 50 25 52 55 53 36 54 54 55 37 56 40 57
REMARK SMILES IDX 53 58 71 59 38 60 39 61 52 63 72 64 41 65 26 66 27 67 35 68
REMARK SMILES IDX 28 69 34 70 29 71 30 72 31 73 32 74 33 75 56 76 57 77 65 78
REMARK SMILES IDX 58 79 64 80 59 81 60 82 61 83 62 84 63 85 42 86 43 87 51 88
REMARK SMILES IDX 44 89 50 90 45 91 46 92 47 93 48 94 49 95
REMARK H PARENT 7 8 3 15 3 16 14 32 70 51 40 62
REMARK Flexibility Score: inf
ROOT
ATOM      1  C   UNL     1      -0.325   6.694   6.717  1.00  0.00     0.002 C 
ENDROOT
BRANCH   1   2
ATOM      2  C   UNL     1      -0.979   5.478   6.059  1.00  0.00     0.002 C 
BRANCH   2   3
ATOM      3  C   UNL     1      -1.088   5.576   4.541  1.00  0.00     0.021 C 
BRANCH   3   4
ATOM      4  C   UNL     1       0.230   5.928   3.837  1.00  0.00     0.116 C 
BRANCH   4   5
ATOM      5  N   UNL     1       1.022   4.739   3.562  1.00  0.00    -0.351 N 
ATOM      6  C   UNL     1       1.522   4.092   2.461  1.00  0.00     0.281 C 
ATOM      7  O   UNL     1       2.633   3.644   2.806  1.00  0.00    -0.268 OA
ATOM      8  H   UNL     1       1.266   4.271   4.393  1.00  0.00     0.163 HD
BRANCH   6   9
ATOM      9  C   UNL     1       0.738   3.974   0.778  1.00  0.00     0.177 C 
ATOM     10  C   UNL     1       0.990   5.721   0.472  1.00  0.00     0.081 C 
ATOM     11  C   UNL     1      -0.938   4.475   1.368  1.00  0.00     0.104 C 
ATOM     12  C   UNL     1      -0.366   6.420   0.194  1.00  0.00     0.033 C 
ATOM     13  C   UNL     1      -1.472   5.356   0.277  1.00  0.00     0.096 C 
BRANCH   9  14
ATOM     14  N   UNL     1       1.036   2.390  -0.567  1.00  0.00    -0.334 N 
ATOM     15  H   UNL     1       0.788   2.829  -1.454  1.00  0.00     0.347 HD
ATOM     16  H   UNL     1       1.888   2.089  -0.094  1.00  0.00     0.347 HD
BRANCH  14  17
ATOM     17  C   UNL     1       0.558   0.902  -0.810  1.00  0.00     0.257 C 
ATOM     18  C   UNL     1       1.642   0.068  -1.502  1.00  0.00     0.071 C 
ENDBRANCH  14  17
ENDBRANCH   9  14
BRANCH  13  19
ATOM     19  N   UNL     1      -1.568   4.430  -0.858  1.00  0.00    -0.327 N 
ATOM     20  C   UNL     1      -1.295   4.907  -2.140  1.00  0.00     0.200 A 
ATOM     21  C   UNL     1      -0.755   3.287  -0.637  1.00  0.00     0.068 A 
ATOM     22  N   UNL     1      -0.001   4.933  -2.425  1.00  0.00    -0.237 NA
ATOM     23  C   UNL     1       0.565   4.146  -1.457  1.00  0.00     0.088 A 
ATOM     24  C   UNL     1      -0.387   2.235   0.844  1.00  0.00     0.028 A 
ATOM     25  C   UNL     1       2.265   4.026  -0.848  1.00  0.00     0.030 A 
ATOM     26  C   UNL     1       1.346   2.011   1.367  1.00  0.00     0.002 A 
ATOM     27  C   UNL     1       2.659   2.930   0.515  1.00  0.00     0.002 A 
ENDBRANCH  13  19
ENDBRANCH   6   9
ENDBRANCH   4   5
ENDBRANCH   3   4
ENDBRANCH   2   3
ENDBRANCH   1   2
BRANCH   1  28
ATOM     28  C   UNL     1      -0.888   8.042   6.251  1.00  0.00     0.021 C 
BRANCH  28  29
ATOM     29  C   UNL     1      -2.390   8.183   6.463  1.00  0.00     0.116 C 
BRANCH  29  30
ATOM     30  N   UNL     1      -2.728   8.015   7.867  1.00  0.00    -0.352 N 
ATOM     31  C   UNL     1      -3.122   8.974   8.763  1.00  0.00     0.251 C 
ATOM     32  H   UNL     1      -2.666   7.098   8.217  1.00  0.00     0.163 HD
ATOM     33  O   UNL     1      -3.015   8.778   9.969  1.00  0.00    -0.269 OA
BRANCH  31  34
ATOM     34  C   UNL     1      -3.674  10.240   8.248  1.00  0.00     0.039 A 
ATOM     35  C   UNL     1      -3.240  11.447   8.794  1.00  0.00     0.014 A 
ATOM     36  C   UNL     1      -4.609  10.221   7.207  1.00  0.00     0.014 A 
ATOM     37  C   UNL     1      -3.704  12.645   8.252  1.00  0.00     0.010 A 
ATOM     38  C   UNL     1      -5.009  11.414   6.619  1.00  0.00     0.010 A 
ATOM     39  C   UNL     1      -4.560  12.637   7.137  1.00  0.00    -0.014 A 
BRANCH  39  40
ATOM     40  C   UNL     1      -4.963  13.899   6.473  1.00  0.00     0.031 A 
ATOM     41  C   UNL     1      -6.407  14.313   6.441  1.00  0.00     0.074 A 
ATOM     42  C   UNL     1      -4.025  14.636   5.845  1.00  0.00     0.049 A 
ATOM     43  N   UNL     1      -6.948  15.357   5.870  1.00  0.00    -0.248 NA
ATOM     44  C   UNL     1      -7.371  13.431   7.119  1.00  0.00     0.031 C 
ATOM     45  C   UNL     1      -2.598  14.310   5.778  1.00  0.00     0.029 A 
ATOM     46  N   UNL     1      -4.130  15.807   5.140  1.00  0.00    -0.354 N 
ATOM     47  C   UNL     1      -8.313  15.256   6.112  1.00  0.00     0.074 A 
ATOM     48  C   UNL     1      -8.523  14.021   6.836  1.00  0.00     0.031 C 
ATOM     49  C   UNL     1      -1.958  15.274   5.100  1.00  0.00     0.029 A 
ATOM     50  C   UNL     1      -2.932  16.256   4.637  1.00  0.00     0.049 A 
ATOM     51  H   UNL     1      -4.982  16.282   5.007  1.00  0.00     0.167 HD
ATOM     52  C   UNL     1      -9.297  16.122   5.775  1.00  0.00     0.031 A 
ATOM     53  C   UNL     1      -2.650  17.329   3.873  1.00  0.00     0.031 A 
ATOM     54  C   UNL     1      -9.075  17.345   5.048  1.00  0.00     0.049 A 
ATOM     55  C   UNL     1      -3.768  18.250   3.472  1.00  0.00     0.074 A 
ATOM     56  C   UNL     1      -9.997  18.318   4.704  1.00  0.00     0.029 A 
ATOM     57  N   UNL     1      -7.851  17.755   4.540  1.00  0.00    -0.354 N 
ATOM     58  N   UNL     1      -5.040  18.183   3.785  1.00  0.00    -0.248 NA
ATOM     59  C   UNL     1      -3.414  19.391   2.618  1.00  0.00     0.031 C 
ATOM     60  C   UNL     1      -9.345  19.278   3.924  1.00  0.00     0.029 A 
ATOM     61  C   UNL     1      -8.003  18.943   3.844  1.00  0.00     0.049 A 
ATOM     62  H   UNL     1      -7.001  17.273   4.657  1.00  0.00     0.167 HD
ATOM     63  C   UNL     1      -5.637  19.282   3.177  1.00  0.00     0.074 A 
ATOM     64  C   UNL     1      -4.581  20.011   2.504  1.00  0.00     0.031 C 
ATOM     65  C   UNL     1      -6.942  19.649   3.168  1.00  0.00     0.031 A 
BRANCH  52  66
ATOM     66  C   UNL     1     -10.708  15.771   6.174  1.00  0.00    -0.014 A 
ATOM     67  C   UNL     1     -11.106  15.767   7.523  1.00  0.00     0.010 A 
ATOM     68  C   UNL     1     -11.665  15.493   5.180  1.00  0.00     0.010 A 
ATOM     69  C   UNL     1     -12.422  15.454   7.873  1.00  0.00     0.020 A 
ATOM     70  C   UNL     1     -12.990  15.211   5.524  1.00  0.00     0.020 A 
ATOM     71  C   UNL     1     -13.356  15.179   6.871  1.00  0.00     0.054 A 
BRANCH  71  72
ATOM     72  S   UNL     1     -15.063  14.804   7.356  1.00  0.00     0.124 S 
ATOM     73  O   UNL     1     -14.917  13.494   7.985  1.00  0.00    -0.237 OA
ATOM     74  O   UNL     1     -15.384  15.903   8.263  1.00  0.00    -0.237 OA
ATOM     75  O   UNL     1     -15.794  14.808   6.091  1.00  0.00    -0.744 OA
ENDBRANCH  71  72
ENDBRANCH  52  66
BRANCH  53  76
ATOM     76  C   UNL     1      -1.250  17.578   3.430  1.00  0.00    -0.014 A 
ATOM     77  C   UNL     1      -0.531  18.686   3.912  1.00  0.00     0.010 A 
ATOM     78  C   UNL     1      -0.622  16.695   2.532  1.00  0.00     0.010 A 
ATOM     79  C   UNL     1       0.782  18.914   3.493  1.00  0.00     0.020 A 
ATOM     80  C   UNL     1       0.702  16.901   2.136  1.00  0.00     0.020 A 
ATOM     81  C   UNL     1       1.392  18.017   2.612  1.00  0.00     0.054 A 
BRANCH  81  82
ATOM     82  S   UNL     1       3.115  18.306   2.124  1.00  0.00     0.124 S 
ATOM     83  O   UNL     1       2.995  19.480   1.266  1.00  0.00    -0.237 OA
ATOM     84  O   UNL     1       3.772  18.525   3.411  1.00  0.00    -0.237 OA
ATOM     85  O   UNL     1       3.491  17.068   1.445  1.00  0.00    -0.744 OA
ENDBRANCH  81  82
ENDBRANCH  53  76
BRANCH  65  86
ATOM     86  C   UNL     1      -7.305  20.898   2.409  1.00  0.00    -0.014 A 
ATOM     87  C   UNL     1      -7.270  20.925   1.003  1.00  0.00     0.010 A 
ATOM     88  C   UNL     1      -7.750  22.037   3.105  1.00  0.00     0.010 A 
ATOM     89  C   UNL     1      -7.653  22.075   0.309  1.00  0.00     0.020 A 
ATOM     90  C   UNL     1      -8.166  23.177   2.413  1.00  0.00     0.020 A 
ATOM     91  C   UNL     1      -8.105  23.191   1.018  1.00  0.00     0.054 A 
BRANCH  91  92
ATOM     92  S   UNL     1      -8.657  24.646   0.087  1.00  0.00     0.124 S 
ATOM     93  O   UNL     1      -7.401  25.153  -0.460  1.00  0.00    -0.237 OA
ATOM     94  O   UNL     1      -9.579  24.067  -0.888  1.00  0.00    -0.237 OA
ATOM     95  O   UNL     1      -9.281  25.492   1.101  1.00  0.00    -0.744 OA
ENDBRANCH  91  92
ENDBRANCH  65  86
ENDBRANCH  39  40
ENDBRANCH  31  34
ENDBRANCH  29  30
ENDBRANCH  28  29
ENDBRANCH   1  28
TORSDOF 19
