REMARK SMILES CC(C)[C@H]([NH2+][C@H]1CCCS[C@H]1C)C(=O)NCCCCCCNC(=O)c1ccc(-c2c3nc(c(-c4ccc(S(=O)(=O)[O-])cc4)c4ccc([nH]4)c(-c4ccc(S(=O)(=O)[O-])cc4)c4nc(c(-c5ccc(S(=O)(=O)[O-])cc5)c5ccc2[nH]5)C=C4)C=C3)cc1
REMARK SMILES IDX 19 1 18 2 17 3 16 4 15 5 13 6 14 7 4 9 2 10 1 11 3 12 5 13
REMARK SMILES IDX 6 16 7 17 11 18 8 19 10 20 12 21 9 22 20 23 21 24 22 25
REMARK SMILES IDX 23 26 24 28 25 29 26 30 84 31 27 32 83 33 28 34 29 35 30 36
REMARK SMILES IDX 77 37 31 38 82 39 76 40 78 41 32 42 81 43 75 44 74 45 33 47
REMARK SMILES IDX 63 48 44 49 62 50 45 51 48 52 61 53 79 54 46 55 47 56 60 58
REMARK SMILES IDX 80 59 49 60 34 61 35 62 43 63 36 64 42 65 37 66 38 67 39 68
REMARK SMILES IDX 40 69 41 70 64 71 65 72 73 73 66 74 72 75 67 76 68 77 69 78
REMARK SMILES IDX 70 79 71 80 50 81 51 82 59 83 52 84 58 85 53 86 54 87 55 88
REMARK SMILES IDX 56 89 57 90
REMARK H PARENT 15 8 5 14 5 15 22 27 78 46 48 57
REMARK Flexibility Score: inf
ROOT
ATOM      1  C   UNL     1      -4.785   4.478   2.532  1.00  0.00     0.002 C 
ENDROOT
BRANCH   1   2
ATOM      2  C   UNL     1      -4.160   3.376   3.396  1.00  0.00     0.002 C 
BRANCH   2   3
ATOM      3  C   UNL     1      -3.420   2.277   2.630  1.00  0.00     0.021 C 
BRANCH   3   4
ATOM      4  C   UNL     1      -2.400   2.792   1.625  1.00  0.00     0.116 C 
BRANCH   4   5
ATOM      5  N   UNL     1      -1.270   3.434   2.256  1.00  0.00    -0.351 N 
ATOM      6  C   UNL     1       0.049   3.466   1.919  1.00  0.00     0.278 C 
ATOM      7  O   UNL     1       0.778   4.179   2.620  1.00  0.00    -0.268 OA
ATOM      8  H   UNL     1      -1.492   3.938   3.072  1.00  0.00     0.163 HD
BRANCH   6   9
ATOM      9  C   UNL     1       0.647   2.701   0.704  1.00  0.00     0.275 C 
BRANCH   9  10
ATOM     10  C   UNL     1       0.422   3.429  -0.653  1.00  0.00     0.051 C 
ATOM     11  C   UNL     1      -1.014   3.736  -1.060  1.00  0.00     0.014 C 
ATOM     12  C   UNL     1       1.255   4.717  -0.708  1.00  0.00     0.014 C 
ENDBRANCH   9  10
BRANCH   9  13
ATOM     13  N   UNL     1       0.319   1.262   0.800  1.00  0.00    -0.332 N 
ATOM     14  H   UNL     1      -0.559   1.128   0.299  1.00  0.00     0.347 HD
ATOM     15  H   UNL     1       0.321   1.092   1.805  1.00  0.00     0.347 HD
BRANCH  13  16
ATOM     16  C   UNL     1       1.264   0.244   0.285  1.00  0.00     0.195 C 
ATOM     17  C   UNL     1       1.261   0.226  -1.255  1.00  0.00     0.067 C 
ATOM     18  C   UNL     1       2.683   0.129   0.938  1.00  0.00     0.101 C 
ATOM     19  C   UNL     1       1.958  -0.981  -1.871  1.00  0.00     0.017 C 
ATOM     20  S   UNL     1       3.583  -1.351   0.292  1.00  0.00    -0.153 SA
ATOM     21  C   UNL     1       3.626   1.325   0.801  1.00  0.00     0.026 C 
ATOM     22  C   UNL     1       3.425  -1.038  -1.487  1.00  0.00     0.070 C 
ENDBRANCH  13  16
ENDBRANCH   9  13
ENDBRANCH   6   9
ENDBRANCH   4   5
ENDBRANCH   3   4
ENDBRANCH   2   3
ENDBRANCH   1   2
BRANCH   1  23
ATOM     23  C   UNL     1      -5.687   3.993   1.395  1.00  0.00     0.021 C 
BRANCH  23  24
ATOM     24  C   UNL     1      -6.801   3.048   1.823  1.00  0.00     0.116 C 
BRANCH  24  25
ATOM     25  N   UNL     1      -7.676   3.649   2.815  1.00  0.00    -0.352 N 
ATOM     26  C   UNL     1      -9.044   3.739   2.814  1.00  0.00     0.251 C 
ATOM     27  H   UNL     1      -7.225   4.046   3.595  1.00  0.00     0.163 HD
ATOM     28  O   UNL     1      -9.617   4.450   3.635  1.00  0.00    -0.269 OA
BRANCH  26  29
ATOM     29  C   UNL     1      -9.817   2.992   1.802  1.00  0.00     0.039 A 
ATOM     30  C   UNL     1     -10.842   3.645   1.115  1.00  0.00     0.014 A 
ATOM     31  C   UNL     1      -9.518   1.655   1.524  1.00  0.00     0.014 A 
ATOM     32  C   UNL     1     -11.534   2.970   0.109  1.00  0.00     0.010 A 
ATOM     33  C   UNL     1     -10.153   1.011   0.468  1.00  0.00     0.010 A 
ATOM     34  C   UNL     1     -11.174   1.659  -0.245  1.00  0.00    -0.014 A 
BRANCH  34  35
ATOM     35  C   UNL     1     -11.856   0.946  -1.353  1.00  0.00     0.031 A 
ATOM     36  C   UNL     1     -12.643  -0.306  -1.070  1.00  0.00     0.074 A 
ATOM     37  C   UNL     1     -11.719   1.391  -2.617  1.00  0.00     0.049 A 
ATOM     38  N   UNL     1     -13.259  -1.098  -1.909  1.00  0.00    -0.248 NA
ATOM     39  C   UNL     1     -12.727  -0.737   0.335  1.00  0.00     0.031 C 
ATOM     40  C   UNL     1     -10.954   2.573  -3.021  1.00  0.00     0.029 A 
ATOM     41  N   UNL     1     -12.213   0.898  -3.798  1.00  0.00    -0.354 N 
ATOM     42  C   UNL     1     -13.790  -2.125  -1.137  1.00  0.00     0.074 A 
ATOM     43  C   UNL     1     -13.376  -1.887   0.227  1.00  0.00     0.031 C 
ATOM     44  C   UNL     1     -11.057   2.731  -4.350  1.00  0.00     0.029 A 
ATOM     45  C   UNL     1     -11.852   1.637  -4.900  1.00  0.00     0.049 A 
ATOM     46  H   UNL     1     -12.775   0.091  -3.852  1.00  0.00     0.167 HD
ATOM     47  C   UNL     1     -14.570  -3.162  -1.526  1.00  0.00     0.031 A 
ATOM     48  C   UNL     1     -12.120   1.451  -6.207  1.00  0.00     0.031 A 
ATOM     49  C   UNL     1     -14.980  -3.392  -2.886  1.00  0.00     0.049 A 
ATOM     50  C   UNL     1     -12.963   0.275  -6.619  1.00  0.00     0.074 A 
ATOM     51  C   UNL     1     -15.808  -4.385  -3.378  1.00  0.00     0.029 A 
ATOM     52  N   UNL     1     -14.589  -2.622  -3.973  1.00  0.00    -0.354 N 
ATOM     53  N   UNL     1     -13.509  -0.651  -5.867  1.00  0.00    -0.248 NA
ATOM     54  C   UNL     1     -13.234   0.124  -8.055  1.00  0.00     0.031 C 
ATOM     55  C   UNL     1     -15.867  -4.254  -4.769  1.00  0.00     0.029 A 
ATOM     56  C   UNL     1     -15.134  -3.136  -5.137  1.00  0.00     0.049 A 
ATOM     57  H   UNL     1     -14.009  -1.828  -3.923  1.00  0.00     0.167 HD
ATOM     58  C   UNL     1     -14.214  -1.477  -6.735  1.00  0.00     0.074 A 
ATOM     59  C   UNL     1     -14.036  -0.933  -8.066  1.00  0.00     0.031 C 
ATOM     60  C   UNL     1     -14.947  -2.583  -6.455  1.00  0.00     0.031 A 
BRANCH  47  61
ATOM     61  C   UNL     1     -15.018  -4.134  -0.465  1.00  0.00    -0.014 A 
ATOM     62  C   UNL     1     -15.926  -3.749   0.539  1.00  0.00     0.010 A 
ATOM     63  C   UNL     1     -14.552  -5.461  -0.490  1.00  0.00     0.010 A 
ATOM     64  C   UNL     1     -16.321  -4.658   1.524  1.00  0.00     0.020 A 
ATOM     65  C   UNL     1     -14.970  -6.383   0.474  1.00  0.00     0.020 A 
ATOM     66  C   UNL     1     -15.838  -5.969   1.486  1.00  0.00     0.054 A 
BRANCH  66  67
ATOM     67  S   UNL     1     -16.381  -7.131   2.769  1.00  0.00     0.124 S 
ATOM     68  O   UNL     1     -15.677  -6.629   3.947  1.00  0.00    -0.237 OA
ATOM     69  O   UNL     1     -17.829  -6.945   2.776  1.00  0.00    -0.237 OA
ATOM     70  O   UNL     1     -15.924  -8.429   2.278  1.00  0.00    -0.744 OA
ENDBRANCH  66  67
ENDBRANCH  47  61
BRANCH  48  71
ATOM     71  C   UNL     1     -11.595   2.411  -7.217  1.00  0.00    -0.014 A 
ATOM     72  C   UNL     1     -12.467   3.269  -7.910  1.00  0.00     0.010 A 
ATOM     73  C   UNL     1     -10.214   2.484  -7.479  1.00  0.00     0.010 A 
ATOM     74  C   UNL     1     -11.970   4.169  -8.858  1.00  0.00     0.020 A 
ATOM     75  C   UNL     1      -9.711   3.404  -8.403  1.00  0.00     0.020 A 
ATOM     76  C   UNL     1     -10.595   4.234  -9.095  1.00  0.00     0.054 A 
BRANCH  76  77
ATOM     77  S   UNL     1      -9.969   5.447 -10.290  1.00  0.00     0.124 S 
ATOM     78  O   UNL     1     -10.411   4.879 -11.560  1.00  0.00    -0.237 OA
ATOM     79  O   UNL     1     -10.645   6.674  -9.874  1.00  0.00    -0.237 OA
ATOM     80  O   UNL     1      -8.525   5.434 -10.067  1.00  0.00    -0.744 OA
ENDBRANCH  76  77
ENDBRANCH  48  71
BRANCH  60  81
ATOM     81  C   UNL     1     -15.646  -3.264  -7.603  1.00  0.00    -0.014 A 
ATOM     82  C   UNL     1     -14.931  -3.987  -8.573  1.00  0.00     0.010 A 
ATOM     83  C   UNL     1     -17.052  -3.233  -7.670  1.00  0.00     0.010 A 
ATOM     84  C   UNL     1     -15.607  -4.644  -9.604  1.00  0.00     0.020 A 
ATOM     85  C   UNL     1     -17.733  -3.916  -8.680  1.00  0.00     0.020 A 
ATOM     86  C   UNL     1     -17.004  -4.607  -9.649  1.00  0.00     0.054 A 
BRANCH  86  87
ATOM     87  S   UNL     1     -17.858  -5.515 -10.967  1.00  0.00     0.124 S 
ATOM     88  O   UNL     1     -17.555  -4.703 -12.142  1.00  0.00    -0.237 OA
ATOM     89  O   UNL     1     -17.210  -6.824 -10.923  1.00  0.00    -0.237 OA
ATOM     90  O   UNL     1     -19.257  -5.504 -10.546  1.00  0.00    -0.744 OA
ENDBRANCH  86  87
ENDBRANCH  60  81
ENDBRANCH  34  35
ENDBRANCH  26  29
ENDBRANCH  24  25
ENDBRANCH  23  24
ENDBRANCH   1  23
TORSDOF 19
