REMARK SMILES COc1ncccc1Cn1ccc(C(=O)NCCCCCCNC(=O)c2ccc(-c3c4nc(c(-c5ccc(S(=O)(=O)[O-])cc5)c5ccc([nH]5)c(-c5ccc(S(=O)(=O)[O-])cc5)c5nc(c(-c6ccc(S(=O)(=O)[O-])cc6)c6ccc3[nH]6)C=C5)C=C4)cc2)n1
REMARK SMILES IDX 19 1 18 2 17 3 16 4 14 5 15 6 13 8 10 9 11 10 86 11 12 12
REMARK SMILES IDX 9 13 8 14 3 15 4 16 5 17 7 18 6 19 2 20 1 21 20 22 21 23
REMARK SMILES IDX 22 24 23 25 24 26 25 28 26 29 27 30 85 31 28 32 84 33 29 34
REMARK SMILES IDX 30 35 31 36 78 37 32 38 83 39 77 40 79 41 33 42 82 43 76 44
REMARK SMILES IDX 75 45 34 47 64 48 45 49 63 50 46 51 49 52 62 53 80 54 47 55
REMARK SMILES IDX 48 56 61 58 81 59 50 60 35 61 36 62 44 63 37 64 43 65 38 66
REMARK SMILES IDX 39 67 40 68 41 69 42 70 65 71 66 72 74 73 67 74 73 75 68 76
REMARK SMILES IDX 69 77 70 78 71 79 72 80 51 81 52 82 60 83 53 84 59 85 54 86
REMARK SMILES IDX 55 87 56 88 57 89 58 90
REMARK H PARENT 16 7 23 27 79 46 49 57
REMARK Flexibility Score: inf
ROOT
ATOM      1  C   UNL     1       6.841   2.166   5.591  1.00  0.00     0.002 C 
ENDROOT
BRANCH   1   2
ATOM      2  C   UNL     1       5.990   2.389   4.341  1.00  0.00     0.021 C 
BRANCH   2   3
ATOM      3  C   UNL     1       5.795   1.155   3.464  1.00  0.00     0.116 C 
BRANCH   3   4
ATOM      4  N   UNL     1       5.082   0.088   4.145  1.00  0.00    -0.351 N 
ATOM      5  C   UNL     1       3.843  -0.444   3.859  1.00  0.00     0.271 C 
ATOM      6  O   UNL     1       3.364  -1.281   4.625  1.00  0.00    -0.267 OA
ATOM      7  H   UNL     1       5.548  -0.310   4.916  1.00  0.00     0.163 HD
BRANCH   5   8
ATOM      8  C   UNL     1       3.111   0.068   2.697  1.00  0.00     0.150 A 
ATOM      9  N   UNL     1       2.760   0.991   0.808  1.00  0.00    -0.267 N 
ATOM     10  C   UNL     1       1.565   1.062   1.469  1.00  0.00     0.110 A 
ATOM     11  N   UNL     1       3.689   0.309   1.506  1.00  0.00    -0.167 NA
ATOM     12  C   UNL     1       1.736   0.395   2.657  1.00  0.00     0.056 A 
BRANCH   9  13
ATOM     13  C   UNL     1       3.152   1.520  -0.501  1.00  0.00     0.185 C 
BRANCH  13  14
ATOM     14  C   UNL     1       2.127   2.411  -1.128  1.00  0.00     0.036 A 
ATOM     15  C   UNL     1       1.036   1.902  -1.832  1.00  0.00     0.218 A 
ATOM     16  N   UNL     1       0.047   2.669  -2.335  1.00  0.00    -0.222 NA
ATOM     17  C   UNL     1       0.159   4.007  -2.155  1.00  0.00     0.115 A 
ATOM     18  C   UNL     1       2.222   3.803  -0.994  1.00  0.00     0.013 A 
ATOM     19  C   UNL     1       1.230   4.617  -1.526  1.00  0.00     0.021 A 
BRANCH  15  20
ATOM     20  O   UNL     1       1.035   0.598  -2.262  1.00  0.00    -0.481 OA
ATOM     21  C   UNL     1       0.489  -0.303  -1.306  1.00  0.00     0.280 C 
ENDBRANCH  15  20
ENDBRANCH  13  14
ENDBRANCH   9  13
ENDBRANCH   5   8
ENDBRANCH   3   4
ENDBRANCH   2   3
ENDBRANCH   1   2
BRANCH   1  22
ATOM     22  C   UNL     1       8.171   1.432   5.373  1.00  0.00     0.002 C 
BRANCH  22  23
ATOM     23  C   UNL     1       9.098   1.997   4.287  1.00  0.00     0.021 C 
BRANCH  23  24
ATOM     24  C   UNL     1       9.616   3.396   4.578  1.00  0.00     0.116 C 
BRANCH  24  25
ATOM     25  N   UNL     1      10.514   3.426   5.730  1.00  0.00    -0.352 N 
ATOM     26  C   UNL     1      11.114   4.528   6.298  1.00  0.00     0.251 C 
ATOM     27  H   UNL     1      10.714   2.557   6.148  1.00  0.00     0.163 HD
ATOM     28  O   UNL     1      12.123   4.409   6.991  1.00  0.00    -0.269 OA
BRANCH  26  29
ATOM     29  C   UNL     1      10.515   5.851   6.063  1.00  0.00     0.039 A 
ATOM     30  C   UNL     1      11.302   6.965   5.759  1.00  0.00     0.014 A 
ATOM     31  C   UNL     1       9.126   5.948   6.115  1.00  0.00     0.014 A 
ATOM     32  C   UNL     1      10.670   8.160   5.424  1.00  0.00     0.010 A 
ATOM     33  C   UNL     1       8.505   7.081   5.654  1.00  0.00     0.010 A 
ATOM     34  C   UNL     1       9.268   8.204   5.352  1.00  0.00    -0.014 A 
BRANCH  34  35
ATOM     35  C   UNL     1       8.580   9.388   4.854  1.00  0.00     0.031 A 
ATOM     36  C   UNL     1       8.982   9.817   3.488  1.00  0.00     0.074 A 
ATOM     37  C   UNL     1       7.505   9.928   5.466  1.00  0.00     0.049 A 
ATOM     38  N   UNL     1       9.679  10.855   3.167  1.00  0.00    -0.248 NA
ATOM     39  C   UNL     1       8.697   8.920   2.356  1.00  0.00     0.031 C 
ATOM     40  C   UNL     1       6.779   9.432   6.643  1.00  0.00     0.029 A 
ATOM     41  N   UNL     1       6.749  10.989   5.079  1.00  0.00    -0.354 N 
ATOM     42  C   UNL     1       9.727  10.874   1.777  1.00  0.00     0.074 A 
ATOM     43  C   UNL     1       9.281   9.572   1.346  1.00  0.00     0.031 C 
ATOM     44  C   UNL     1       5.571  10.035   6.716  1.00  0.00     0.029 A 
ATOM     45  C   UNL     1       5.514  11.081   5.712  1.00  0.00     0.049 A 
ATOM     46  H   UNL     1       7.051  11.640   4.405  1.00  0.00     0.167 HD
ATOM     47  C   UNL     1       9.896  12.037   1.086  1.00  0.00     0.031 A 
ATOM     48  C   UNL     1       4.508  11.939   5.409  1.00  0.00     0.031 A 
ATOM     49  C   UNL     1      10.264  13.122   1.960  1.00  0.00     0.049 A 
ATOM     50  C   UNL     1       5.114  13.068   4.661  1.00  0.00     0.074 A 
ATOM     51  C   UNL     1      11.309  13.361   2.830  1.00  0.00     0.029 A 
ATOM     52  N   UNL     1       9.259  13.989   2.326  1.00  0.00    -0.354 N 
ATOM     53  N   UNL     1       5.959  13.904   5.196  1.00  0.00    -0.248 NA
ATOM     54  C   UNL     1       5.147  12.995   3.209  1.00  0.00     0.031 C 
ATOM     55  C   UNL     1      10.706  13.989   3.959  1.00  0.00     0.029 A 
ATOM     56  C   UNL     1       9.350  14.178   3.681  1.00  0.00     0.049 A 
ATOM     57  H   UNL     1       8.596  14.398   1.724  1.00  0.00     0.167 HD
ATOM     58  C   UNL     1       6.918  14.113   4.216  1.00  0.00     0.074 A 
ATOM     59  C   UNL     1       6.310  13.613   2.983  1.00  0.00     0.031 C 
ATOM     60  C   UNL     1       8.211  14.410   4.545  1.00  0.00     0.031 A 
BRANCH  47  61
ATOM     61  C   UNL     1       9.343  12.298  -0.294  1.00  0.00    -0.014 A 
ATOM     62  C   UNL     1       9.653  13.520  -0.928  1.00  0.00     0.010 A 
ATOM     63  C   UNL     1       8.318  11.521  -0.871  1.00  0.00     0.010 A 
ATOM     64  C   UNL     1       8.926  13.971  -2.037  1.00  0.00     0.020 A 
ATOM     65  C   UNL     1       7.617  11.941  -2.003  1.00  0.00     0.020 A 
ATOM     66  C   UNL     1       7.903  13.180  -2.559  1.00  0.00     0.054 A 
BRANCH  66  67
ATOM     67  S   UNL     1       6.906  13.813  -3.930  1.00  0.00     0.124 S 
ATOM     68  O   UNL     1       6.218  14.938  -3.307  1.00  0.00    -0.237 OA
ATOM     69  O   UNL     1       7.924  14.158  -4.918  1.00  0.00    -0.237 OA
ATOM     70  O   UNL     1       6.058  12.677  -4.287  1.00  0.00    -0.744 OA
ENDBRANCH  66  67
ENDBRANCH  47  61
BRANCH  48  71
ATOM     71  C   UNL     1       3.044  11.701   5.452  1.00  0.00    -0.014 A 
ATOM     72  C   UNL     1       2.135  12.770   5.336  1.00  0.00     0.010 A 
ATOM     73  C   UNL     1       2.540  10.393   5.302  1.00  0.00     0.010 A 
ATOM     74  C   UNL     1       0.789  12.543   4.999  1.00  0.00     0.020 A 
ATOM     75  C   UNL     1       1.199  10.159   4.972  1.00  0.00     0.020 A 
ATOM     76  C   UNL     1       0.336  11.237   4.792  1.00  0.00     0.054 A 
BRANCH  76  77
ATOM     77  S   UNL     1      -1.342  10.962   4.146  1.00  0.00     0.124 S 
ATOM     78  O   UNL     1      -2.177  11.294   5.295  1.00  0.00    -0.237 OA
ATOM     79  O   UNL     1      -1.407  11.894   3.024  1.00  0.00    -0.237 OA
ATOM     80  O   UNL     1      -1.336   9.549   3.769  1.00  0.00    -0.744 OA
ENDBRANCH  76  77
ENDBRANCH  48  71
BRANCH  60  81
ATOM     81  C   UNL     1       8.517  14.815   5.970  1.00  0.00    -0.014 A 
ATOM     82  C   UNL     1       8.251  14.016   7.101  1.00  0.00     0.010 A 
ATOM     83  C   UNL     1       9.216  16.020   6.156  1.00  0.00     0.010 A 
ATOM     84  C   UNL     1       8.629  14.442   8.385  1.00  0.00     0.020 A 
ATOM     85  C   UNL     1       9.614  16.439   7.426  1.00  0.00     0.020 A 
ATOM     86  C   UNL     1       9.301  15.658   8.538  1.00  0.00     0.054 A 
BRANCH  86  87
ATOM     87  S   UNL     1       9.781  16.215  10.197  1.00  0.00     0.124 S 
ATOM     88  O   UNL     1       8.491  16.485  10.826  1.00  0.00    -0.237 OA
ATOM     89  O   UNL     1      10.513  15.067  10.727  1.00  0.00    -0.237 OA
ATOM     90  O   UNL     1      10.602  17.399   9.943  1.00  0.00    -0.744 OA
ENDBRANCH  86  87
ENDBRANCH  60  81
ENDBRANCH  34  35
ENDBRANCH  26  29
ENDBRANCH  24  25
ENDBRANCH  23  24
ENDBRANCH  22  23
ENDBRANCH   1  22
TORSDOF 19
