REMARK SMILES Cc1ccc(Oc2cc(C(=O)NCCCCCCNC(=O)c3ccc(-c4c5nc(c(-c6ccc(S(=O)(=O)[O-])cc6)c6ccc([nH]6)c(-c6ccc(S(=O)(=O)[O-])cc6)c6nc(c(-c7ccc(S(=O)(=O)[O-])cc7)c7ccc4[nH]7)C=C6)C=C5)cc3)nc3ccccc23)cc1
REMARK SMILES IDX 16 1 15 2 14 3 13 4 12 5 10 6 11 7 9 9 7 10 8 11 88 12 83 13
REMARK SMILES IDX 87 14 82 15 84 16 86 17 85 18 6 19 5 20 1 21 2 22 3 23 90 24
REMARK SMILES IDX 4 25 89 26 17 27 18 28 19 29 20 30 21 32 22 33 23 34 81 35
REMARK SMILES IDX 24 36 80 37 25 38 26 39 27 40 74 41 28 42 79 43 73 44 75 45
REMARK SMILES IDX 29 46 78 47 72 48 71 49 30 51 60 52 41 53 59 54 42 55 45 56
REMARK SMILES IDX 58 57 76 58 43 59 44 60 57 62 77 63 46 64 31 65 32 66 40 67
REMARK SMILES IDX 33 68 39 69 34 70 35 71 36 72 37 73 38 74 61 75 62 76 70 77
REMARK SMILES IDX 63 78 69 79 64 80 65 81 66 82 67 83 68 84 47 85 48 86 56 87
REMARK SMILES IDX 49 88 55 89 50 90 51 91 52 92 53 93 54 94
REMARK H PARENT 12 8 19 31 75 50 45 61
REMARK Flexibility Score: inf
ROOT
ATOM      1  C   UNL     1      -9.036   7.533   1.996  1.00  0.00     0.002 C 
ENDROOT
BRANCH   1   2
ATOM      2  C   UNL     1      -9.459   6.231   1.296  1.00  0.00     0.002 C 
BRANCH   2   3
ATOM      3  C   UNL     1      -8.400   5.537   0.427  1.00  0.00     0.021 C 
BRANCH   3   4
ATOM      4  C   UNL     1      -7.039   5.331   1.095  1.00  0.00     0.116 C 
BRANCH   4   5
ATOM      5  N   UNL     1      -7.015   4.160   1.957  1.00  0.00    -0.351 N 
ATOM      6  C   UNL     1      -6.302   2.982   1.891  1.00  0.00     0.270 C 
ATOM      7  O   UNL     1      -6.436   2.182   2.822  1.00  0.00    -0.268 OA
ATOM      8  H   UNL     1      -7.619   4.220   2.732  1.00  0.00     0.163 HD
BRANCH   6   9
ATOM      9  C   UNL     1      -5.369   2.630   0.765  1.00  0.00     0.132 A 
ATOM     10  C   UNL     1      -3.774   1.146  -0.195  1.00  0.00     0.139 A 
ATOM     11  C   UNL     1      -4.651   1.449   0.842  1.00  0.00     0.082 A 
ATOM     12  C   UNL     1      -3.667   1.987  -1.325  1.00  0.00     0.043 A 
ATOM     13  C   UNL     1      -4.421   3.174  -1.288  1.00  0.00     0.075 A 
ATOM     14  C   UNL     1      -2.855   1.728  -2.457  1.00  0.00     0.014 A 
ATOM     15  N   UNL     1      -5.245   3.481  -0.277  1.00  0.00    -0.242 NA
ATOM     16  C   UNL     1      -4.302   4.079  -2.333  1.00  0.00     0.029 A 
ATOM     17  C   UNL     1      -2.750   2.653  -3.494  1.00  0.00     0.001 A 
ATOM     18  C   UNL     1      -3.468   3.838  -3.427  1.00  0.00     0.002 A 
BRANCH  10  19
ATOM     19  O   UNL     1      -3.068  -0.031  -0.064  1.00  0.00    -0.457 OA
BRANCH  19  20
ATOM     20  C   UNL     1      -1.694   0.032   0.058  1.00  0.00     0.127 A 
ATOM     21  C   UNL     1       2.614  -0.117   0.091  1.00  0.00     0.044 C 
ATOM     22  C   UNL     1       1.115  -0.064   0.106  1.00  0.00    -0.051 A 
ATOM     23  C   UNL     1       0.369  -1.233  -0.087  1.00  0.00     0.007 A 
ATOM     24  C   UNL     1       0.442   1.142   0.327  1.00  0.00     0.007 A 
ATOM     25  C   UNL     1      -1.027  -1.183  -0.114  1.00  0.00     0.047 A 
ATOM     26  C   UNL     1      -0.955   1.189   0.317  1.00  0.00     0.047 A 
ENDBRANCH  19  20
ENDBRANCH  10  19
ENDBRANCH   6   9
ENDBRANCH   4   5
ENDBRANCH   3   4
ENDBRANCH   2   3
ENDBRANCH   1   2
BRANCH   1  27
ATOM     27  C   UNL     1      -8.358   8.590   1.120  1.00  0.00     0.021 C 
BRANCH  27  28
ATOM     28  C   UNL     1      -9.318   9.345   0.205  1.00  0.00     0.116 C 
BRANCH  28  29
ATOM     29  N   UNL     1      -9.423  10.769   0.540  1.00  0.00    -0.352 N 
ATOM     30  C   UNL     1      -9.950  11.792  -0.226  1.00  0.00     0.251 C 
ATOM     31  H   UNL     1      -9.074  11.030   1.423  1.00  0.00     0.163 HD
ATOM     32  O   UNL     1      -9.943  12.974   0.098  1.00  0.00    -0.269 OA
BRANCH  30  33
ATOM     33  C   UNL     1     -10.657  11.383  -1.449  1.00  0.00     0.039 A 
ATOM     34  C   UNL     1     -12.052  11.310  -1.363  1.00  0.00     0.014 A 
ATOM     35  C   UNL     1      -9.938  10.711  -2.435  1.00  0.00     0.014 A 
ATOM     36  C   UNL     1     -12.712  10.362  -2.127  1.00  0.00     0.010 A 
ATOM     37  C   UNL     1     -10.585   9.708  -3.128  1.00  0.00     0.010 A 
ATOM     38  C   UNL     1     -11.950   9.489  -2.909  1.00  0.00    -0.014 A 
BRANCH  38  39
ATOM     39  C   UNL     1     -12.516   8.246  -3.411  1.00  0.00     0.031 A 
ATOM     40  C   UNL     1     -12.994   8.203  -4.801  1.00  0.00     0.074 A 
ATOM     41  C   UNL     1     -12.709   7.196  -2.583  1.00  0.00     0.049 A 
ATOM     42  N   UNL     1     -14.087   7.629  -5.177  1.00  0.00    -0.248 NA
ATOM     43  C   UNL     1     -12.290   8.898  -5.872  1.00  0.00     0.031 C 
ATOM     44  C   UNL     1     -13.225   5.880  -2.949  1.00  0.00     0.029 A 
ATOM     45  N   UNL     1     -12.716   7.191  -1.185  1.00  0.00    -0.354 N 
ATOM     46  C   UNL     1     -14.083   7.635  -6.553  1.00  0.00     0.074 A 
ATOM     47  C   UNL     1     -13.007   8.524  -6.933  1.00  0.00     0.031 C 
ATOM     48  C   UNL     1     -13.795   5.336  -1.861  1.00  0.00     0.029 A 
ATOM     49  C   UNL     1     -13.742   6.324  -0.793  1.00  0.00     0.049 A 
ATOM     50  H   UNL     1     -12.116   7.699  -0.592  1.00  0.00     0.167 HD
ATOM     51  C   UNL     1     -14.861   6.759  -7.248  1.00  0.00     0.031 A 
ATOM     52  C   UNL     1     -14.788   6.699  -0.006  1.00  0.00     0.031 A 
ATOM     53  C   UNL     1     -15.652   5.915  -6.357  1.00  0.00     0.049 A 
ATOM     54  C   UNL     1     -16.123   6.509  -0.696  1.00  0.00     0.074 A 
ATOM     55  C   UNL     1     -15.449   4.632  -5.874  1.00  0.00     0.029 A 
ATOM     56  N   UNL     1     -16.645   6.480  -5.564  1.00  0.00    -0.354 N 
ATOM     57  N   UNL     1     -16.261   6.338  -1.984  1.00  0.00    -0.248 NA
ATOM     58  C   UNL     1     -17.405   6.521   0.002  1.00  0.00     0.031 C 
ATOM     59  C   UNL     1     -16.267   4.458  -4.728  1.00  0.00     0.029 A 
ATOM     60  C   UNL     1     -16.994   5.620  -4.537  1.00  0.00     0.049 A 
ATOM     61  H   UNL     1     -17.045   7.368  -5.712  1.00  0.00     0.167 HD
ATOM     62  C   UNL     1     -17.591   6.197  -2.292  1.00  0.00     0.074 A 
ATOM     63  C   UNL     1     -18.266   6.317  -1.011  1.00  0.00     0.031 C 
ATOM     64  C   UNL     1     -18.025   5.983  -3.571  1.00  0.00     0.031 A 
BRANCH  51  65
ATOM     65  C   UNL     1     -14.553   6.446  -8.696  1.00  0.00    -0.014 A 
ATOM     66  C   UNL     1     -14.613   5.116  -9.154  1.00  0.00     0.010 A 
ATOM     67  C   UNL     1     -14.096   7.408  -9.618  1.00  0.00     0.010 A 
ATOM     68  C   UNL     1     -14.104   4.743 -10.406  1.00  0.00     0.020 A 
ATOM     69  C   UNL     1     -13.537   7.044 -10.853  1.00  0.00     0.020 A 
ATOM     70  C   UNL     1     -13.527   5.705 -11.232  1.00  0.00     0.054 A 
BRANCH  70  71
ATOM     71  S   UNL     1     -12.737   5.181 -12.777  1.00  0.00     0.124 S 
ATOM     72  O   UNL     1     -11.853   4.105 -12.334  1.00  0.00    -0.237 OA
ATOM     73  O   UNL     1     -13.880   4.765 -13.584  1.00  0.00    -0.237 OA
ATOM     74  O   UNL     1     -12.051   6.385 -13.240  1.00  0.00    -0.744 OA
ENDBRANCH  70  71
ENDBRANCH  51  65
BRANCH  52  75
ATOM     75  C   UNL     1     -14.478   7.722   1.031  1.00  0.00    -0.014 A 
ATOM     76  C   UNL     1     -13.700   7.319   2.138  1.00  0.00     0.010 A 
ATOM     77  C   UNL     1     -14.640   9.097   0.793  1.00  0.00     0.010 A 
ATOM     78  C   UNL     1     -13.018   8.255   2.923  1.00  0.00     0.020 A 
ATOM     79  C   UNL     1     -13.948  10.040   1.575  1.00  0.00     0.020 A 
ATOM     80  C   UNL     1     -13.106   9.609   2.605  1.00  0.00     0.054 A 
BRANCH  80  81
ATOM     81  S   UNL     1     -12.072  10.789   3.530  1.00  0.00     0.124 S 
ATOM     82  O   UNL     1     -12.271  10.366   4.914  1.00  0.00    -0.237 OA
ATOM     83  O   UNL     1     -10.740  10.530   2.987  1.00  0.00    -0.237 OA
ATOM     84  O   UNL     1     -12.651  12.082   3.184  1.00  0.00    -0.744 OA
ENDBRANCH  80  81
ENDBRANCH  52  75
BRANCH  64  85
ATOM     85  C   UNL     1     -19.464   5.980  -4.046  1.00  0.00    -0.014 A 
ATOM     86  C   UNL     1     -20.529   6.589  -3.367  1.00  0.00     0.010 A 
ATOM     87  C   UNL     1     -19.755   5.430  -5.320  1.00  0.00     0.010 A 
ATOM     88  C   UNL     1     -21.826   6.604  -3.906  1.00  0.00     0.020 A 
ATOM     89  C   UNL     1     -21.031   5.480  -5.888  1.00  0.00     0.020 A 
ATOM     90  C   UNL     1     -22.069   6.050  -5.164  1.00  0.00     0.054 A 
BRANCH  90  91
ATOM     91  S   UNL     1     -23.724   6.150  -5.892  1.00  0.00     0.124 S 
ATOM     92  O   UNL     1     -24.354   4.938  -5.376  1.00  0.00    -0.237 OA
ATOM     93  O   UNL     1     -24.244   7.405  -5.353  1.00  0.00    -0.237 OA
ATOM     94  O   UNL     1     -23.464   6.160  -7.329  1.00  0.00    -0.744 OA
ENDBRANCH  90  91
ENDBRANCH  64  85
ENDBRANCH  38  39
ENDBRANCH  30  33
ENDBRANCH  28  29
ENDBRANCH  27  28
ENDBRANCH   1  27
TORSDOF 18
