REMARK SMILES CCc1ccc(S(=O)(=O)c2nnn(-c3ccc(C(=O)NCCCCCCNC(=O)c4ccc(-c5c6nc(c(-c7ccc(S(=O)(=O)[O-])cc7)c7ccc([nH]7)c(-c7ccc(S(=O)(=O)[O-])cc7)c7nc(c(-c8ccc(S(=O)(=O)[O-])cc8)c8ccc5[nH]8)C=C7)C=C6)cc4)cc3)c2C)cc1
REMARK SMILES IDX 23 1 22 2 21 3 20 4 18 5 19 6 17 8 14 9 15 10 91 11 16 12
REMARK SMILES IDX 90 13 13 14 10 15 11 16 92 17 12 18 93 19 7 20 8 21 9 22
REMARK SMILES IDX 6 23 3 24 4 25 95 26 5 27 94 28 2 29 1 30 24 31 25 32 26 33
REMARK SMILES IDX 27 34 28 35 29 37 30 38 31 39 89 40 32 41 88 42 33 43 34 44
REMARK SMILES IDX 35 45 82 46 36 47 87 48 81 49 83 50 37 51 86 52 80 53 79 54
REMARK SMILES IDX 38 56 68 57 49 58 67 59 50 60 53 61 66 62 84 63 51 64 52 65
REMARK SMILES IDX 65 67 85 68 54 69 39 70 40 71 48 72 41 73 47 74 42 75 43 76
REMARK SMILES IDX 44 77 45 78 46 79 69 80 70 81 78 82 71 83 77 84 72 85 73 86
REMARK SMILES IDX 74 87 75 88 76 89 55 90 56 91 64 92 57 93 63 94 58 95 59 96
REMARK SMILES IDX 60 97 61 98 62 99
REMARK H PARENT 20 7 27 36 83 55 53 66
REMARK Flexibility Score: inf
ROOT
ATOM      1  C   UNL     1       6.430  14.671  -2.577  1.00  0.00     0.002 C 
ENDROOT
BRANCH   1   2
ATOM      2  C   UNL     1       5.804  13.366  -3.087  1.00  0.00     0.021 C 
BRANCH   2   3
ATOM      3  C   UNL     1       4.979  12.628  -2.029  1.00  0.00     0.116 C 
BRANCH   3   4
ATOM      4  N   UNL     1       3.663  13.226  -1.897  1.00  0.00    -0.352 N 
ATOM      5  C   UNL     1       2.416  12.847  -2.326  1.00  0.00     0.251 C 
ATOM      6  O   UNL     1       1.464  13.558  -2.002  1.00  0.00    -0.269 OA
ATOM      7  H   UNL     1       3.666  14.075  -1.397  1.00  0.00     0.163 HD
BRANCH   5   8
ATOM      8  C   UNL     1       2.156  11.587  -3.080  1.00  0.00     0.039 A 
ATOM      9  C   UNL     1       1.589   9.082  -4.195  1.00  0.00     0.067 A 
ATOM     10  C   UNL     1       0.572   9.789  -3.555  1.00  0.00     0.029 A 
ATOM     11  C   UNL     1       2.842   9.668  -4.391  1.00  0.00     0.029 A 
ATOM     12  C   UNL     1       0.871  11.024  -2.970  1.00  0.00     0.016 A 
ATOM     13  C   UNL     1       3.100  10.941  -3.881  1.00  0.00     0.016 A 
BRANCH   9  14
ATOM     14  N   UNL     1       1.367   7.760  -4.626  1.00  0.00    -0.216 N 
ATOM     15  C   UNL     1       1.551   5.662  -5.157  1.00  0.00     0.205 A 
ATOM     16  N   UNL     1       0.331   6.117  -5.582  1.00  0.00    -0.117 NA
ATOM     17  C   UNL     1       2.185   6.659  -4.432  1.00  0.00     0.081 A 
ATOM     18  N   UNL     1       0.191   7.367  -5.161  1.00  0.00    -0.061 NA
ATOM     19  C   UNL     1       3.332   6.623  -3.490  1.00  0.00     0.070 C 
BRANCH  15  20
ATOM     20  S   UNL     1       2.002   3.999  -5.285  1.00  0.00     0.227 S 
ATOM     21  O   UNL     1       3.445   4.012  -5.358  1.00  0.00    -0.217 OA
ATOM     22  O   UNL     1       1.166   3.432  -6.329  1.00  0.00    -0.217 OA
BRANCH  20  23
ATOM     23  C   UNL     1       1.550   3.224  -3.756  1.00  0.00     0.073 A 
ATOM     24  C   UNL     1       0.935   1.929  -1.343  1.00  0.00    -0.048 A 
ATOM     25  C   UNL     1       1.700   1.282  -2.324  1.00  0.00     0.005 A 
ATOM     26  C   UNL     1       0.491   3.238  -1.591  1.00  0.00     0.005 A 
ATOM     27  C   UNL     1       2.013   1.927  -3.524  1.00  0.00     0.021 A 
ATOM     28  C   UNL     1       0.785   3.882  -2.792  1.00  0.00     0.021 A 
BRANCH  24  29
ATOM     29  C   UNL     1       0.545   1.295  -0.027  1.00  0.00     0.032 C 
ATOM     30  C   UNL     1       1.010  -0.134   0.212  1.00  0.00     0.009 C 
ENDBRANCH  24  29
ENDBRANCH  20  23
ENDBRANCH  15  20
ENDBRANCH   9  14
ENDBRANCH   5   8
ENDBRANCH   3   4
ENDBRANCH   2   3
ENDBRANCH   1   2
BRANCH   1  31
ATOM     31  C   UNL     1       7.380  14.528  -1.377  1.00  0.00     0.002 C 
BRANCH  31  32
ATOM     32  C   UNL     1       8.490  13.476  -1.515  1.00  0.00     0.021 C 
BRANCH  32  33
ATOM     33  C   UNL     1       9.523  13.813  -2.581  1.00  0.00     0.116 C 
BRANCH  33  34
ATOM     34  N   UNL     1      10.315  14.986  -2.222  1.00  0.00    -0.352 N 
ATOM     35  C   UNL     1      11.261  15.647  -2.976  1.00  0.00     0.251 C 
ATOM     36  H   UNL     1      10.152  15.353  -1.323  1.00  0.00     0.163 HD
ATOM     37  O   UNL     1      12.083  16.379  -2.436  1.00  0.00    -0.269 OA
BRANCH  35  38
ATOM     38  C   UNL     1      11.282  15.440  -4.434  1.00  0.00     0.039 A 
ATOM     39  C   UNL     1      12.489  15.243  -5.108  1.00  0.00     0.014 A 
ATOM     40  C   UNL     1      10.072  15.402  -5.122  1.00  0.00     0.014 A 
ATOM     41  C   UNL     1      12.459  14.915  -6.463  1.00  0.00     0.010 A 
ATOM     42  C   UNL     1      10.039  14.950  -6.423  1.00  0.00     0.010 A 
ATOM     43  C   UNL     1      11.228  14.737  -7.117  1.00  0.00    -0.014 A 
BRANCH  43  44
ATOM     44  C   UNL     1      11.197  14.253  -8.499  1.00  0.00     0.031 A 
ATOM     45  C   UNL     1      12.039  13.059  -8.798  1.00  0.00     0.074 A 
ATOM     46  C   UNL     1      10.348  14.704  -9.447  1.00  0.00     0.049 A 
ATOM     47  N   UNL     1      13.098  13.005  -9.537  1.00  0.00    -0.248 NA
ATOM     48  C   UNL     1      11.715  11.790  -8.128  1.00  0.00     0.031 C 
ATOM     49  C   UNL     1       9.238  15.654  -9.316  1.00  0.00     0.029 A 
ATOM     50  N   UNL     1      10.247  14.303 -10.745  1.00  0.00    -0.354 N 
ATOM     51  C   UNL     1      13.478  11.666  -9.584  1.00  0.00     0.074 A 
ATOM     52  C   UNL     1      12.676  10.989  -8.594  1.00  0.00     0.031 C 
ATOM     53  C   UNL     1       8.437  15.567 -10.401  1.00  0.00     0.029 A 
ATOM     54  C   UNL     1       9.084  14.715 -11.379  1.00  0.00     0.049 A 
ATOM     55  H   UNL     1      10.940  13.767 -11.194  1.00  0.00     0.167 HD
ATOM     56  C   UNL     1      14.288  11.174 -10.565  1.00  0.00     0.031 A 
ATOM     57  C   UNL     1       8.672  14.380 -12.624  1.00  0.00     0.031 A 
ATOM     58  C   UNL     1      14.924  12.223 -11.317  1.00  0.00     0.049 A 
ATOM     59  C   UNL     1       9.873  13.969 -13.386  1.00  0.00     0.074 A 
ATOM     60  C   UNL     1      15.783  13.260 -11.011  1.00  0.00     0.029 A 
ATOM     61  N   UNL     1      14.388  12.531 -12.546  1.00  0.00    -0.354 N 
ATOM     62  N   UNL     1      10.841  14.787 -13.691  1.00  0.00    -0.248 NA
ATOM     63  C   UNL     1      10.205  12.557 -13.462  1.00  0.00     0.031 C 
ATOM     64  C   UNL     1      15.344  14.350 -11.820  1.00  0.00     0.029 A 
ATOM     65  C   UNL     1      14.286  13.897 -12.612  1.00  0.00     0.049 A 
ATOM     66  H   UNL     1      14.126  11.890 -13.246  1.00  0.00     0.167 HD
ATOM     67  C   UNL     1      11.997  14.030 -13.579  1.00  0.00     0.074 A 
ATOM     68  C   UNL     1      11.535  12.644 -13.554  1.00  0.00     0.031 C 
ATOM     69  C   UNL     1      13.193  14.604 -13.249  1.00  0.00     0.031 A 
BRANCH  56  70
ATOM     70  C   UNL     1      14.237   9.754 -11.075  1.00  0.00    -0.014 A 
ATOM     71  C   UNL     1      15.203   9.321 -12.008  1.00  0.00     0.010 A 
ATOM     72  C   UNL     1      13.118   8.919 -10.879  1.00  0.00     0.010 A 
ATOM     73  C   UNL     1      15.024   8.144 -12.750  1.00  0.00     0.020 A 
ATOM     74  C   UNL     1      12.952   7.723 -11.581  1.00  0.00     0.020 A 
ATOM     75  C   UNL     1      13.889   7.361 -12.540  1.00  0.00     0.054 A 
BRANCH  75  76
ATOM     76  S   UNL     1      13.604   5.909 -13.584  1.00  0.00     0.124 S 
ATOM     77  O   UNL     1      13.360   6.520 -14.887  1.00  0.00    -0.237 OA
ATOM     78  O   UNL     1      14.861   5.179 -13.451  1.00  0.00    -0.237 OA
ATOM     79  O   UNL     1      12.447   5.266 -12.965  1.00  0.00    -0.744 OA
ENDBRANCH  75  76
ENDBRANCH  56  70
BRANCH  57  80
ATOM     80  C   UNL     1       7.288  14.141 -13.088  1.00  0.00    -0.014 A 
ATOM     81  C   UNL     1       6.984  14.088 -14.459  1.00  0.00     0.010 A 
ATOM     82  C   UNL     1       6.316  13.679 -12.176  1.00  0.00     0.010 A 
ATOM     83  C   UNL     1       5.779  13.524 -14.906  1.00  0.00     0.020 A 
ATOM     84  C   UNL     1       5.110  13.122 -12.614  1.00  0.00     0.020 A 
ATOM     85  C   UNL     1       4.859  13.023 -13.980  1.00  0.00     0.054 A 
BRANCH  85  86
ATOM     86  S   UNL     1       3.401  12.117 -14.575  1.00  0.00     0.124 S 
ATOM     87  O   UNL     1       2.583  13.185 -15.142  1.00  0.00    -0.237 OA
ATOM     88  O   UNL     1       3.979  11.183 -15.537  1.00  0.00    -0.237 OA
ATOM     89  O   UNL     1       2.864  11.499 -13.363  1.00  0.00    -0.744 OA
ENDBRANCH  85  86
ENDBRANCH  57  80
BRANCH  69  90
ATOM     90  C   UNL     1      13.309  16.113 -13.304  1.00  0.00    -0.014 A 
ATOM     91  C   UNL     1      12.522  16.987 -12.527  1.00  0.00     0.010 A 
ATOM     92  C   UNL     1      14.361  16.659 -14.061  1.00  0.00     0.010 A 
ATOM     93  C   UNL     1      12.766  18.369 -12.530  1.00  0.00     0.020 A 
ATOM     94  C   UNL     1      14.621  18.032 -14.055  1.00  0.00     0.020 A 
ATOM     95  C   UNL     1      13.816  18.883 -13.296  1.00  0.00     0.054 A 
BRANCH  95  96
ATOM     96  S   UNL     1      14.162  20.665 -13.256  1.00  0.00     0.124 S 
ATOM     97  O   UNL     1      13.017  21.227 -13.968  1.00  0.00    -0.237 OA
ATOM     98  O   UNL     1      14.217  20.955 -11.825  1.00  0.00    -0.237 OA
ATOM     99  O   UNL     1      15.442  20.788 -13.953  1.00  0.00    -0.744 OA
ENDBRANCH  95  96
ENDBRANCH  69  90
ENDBRANCH  43  44
ENDBRANCH  35  38
ENDBRANCH  33  34
ENDBRANCH  32  33
ENDBRANCH  31  32
ENDBRANCH   1  31
TORSDOF 20
