REMARK SMILES O=C(NCCCCCCNC(=O)[C@H]1CC[C@H]2CCCC[C@@H]2[N@H+]1[C@@H]1CCCSC1)c1ccc(-c2c3nc(c(-c4ccc(S(=O)(=O)[O-])cc4)c4ccc([nH]4)c(-c4ccc(S(=O)(=O)[O-])cc4)c4nc(c(-c5ccc(S(=O)(=O)[O-])cc5)c5ccc2[nH]5)C=C4)C=C3)cc1
REMARK SMILES IDX 5 1 4 2 3 3 1 4 2 5 29 7 30 8 88 9 31 10 87 11 32 12 33 13
REMARK SMILES IDX 34 14 81 15 35 16 86 17 80 18 82 19 36 20 85 21 79 22 78 23
REMARK SMILES IDX 37 25 67 26 48 27 66 28 49 29 52 30 65 31 83 32 50 33 51 34
REMARK SMILES IDX 64 36 84 37 53 38 38 39 39 40 47 41 40 42 46 43 41 44 42 45
REMARK SMILES IDX 43 46 44 47 45 48 68 49 69 50 77 51 70 52 76 53 71 54 72 55
REMARK SMILES IDX 73 56 74 57 75 58 54 59 55 60 63 61 56 62 62 63 57 64 58 65
REMARK SMILES IDX 59 66 60 67 61 68 6 69 7 70 8 71 9 72 10 73 11 74 12 76
REMARK SMILES IDX 13 77 14 78 22 79 15 80 21 81 16 83 20 84 17 85 19 86 18 87
REMARK SMILES IDX 23 88 24 89 28 90 25 91 27 92 26 93
REMARK H PARENT 3 6 82 24 52 35 10 75 22 82
REMARK Flexibility Score: inf
ROOT
ATOM      1  C   UNL     1       4.369  -2.386  -1.399  1.00  0.00     0.021 C 
ENDROOT
BRANCH   1   2
ATOM      2  C   UNL     1       4.214  -0.891  -1.153  1.00  0.00     0.116 C 
BRANCH   2   3
ATOM      3  N   UNL     1       2.825  -0.480  -1.053  1.00  0.00    -0.352 N 
ATOM      4  O   UNL     1       0.956   0.302  -0.073  1.00  0.00    -0.269 OA
ATOM      5  C   UNL     1       2.174   0.179  -0.037  1.00  0.00     0.251 C 
ATOM      6  H   UNL     1       2.264  -0.708  -1.830  1.00  0.00     0.163 HD
BRANCH   5   7
ATOM      7  C   UNL     1       2.942   0.717   1.109  1.00  0.00     0.039 A 
ATOM      8  C   UNL     1       4.146   1.396   0.911  1.00  0.00     0.014 A 
ATOM      9  C   UNL     1       2.440   0.548   2.403  1.00  0.00     0.014 A 
ATOM     10  C   UNL     1       4.916   1.771   2.006  1.00  0.00     0.010 A 
ATOM     11  C   UNL     1       3.174   1.008   3.501  1.00  0.00     0.010 A 
ATOM     12  C   UNL     1       4.436   1.593   3.314  1.00  0.00    -0.014 A 
BRANCH  12  13
ATOM     13  C   UNL     1       5.252   2.076   4.459  1.00  0.00     0.031 A 
ATOM     14  C   UNL     1       5.811   1.121   5.479  1.00  0.00     0.074 A 
ATOM     15  C   UNL     1       5.522   3.394   4.549  1.00  0.00     0.049 A 
ATOM     16  N   UNL     1       6.594   1.374   6.497  1.00  0.00    -0.248 NA
ATOM     17  C   UNL     1       5.441  -0.297   5.348  1.00  0.00     0.031 C 
ATOM     18  C   UNL     1       5.028   4.420   3.625  1.00  0.00     0.029 A 
ATOM     19  N   UNL     1       6.298   4.094   5.436  1.00  0.00    -0.354 N 
ATOM     20  C   UNL     1       6.788   0.158   7.144  1.00  0.00     0.074 A 
ATOM     21  C   UNL     1       6.025  -0.831   6.413  1.00  0.00     0.031 C 
ATOM     22  C   UNL     1       5.567   5.603   3.952  1.00  0.00     0.029 A 
ATOM     23  C   UNL     1       6.390   5.435   5.144  1.00  0.00     0.049 A 
ATOM     24  H   UNL     1       6.747   3.678   6.207  1.00  0.00     0.167 HD
ATOM     25  C   UNL     1       7.532  -0.109   8.245  1.00  0.00     0.031 A 
ATOM     26  C   UNL     1       7.058   6.425   5.765  1.00  0.00     0.031 A 
ATOM     27  C   UNL     1       8.295   0.878   8.966  1.00  0.00     0.049 A 
ATOM     28  C   UNL     1       7.866   6.103   6.987  1.00  0.00     0.074 A 
ATOM     29  C   UNL     1       9.114   0.698  10.067  1.00  0.00     0.029 A 
ATOM     30  N   UNL     1       8.327   2.232   8.663  1.00  0.00    -0.354 N 
ATOM     31  N   UNL     1       8.066   4.939   7.558  1.00  0.00    -0.248 NA
ATOM     32  C   UNL     1       8.539   7.227   7.648  1.00  0.00     0.031 C 
ATOM     33  C   UNL     1       9.602   1.949  10.461  1.00  0.00     0.029 A 
ATOM     34  C   UNL     1       9.132   2.902   9.571  1.00  0.00     0.049 A 
ATOM     35  H   UNL     1       7.849   2.654   7.914  1.00  0.00     0.167 HD
ATOM     36  C   UNL     1       8.905   5.188   8.637  1.00  0.00     0.074 A 
ATOM     37  C   UNL     1       9.189   6.610   8.626  1.00  0.00     0.031 C 
ATOM     38  C   UNL     1       9.397   4.318   9.553  1.00  0.00     0.031 A 
BRANCH  25  39
ATOM     39  C   UNL     1       7.532  -1.525   8.762  1.00  0.00    -0.014 A 
ATOM     40  C   UNL     1       8.198  -2.557   8.078  1.00  0.00     0.010 A 
ATOM     41  C   UNL     1       6.884  -1.819   9.977  1.00  0.00     0.010 A 
ATOM     42  C   UNL     1       8.179  -3.864   8.574  1.00  0.00     0.020 A 
ATOM     43  C   UNL     1       6.883  -3.119  10.490  1.00  0.00     0.020 A 
ATOM     44  C   UNL     1       7.515  -4.138   9.775  1.00  0.00     0.054 A 
BRANCH  44  45
ATOM     45  S   UNL     1       7.512  -5.841  10.401  1.00  0.00     0.124 S 
ATOM     46  O   UNL     1       6.556  -6.487   9.505  1.00  0.00    -0.237 OA
ATOM     47  O   UNL     1       8.905  -6.248  10.233  1.00  0.00    -0.237 OA
ATOM     48  O   UNL     1       7.071  -5.700  11.787  1.00  0.00    -0.744 OA
ENDBRANCH  44  45
ENDBRANCH  25  39
BRANCH  26  49
ATOM     49  C   UNL     1       6.989   7.810   5.229  1.00  0.00    -0.014 A 
ATOM     50  C   UNL     1       8.113   8.395   4.620  1.00  0.00     0.010 A 
ATOM     51  C   UNL     1       5.788   8.540   5.295  1.00  0.00     0.010 A 
ATOM     52  C   UNL     1       8.039   9.688   4.094  1.00  0.00     0.020 A 
ATOM     53  C   UNL     1       5.702   9.821   4.745  1.00  0.00     0.020 A 
ATOM     54  C   UNL     1       6.832  10.391   4.157  1.00  0.00     0.054 A 
BRANCH  54  55
ATOM     55  S   UNL     1       6.740  12.043   3.413  1.00  0.00     0.124 S 
ATOM     56  O   UNL     1       7.449  12.857   4.394  1.00  0.00    -0.237 OA
ATOM     57  O   UNL     1       7.423  11.852   2.135  1.00  0.00    -0.237 OA
ATOM     58  O   UNL     1       5.304  12.291   3.310  1.00  0.00    -0.744 OA
ENDBRANCH  54  55
ENDBRANCH  26  49
BRANCH  38  59
ATOM     59  C   UNL     1      10.318   4.880  10.601  1.00  0.00    -0.014 A 
ATOM     60  C   UNL     1       9.831   5.685  11.645  1.00  0.00     0.010 A 
ATOM     61  C   UNL     1      11.691   4.576  10.551  1.00  0.00     0.010 A 
ATOM     62  C   UNL     1      10.707   6.212  12.598  1.00  0.00     0.020 A 
ATOM     63  C   UNL     1      12.566   5.079  11.516  1.00  0.00     0.020 A 
ATOM     64  C   UNL     1      12.071   5.909  12.523  1.00  0.00     0.054 A 
BRANCH  64  65
ATOM     65  S   UNL     1      13.188   6.585  13.782  1.00  0.00     0.124 S 
ATOM     66  O   UNL     1      13.320   7.975  13.355  1.00  0.00    -0.237 OA
ATOM     67  O   UNL     1      12.442   6.376  15.021  1.00  0.00    -0.237 OA
ATOM     68  O   UNL     1      14.395   5.773  13.645  1.00  0.00    -0.744 OA
ENDBRANCH  64  65
ENDBRANCH  38  59
ENDBRANCH  12  13
ENDBRANCH   5   7
ENDBRANCH   2   3
ENDBRANCH   1   2
BRANCH   1  69
ATOM     69  C   UNL     1       3.736  -2.910  -2.689  1.00  0.00     0.002 C 
BRANCH  69  70
ATOM     70  C   UNL     1       4.192  -2.235  -3.991  1.00  0.00     0.002 C 
BRANCH  70  71
ATOM     71  C   UNL     1       5.703  -2.086  -4.182  1.00  0.00     0.021 C 
BRANCH  71  72
ATOM     72  C   UNL     1       6.490  -3.381  -4.051  1.00  0.00     0.116 C 
BRANCH  72  73
ATOM     73  N   UNL     1       6.565  -4.150  -5.268  1.00  0.00    -0.351 N 
ATOM     74  C   UNL     1       7.609  -4.849  -5.799  1.00  0.00     0.278 C 
ATOM     75  H   UNL     1       5.735  -4.174  -5.798  1.00  0.00     0.163 HD
ATOM     76  O   UNL     1       7.321  -5.637  -6.711  1.00  0.00    -0.268 OA
BRANCH  74  77
ATOM     77  C   UNL     1       9.090  -4.673  -5.358  1.00  0.00     0.274 C 
ATOM     78  C   UNL     1       9.628  -3.231  -5.339  1.00  0.00     0.076 C 
ATOM     79  N   UNL     1       9.541  -5.567  -4.255  1.00  0.00    -0.319 N 
ATOM     80  C   UNL     1      11.043  -3.131  -4.753  1.00  0.00     0.016 C 
ATOM     81  C   UNL     1      11.010  -5.575  -4.099  1.00  0.00     0.188 C 
ATOM     82  H   UNL     1       9.262  -6.486  -4.598  1.00  0.00     0.349 HD
ATOM     83  C   UNL     1      11.762  -4.469  -4.881  1.00  0.00     0.048 C 
ATOM     84  C   UNL     1      11.612  -6.926  -4.521  1.00  0.00     0.065 C 
ATOM     85  C   UNL     1      13.210  -4.426  -4.384  1.00  0.00     0.010 C 
ATOM     86  C   UNL     1      13.098  -6.975  -4.146  1.00  0.00     0.006 C 
ATOM     87  C   UNL     1      13.897  -5.769  -4.651  1.00  0.00     0.001 C 
BRANCH  79  88
ATOM     88  C   UNL     1       8.792  -5.538  -2.975  1.00  0.00     0.194 C 
ATOM     89  C   UNL     1       9.147  -4.366  -2.026  1.00  0.00     0.067 C 
ATOM     90  C   UNL     1       8.937  -6.882  -2.219  1.00  0.00     0.134 C 
ATOM     91  C   UNL     1       8.207  -4.268  -0.824  1.00  0.00     0.017 C 
ATOM     92  S   UNL     1       7.805  -7.000  -0.790  1.00  0.00    -0.156 SA
ATOM     93  C   UNL     1       8.284  -5.484   0.086  1.00  0.00     0.070 C 
ENDBRANCH  79  88
ENDBRANCH  74  77
ENDBRANCH  72  73
ENDBRANCH  71  72
ENDBRANCH  70  71
ENDBRANCH  69  70
ENDBRANCH   1  69
TORSDOF 17
