REMARK SMILES O=C(CCc1nc(-c2ccccc2)c(-c2ccccc2)o1)NCCCCCCNC(=O)c1ccc(-c2c3nc(c(-c4ccc(S(=O)(=O)[O-])cc4)c4ccc([nH]4)c(-c4ccc(S(=O)(=O)[O-])cc4)c4nc(c(-c5ccc(S(=O)(=O)[O-])cc5)c5ccc2[nH]5)C=C4)C=C3)cc1
REMARK SMILES IDX 25 1 24 2 23 3 22 4 1 5 2 6 3 8 4 9 5 10 6 11 21 12 7 13
REMARK SMILES IDX 14 14 8 15 9 16 13 17 10 18 12 19 11 20 15 21 16 22 20 23
REMARK SMILES IDX 17 24 19 25 18 26 26 27 27 28 28 29 29 30 30 31 31 33 32 34
REMARK SMILES IDX 33 35 91 36 34 37 90 38 35 39 36 40 37 41 84 42 38 43 89 44
REMARK SMILES IDX 83 45 85 46 39 47 88 48 82 49 81 50 40 52 70 53 51 54 69 55
REMARK SMILES IDX 52 56 55 57 68 58 86 59 53 60 54 61 67 63 87 64 56 65 41 66
REMARK SMILES IDX 42 67 50 68 43 69 49 70 44 71 45 72 46 73 47 74 48 75 71 76
REMARK SMILES IDX 72 77 80 78 73 79 79 80 74 81 75 82 76 83 77 84 78 85 57 86
REMARK SMILES IDX 58 87 66 88 59 89 65 90 60 91 61 92 62 93 63 94 64 95
REMARK H PARENT 22 7 29 32 85 51 55 62
REMARK Flexibility Score: inf
ROOT
ATOM      1  C   UNL     1       3.907  -1.427  -3.655  1.00  0.00     0.002 C 
ENDROOT
BRANCH   1   2
ATOM      2  C   UNL     1       2.445  -1.046  -3.385  1.00  0.00     0.021 C 
BRANCH   2   3
ATOM      3  C   UNL     1       1.980  -1.255  -1.941  1.00  0.00     0.116 C 
BRANCH   3   4
ATOM      4  N   UNL     1       2.813  -0.525  -1.007  1.00  0.00    -0.356 N 
ATOM      5  O   UNL     1       1.133   0.204   0.380  1.00  0.00    -0.275 OA
ATOM      6  C   UNL     1       2.320   0.159   0.075  1.00  0.00     0.220 C 
ATOM      7  H   UNL     1       3.787  -0.519  -1.157  1.00  0.00     0.163 HD
BRANCH   6   8
ATOM      8  C   UNL     1       3.374   0.911   0.862  1.00  0.00     0.110 C 
BRANCH   8   9
ATOM      9  C   UNL     1       4.150   0.017   1.820  1.00  0.00     0.107 C 
BRANCH   9  10
ATOM     10  C   UNL     1       5.101  -0.890   1.123  1.00  0.00     0.196 A 
ATOM     11  N   UNL     1       5.036  -2.198   0.999  1.00  0.00    -0.213 NA
ATOM     12  O   UNL     1       6.139  -0.306   0.446  1.00  0.00    -0.440 OA
ATOM     13  C   UNL     1       6.119  -2.515   0.208  1.00  0.00     0.117 A 
ATOM     14  C   UNL     1       6.778  -1.357  -0.165  1.00  0.00     0.162 A 
BRANCH  13  15
ATOM     15  C   UNL     1       6.425  -3.869  -0.216  1.00  0.00     0.004 A 
ATOM     16  C   UNL     1       7.746  -4.311  -0.366  1.00  0.00     0.010 A 
ATOM     17  C   UNL     1       5.379  -4.754  -0.510  1.00  0.00     0.010 A 
ATOM     18  C   UNL     1       8.013  -5.591  -0.858  1.00  0.00     0.001 A 
ATOM     19  C   UNL     1       5.646  -6.027  -1.018  1.00  0.00     0.001 A 
ATOM     20  C   UNL     1       6.964  -6.441  -1.199  1.00  0.00     0.000 A 
ENDBRANCH  13  15
BRANCH  14  21
ATOM     21  C   UNL     1       7.861  -1.016  -1.074  1.00  0.00     0.020 A 
ATOM     22  C   UNL     1       8.965  -0.272  -0.649  1.00  0.00     0.012 A 
ATOM     23  C   UNL     1       7.830  -1.471  -2.399  1.00  0.00     0.012 A 
ATOM     24  C   UNL     1      10.020  -0.009  -1.531  1.00  0.00     0.001 A 
ATOM     25  C   UNL     1       8.872  -1.200  -3.285  1.00  0.00     0.001 A 
ATOM     26  C   UNL     1       9.972  -0.472  -2.847  1.00  0.00     0.000 A 
ENDBRANCH  14  21
ENDBRANCH   9  10
ENDBRANCH   8   9
ENDBRANCH   6   8
ENDBRANCH   3   4
ENDBRANCH   2   3
ENDBRANCH   1   2
BRANCH   1  27
ATOM     27  C   UNL     1       4.252  -2.881  -3.334  1.00  0.00     0.002 C 
BRANCH  27  28
ATOM     28  C   UNL     1       3.587  -3.930  -4.215  1.00  0.00     0.021 C 
BRANCH  28  29
ATOM     29  C   UNL     1       3.897  -3.797  -5.700  1.00  0.00     0.116 C 
BRANCH  29  30
ATOM     30  N   UNL     1       5.321  -3.883  -6.008  1.00  0.00    -0.352 N 
ATOM     31  C   UNL     1       5.940  -4.578  -7.021  1.00  0.00     0.251 C 
ATOM     32  H   UNL     1       5.918  -3.376  -5.412  1.00  0.00     0.163 HD
ATOM     33  O   UNL     1       7.165  -4.626  -7.089  1.00  0.00    -0.269 OA
BRANCH  31  34
ATOM     34  C   UNL     1       5.105  -5.299  -8.003  1.00  0.00     0.039 A 
ATOM     35  C   UNL     1       5.355  -6.651  -8.251  1.00  0.00     0.014 A 
ATOM     36  C   UNL     1       4.026  -4.654  -8.611  1.00  0.00     0.014 A 
ATOM     37  C   UNL     1       4.463  -7.381  -9.040  1.00  0.00     0.010 A 
ATOM     38  C   UNL     1       3.098  -5.400  -9.328  1.00  0.00     0.010 A 
ATOM     39  C   UNL     1       3.302  -6.772  -9.545  1.00  0.00    -0.014 A 
BRANCH  39  40
ATOM     40  C   UNL     1       2.276  -7.535 -10.300  1.00  0.00     0.031 A 
ATOM     41  C   UNL     1       1.962  -7.148 -11.721  1.00  0.00     0.074 A 
ATOM     42  C   UNL     1       1.552  -8.490  -9.681  1.00  0.00     0.049 A 
ATOM     43  N   UNL     1       0.998  -7.569 -12.496  1.00  0.00    -0.248 NA
ATOM     44  C   UNL     1       2.825  -6.125 -12.338  1.00  0.00     0.031 C 
ATOM     45  C   UNL     1       1.725  -8.927  -8.292  1.00  0.00     0.029 A 
ATOM     46  N   UNL     1       0.506  -9.254 -10.136  1.00  0.00    -0.354 N 
ATOM     47  C   UNL     1       1.109  -6.834 -13.670  1.00  0.00     0.074 A 
ATOM     48  C   UNL     1       2.216  -5.920 -13.497  1.00  0.00     0.031 C 
ATOM     49  C   UNL     1       0.828  -9.889  -8.016  1.00  0.00     0.029 A 
ATOM     50  C   UNL     1      -0.011 -10.108  -9.189  1.00  0.00     0.049 A 
ATOM     51  H   UNL     1       0.158  -9.196 -11.055  1.00  0.00     0.167 HD
ATOM     52  C   UNL     1       0.365  -6.921 -14.796  1.00  0.00     0.031 A 
ATOM     53  C   UNL     1      -1.054 -10.959  -9.253  1.00  0.00     0.031 A 
ATOM     54  C   UNL     1      -0.699  -7.869 -14.987  1.00  0.00     0.049 A 
ATOM     55  C   UNL     1      -1.841 -11.061 -10.532  1.00  0.00     0.074 A 
ATOM     56  C   UNL     1      -1.453  -8.095 -16.125  1.00  0.00     0.029 A 
ATOM     57  N   UNL     1      -1.151  -8.755 -14.022  1.00  0.00    -0.354 N 
ATOM     58  N   UNL     1      -1.675 -10.403 -11.655  1.00  0.00    -0.248 NA
ATOM     59  C   UNL     1      -2.951 -12.025 -10.556  1.00  0.00     0.031 C 
ATOM     60  C   UNL     1      -2.386  -9.095 -15.838  1.00  0.00     0.029 A 
ATOM     61  C   UNL     1      -2.182  -9.521 -14.535  1.00  0.00     0.049 A 
ATOM     62  H   UNL     1      -0.791  -8.828 -13.109  1.00  0.00     0.167 HD
ATOM     63  C   UNL     1      -2.637 -10.900 -12.528  1.00  0.00     0.074 A 
ATOM     64  C   UNL     1      -3.375 -11.916 -11.808  1.00  0.00     0.031 C 
ATOM     65  C   UNL     1      -2.885 -10.547 -13.812  1.00  0.00     0.031 A 
BRANCH  52  66
ATOM     66  C   UNL     1       0.676  -5.973 -15.921  1.00  0.00    -0.014 A 
ATOM     67  C   UNL     1       1.830  -6.134 -16.707  1.00  0.00     0.010 A 
ATOM     68  C   UNL     1      -0.237  -4.952 -16.241  1.00  0.00     0.010 A 
ATOM     69  C   UNL     1       2.079  -5.275 -17.780  1.00  0.00     0.020 A 
ATOM     70  C   UNL     1      -0.004  -4.105 -17.328  1.00  0.00     0.020 A 
ATOM     71  C   UNL     1       1.159  -4.266 -18.084  1.00  0.00     0.054 A 
BRANCH  71  72
ATOM     72  S   UNL     1       1.480  -3.200 -19.517  1.00  0.00     0.124 S 
ATOM     73  O   UNL     1       2.537  -2.328 -19.011  1.00  0.00    -0.237 OA
ATOM     74  O   UNL     1       1.892  -4.155 -20.542  1.00  0.00    -0.237 OA
ATOM     75  O   UNL     1       0.195  -2.548 -19.758  1.00  0.00    -0.744 OA
ENDBRANCH  71  72
ENDBRANCH  52  66
BRANCH  53  76
ATOM     76  C   UNL     1      -1.422 -11.793  -8.076  1.00  0.00    -0.014 A 
ATOM     77  C   UNL     1      -1.204 -13.183  -8.095  1.00  0.00     0.010 A 
ATOM     78  C   UNL     1      -2.022 -11.211  -6.946  1.00  0.00     0.010 A 
ATOM     79  C   UNL     1      -1.615 -13.980  -7.023  1.00  0.00     0.020 A 
ATOM     80  C   UNL     1      -2.410 -12.002  -5.860  1.00  0.00     0.020 A 
ATOM     81  C   UNL     1      -2.222 -13.384  -5.915  1.00  0.00     0.054 A 
BRANCH  81  82
ATOM     82  S   UNL     1      -2.739 -14.433  -4.527  1.00  0.00     0.124 S 
ATOM     83  O   UNL     1      -3.976 -15.017  -5.035  1.00  0.00    -0.237 OA
ATOM     84  O   UNL     1      -1.614 -15.355  -4.388  1.00  0.00    -0.237 OA
ATOM     85  O   UNL     1      -2.897 -13.485  -3.426  1.00  0.00    -0.744 OA
ENDBRANCH  81  82
ENDBRANCH  53  76
BRANCH  65  86
ATOM     86  C   UNL     1      -3.959 -11.300 -14.547  1.00  0.00    -0.014 A 
ATOM     87  C   UNL     1      -5.320 -11.053 -14.301  1.00  0.00     0.010 A 
ATOM     88  C   UNL     1      -3.594 -12.208 -15.557  1.00  0.00     0.010 A 
ATOM     89  C   UNL     1      -6.300 -11.717 -15.043  1.00  0.00     0.020 A 
ATOM     90  C   UNL     1      -4.570 -12.856 -16.316  1.00  0.00     0.020 A 
ATOM     91  C   UNL     1      -5.919 -12.614 -16.047  1.00  0.00     0.054 A 
BRANCH  91  92
ATOM     92  S   UNL     1      -7.207 -13.413 -17.043  1.00  0.00     0.124 S 
ATOM     93  O   UNL     1      -7.706 -14.437 -16.128  1.00  0.00    -0.237 OA
ATOM     94  O   UNL     1      -8.129 -12.315 -17.320  1.00  0.00    -0.237 OA
ATOM     95  O   UNL     1      -6.481 -13.917 -18.206  1.00  0.00    -0.744 OA
ENDBRANCH  91  92
ENDBRANCH  65  86
ENDBRANCH  39  40
ENDBRANCH  31  34
ENDBRANCH  29  30
ENDBRANCH  28  29
ENDBRANCH  27  28
ENDBRANCH   1  27
TORSDOF 20
