REMARK SMILES Cc1cc(I)cc([C@H]([NH3+])C(=O)NCCCCCCNC(=O)c2ccc(-c3c4nc(c(-c5ccc(S(=O)(=O)[O-])cc5)c5ccc([nH]5)c(-c5ccc(S(=O)(=O)[O-])cc5)c5nc(c(-c6ccc(S(=O)(=O)[O-])cc6)c6ccc3[nH]6)C=C5)C=C4)cc2)c1O
REMARK SMILES IDX 16 1 15 2 14 3 13 4 12 5 10 6 11 7 8 9 7 10 1 11 2 12 3 13
REMARK SMILES IDX 82 14 4 15 5 16 6 17 83 18 9 20 17 24 18 25 19 26 20 27
REMARK SMILES IDX 21 29 22 30 23 31 81 32 24 33 80 34 25 35 26 36 27 37 74 38
REMARK SMILES IDX 28 39 79 40 73 41 75 42 29 43 78 44 72 45 71 46 30 48 60 49
REMARK SMILES IDX 41 50 59 51 42 52 45 53 58 54 76 55 43 56 44 57 57 59 77 60
REMARK SMILES IDX 46 61 31 62 32 63 40 64 33 65 39 66 34 67 35 68 36 69 37 70
REMARK SMILES IDX 38 71 61 72 62 73 70 74 63 75 69 76 64 77 65 78 66 79 67 80
REMARK SMILES IDX 68 81 47 82 48 83 56 84 49 85 55 86 50 87 51 88 52 89 53 90
REMARK SMILES IDX 54 91
REMARK H PARENT 12 8 83 19 9 21 9 22 9 23 19 28 75 47 45 58
REMARK Flexibility Score: inf
ROOT
ATOM      1  C   UNL     1      -2.670  -6.285  -5.356  1.00  0.00     0.002 C 
ENDROOT
BRANCH   1   2
ATOM      2  C   UNL     1      -2.752  -5.615  -3.979  1.00  0.00     0.002 C 
BRANCH   2   3
ATOM      3  C   UNL     1      -1.573  -4.707  -3.600  1.00  0.00     0.021 C 
BRANCH   3   4
ATOM      4  C   UNL     1      -1.265  -3.604  -4.608  1.00  0.00     0.116 C 
BRANCH   4   5
ATOM      5  N   UNL     1      -2.342  -2.637  -4.709  1.00  0.00    -0.351 N 
ATOM      6  C   UNL     1      -2.319  -1.295  -4.977  1.00  0.00     0.283 C 
ATOM      7  O   UNL     1      -3.410  -0.764  -5.223  1.00  0.00    -0.268 OA
ATOM      8  H   UNL     1      -3.242  -3.009  -4.559  1.00  0.00     0.163 HD
BRANCH   6   9
ATOM      9  C   UNL     1      -1.009  -0.467  -4.987  1.00  0.00     0.306 C 
BRANCH   9  10
ATOM     10  C   UNL     1      -0.037  -0.729  -6.139  1.00  0.00     0.062 A 
ATOM     11  C   UNL     1       3.228   0.734  -7.620  1.00  0.00     0.048 C 
ATOM     12  C   UNL     1       2.018  -0.122  -7.365  1.00  0.00    -0.008 A 
ATOM     13  C   UNL     1       1.758  -1.152  -8.281  1.00  0.00     0.022 A 
ATOM     14  C   UNL     1       1.113   0.077  -6.306  1.00  0.00     0.128 A 
ATOM     15  C   UNL     1       0.617  -1.936  -8.155  1.00  0.00     0.014 A 
ATOM     16  I   UNL     1       0.246  -3.460  -9.520  1.00  0.00    -0.044 I 
ATOM     17  C   UNL     1      -0.285  -1.707  -7.117  1.00  0.00     0.029 A 
BRANCH  14  18
ATOM     18  O   UNL     1       1.304   1.078  -5.388  1.00  0.00    -0.507 OA
ATOM     19  H   UNL     1       2.051   1.639  -5.456  1.00  0.00     0.293 HD
ENDBRANCH  14  18
ENDBRANCH   9  10
BRANCH   9  20
ATOM     20  N   UNL     1      -0.378  -0.512  -3.647  1.00  0.00    -0.343 N 
ATOM     21  H   UNL     1      -0.095  -1.469  -3.436  1.00  0.00     0.345 HD
ATOM     22  H   UNL     1      -1.046  -0.193  -2.945  1.00  0.00     0.345 HD
ATOM     23  H   UNL     1       0.442   0.095  -3.636  1.00  0.00     0.345 HD
ENDBRANCH   9  20
ENDBRANCH   6   9
ENDBRANCH   4   5
ENDBRANCH   3   4
ENDBRANCH   2   3
ENDBRANCH   1   2
BRANCH   1  24
ATOM     24  C   UNL     1      -1.390  -7.074  -5.638  1.00  0.00     0.021 C 
BRANCH  24  25
ATOM     25  C   UNL     1      -1.041  -8.143  -4.610  1.00  0.00     0.116 C 
BRANCH  25  26
ATOM     26  N   UNL     1      -2.041  -9.194  -4.508  1.00  0.00    -0.352 N 
ATOM     27  C   UNL     1      -1.850 -10.552  -4.395  1.00  0.00     0.251 C 
ATOM     28  H   UNL     1      -2.978  -8.894  -4.520  1.00  0.00     0.163 HD
ATOM     29  O   UNL     1      -2.809 -11.317  -4.419  1.00  0.00    -0.269 OA
BRANCH  27  30
ATOM     30  C   UNL     1      -0.473 -11.084  -4.293  1.00  0.00     0.039 A 
ATOM     31  C   UNL     1       0.445 -10.519  -3.404  1.00  0.00     0.014 A 
ATOM     32  C   UNL     1      -0.083 -12.128  -5.137  1.00  0.00     0.014 A 
ATOM     33  C   UNL     1       1.786 -10.882  -3.477  1.00  0.00     0.010 A 
ATOM     34  C   UNL     1       1.251 -12.545  -5.154  1.00  0.00     0.010 A 
ATOM     35  C   UNL     1       2.207 -11.890  -4.361  1.00  0.00    -0.014 A 
BRANCH  35  36
ATOM     36  C   UNL     1       3.650 -12.233  -4.446  1.00  0.00     0.031 A 
ATOM     37  C   UNL     1       4.433 -11.961  -5.704  1.00  0.00     0.074 A 
ATOM     38  C   UNL     1       4.274 -12.732  -3.360  1.00  0.00     0.049 A 
ATOM     39  N   UNL     1       5.704 -12.169  -5.940  1.00  0.00    -0.248 NA
ATOM     40  C   UNL     1       3.703 -11.380  -6.843  1.00  0.00     0.031 C 
ATOM     41  C   UNL     1       3.627 -13.012  -2.077  1.00  0.00     0.029 A 
ATOM     42  N   UNL     1       5.590 -13.060  -3.149  1.00  0.00    -0.354 N 
ATOM     43  C   UNL     1       5.923 -11.755  -7.248  1.00  0.00     0.074 A 
ATOM     44  C   UNL     1       4.649 -11.312  -7.770  1.00  0.00     0.031 C 
ATOM     45  C   UNL     1       4.556 -13.411  -1.196  1.00  0.00     0.029 A 
ATOM     46  C   UNL     1       5.852 -13.480  -1.866  1.00  0.00     0.049 A 
ATOM     47  H   UNL     1       6.280 -13.000  -3.848  1.00  0.00     0.167 HD
ATOM     48  C   UNL     1       7.083 -11.733  -7.946  1.00  0.00     0.031 A 
ATOM     49  C   UNL     1       7.000 -13.884  -1.287  1.00  0.00     0.031 A 
ATOM     50  C   UNL     1       8.351 -12.165  -7.418  1.00  0.00     0.049 A 
ATOM     51  C   UNL     1       8.264 -13.899  -2.095  1.00  0.00     0.074 A 
ATOM     52  C   UNL     1       9.582 -12.179  -8.053  1.00  0.00     0.029 A 
ATOM     53  N   UNL     1       8.558 -12.650  -6.136  1.00  0.00    -0.354 N 
ATOM     54  N   UNL     1       8.446 -13.516  -3.337  1.00  0.00    -0.248 NA
ATOM     55  C   UNL     1       9.476 -14.401  -1.434  1.00  0.00     0.031 C 
ATOM     56  C   UNL     1      10.521 -12.720  -7.173  1.00  0.00     0.029 A 
ATOM     57  C   UNL     1       9.891 -12.985  -5.968  1.00  0.00     0.049 A 
ATOM     58  H   UNL     1       7.861 -12.742  -5.447  1.00  0.00     0.167 HD
ATOM     59  C   UNL     1       9.792 -13.728  -3.605  1.00  0.00     0.074 A 
ATOM     60  C   UNL     1      10.385 -14.251  -2.391  1.00  0.00     0.031 C 
ATOM     61  C   UNL     1      10.470 -13.513  -4.758  1.00  0.00     0.031 A 
BRANCH  48  62
ATOM     62  C   UNL     1       7.057 -11.220  -9.362  1.00  0.00    -0.014 A 
ATOM     63  C   UNL     1       7.283 -12.107 -10.432  1.00  0.00     0.010 A 
ATOM     64  C   UNL     1       6.930  -9.846  -9.629  1.00  0.00     0.010 A 
ATOM     65  C   UNL     1       7.410 -11.626 -11.738  1.00  0.00     0.020 A 
ATOM     66  C   UNL     1       7.032  -9.364 -10.937  1.00  0.00     0.020 A 
ATOM     67  C   UNL     1       7.294 -10.255 -11.981  1.00  0.00     0.054 A 
BRANCH  67  68
ATOM     68  S   UNL     1       7.482  -9.644 -13.679  1.00  0.00     0.124 S 
ATOM     69  O   UNL     1       8.929  -9.686 -13.863  1.00  0.00    -0.237 OA
ATOM     70  O   UNL     1       6.717 -10.615 -14.457  1.00  0.00    -0.237 OA
ATOM     71  O   UNL     1       6.897  -8.305 -13.625  1.00  0.00    -0.744 OA
ENDBRANCH  67  68
ENDBRANCH  48  62
BRANCH  49  72
ATOM     72  C   UNL     1       6.980 -14.291   0.144  1.00  0.00    -0.014 A 
ATOM     73  C   UNL     1       6.296 -15.457   0.540  1.00  0.00     0.010 A 
ATOM     74  C   UNL     1       7.550 -13.465   1.128  1.00  0.00     0.010 A 
ATOM     75  C   UNL     1       6.127 -15.755   1.894  1.00  0.00     0.020 A 
ATOM     76  C   UNL     1       7.408 -13.777   2.484  1.00  0.00     0.020 A 
ATOM     77  C   UNL     1       6.668 -14.902   2.858  1.00  0.00     0.054 A 
BRANCH  77  78
ATOM     78  S   UNL     1       6.382 -15.270   4.611  1.00  0.00     0.124 S 
ATOM     79  O   UNL     1       5.017 -14.785   4.798  1.00  0.00    -0.237 OA
ATOM     80  O   UNL     1       6.547 -16.720   4.666  1.00  0.00    -0.237 OA
ATOM     81  O   UNL     1       7.419 -14.501   5.293  1.00  0.00    -0.744 OA
ENDBRANCH  77  78
ENDBRANCH  49  72
BRANCH  61  82
ATOM     82  C   UNL     1      11.938 -13.845  -4.791  1.00  0.00    -0.014 A 
ATOM     83  C   UNL     1      12.886 -12.810  -4.887  1.00  0.00     0.010 A 
ATOM     84  C   UNL     1      12.368 -15.181  -4.868  1.00  0.00     0.010 A 
ATOM     85  C   UNL     1      14.235 -13.103  -5.097  1.00  0.00     0.020 A 
ATOM     86  C   UNL     1      13.722 -15.478  -5.053  1.00  0.00     0.020 A 
ATOM     87  C   UNL     1      14.642 -14.436  -5.193  1.00  0.00     0.054 A 
BRANCH  87  88
ATOM     88  S   UNL     1      16.392 -14.798  -5.507  1.00  0.00     0.124 S 
ATOM     89  O   UNL     1      16.506 -14.538  -6.939  1.00  0.00    -0.237 OA
ATOM     90  O   UNL     1      17.080 -13.847  -4.637  1.00  0.00    -0.237 OA
ATOM     91  O   UNL     1      16.527 -16.199  -5.114  1.00  0.00    -0.744 OA
ENDBRANCH  87  88
ENDBRANCH  61  82
ENDBRANCH  35  36
ENDBRANCH  27  30
ENDBRANCH  25  26
ENDBRANCH  24  25
ENDBRANCH   1  24
TORSDOF 19
