REMARK SMILES Cc1cc(C(=O)NCCCCCCNC(=O)c2ccc(-c3c4nc(c(-c5ccc(S(=O)(=O)[O-])cc5)c5ccc([nH]5)c(-c5ccc(S(=O)(=O)[O-])cc5)c5nc(c(-c6ccc(S(=O)(=O)[O-])cc6)c6ccc3[nH]6)C=C5)C=C4)cc2)ccc1NS(=O)(=O)c1c(F)cccc1F
REMARK SMILES IDX 10 1 9 2 8 3 7 4 5 5 6 6 4 8 1 9 2 10 3 11 79 12 78 13 77 14
REMARK SMILES IDX 80 15 81 17 82 18 83 19 84 20 85 21 90 22 86 23 87 24 89 25
REMARK SMILES IDX 91 26 88 27 11 28 12 29 13 30 14 31 15 32 16 34 17 35 18 36
REMARK SMILES IDX 76 37 19 38 75 39 20 40 21 41 22 42 69 43 23 44 74 45 68 46
REMARK SMILES IDX 70 47 24 48 73 49 67 50 66 51 25 53 55 54 36 55 54 56 37 57
REMARK SMILES IDX 40 58 53 59 71 60 38 61 39 62 52 64 72 65 41 66 26 67 27 68
REMARK SMILES IDX 35 69 28 70 34 71 29 72 30 73 31 74 32 75 33 76 56 77 57 78
REMARK SMILES IDX 65 79 58 80 64 81 59 82 60 83 61 84 62 85 63 86 42 87 43 88
REMARK SMILES IDX 51 89 44 90 50 91 45 92 46 93 47 94 48 95 49 96
REMARK H PARENT 7 7 80 16 14 33 70 52 40 63
REMARK Flexibility Score: inf
ROOT
ATOM      1  C   UNL     1      -6.022  -2.761  -1.052  1.00  0.00     0.002 C 
ENDROOT
BRANCH   1   2
ATOM      2  C   UNL     1      -4.966  -1.652  -1.141  1.00  0.00     0.021 C 
BRANCH   2   3
ATOM      3  C   UNL     1      -3.982  -1.515   0.021  1.00  0.00     0.116 C 
BRANCH   3   4
ATOM      4  N   UNL     1      -3.006  -2.588   0.121  1.00  0.00    -0.352 N 
ATOM      5  C   UNL     1      -1.654  -2.557   0.386  1.00  0.00     0.251 C 
ATOM      6  O   UNL     1      -1.024  -3.613   0.417  1.00  0.00    -0.269 OA
ATOM      7  H   UNL     1      -3.374  -3.489  -0.026  1.00  0.00     0.163 HD
BRANCH   5   8
ATOM      8  C   UNL     1      -0.912  -1.278   0.559  1.00  0.00     0.040 A 
ATOM      9  C   UNL     1       2.477   0.047  -0.532  1.00  0.00     0.046 C 
ATOM     10  C   UNL     1       1.055   0.042  -0.037  1.00  0.00    -0.026 A 
ATOM     11  C   UNL     1       0.373  -1.187   0.007  1.00  0.00     0.019 A 
ATOM     12  C   UNL     1       0.391   1.197   0.405  1.00  0.00     0.052 A 
ATOM     13  C   UNL     1      -0.755   1.054   1.190  1.00  0.00     0.028 A 
ATOM     14  C   UNL     1      -1.409  -0.183   1.263  1.00  0.00     0.016 A 
BRANCH  12  15
ATOM     15  N   UNL     1       0.854   2.456  -0.087  1.00  0.00    -0.279 N 
ATOM     16  H   UNL     1       1.663   2.437  -0.648  1.00  0.00     0.180 HD
BRANCH  15  17
ATOM     17  S   UNL     1       0.174   3.960   0.187  1.00  0.00     0.267 S 
ATOM     18  O   UNL     1       0.305   4.205   1.609  1.00  0.00    -0.201 OA
ATOM     19  O   UNL     1       0.789   4.842  -0.784  1.00  0.00    -0.201 OA
BRANCH  17  20
ATOM     20  C   UNL     1      -1.536   3.904  -0.191  1.00  0.00     0.158 A 
ATOM     21  C   UNL     1      -2.372   4.796   0.471  1.00  0.00     0.146 A 
ATOM     22  C   UNL     1      -2.096   2.938  -1.014  1.00  0.00     0.146 A 
ATOM     23  F   UNL     1      -1.872   5.797   1.209  1.00  0.00    -0.205 F 
ATOM     24  C   UNL     1      -3.757   4.676   0.386  1.00  0.00     0.041 A 
ATOM     25  C   UNL     1      -3.484   2.788  -1.085  1.00  0.00     0.041 A 
ATOM     26  F   UNL     1      -1.338   2.103  -1.735  1.00  0.00    -0.205 F 
ATOM     27  C   UNL     1      -4.318   3.649  -0.370  1.00  0.00     0.006 A 
ENDBRANCH  17  20
ENDBRANCH  15  17
ENDBRANCH  12  15
ENDBRANCH   5   8
ENDBRANCH   3   4
ENDBRANCH   2   3
ENDBRANCH   1   2
BRANCH   1  28
ATOM     28  C   UNL     1      -6.874  -2.841   0.224  1.00  0.00     0.002 C 
BRANCH  28  29
ATOM     29  C   UNL     1      -7.466  -1.533   0.750  1.00  0.00     0.021 C 
BRANCH  29  30
ATOM     30  C   UNL     1      -8.496  -0.885  -0.168  1.00  0.00     0.116 C 
BRANCH  30  31
ATOM     31  N   UNL     1      -9.860  -1.001   0.323  1.00  0.00    -0.352 N 
ATOM     32  C   UNL     1     -10.935  -0.207  -0.062  1.00  0.00     0.251 C 
ATOM     33  H   UNL     1     -10.039  -1.705   0.988  1.00  0.00     0.163 HD
ATOM     34  O   UNL     1     -11.889   0.028   0.642  1.00  0.00    -0.269 OA
BRANCH  32  35
ATOM     35  C   UNL     1     -10.917   0.222  -1.478  1.00  0.00     0.039 A 
ATOM     36  C   UNL     1     -11.722  -0.489  -2.376  1.00  0.00     0.014 A 
ATOM     37  C   UNL     1      -9.928   1.093  -1.924  1.00  0.00     0.014 A 
ATOM     38  C   UNL     1     -11.423  -0.452  -3.735  1.00  0.00     0.010 A 
ATOM     39  C   UNL     1      -9.581   1.060  -3.260  1.00  0.00     0.010 A 
ATOM     40  C   UNL     1     -10.296   0.253  -4.157  1.00  0.00    -0.014 A 
BRANCH  40  41
ATOM     41  C   UNL     1      -9.761   0.192  -5.513  1.00  0.00     0.031 A 
ATOM     42  C   UNL     1      -9.993   1.332  -6.435  1.00  0.00     0.074 A 
ATOM     43  C   UNL     1      -8.981  -0.843  -5.900  1.00  0.00     0.049 A 
ATOM     44  N   UNL     1      -9.852   1.278  -7.717  1.00  0.00    -0.248 NA
ATOM     45  C   UNL     1     -10.453   2.637  -5.967  1.00  0.00     0.031 C 
ATOM     46  C   UNL     1      -8.144  -0.903  -7.098  1.00  0.00     0.029 A 
ATOM     47  N   UNL     1      -8.936  -2.151  -5.409  1.00  0.00    -0.354 N 
ATOM     48  C   UNL     1      -9.905   2.566  -8.198  1.00  0.00     0.074 A 
ATOM     49  C   UNL     1     -10.356   3.365  -7.083  1.00  0.00     0.031 C 
ATOM     50  C   UNL     1      -7.948  -2.191  -7.419  1.00  0.00     0.029 A 
ATOM     51  C   UNL     1      -8.801  -2.975  -6.543  1.00  0.00     0.049 A 
ATOM     52  H   UNL     1      -8.989  -2.437  -4.468  1.00  0.00     0.167 HD
ATOM     53  C   UNL     1      -9.445   2.837  -9.453  1.00  0.00     0.031 A 
ATOM     54  C   UNL     1      -9.766  -3.848  -6.966  1.00  0.00     0.031 A 
ATOM     55  C   UNL     1      -9.084   1.621 -10.180  1.00  0.00     0.049 A 
ATOM     56  C   UNL     1     -10.262  -3.586  -8.385  1.00  0.00     0.074 A 
ATOM     57  C   UNL     1      -7.892   1.004 -10.523  1.00  0.00     0.029 A 
ATOM     58  N   UNL     1     -10.080   0.694 -10.440  1.00  0.00    -0.354 N 
ATOM     59  N   UNL     1      -9.866  -2.594  -9.134  1.00  0.00    -0.248 NA
ATOM     60  C   UNL     1     -11.322  -4.367  -9.031  1.00  0.00     0.031 C 
ATOM     61  C   UNL     1      -8.190  -0.315 -10.978  1.00  0.00     0.029 A 
ATOM     62  C   UNL     1      -9.560  -0.489 -10.924  1.00  0.00     0.049 A 
ATOM     63  H   UNL     1     -11.040   0.859 -10.297  1.00  0.00     0.167 HD
ATOM     64  C   UNL     1     -10.604  -2.559 -10.287  1.00  0.00     0.074 A 
ATOM     65  C   UNL     1     -11.495  -3.700 -10.186  1.00  0.00     0.031 C 
ATOM     66  C   UNL     1     -10.475  -1.576 -11.223  1.00  0.00     0.031 A 
BRANCH  53  67
ATOM     67  C   UNL     1      -9.119   4.231  -9.942  1.00  0.00    -0.014 A 
ATOM     68  C   UNL     1      -8.128   4.412 -10.929  1.00  0.00     0.010 A 
ATOM     69  C   UNL     1      -9.710   5.406  -9.439  1.00  0.00     0.010 A 
ATOM     70  C   UNL     1      -7.678   5.686 -11.311  1.00  0.00     0.020 A 
ATOM     71  C   UNL     1      -9.244   6.686  -9.780  1.00  0.00     0.020 A 
ATOM     72  C   UNL     1      -8.218   6.817 -10.707  1.00  0.00     0.054 A 
BRANCH  72  73
ATOM     73  S   UNL     1      -7.561   8.451 -11.133  1.00  0.00     0.124 S 
ATOM     74  O   UNL     1      -6.136   8.302 -10.848  1.00  0.00    -0.237 OA
ATOM     75  O   UNL     1      -7.914   8.572 -12.544  1.00  0.00    -0.237 OA
ATOM     76  O   UNL     1      -8.276   9.356 -10.235  1.00  0.00    -0.744 OA
ENDBRANCH  72  73
ENDBRANCH  53  67
BRANCH  54  77
ATOM     77  C   UNL     1     -10.599  -4.411  -5.864  1.00  0.00    -0.014 A 
ATOM     78  C   UNL     1      -9.954  -5.234  -4.915  1.00  0.00     0.010 A 
ATOM     79  C   UNL     1     -11.833  -3.829  -5.532  1.00  0.00     0.010 A 
ATOM     80  C   UNL     1     -10.427  -5.308  -3.603  1.00  0.00     0.020 A 
ATOM     81  C   UNL     1     -12.320  -3.920  -4.220  1.00  0.00     0.020 A 
ATOM     82  C   UNL     1     -11.570  -4.592  -3.249  1.00  0.00     0.054 A 
BRANCH  82  83
ATOM     83  S   UNL     1     -11.946  -4.396  -1.480  1.00  0.00     0.124 S 
ATOM     84  O   UNL     1     -12.071  -5.778  -1.031  1.00  0.00    -0.237 OA
ATOM     85  O   UNL     1     -10.767  -3.679  -0.992  1.00  0.00    -0.237 OA
ATOM     86  O   UNL     1     -13.181  -3.619  -1.485  1.00  0.00    -0.744 OA
ENDBRANCH  82  83
ENDBRANCH  54  77
BRANCH  66  87
ATOM     87  C   UNL     1     -11.259  -1.543 -12.504  1.00  0.00    -0.014 A 
ATOM     88  C   UNL     1     -11.417  -2.681 -13.312  1.00  0.00     0.010 A 
ATOM     89  C   UNL     1     -11.759  -0.318 -12.998  1.00  0.00     0.010 A 
ATOM     90  C   UNL     1     -12.100  -2.609 -14.533  1.00  0.00     0.020 A 
ATOM     91  C   UNL     1     -12.425  -0.233 -14.223  1.00  0.00     0.020 A 
ATOM     92  C   UNL     1     -12.611  -1.387 -14.976  1.00  0.00     0.054 A 
BRANCH  92  93
ATOM     93  S   UNL     1     -13.472  -1.307 -16.567  1.00  0.00     0.124 S 
ATOM     94  O   UNL     1     -12.648  -2.158 -17.423  1.00  0.00    -0.237 OA
ATOM     95  O   UNL     1     -14.785  -1.847 -16.224  1.00  0.00    -0.237 OA
ATOM     96  O   UNL     1     -13.449   0.114 -16.904  1.00  0.00    -0.744 OA
ENDBRANCH  92  93
ENDBRANCH  66  87
ENDBRANCH  40  41
ENDBRANCH  32  35
ENDBRANCH  30  31
ENDBRANCH  29  30
ENDBRANCH  28  29
ENDBRANCH   1  28
TORSDOF 19
