REMARK SMILES COc1ccc([C@H](C)NC(=O)c2cnn(C)c2C(=O)NCCCCCCNC(=O)c2ccc(-c3c4nc(c(-c5ccc(S(=O)(=O)[O-])cc5)c5ccc([nH]5)c(-c5ccc(S(=O)(=O)[O-])cc5)c5nc(c(-c6ccc(S(=O)(=O)[O-])cc6)c6ccc3[nH]6)C=C5)C=C4)cc2)cc1
REMARK SMILES IDX 23 1 22 2 21 3 20 4 18 5 19 6 17 8 12 9 13 10 14 11 15 12
REMARK SMILES IDX 16 13 10 14 9 15 11 17 7 18 8 19 6 20 3 21 4 22 91 23 5 24
REMARK SMILES IDX 90 25 2 26 1 27 24 28 25 29 26 30 27 31 28 32 29 34 30 35
REMARK SMILES IDX 31 36 89 37 32 38 88 39 33 40 34 41 35 42 82 43 36 44 87 45
REMARK SMILES IDX 81 46 83 47 37 48 86 49 80 50 79 51 38 53 68 54 49 55 67 56
REMARK SMILES IDX 50 57 53 58 66 59 84 60 51 61 52 62 65 64 85 65 54 66 39 67
REMARK SMILES IDX 40 68 48 69 41 70 47 71 42 72 43 73 44 74 45 75 46 76 69 77
REMARK SMILES IDX 70 78 78 79 71 80 77 81 72 82 73 83 74 84 75 85 76 86 55 87
REMARK SMILES IDX 56 88 64 89 57 90 63 91 58 92 59 93 60 94 61 95 62 96
REMARK H PARENT 20 7 9 16 27 33 83 52 53 63
REMARK Flexibility Score: inf
ROOT
ATOM      1  C   UNL     1       6.843   7.706  -4.782  1.00  0.00     0.002 C 
ENDROOT
BRANCH   1   2
ATOM      2  C   UNL     1       6.881   7.565  -3.256  1.00  0.00     0.021 C 
BRANCH   2   3
ATOM      3  C   UNL     1       6.217   8.723  -2.518  1.00  0.00     0.116 C 
BRANCH   3   4
ATOM      4  N   UNL     1       4.820   8.438  -2.267  1.00  0.00    -0.351 N 
ATOM      5  C   UNL     1       4.159   8.868  -1.145  1.00  0.00     0.270 C 
ATOM      6  O   UNL     1       3.395   9.824  -1.269  1.00  0.00    -0.268 OA
ATOM      7  H   UNL     1       4.321   7.912  -2.933  1.00  0.00     0.163 HD
BRANCH   5   8
ATOM      8  C   UNL     1       4.168   8.031   0.035  1.00  0.00     0.138 A 
ATOM      9  C   UNL     1       3.029   7.661   0.757  1.00  0.00     0.090 A 
ATOM     10  C   UNL     1       3.518   7.107   1.951  1.00  0.00     0.149 A 
ATOM     11  N   UNL     1       4.839   6.967   1.939  1.00  0.00    -0.180 NA
ATOM     12  N   UNL     1       5.213   7.496   0.754  1.00  0.00    -0.262 N 
ATOM     13  C   UNL     1       6.625   7.470   0.462  1.00  0.00     0.174 C 
BRANCH   9  14
ATOM     14  C   UNL     1       1.637   7.893   0.435  1.00  0.00     0.255 C 
ATOM     15  N   UNL     1       1.125   7.406  -0.741  1.00  0.00    -0.345 N 
ATOM     16  H   UNL     1       0.228   7.739  -0.971  1.00  0.00     0.164 HD
ATOM     17  O   UNL     1       0.875   8.442   1.227  1.00  0.00    -0.269 OA
BRANCH  15  18
ATOM     18  C   UNL     1       1.700   6.471  -1.708  1.00  0.00     0.109 C 
ATOM     19  C   UNL     1       1.229   5.059  -1.341  1.00  0.00     0.036 C 
BRANCH  18  20
ATOM     20  C   UNL     1       1.389   6.912  -3.139  1.00  0.00    -0.026 A 
ATOM     21  C   UNL     1       1.069   7.810  -5.803  1.00  0.00     0.118 A 
ATOM     22  C   UNL     1       1.236   8.728  -4.775  1.00  0.00     0.047 A 
ATOM     23  C   UNL     1       1.067   6.447  -5.520  1.00  0.00     0.047 A 
ATOM     24  C   UNL     1       1.380   8.283  -3.459  1.00  0.00     0.009 A 
ATOM     25  C   UNL     1       1.228   6.003  -4.199  1.00  0.00     0.009 A 
BRANCH  21  26
ATOM     26  O   UNL     1       1.020   8.311  -7.074  1.00  0.00    -0.497 OA
ATOM     27  C   UNL     1      -0.137   7.888  -7.790  1.00  0.00     0.278 C 
ENDBRANCH  21  26
ENDBRANCH  18  20
ENDBRANCH  15  18
ENDBRANCH   9  14
ENDBRANCH   5   8
ENDBRANCH   3   4
ENDBRANCH   2   3
ENDBRANCH   1   2
BRANCH   1  28
ATOM     28  C   UNL     1       7.588   8.926  -5.340  1.00  0.00     0.002 C 
BRANCH  28  29
ATOM     29  C   UNL     1       9.025   9.102  -4.839  1.00  0.00     0.021 C 
BRANCH  29  30
ATOM     30  C   UNL     1       9.952   7.928  -5.141  1.00  0.00     0.116 C 
BRANCH  30  31
ATOM     31  N   UNL     1      10.150   7.753  -6.570  1.00  0.00    -0.352 N 
ATOM     32  C   UNL     1      11.318   7.756  -7.290  1.00  0.00     0.251 C 
ATOM     33  H   UNL     1       9.329   7.613  -7.096  1.00  0.00     0.163 HD
ATOM     34  O   UNL     1      11.281   7.824  -8.515  1.00  0.00    -0.269 OA
BRANCH  32  35
ATOM     35  C   UNL     1      12.618   7.686  -6.588  1.00  0.00     0.039 A 
ATOM     36  C   UNL     1      13.653   8.532  -6.994  1.00  0.00     0.014 A 
ATOM     37  C   UNL     1      12.822   6.772  -5.550  1.00  0.00     0.014 A 
ATOM     38  C   UNL     1      14.878   8.497  -6.323  1.00  0.00     0.010 A 
ATOM     39  C   UNL     1      14.021   6.783  -4.842  1.00  0.00     0.010 A 
ATOM     40  C   UNL     1      15.064   7.640  -5.225  1.00  0.00    -0.014 A 
BRANCH  40  41
ATOM     41  C   UNL     1      16.345   7.619  -4.474  1.00  0.00     0.031 A 
ATOM     42  C   UNL     1      17.201   6.381  -4.478  1.00  0.00     0.074 A 
ATOM     43  C   UNL     1      16.709   8.692  -3.744  1.00  0.00     0.049 A 
ATOM     44  N   UNL     1      18.312   6.146  -3.828  1.00  0.00    -0.248 NA
ATOM     45  C   UNL     1      16.737   5.253  -5.302  1.00  0.00     0.031 C 
ATOM     46  C   UNL     1      15.948   9.939  -3.631  1.00  0.00     0.029 A 
ATOM     47  N   UNL     1      17.810   8.903  -2.952  1.00  0.00    -0.354 N 
ATOM     48  C   UNL     1      18.676   4.845  -4.159  1.00  0.00     0.074 A 
ATOM     49  C   UNL     1      17.639   4.323  -5.022  1.00  0.00     0.031 C 
ATOM     50  C   UNL     1      16.613  10.789  -2.831  1.00  0.00     0.029 A 
ATOM     51  C   UNL     1      17.826  10.137  -2.346  1.00  0.00     0.049 A 
ATOM     52  H   UNL     1      18.521   8.233  -2.829  1.00  0.00     0.167 HD
ATOM     53  C   UNL     1      19.784   4.154  -3.797  1.00  0.00     0.031 A 
ATOM     54  C   UNL     1      18.711  10.681  -1.488  1.00  0.00     0.031 A 
ATOM     55  C   UNL     1      20.817   4.676  -2.942  1.00  0.00     0.049 A 
ATOM     56  C   UNL     1      19.925   9.887  -1.087  1.00  0.00     0.074 A 
ATOM     57  C   UNL     1      21.991   4.065  -2.539  1.00  0.00     0.029 A 
ATOM     58  N   UNL     1      20.802   5.936  -2.364  1.00  0.00    -0.354 N 
ATOM     59  N   UNL     1      20.272   8.674  -1.447  1.00  0.00    -0.248 NA
ATOM     60  C   UNL     1      20.873  10.540  -0.174  1.00  0.00     0.031 C 
ATOM     61  C   UNL     1      22.668   4.941  -1.684  1.00  0.00     0.029 A 
ATOM     62  C   UNL     1      21.941   6.117  -1.598  1.00  0.00     0.049 A 
ATOM     63  H   UNL     1      20.088   6.603  -2.480  1.00  0.00     0.167 HD
ATOM     64  C   UNL     1      21.492   8.431  -0.826  1.00  0.00     0.074 A 
ATOM     65  C   UNL     1      21.830   9.627  -0.082  1.00  0.00     0.031 C 
ATOM     66  C   UNL     1      22.264   7.317  -0.868  1.00  0.00     0.031 A 
BRANCH  53  67
ATOM     67  C   UNL     1      19.936   2.756  -4.336  1.00  0.00    -0.014 A 
ATOM     68  C   UNL     1      20.210   2.535  -5.698  1.00  0.00     0.010 A 
ATOM     69  C   UNL     1      19.846   1.652  -3.469  1.00  0.00     0.010 A 
ATOM     70  C   UNL     1      20.349   1.236  -6.192  1.00  0.00     0.020 A 
ATOM     71  C   UNL     1      20.013   0.351  -3.954  1.00  0.00     0.020 A 
ATOM     72  C   UNL     1      20.246   0.151  -5.317  1.00  0.00     0.054 A 
BRANCH  72  73
ATOM     73  S   UNL     1      20.453  -1.524  -5.982  1.00  0.00     0.124 S 
ATOM     74  O   UNL     1      19.200  -1.715  -6.707  1.00  0.00    -0.237 OA
ATOM     75  O   UNL     1      21.646  -1.393  -6.815  1.00  0.00    -0.237 OA
ATOM     76  O   UNL     1      20.616  -2.353  -4.790  1.00  0.00    -0.744 OA
ENDBRANCH  72  73
ENDBRANCH  53  67
BRANCH  54  77
ATOM     77  C   UNL     1      18.486  12.050  -0.950  1.00  0.00    -0.014 A 
ATOM     78  C   UNL     1      19.309  13.119  -1.346  1.00  0.00     0.010 A 
ATOM     79  C   UNL     1      17.448  12.290  -0.031  1.00  0.00     0.010 A 
ATOM     80  C   UNL     1      19.118  14.396  -0.810  1.00  0.00     0.020 A 
ATOM     81  C   UNL     1      17.236  13.571   0.485  1.00  0.00     0.020 A 
ATOM     82  C   UNL     1      18.083  14.613   0.104  1.00  0.00     0.054 A 
BRANCH  82  83
ATOM     83  S   UNL     1      17.832  16.285   0.765  1.00  0.00     0.124 S 
ATOM     84  O   UNL     1      18.923  16.396   1.727  1.00  0.00    -0.237 OA
ATOM     85  O   UNL     1      17.950  17.118  -0.428  1.00  0.00    -0.237 OA
ATOM     86  O   UNL     1      16.490  16.224   1.342  1.00  0.00    -0.744 OA
ENDBRANCH  82  83
ENDBRANCH  54  77
BRANCH  66  87
ATOM     87  C   UNL     1      23.569   7.351  -0.119  1.00  0.00    -0.014 A 
ATOM     88  C   UNL     1      23.606   7.292   1.285  1.00  0.00     0.010 A 
ATOM     89  C   UNL     1      24.779   7.391  -0.837  1.00  0.00     0.010 A 
ATOM     90  C   UNL     1      24.830   7.304   1.959  1.00  0.00     0.020 A 
ATOM     91  C   UNL     1      26.004   7.376  -0.167  1.00  0.00     0.020 A 
ATOM     92  C   UNL     1      26.021   7.346   1.228  1.00  0.00     0.054 A 
BRANCH  92  93
ATOM     93  S   UNL     1      27.598   7.315   2.125  1.00  0.00     0.124 S 
ATOM     94  O   UNL     1      27.669   8.672   2.662  1.00  0.00    -0.237 OA
ATOM     95  O   UNL     1      27.385   6.259   3.112  1.00  0.00    -0.237 OA
ATOM     96  O   UNL     1      28.579   7.002   1.089  1.00  0.00    -0.744 OA
ENDBRANCH  92  93
ENDBRANCH  66  87
ENDBRANCH  40  41
ENDBRANCH  32  35
ENDBRANCH  30  31
ENDBRANCH  29  30
ENDBRANCH  28  29
ENDBRANCH   1  28
TORSDOF 20
