REMARK SMILES C[C@H](C(=O)NCCCCCCNC(=O)c1ccc(-c2c3nc(c(-c4ccc(S(=O)(=O)[O-])cc4)c4ccc([nH]4)c(-c4ccc(S(=O)(=O)[O-])cc4)c4nc(c(-c5ccc(S(=O)(=O)[O-])cc5)c5ccc2[nH]5)C=C4)C=C3)cc1)c1ccc2c3cc(Cl)ccc3n(C(=O)c3cocn3)c2c1
REMARK SMILES IDX 8 1 7 2 6 3 5 4 3 5 4 6 2 8 1 9 75 10 76 11 95 12 77 13
REMARK SMILES IDX 94 14 78 15 86 16 79 17 85 18 80 19 84 20 81 21 83 22 82 23
REMARK SMILES IDX 87 24 88 25 89 26 90 27 93 28 91 29 92 30 9 31 10 32 11 33
REMARK SMILES IDX 12 34 13 35 14 37 15 38 16 39 74 40 17 41 73 42 18 43 19 44
REMARK SMILES IDX 20 45 67 46 21 47 72 48 66 49 68 50 22 51 71 52 65 53 64 54
REMARK SMILES IDX 23 56 53 57 34 58 52 59 35 60 38 61 51 62 69 63 36 64 37 65
REMARK SMILES IDX 50 67 70 68 39 69 24 70 25 71 33 72 26 73 32 74 27 75 28 76
REMARK SMILES IDX 29 77 30 78 31 79 54 80 55 81 63 82 56 83 62 84 57 85 58 86
REMARK SMILES IDX 59 87 60 88 61 89 40 90 41 91 49 92 42 93 48 94 43 95 44 96
REMARK SMILES IDX 45 97 46 98 47 99
REMARK H PARENT 5 7 12 36 68 55 38 66
REMARK Flexibility Score: inf
ROOT
ATOM      1  C   UNL     1      -0.073  -4.005  -0.929  1.00  0.00     0.002 C 
ENDROOT
BRANCH   1   2
ATOM      2  C   UNL     1      -0.350  -3.082   0.264  1.00  0.00     0.021 C 
BRANCH   2   3
ATOM      3  C   UNL     1       0.888  -2.332   0.764  1.00  0.00     0.116 C 
BRANCH   3   4
ATOM      4  N   UNL     1       1.238  -1.252  -0.140  1.00  0.00    -0.356 N 
ATOM      5  C   UNL     1       1.115   0.101   0.004  1.00  0.00     0.227 C 
ATOM      6  O   UNL     1       1.392   0.800  -0.975  1.00  0.00    -0.274 OA
ATOM      7  H   UNL     1       1.627  -1.541  -0.997  1.00  0.00     0.163 HD
BRANCH   5   8
ATOM      8  C   UNL     1       0.654   0.711   1.338  1.00  0.00     0.105 C 
ATOM      9  C   UNL     1       1.422   2.019   1.572  1.00  0.00     0.023 C 
BRANCH   8  10
ATOM     10  C   UNL     1      -0.863   0.872   1.368  1.00  0.00    -0.034 A 
ATOM     11  C   UNL     1      -1.517   2.000   0.871  1.00  0.00     0.005 A 
ATOM     12  C   UNL     1      -1.640  -0.191   1.856  1.00  0.00     0.032 A 
ATOM     13  C   UNL     1      -2.916   2.050   0.789  1.00  0.00     0.011 A 
ATOM     14  C   UNL     1      -3.044  -0.158   1.744  1.00  0.00     0.058 A 
ATOM     15  C   UNL     1      -3.687   0.937   1.185  1.00  0.00     0.008 A 
ATOM     16  N   UNL     1      -4.004  -1.130   2.058  1.00  0.00    -0.274 N 
ATOM     17  C   UNL     1      -5.078   0.646   1.163  1.00  0.00     0.009 A 
ATOM     18  C   UNL     1      -5.269  -0.613   1.750  1.00  0.00     0.057 A 
ATOM     19  C   UNL     1      -6.194   1.383   0.711  1.00  0.00     0.031 A 
ATOM     20  C   UNL     1      -6.570  -1.098   1.995  1.00  0.00     0.029 A 
ATOM     21  C   UNL     1      -7.476   0.881   0.917  1.00  0.00     0.041 A 
ATOM     22  C   UNL     1      -7.664  -0.332   1.567  1.00  0.00     0.023 A 
ATOM     23  Cl  UNL     1      -8.835   1.796   0.389  1.00  0.00    -0.084 Cl
BRANCH  16  24
ATOM     24  C   UNL     1      -3.678  -2.400   2.604  1.00  0.00     0.284 C 
ATOM     25  O   UNL     1      -2.714  -2.410   3.376  1.00  0.00    -0.266 OA
BRANCH  24  26
ATOM     26  C   UNL     1      -4.323  -3.662   2.255  1.00  0.00     0.167 A 
ATOM     27  C   UNL     1      -5.149  -3.970   1.195  1.00  0.00     0.231 A 
ATOM     28  N   UNL     1      -4.041  -4.839   2.938  1.00  0.00    -0.211 NA
ATOM     29  O   UNL     1      -5.411  -5.309   1.223  1.00  0.00    -0.451 OA
ATOM     30  C   UNL     1      -4.719  -5.761   2.301  1.00  0.00     0.308 A 
ENDBRANCH  24  26
ENDBRANCH  16  24
ENDBRANCH   8  10
ENDBRANCH   5   8
ENDBRANCH   3   4
ENDBRANCH   2   3
ENDBRANCH   1   2
BRANCH   1  31
ATOM     31  C   UNL     1       0.913  -5.144  -0.649  1.00  0.00     0.002 C 
BRANCH  31  32
ATOM     32  C   UNL     1       0.546  -6.045   0.534  1.00  0.00     0.021 C 
BRANCH  32  33
ATOM     33  C   UNL     1      -0.812  -6.730   0.412  1.00  0.00     0.116 C 
BRANCH  33  34
ATOM     34  N   UNL     1      -0.861  -7.632  -0.730  1.00  0.00    -0.352 N 
ATOM     35  C   UNL     1      -1.084  -8.986  -0.763  1.00  0.00     0.251 C 
ATOM     36  H   UNL     1      -0.712  -7.208  -1.607  1.00  0.00     0.163 HD
ATOM     37  O   UNL     1      -0.852  -9.622  -1.787  1.00  0.00    -0.269 OA
BRANCH  35  38
ATOM     38  C   UNL     1      -1.599  -9.676   0.438  1.00  0.00     0.039 A 
ATOM     39  C   UNL     1      -1.034 -10.893   0.824  1.00  0.00     0.014 A 
ATOM     40  C   UNL     1      -2.650  -9.125   1.176  1.00  0.00     0.014 A 
ATOM     41  C   UNL     1      -1.484 -11.527   1.985  1.00  0.00     0.010 A 
ATOM     42  C   UNL     1      -3.043  -9.718   2.373  1.00  0.00     0.010 A 
ATOM     43  C   UNL     1      -2.467 -10.928   2.790  1.00  0.00    -0.014 A 
BRANCH  43  44
ATOM     44  C   UNL     1      -2.895 -11.539   4.077  1.00  0.00     0.031 A 
ATOM     45  C   UNL     1      -4.324 -11.972   4.278  1.00  0.00     0.074 A 
ATOM     46  C   UNL     1      -2.013 -11.637   5.092  1.00  0.00     0.049 A 
ATOM     47  N   UNL     1      -4.893 -12.462   5.350  1.00  0.00    -0.248 NA
ATOM     48  C   UNL     1      -5.241 -11.806   3.137  1.00  0.00     0.031 C 
ATOM     49  C   UNL     1      -0.613 -11.207   5.044  1.00  0.00     0.029 A 
ATOM     50  N   UNL     1      -2.163 -12.124   6.367  1.00  0.00    -0.354 N 
ATOM     51  C   UNL     1      -6.231 -12.646   5.020  1.00  0.00     0.074 A 
ATOM     52  C   UNL     1      -6.402 -12.167   3.666  1.00  0.00     0.031 C 
ATOM     53  C   UNL     1      -0.028 -11.475   6.222  1.00  0.00     0.029 A 
ATOM     54  C   UNL     1      -1.017 -12.053   7.126  1.00  0.00     0.049 A 
ATOM     55  H   UNL     1      -3.012 -12.489   6.707  1.00  0.00     0.167 HD
ATOM     56  C   UNL     1      -7.224 -13.186   5.768  1.00  0.00     0.031 A 
ATOM     57  C   UNL     1      -0.788 -12.405   8.406  1.00  0.00     0.031 A 
ATOM     58  C   UNL     1      -7.046 -13.680   7.108  1.00  0.00     0.049 A 
ATOM     59  C   UNL     1      -1.909 -12.998   9.216  1.00  0.00     0.074 A 
ATOM     60  C   UNL     1      -7.976 -14.306   7.922  1.00  0.00     0.029 A 
ATOM     61  N   UNL     1      -5.867 -13.607   7.832  1.00  0.00    -0.354 N 
ATOM     62  N   UNL     1      -3.149 -13.235   8.858  1.00  0.00    -0.248 NA
ATOM     63  C   UNL     1      -1.597 -13.385  10.599  1.00  0.00     0.031 C 
ATOM     64  C   UNL     1      -7.374 -14.557   9.159  1.00  0.00     0.029 A 
ATOM     65  C   UNL     1      -6.051 -14.152   9.092  1.00  0.00     0.049 A 
ATOM     66  H   UNL     1      -5.022 -13.225   7.500  1.00  0.00     0.167 HD
ATOM     67  C   UNL     1      -3.753 -13.828   9.961  1.00  0.00     0.074 A 
ATOM     68  C   UNL     1      -2.740 -13.929  10.991  1.00  0.00     0.031 C 
ATOM     69  C   UNL     1      -5.033 -14.253  10.107  1.00  0.00     0.031 A 
BRANCH  56  70
ATOM     70  C   UNL     1      -8.599 -13.275   5.156  1.00  0.00    -0.014 A 
ATOM     71  C   UNL     1      -8.868 -14.165   4.100  1.00  0.00     0.010 A 
ATOM     72  C   UNL     1      -9.653 -12.511   5.690  1.00  0.00     0.010 A 
ATOM     73  C   UNL     1     -10.157 -14.264   3.569  1.00  0.00     0.020 A 
ATOM     74  C   UNL     1     -10.950 -12.630   5.182  1.00  0.00     0.020 A 
ATOM     75  C   UNL     1     -11.190 -13.497   4.115  1.00  0.00     0.054 A 
BRANCH  75  76
ATOM     76  S   UNL     1     -12.861 -13.680   3.432  1.00  0.00     0.124 S 
ATOM     77  O   UNL     1     -12.723 -13.039   2.126  1.00  0.00    -0.237 OA
ATOM     78  O   UNL     1     -13.037 -15.130   3.404  1.00  0.00    -0.237 OA
ATOM     79  O   UNL     1     -13.707 -12.970   4.387  1.00  0.00    -0.744 OA
ENDBRANCH  75  76
ENDBRANCH  56  70
BRANCH  57  80
ATOM     80  C   UNL     1       0.564 -12.215   9.003  1.00  0.00    -0.014 A 
ATOM     81  C   UNL     1       1.360 -13.325   9.340  1.00  0.00     0.010 A 
ATOM     82  C   UNL     1       1.060 -10.921   9.246  1.00  0.00     0.010 A 
ATOM     83  C   UNL     1       2.611 -13.145   9.937  1.00  0.00     0.020 A 
ATOM     84  C   UNL     1       2.325 -10.737   9.812  1.00  0.00     0.020 A 
ATOM     85  C   UNL     1       3.086 -11.852  10.169  1.00  0.00     0.054 A 
BRANCH  85  86
ATOM     86  S   UNL     1       4.726 -11.643  10.917  1.00  0.00     0.124 S 
ATOM     87  O   UNL     1       4.483 -12.046  12.298  1.00  0.00    -0.237 OA
ATOM     88  O   UNL     1       5.550 -12.554  10.126  1.00  0.00    -0.237 OA
ATOM     89  O   UNL     1       5.013 -10.224  10.719  1.00  0.00    -0.744 OA
ENDBRANCH  85  86
ENDBRANCH  57  80
BRANCH  69  90
ATOM     90  C   UNL     1      -5.405 -14.909  11.410  1.00  0.00    -0.014 A 
ATOM     91  C   UNL     1      -5.514 -14.168  12.600  1.00  0.00     0.010 A 
ATOM     92  C   UNL     1      -5.707 -16.284  11.430  1.00  0.00     0.010 A 
ATOM     93  C   UNL     1      -5.886 -14.797  13.792  1.00  0.00     0.020 A 
ATOM     94  C   UNL     1      -6.110 -16.909  12.612  1.00  0.00     0.020 A 
ATOM     95  C   UNL     1      -6.183 -16.164  13.789  1.00  0.00     0.054 A 
BRANCH  95  96
ATOM     96  S   UNL     1      -6.708 -16.945  15.339  1.00  0.00     0.124 S 
ATOM     97  O   UNL     1      -5.461 -16.982  16.099  1.00  0.00    -0.237 OA
ATOM     98  O   UNL     1      -7.721 -16.017  15.838  1.00  0.00    -0.237 OA
ATOM     99  O   UNL     1      -7.218 -18.247  14.917  1.00  0.00    -0.744 OA
ENDBRANCH  95  96
ENDBRANCH  69  90
ENDBRANCH  43  44
ENDBRANCH  35  38
ENDBRANCH  33  34
ENDBRANCH  32  33
ENDBRANCH  31  32
ENDBRANCH   1  31
TORSDOF 19
