REMARK SMILES COc1ccc2c(c1)c(CC(=O)NCCCCCCNC(=O)c1ccc(-c3c4nc(c(-c5ccc(S(=O)(=O)[O-])cc5)c5ccc([nH]5)c(-c5ccc(S(=O)(=O)[O-])cc5)c5nc(c(-c6ccc(S(=O)(=O)[O-])cc6)c6ccc3[nH]6)C=C5)C=C4)cc1)c(C(F)(F)F)n2C(=O)c1ccc(Cl)cc1
REMARK SMILES IDX 16 1 15 2 14 3 13 4 11 5 12 6 10 8 9 9 3 10 4 11 8 12 5 13
REMARK SMILES IDX 7 14 6 15 88 16 83 17 2 18 1 19 89 20 90 21 91 22 92 23
REMARK SMILES IDX 97 24 93 25 96 26 94 27 95 28 84 29 85 30 86 31 87 32 17 33
REMARK SMILES IDX 18 34 19 35 20 36 21 37 22 39 23 40 24 41 82 42 25 43 81 44
REMARK SMILES IDX 26 45 27 46 28 47 75 48 29 49 80 50 74 51 76 52 30 53 79 54
REMARK SMILES IDX 73 55 72 56 31 58 61 59 42 60 60 61 43 62 46 63 59 64 77 65
REMARK SMILES IDX 44 66 45 67 58 69 78 70 47 71 32 72 33 73 41 74 34 75 40 76
REMARK SMILES IDX 35 77 36 78 37 79 38 80 39 81 62 82 63 83 71 84 64 85 70 86
REMARK SMILES IDX 65 87 66 88 67 89 68 90 69 91 48 92 49 93 57 94 50 95 56 96
REMARK SMILES IDX 51 97 52 98 53 99 54 100 55 101
REMARK H PARENT 13 7 20 38 76 57 46 68
REMARK Flexibility Score: inf
ROOT
ATOM      1  C   UNL     1       0.604   6.679   4.912  1.00  0.00     0.002 C 
ENDROOT
BRANCH   1   2
ATOM      2  C   UNL     1       0.601   5.279   5.536  1.00  0.00     0.021 C 
BRANCH   2   3
ATOM      3  C   UNL     1      -0.750   4.883   6.133  1.00  0.00     0.116 C 
BRANCH   3   4
ATOM      4  N   UNL     1      -1.693   4.519   5.092  1.00  0.00    -0.356 N 
ATOM      5  C   UNL     1      -2.186   3.285   4.782  1.00  0.00     0.224 C 
ATOM      6  O   UNL     1      -2.946   3.174   3.818  1.00  0.00    -0.275 OA
ATOM      7  H   UNL     1      -2.020   5.262   4.535  1.00  0.00     0.163 HD
BRANCH   5   8
ATOM      8  C   UNL     1      -1.829   2.087   5.650  1.00  0.00     0.138 C 
BRANCH   8   9
ATOM      9  C   UNL     1      -0.381   1.683   5.560  1.00  0.00     0.000 A 
ATOM     10  C   UNL     1       0.888   0.952   2.033  1.00  0.00     0.119 A 
ATOM     11  C   UNL     1       2.156   0.543   2.412  1.00  0.00     0.048 A 
ATOM     12  C   UNL     1      -0.023   1.375   3.002  1.00  0.00     0.057 A 
ATOM     13  C   UNL     1       2.535   0.543   3.758  1.00  0.00     0.031 A 
ATOM     14  C   UNL     1       0.337   1.385   4.368  1.00  0.00     0.008 A 
ATOM     15  C   UNL     1       1.633   1.008   4.735  1.00  0.00     0.057 A 
ATOM     16  N   UNL     1       1.771   1.266   6.108  1.00  0.00    -0.271 N 
ATOM     17  C   UNL     1       0.489   1.450   6.623  1.00  0.00     0.135 A 
BRANCH  10  18
ATOM     18  O   UNL     1       0.445   1.006   0.740  1.00  0.00    -0.497 OA
ATOM     19  C   UNL     1       0.952  -0.019  -0.108  1.00  0.00     0.278 C 
ENDBRANCH  10  18
BRANCH  16  20
ATOM     20  C   UNL     1       2.988   1.373   6.834  1.00  0.00     0.262 C 
ATOM     21  O   UNL     1       2.943   1.804   7.984  1.00  0.00    -0.268 OA
BRANCH  20  22
ATOM     22  C   UNL     1       4.322   1.052   6.301  1.00  0.00     0.040 A 
ATOM     23  C   UNL     1       4.955   1.925   5.410  1.00  0.00     0.015 A 
ATOM     24  C   UNL     1       4.910  -0.168   6.653  1.00  0.00     0.015 A 
ATOM     25  C   UNL     1       6.149   1.531   4.800  1.00  0.00     0.021 A 
ATOM     26  C   UNL     1       6.109  -0.550   6.048  1.00  0.00     0.021 A 
ATOM     27  C   UNL     1       6.712   0.291   5.110  1.00  0.00     0.041 A 
ATOM     28  Cl  UNL     1       8.144  -0.221   4.305  1.00  0.00    -0.084 Cl
ENDBRANCH  20  22
ENDBRANCH  16  20
BRANCH  17  29
ATOM     29  C   UNL     1       0.192   1.435   8.087  1.00  0.00     0.432 C 
ATOM     30  F   UNL     1       0.277   2.669   8.635  1.00  0.00    -0.165 F 
ATOM     31  F   UNL     1      -1.084   1.007   8.301  1.00  0.00    -0.165 F 
ATOM     32  F   UNL     1       0.971   0.583   8.795  1.00  0.00    -0.165 F 
ENDBRANCH  17  29
ENDBRANCH   8   9
ENDBRANCH   5   8
ENDBRANCH   3   4
ENDBRANCH   2   3
ENDBRANCH   1   2
BRANCH   1  33
ATOM     33  C   UNL     1       0.327   7.823   5.895  1.00  0.00     0.002 C 
BRANCH  33  34
ATOM     34  C   UNL     1       1.267   7.887   7.106  1.00  0.00     0.021 C 
BRANCH  34  35
ATOM     35  C   UNL     1       2.750   7.954   6.744  1.00  0.00     0.116 C 
BRANCH  35  36
ATOM     36  N   UNL     1       3.088   9.073   5.888  1.00  0.00    -0.352 N 
ATOM     37  C   UNL     1       3.385  10.390   6.097  1.00  0.00     0.251 C 
ATOM     38  H   UNL     1       3.108   8.827   4.935  1.00  0.00     0.163 HD
ATOM     39  O   UNL     1       3.716  11.032   5.096  1.00  0.00    -0.269 OA
BRANCH  37  40
ATOM     40  C   UNL     1       3.274  11.098   7.401  1.00  0.00     0.039 A 
ATOM     41  C   UNL     1       3.014  10.501   8.635  1.00  0.00     0.014 A 
ATOM     42  C   UNL     1       3.390  12.501   7.347  1.00  0.00     0.014 A 
ATOM     43  C   UNL     1       2.758  11.283   9.756  1.00  0.00     0.010 A 
ATOM     44  C   UNL     1       3.160  13.286   8.469  1.00  0.00     0.010 A 
ATOM     45  C   UNL     1       2.787  12.675   9.660  1.00  0.00    -0.014 A 
BRANCH  45  46
ATOM     46  C   UNL     1       2.497  13.446  10.864  1.00  0.00     0.031 A 
ATOM     47  C   UNL     1       3.438  13.227  11.999  1.00  0.00     0.074 A 
ATOM     48  C   UNL     1       1.518  14.370  10.931  1.00  0.00     0.049 A 
ATOM     49  N   UNL     1       3.176  12.774  13.181  1.00  0.00    -0.248 NA
ATOM     50  C   UNL     1       4.871  13.434  11.741  1.00  0.00     0.031 C 
ATOM     51  C   UNL     1       0.696  14.899   9.840  1.00  0.00     0.029 A 
ATOM     52  N   UNL     1       1.130  15.123  11.998  1.00  0.00    -0.354 N 
ATOM     53  C   UNL     1       4.380  12.804  13.883  1.00  0.00     0.074 A 
ATOM     54  C   UNL     1       5.405  13.083  12.910  1.00  0.00     0.031 C 
ATOM     55  C   UNL     1       0.100  16.044  10.246  1.00  0.00     0.029 A 
ATOM     56  C   UNL     1       0.374  16.239  11.659  1.00  0.00     0.049 A 
ATOM     57  H   UNL     1       1.365  14.898  12.927  1.00  0.00     0.167 HD
ATOM     58  C   UNL     1       4.430  12.780  15.245  1.00  0.00     0.031 A 
ATOM     59  C   UNL     1       0.067  17.285  12.467  1.00  0.00     0.031 A 
ATOM     60  C   UNL     1       3.202  12.299  15.818  1.00  0.00     0.049 A 
ATOM     61  C   UNL     1       0.215  16.818  13.867  1.00  0.00     0.074 A 
ATOM     62  C   UNL     1       2.502  11.111  15.741  1.00  0.00     0.029 A 
ATOM     63  N   UNL     1       2.316  13.226  16.312  1.00  0.00    -0.354 N 
ATOM     64  N   UNL     1      -0.551  15.914  14.410  1.00  0.00    -0.248 NA
ATOM     65  C   UNL     1       1.488  17.041  14.533  1.00  0.00     0.031 C 
ATOM     66  C   UNL     1       1.132  11.496  15.710  1.00  0.00     0.029 A 
ATOM     67  C   UNL     1       1.073  12.886  15.843  1.00  0.00     0.049 A 
ATOM     68  H   UNL     1       2.533  13.991  16.893  1.00  0.00     0.167 HD
ATOM     69  C   UNL     1       0.301  15.159  15.203  1.00  0.00     0.074 A 
ATOM     70  C   UNL     1       1.520  15.959  15.313  1.00  0.00     0.031 C 
ATOM     71  C   UNL     1       0.050  13.843  15.468  1.00  0.00     0.031 A 
BRANCH  58  72
ATOM     72  C   UNL     1       5.479  13.501  16.059  1.00  0.00    -0.014 A 
ATOM     73  C   UNL     1       6.364  14.448  15.506  1.00  0.00     0.010 A 
ATOM     74  C   UNL     1       5.429  13.429  17.468  1.00  0.00     0.010 A 
ATOM     75  C   UNL     1       7.152  15.284  16.299  1.00  0.00     0.020 A 
ATOM     76  C   UNL     1       6.182  14.295  18.275  1.00  0.00     0.020 A 
ATOM     77  C   UNL     1       7.042  15.217  17.681  1.00  0.00     0.054 A 
BRANCH  77  78
ATOM     78  S   UNL     1       7.974  16.414  18.666  1.00  0.00     0.124 S 
ATOM     79  O   UNL     1       9.348  15.959  18.469  1.00  0.00    -0.237 OA
ATOM     80  O   UNL     1       7.631  17.680  18.026  1.00  0.00    -0.237 OA
ATOM     81  O   UNL     1       7.443  16.235  20.015  1.00  0.00    -0.744 OA
ENDBRANCH  77  78
ENDBRANCH  58  72
BRANCH  59  82
ATOM     82  C   UNL     1       0.122  18.727  12.108  1.00  0.00    -0.014 A 
ATOM     83  C   UNL     1       0.944  19.155  11.046  1.00  0.00     0.010 A 
ATOM     84  C   UNL     1      -0.368  19.706  12.994  1.00  0.00     0.010 A 
ATOM     85  C   UNL     1       1.339  20.491  10.922  1.00  0.00     0.020 A 
ATOM     86  C   UNL     1       0.027  21.051  12.878  1.00  0.00     0.020 A 
ATOM     87  C   UNL     1       0.913  21.423  11.865  1.00  0.00     0.054 A 
BRANCH  87  88
ATOM     88  S   UNL     1       1.621  23.094  11.795  1.00  0.00     0.124 S 
ATOM     89  O   UNL     1       3.018  22.845  12.140  1.00  0.00    -0.237 OA
ATOM     90  O   UNL     1       1.379  23.482  10.408  1.00  0.00    -0.237 OA
ATOM     91  O   UNL     1       0.853  23.839  12.790  1.00  0.00    -0.744 OA
ENDBRANCH  87  88
ENDBRANCH  59  82
BRANCH  71  92
ATOM     92  C   UNL     1      -1.296  13.254  15.091  1.00  0.00    -0.014 A 
ATOM     93  C   UNL     1      -1.971  12.499  16.068  1.00  0.00     0.010 A 
ATOM     94  C   UNL     1      -1.796  13.237  13.773  1.00  0.00     0.010 A 
ATOM     95  C   UNL     1      -3.079  11.715  15.737  1.00  0.00     0.020 A 
ATOM     96  C   UNL     1      -2.927  12.473  13.439  1.00  0.00     0.020 A 
ATOM     97  C   UNL     1      -3.543  11.694  14.421  1.00  0.00     0.054 A 
BRANCH  97  98
ATOM     98  S   UNL     1      -4.939  10.606  14.024  1.00  0.00     0.124 S 
ATOM     99  O   UNL     1      -4.335   9.279  14.124  1.00  0.00    -0.237 OA
ATOM    100  O   UNL     1      -5.908  10.929  15.069  1.00  0.00    -0.237 OA
ATOM    101  O   UNL     1      -5.330  11.007  12.674  1.00  0.00    -0.744 OA
ENDBRANCH  97  98
ENDBRANCH  71  92
ENDBRANCH  45  46
ENDBRANCH  37  40
ENDBRANCH  35  36
ENDBRANCH  34  35
ENDBRANCH  33  34
ENDBRANCH   1  33
TORSDOF 21
