REMARK SMILES O=C(Cc1ccc(F)cc1F)Nc1sccc1C(=O)NCCCCCCNC(=O)c1ccc(-c2c3nc(c(-c4ccc(S(=O)(=O)[O-])cc4)c4ccc([nH]4)c(-c4ccc(S(=O)(=O)[O-])cc4)c4nc(c(-c5ccc(S(=O)(=O)[O-])cc5)c5ccc2[nH]5)C=C4)C=C3)cc1
REMARK SMILES IDX 23 1 22 2 21 3 20 4 18 5 19 6 17 8 13 9 14 10 15 11 16 12
REMARK SMILES IDX 12 13 1 14 2 15 3 17 4 18 5 19 10 20 6 21 9 22 11 23 7 24
REMARK SMILES IDX 8 25 24 26 25 27 26 28 27 29 28 30 29 32 30 33 31 34 89 35
REMARK SMILES IDX 32 36 88 37 33 38 34 39 35 40 82 41 36 42 87 43 81 44 83 45
REMARK SMILES IDX 37 46 86 47 80 48 79 49 38 51 68 52 49 53 67 54 50 55 53 56
REMARK SMILES IDX 66 57 84 58 51 59 52 60 65 62 85 63 54 64 39 65 40 66 48 67
REMARK SMILES IDX 41 68 47 69 42 70 43 71 44 72 45 73 46 74 69 75 70 76 78 77
REMARK SMILES IDX 71 78 77 79 72 80 73 81 74 82 75 83 76 84 55 85 56 86 64 87
REMARK SMILES IDX 57 88 63 89 58 90 59 91 60 92 61 93 62 94
REMARK H PARENT 20 7 12 16 27 31 83 50 53 61
REMARK Flexibility Score: inf
ROOT
ATOM      1  C   UNL     1       3.044   4.226   0.351  1.00  0.00     0.002 C 
ENDROOT
BRANCH   1   2
ATOM      2  C   UNL     1       3.487   3.254  -0.751  1.00  0.00     0.021 C 
BRANCH   2   3
ATOM      3  C   UNL     1       2.626   2.011  -0.949  1.00  0.00     0.116 C 
BRANCH   3   4
ATOM      4  N   UNL     1       1.338   2.197  -1.564  1.00  0.00    -0.352 N 
ATOM      5  C   UNL     1       0.544   1.286  -2.231  1.00  0.00     0.254 C 
ATOM      6  O   UNL     1      -0.586   1.675  -2.543  1.00  0.00    -0.269 OA
ATOM      7  H   UNL     1       0.969   3.107  -1.499  1.00  0.00     0.163 HD
BRANCH   5   8
ATOM      8  C   UNL     1       1.050  -0.001  -2.740  1.00  0.00     0.074 A 
ATOM      9  C   UNL     1       1.909  -0.946  -2.197  1.00  0.00     0.108 A 
ATOM     10  S   UNL     1       2.413  -2.127  -3.327  1.00  0.00    -0.126 S 
ATOM     11  C   UNL     1       1.272  -1.603  -4.476  1.00  0.00     0.068 A 
ATOM     12  C   UNL     1       0.623  -0.470  -4.049  1.00  0.00     0.028 A 
BRANCH   9  13
ATOM     13  N   UNL     1       2.497  -1.175  -0.973  1.00  0.00    -0.317 N 
ATOM     14  O   UNL     1       0.721  -0.533   0.355  1.00  0.00    -0.274 OA
ATOM     15  C   UNL     1       1.908  -0.822   0.221  1.00  0.00     0.229 C 
ATOM     16  H   UNL     1       3.378  -1.613  -0.949  1.00  0.00     0.170 HD
BRANCH  15  17
ATOM     17  C   UNL     1       2.902  -0.607   1.343  1.00  0.00     0.139 C 
BRANCH  17  18
ATOM     18  C   UNL     1       3.829  -1.713   1.750  1.00  0.00    -0.003 A 
ATOM     19  C   UNL     1       3.440  -3.053   1.800  1.00  0.00     0.010 A 
ATOM     20  C   UNL     1       5.116  -1.363   2.205  1.00  0.00     0.129 A 
ATOM     21  C   UNL     1       4.343  -4.014   2.260  1.00  0.00     0.040 A 
ATOM     22  C   UNL     1       6.013  -2.310   2.669  1.00  0.00     0.078 A 
ATOM     23  F   UNL     1       5.495  -0.075   2.195  1.00  0.00    -0.207 F 
ATOM     24  C   UNL     1       5.616  -3.636   2.686  1.00  0.00     0.126 A 
ATOM     25  F   UNL     1       6.469  -4.570   3.121  1.00  0.00    -0.207 F 
ENDBRANCH  17  18
ENDBRANCH  15  17
ENDBRANCH   9  13
ENDBRANCH   5   8
ENDBRANCH   3   4
ENDBRANCH   2   3
ENDBRANCH   1   2
BRANCH   1  26
ATOM     26  C   UNL     1       2.816   3.657   1.760  1.00  0.00     0.002 C 
BRANCH  26  27
ATOM     27  C   UNL     1       3.949   2.834   2.375  1.00  0.00     0.021 C 
BRANCH  27  28
ATOM     28  C   UNL     1       5.318   3.491   2.482  1.00  0.00     0.116 C 
BRANCH  28  29
ATOM     29  N   UNL     1       5.323   4.644   3.360  1.00  0.00    -0.352 N 
ATOM     30  C   UNL     1       6.113   4.925   4.448  1.00  0.00     0.251 C 
ATOM     31  H   UNL     1       4.656   5.334   3.143  1.00  0.00     0.163 HD
ATOM     32  O   UNL     1       5.843   5.904   5.142  1.00  0.00    -0.269 OA
BRANCH  30  33
ATOM     33  C   UNL     1       7.265   4.063   4.814  1.00  0.00     0.039 A 
ATOM     34  C   UNL     1       7.508   3.821   6.171  1.00  0.00     0.014 A 
ATOM     35  C   UNL     1       8.134   3.531   3.857  1.00  0.00     0.014 A 
ATOM     36  C   UNL     1       8.581   3.013   6.560  1.00  0.00     0.010 A 
ATOM     37  C   UNL     1       9.160   2.664   4.242  1.00  0.00     0.010 A 
ATOM     38  C   UNL     1       9.402   2.401   5.599  1.00  0.00    -0.014 A 
BRANCH  38  39
ATOM     39  C   UNL     1      10.504   1.486   6.006  1.00  0.00     0.031 A 
ATOM     40  C   UNL     1      11.940   1.829   5.703  1.00  0.00     0.074 A 
ATOM     41  C   UNL     1      10.210   0.319   6.617  1.00  0.00     0.049 A 
ATOM     42  N   UNL     1      13.024   1.145   5.969  1.00  0.00    -0.248 NA
ATOM     43  C   UNL     1      12.192   3.092   4.991  1.00  0.00     0.031 C 
ATOM     44  C   UNL     1       8.859  -0.155   6.930  1.00  0.00     0.029 A 
ATOM     45  N   UNL     1      11.026  -0.682   7.083  1.00  0.00    -0.354 N 
ATOM     46  C   UNL     1      14.081   1.882   5.445  1.00  0.00     0.074 A 
ATOM     47  C   UNL     1      13.504   3.045   4.806  1.00  0.00     0.031 C 
ATOM     48  C   UNL     1       8.941  -1.338   7.558  1.00  0.00     0.029 A 
ATOM     49  C   UNL     1      10.343  -1.731   7.656  1.00  0.00     0.049 A 
ATOM     50  H   UNL     1      12.007  -0.653   7.013  1.00  0.00     0.167 HD
ATOM     51  C   UNL     1      15.410   1.625   5.502  1.00  0.00     0.031 A 
ATOM     52  C   UNL     1      10.790  -2.884   8.194  1.00  0.00     0.031 A 
ATOM     53  C   UNL     1      15.983   0.474   6.151  1.00  0.00     0.049 A 
ATOM     54  C   UNL     1      12.271  -3.146   8.244  1.00  0.00     0.074 A 
ATOM     55  C   UNL     1      17.322   0.163   6.322  1.00  0.00     0.029 A 
ATOM     56  N   UNL     1      15.258  -0.558   6.727  1.00  0.00    -0.354 N 
ATOM     57  N   UNL     1      13.256  -2.393   7.816  1.00  0.00    -0.248 NA
ATOM     58  C   UNL     1      12.701  -4.408   8.862  1.00  0.00     0.031 C 
ATOM     59  C   UNL     1      17.405  -1.087   6.941  1.00  0.00     0.029 A 
ATOM     60  C   UNL     1      16.120  -1.523   7.221  1.00  0.00     0.049 A 
ATOM     61  H   UNL     1      14.276  -0.599   6.777  1.00  0.00     0.167 HD
ATOM     62  C   UNL     1      14.423  -3.079   8.135  1.00  0.00     0.074 A 
ATOM     63  C   UNL     1      14.021  -4.295   8.811  1.00  0.00     0.031 C 
ATOM     64  C   UNL     1      15.711  -2.734   7.888  1.00  0.00     0.031 A 
BRANCH  51  65
ATOM     65  C   UNL     1      16.347   2.599   4.834  1.00  0.00    -0.014 A 
ATOM     66  C   UNL     1      16.555   3.889   5.354  1.00  0.00     0.010 A 
ATOM     67  C   UNL     1      17.085   2.192   3.706  1.00  0.00     0.010 A 
ATOM     68  C   UNL     1      17.456   4.764   4.741  1.00  0.00     0.020 A 
ATOM     69  C   UNL     1      18.009   3.054   3.107  1.00  0.00     0.020 A 
ATOM     70  C   UNL     1      18.179   4.340   3.621  1.00  0.00     0.054 A 
BRANCH  70  71
ATOM     71  S   UNL     1      19.370   5.484   2.871  1.00  0.00     0.124 S 
ATOM     72  O   UNL     1      18.489   6.473   2.252  1.00  0.00    -0.237 OA
ATOM     73  O   UNL     1      20.130   5.956   4.025  1.00  0.00    -0.237 OA
ATOM     74  O   UNL     1      20.116   4.646   1.936  1.00  0.00    -0.744 OA
ENDBRANCH  70  71
ENDBRANCH  51  65
BRANCH  52  75
ATOM     75  C   UNL     1       9.819  -3.883   8.724  1.00  0.00    -0.014 A 
ATOM     76  C   UNL     1       9.739  -4.151  10.102  1.00  0.00     0.010 A 
ATOM     77  C   UNL     1       8.966  -4.576   7.844  1.00  0.00     0.010 A 
ATOM     78  C   UNL     1       8.844  -5.110  10.587  1.00  0.00     0.020 A 
ATOM     79  C   UNL     1       8.047  -5.510   8.329  1.00  0.00     0.020 A 
ATOM     80  C   UNL     1       8.002  -5.782   9.697  1.00  0.00     0.054 A 
BRANCH  80  81
ATOM     81  S   UNL     1       6.819  -6.992  10.353  1.00  0.00     0.124 S 
ATOM     82  O   UNL     1       7.692  -8.104  10.714  1.00  0.00    -0.237 OA
ATOM     83  O   UNL     1       6.217  -6.269  11.470  1.00  0.00    -0.237 OA
ATOM     84  O   UNL     1       5.923  -7.239   9.225  1.00  0.00    -0.744 OA
ENDBRANCH  80  81
ENDBRANCH  52  75
BRANCH  64  85
ATOM     85  C   UNL     1      16.787  -3.669   8.376  1.00  0.00    -0.014 A 
ATOM     86  C   UNL     1      16.991  -4.925   7.778  1.00  0.00     0.010 A 
ATOM     87  C   UNL     1      17.639  -3.263   9.420  1.00  0.00     0.010 A 
ATOM     88  C   UNL     1      18.001  -5.773   8.241  1.00  0.00     0.020 A 
ATOM     89  C   UNL     1      18.670  -4.093   9.864  1.00  0.00     0.020 A 
ATOM     90  C   UNL     1      18.834  -5.352   9.282  1.00  0.00     0.054 A 
BRANCH  90  91
ATOM     91  S   UNL     1      20.160  -6.457   9.840  1.00  0.00     0.124 S 
ATOM     92  O   UNL     1      19.413  -7.492  10.549  1.00  0.00    -0.237 OA
ATOM     93  O   UNL     1      20.778  -6.875   8.585  1.00  0.00    -0.237 OA
ATOM     94  O   UNL     1      20.992  -5.602  10.684  1.00  0.00    -0.744 OA
ENDBRANCH  90  91
ENDBRANCH  64  85
ENDBRANCH  38  39
ENDBRANCH  30  33
ENDBRANCH  28  29
ENDBRANCH  27  28
ENDBRANCH  26  27
ENDBRANCH   1  26
TORSDOF 19
