REMARK SMILES CC[C@@H]([NH3+])C(=O)NCCOCC(=O)NCCCCCCNC(=O)c1ccc(-c2c3nc(c(-c4ccc(S(=O)(=O)[O-])cc4)c4ccc([nH]4)c(-c4ccc(S(=O)(=O)[O-])cc4)c4nc(c(-c5ccc(S(=O)(=O)[O-])cc5)c5ccc2[nH]5)C=C4)C=C3)cc1
REMARK SMILES IDX 16 1 15 2 14 3 12 4 13 5 11 7 10 8 9 9 8 10 7 11 5 12 6 13
REMARK SMILES IDX 3 15 2 16 1 17 4 18 17 22 18 23 19 24 20 25 21 26 22 27
REMARK SMILES IDX 23 29 24 30 25 31 83 32 26 33 82 34 27 35 28 36 29 37 76 38
REMARK SMILES IDX 30 39 81 40 75 41 77 42 31 43 80 44 74 45 73 46 32 48 62 49
REMARK SMILES IDX 43 50 61 51 44 52 47 53 60 54 78 55 45 56 46 57 59 59 79 60
REMARK SMILES IDX 48 61 33 62 34 63 42 64 35 65 41 66 36 67 37 68 38 69 39 70
REMARK SMILES IDX 40 71 63 72 64 73 72 74 65 75 71 76 66 77 67 78 68 79 69 80
REMARK SMILES IDX 70 81 49 82 50 83 58 84 51 85 57 86 52 87 53 88 54 89 55 90
REMARK SMILES IDX 56 91
REMARK H PARENT 14 6 7 14 4 19 4 20 4 21 21 28 77 47 47 58
REMARK Flexibility Score: inf
ROOT
ATOM      1  C   UNL     1      -4.093   4.443   2.864  1.00  0.00     0.021 C 
ENDROOT
BRANCH   1   2
ATOM      2  C   UNL     1      -3.812   5.565   1.869  1.00  0.00     0.116 C 
BRANCH   2   3
ATOM      3  N   UNL     1      -2.400   5.652   1.555  1.00  0.00    -0.354 N 
ATOM      4  C   UNL     1      -1.809   5.520   0.334  1.00  0.00     0.245 C 
ATOM      5  O   UNL     1      -0.583   5.580   0.250  1.00  0.00    -0.272 OA
ATOM      6  H   UNL     1      -1.797   5.826   2.314  1.00  0.00     0.163 HD
BRANCH   4   7
ATOM      7  C   UNL     1      -2.701   5.295  -0.892  1.00  0.00     0.260 C 
BRANCH   7   8
ATOM      8  O   UNL     1      -3.410   4.069  -0.966  1.00  0.00    -0.370 OA
BRANCH   8   9
ATOM      9  C   UNL     1      -2.613   2.890  -0.820  1.00  0.00     0.182 C 
BRANCH   9  10
ATOM     10  C   UNL     1      -1.819   2.525  -2.083  1.00  0.00     0.144 C 
BRANCH  10  11
ATOM     11  N   UNL     1      -0.619   3.331  -2.256  1.00  0.00    -0.349 N 
ATOM     12  C   UNL     1       0.695   3.035  -2.064  1.00  0.00     0.278 C 
ATOM     13  O   UNL     1       1.524   3.916  -2.312  1.00  0.00    -0.268 OA
ATOM     14  H   UNL     1      -0.787   4.250  -2.567  1.00  0.00     0.163 HD
BRANCH  12  15
ATOM     15  C   UNL     1       1.163   1.625  -1.653  1.00  0.00     0.270 C 
BRANCH  15  16
ATOM     16  C   UNL     1       0.709   1.212  -0.248  1.00  0.00     0.072 C 
ATOM     17  C   UNL     1       1.232  -0.157   0.171  1.00  0.00     0.011 C 
ENDBRANCH  15  16
BRANCH  15  18
ATOM     18  N   UNL     1       0.779   0.658  -2.704  1.00  0.00    -0.347 N 
ATOM     19  H   UNL     1      -0.237   0.635  -2.789  1.00  0.00     0.345 HD
ATOM     20  H   UNL     1       1.119  -0.270  -2.453  1.00  0.00     0.345 HD
ATOM     21  H   UNL     1       1.189   0.942  -3.593  1.00  0.00     0.345 HD
ENDBRANCH  15  18
ENDBRANCH  12  15
ENDBRANCH  10  11
ENDBRANCH   9  10
ENDBRANCH   8   9
ENDBRANCH   7   8
ENDBRANCH   4   7
ENDBRANCH   2   3
ENDBRANCH   1   2
BRANCH   1  22
ATOM     22  C   UNL     1      -3.429   4.632   4.234  1.00  0.00     0.002 C 
BRANCH  22  23
ATOM     23  C   UNL     1      -3.706   5.978   4.911  1.00  0.00     0.002 C 
BRANCH  23  24
ATOM     24  C   UNL     1      -5.186   6.337   5.058  1.00  0.00     0.021 C 
BRANCH  24  25
ATOM     25  C   UNL     1      -6.009   5.319   5.838  1.00  0.00     0.116 C 
BRANCH  25  26
ATOM     26  N   UNL     1      -5.561   5.197   7.215  1.00  0.00    -0.352 N 
ATOM     27  C   UNL     1      -6.285   5.320   8.376  1.00  0.00     0.251 C 
ATOM     28  H   UNL     1      -4.604   5.000   7.333  1.00  0.00     0.163 HD
ATOM     29  O   UNL     1      -5.709   5.389   9.455  1.00  0.00    -0.269 OA
BRANCH  27  30
ATOM     30  C   UNL     1      -7.761   5.388   8.312  1.00  0.00     0.039 A 
ATOM     31  C   UNL     1      -8.429   6.341   9.083  1.00  0.00     0.014 A 
ATOM     32  C   UNL     1      -8.483   4.515   7.491  1.00  0.00     0.014 A 
ATOM     33  C   UNL     1      -9.817   6.457   8.987  1.00  0.00     0.010 A 
ATOM     34  C   UNL     1      -9.855   4.686   7.337  1.00  0.00     0.010 A 
ATOM     35  C   UNL     1     -10.538   5.653   8.089  1.00  0.00    -0.014 A 
BRANCH  35  36
ATOM     36  C   UNL     1     -12.006   5.812   7.923  1.00  0.00     0.031 A 
ATOM     37  C   UNL     1     -12.935   4.679   8.266  1.00  0.00     0.074 A 
ATOM     38  C   UNL     1     -12.498   6.954   7.403  1.00  0.00     0.049 A 
ATOM     39  N   UNL     1     -14.236   4.614   8.141  1.00  0.00    -0.248 NA
ATOM     40  C   UNL     1     -12.319   3.451   8.792  1.00  0.00     0.031 C 
ATOM     41  C   UNL     1     -11.697   8.107   6.984  1.00  0.00     0.029 A 
ATOM     42  N   UNL     1     -13.789   7.330   7.129  1.00  0.00    -0.354 N 
ATOM     43  C   UNL     1     -14.592   3.338   8.562  1.00  0.00     0.074 A 
ATOM     44  C   UNL     1     -13.365   2.643   8.886  1.00  0.00     0.031 C 
ATOM     45  C   UNL     1     -12.515   9.066   6.525  1.00  0.00     0.029 A 
ATOM     46  C   UNL     1     -13.892   8.584   6.575  1.00  0.00     0.049 A 
ATOM     47  H   UNL     1     -14.568   6.756   7.311  1.00  0.00     0.167 HD
ATOM     48  C   UNL     1     -15.829   2.799   8.690  1.00  0.00     0.031 A 
ATOM     49  C   UNL     1     -14.970   9.268   6.143  1.00  0.00     0.031 A 
ATOM     50  C   UNL     1     -17.046   3.492   8.358  1.00  0.00     0.049 A 
ATOM     51  C   UNL     1     -16.332   8.647   6.277  1.00  0.00     0.074 A 
ATOM     52  C   UNL     1     -18.352   3.052   8.495  1.00  0.00     0.029 A 
ATOM     53  N   UNL     1     -17.109   4.767   7.815  1.00  0.00    -0.354 N 
ATOM     54  N   UNL     1     -16.656   7.466   6.747  1.00  0.00    -0.248 NA
ATOM     55  C   UNL     1     -17.477   9.457   5.838  1.00  0.00     0.031 C 
ATOM     56  C   UNL     1     -19.200   4.037   7.977  1.00  0.00     0.029 A 
ATOM     57  C   UNL     1     -18.429   5.120   7.583  1.00  0.00     0.049 A 
ATOM     58  H   UNL     1     -16.330   5.338   7.622  1.00  0.00     0.167 HD
ATOM     59  C   UNL     1     -18.044   7.399   6.681  1.00  0.00     0.074 A 
ATOM     60  C   UNL     1     -18.497   8.666   6.144  1.00  0.00     0.031 C 
ATOM     61  C   UNL     1     -18.867   6.381   7.037  1.00  0.00     0.031 A 
BRANCH  48  62
ATOM     62  C   UNL     1     -15.916   1.381   9.197  1.00  0.00    -0.014 A 
ATOM     63  C   UNL     1     -15.545   1.053  10.515  1.00  0.00     0.010 A 
ATOM     64  C   UNL     1     -16.383   0.360   8.348  1.00  0.00     0.010 A 
ATOM     65  C   UNL     1     -15.578  -0.273  10.954  1.00  0.00     0.020 A 
ATOM     66  C   UNL     1     -16.451  -0.963   8.794  1.00  0.00     0.020 A 
ATOM     67  C   UNL     1     -16.025  -1.274  10.087  1.00  0.00     0.054 A 
BRANCH  67  68
ATOM     68  S   UNL     1     -16.048  -2.988  10.680  1.00  0.00     0.124 S 
ATOM     69  O   UNL     1     -14.623  -3.312  10.716  1.00  0.00    -0.237 OA
ATOM     70  O   UNL     1     -16.697  -2.868  11.982  1.00  0.00    -0.237 OA
ATOM     71  O   UNL     1     -16.821  -3.697   9.663  1.00  0.00    -0.744 OA
ENDBRANCH  67  68
ENDBRANCH  48  62
BRANCH  49  72
ATOM     72  C   UNL     1     -14.790  10.619   5.544  1.00  0.00    -0.014 A 
ATOM     73  C   UNL     1     -15.208  11.773   6.228  1.00  0.00     0.010 A 
ATOM     74  C   UNL     1     -14.155  10.758   4.295  1.00  0.00     0.010 A 
ATOM     75  C   UNL     1     -15.001  13.040   5.673  1.00  0.00     0.020 A 
ATOM     76  C   UNL     1     -13.919  12.023   3.751  1.00  0.00     0.020 A 
ATOM     77  C   UNL     1     -14.351  13.157   4.441  1.00  0.00     0.054 A 
BRANCH  77  78
ATOM     78  S   UNL     1     -14.026  14.814   3.776  1.00  0.00     0.124 S 
ATOM     79  O   UNL     1     -15.361  15.249   3.378  1.00  0.00    -0.237 OA
ATOM     80  O   UNL     1     -13.450  15.506   4.926  1.00  0.00    -0.237 OA
ATOM     81  O   UNL     1     -13.094  14.565   2.678  1.00  0.00    -0.744 OA
ENDBRANCH  77  78
ENDBRANCH  49  72
BRANCH  61  82
ATOM     82  C   UNL     1     -20.350   6.601   6.883  1.00  0.00    -0.014 A 
ATOM     83  C   UNL     1     -20.954   6.657   5.615  1.00  0.00     0.010 A 
ATOM     84  C   UNL     1     -21.158   6.697   8.031  1.00  0.00     0.010 A 
ATOM     85  C   UNL     1     -22.336   6.837   5.498  1.00  0.00     0.020 A 
ATOM     86  C   UNL     1     -22.542   6.845   7.919  1.00  0.00     0.020 A 
ATOM     87  C   UNL     1     -23.121   6.928   6.652  1.00  0.00     0.054 A 
BRANCH  87  88
ATOM     88  S   UNL     1     -24.916   7.115   6.472  1.00  0.00     0.124 S 
ATOM     89  O   UNL     1     -25.032   8.491   5.997  1.00  0.00    -0.237 OA
ATOM     90  O   UNL     1     -25.249   6.082   5.495  1.00  0.00    -0.237 OA
ATOM     91  O   UNL     1     -25.427   6.877   7.820  1.00  0.00    -0.744 OA
ENDBRANCH  87  88
ENDBRANCH  61  82
ENDBRANCH  35  36
ENDBRANCH  27  30
ENDBRANCH  25  26
ENDBRANCH  24  25
ENDBRANCH  23  24
ENDBRANCH  22  23
ENDBRANCH   1  22
TORSDOF 23
