REMARK SMILES CC[C@@H]1CCC[C@](CCCCCO)(C(=O)NCCCCCCNC(=O)c2ccc(-c3c4nc(c(-c5ccc(S(=O)(=O)[O-])cc5)c5ccc([nH]5)c(-c5ccc(S(=O)(=O)[O-])cc5)c5nc(c(-c6ccc(S(=O)(=O)[O-])cc6)c6ccc3[nH]6)C=C5)C=C4)cc2)C1
REMARK SMILES IDX 18 1 17 2 16 3 14 4 15 5 7 7 3 8 4 9 86 10 5 11 6 12 2 13
REMARK SMILES IDX 1 14 8 15 9 16 10 17 11 18 12 19 13 20 19 22 20 23 21 24
REMARK SMILES IDX 22 25 23 26 24 27 25 29 26 30 27 31 85 32 28 33 84 34 29 35
REMARK SMILES IDX 30 36 31 37 78 38 32 39 83 40 77 41 79 42 33 43 82 44 76 45
REMARK SMILES IDX 75 46 34 48 64 49 45 50 63 51 46 52 49 53 62 54 80 55 47 56
REMARK SMILES IDX 48 57 61 59 81 60 50 61 35 62 36 63 44 64 37 65 43 66 38 67
REMARK SMILES IDX 39 68 40 69 41 70 42 71 65 72 66 73 74 74 67 75 73 76 68 77
REMARK SMILES IDX 69 78 70 79 71 80 72 81 51 82 52 83 60 84 53 85 59 86 54 87
REMARK SMILES IDX 55 88 56 89 57 90 58 91
REMARK H PARENT 16 6 13 21 23 28 79 47 49 58
REMARK Flexibility Score: inf
ROOT
ATOM      1  C   UNL     1       5.697   1.566  -2.566  1.00  0.00     0.021 C 
ENDROOT
BRANCH   1   2
ATOM      2  C   UNL     1       4.871   0.463  -3.206  1.00  0.00     0.116 C 
BRANCH   2   3
ATOM      3  N   UNL     1       5.077  -0.848  -2.617  1.00  0.00    -0.356 N 
ATOM      4  C   UNL     1       4.325  -1.990  -2.639  1.00  0.00     0.226 C 
ATOM      5  O   UNL     1       4.918  -3.030  -2.328  1.00  0.00    -0.274 OA
ATOM      6  H   UNL     1       5.915  -0.931  -2.106  1.00  0.00     0.163 HD
BRANCH   4   7
ATOM      7  C   UNL     1       2.818  -2.009  -3.015  1.00  0.00     0.049 C 
ATOM      8  C   UNL     1       0.579  -0.964  -2.089  1.00  0.00    -0.010 C 
ATOM      9  C   UNL     1       0.070  -2.345  -1.683  1.00  0.00     0.003 C 
ATOM     10  C   UNL     1       2.108  -0.926  -2.158  1.00  0.00     0.020 C 
ATOM     11  C   UNL     1       0.698  -3.442  -2.534  1.00  0.00     0.001 C 
ATOM     12  C   UNL     1       2.229  -3.375  -2.495  1.00  0.00     0.017 C 
BRANCH   8  13
ATOM     13  C   UNL     1       0.043   0.165  -1.175  1.00  0.00     0.000 C 
ATOM     14  C   UNL     1       0.561   0.169   0.261  1.00  0.00     0.004 C 
ENDBRANCH   8  13
BRANCH   7  15
ATOM     15  C   UNL     1       2.534  -1.991  -4.559  1.00  0.00     0.017 C 
BRANCH  15  16
ATOM     16  C   UNL     1       3.340  -1.152  -5.560  1.00  0.00     0.001 C 
BRANCH  16  17
ATOM     17  C   UNL     1       4.787  -1.599  -5.834  1.00  0.00     0.002 C 
BRANCH  17  18
ATOM     18  C   UNL     1       4.962  -2.804  -6.761  1.00  0.00     0.028 C 
BRANCH  18  19
ATOM     19  C   UNL     1       4.779  -2.487  -8.240  1.00  0.00     0.156 C 
BRANCH  19  20
ATOM     20  O   UNL     1       5.719  -1.510  -8.667  1.00  0.00    -0.396 OA
ATOM     21  H   UNL     1       5.587  -0.692  -8.162  1.00  0.00     0.210 HD
ENDBRANCH  19  20
ENDBRANCH  18  19
ENDBRANCH  17  18
ENDBRANCH  16  17
ENDBRANCH  15  16
ENDBRANCH   7  15
ENDBRANCH   4   7
ENDBRANCH   2   3
ENDBRANCH   1   2
BRANCH   1  22
ATOM     22  C   UNL     1       7.170   1.548  -2.979  1.00  0.00     0.002 C 
BRANCH  22  23
ATOM     23  C   UNL     1       7.448   1.503  -4.490  1.00  0.00     0.002 C 
BRANCH  23  24
ATOM     24  C   UNL     1       6.736   2.559  -5.343  1.00  0.00     0.021 C 
BRANCH  24  25
ATOM     25  C   UNL     1       6.933   4.004  -4.896  1.00  0.00     0.116 C 
BRANCH  25  26
ATOM     26  N   UNL     1       8.333   4.359  -4.759  1.00  0.00    -0.352 N 
ATOM     27  C   UNL     1       8.993   5.499  -5.138  1.00  0.00     0.251 C 
ATOM     28  H   UNL     1       8.895   3.676  -4.328  1.00  0.00     0.163 HD
ATOM     29  O   UNL     1      10.215   5.545  -5.048  1.00  0.00    -0.269 OA
BRANCH  27  30
ATOM     30  C   UNL     1       8.245   6.656  -5.677  1.00  0.00     0.039 A 
ATOM     31  C   UNL     1       8.782   7.335  -6.774  1.00  0.00     0.014 A 
ATOM     32  C   UNL     1       7.043   7.088  -5.108  1.00  0.00     0.014 A 
ATOM     33  C   UNL     1       8.091   8.412  -7.328  1.00  0.00     0.010 A 
ATOM     34  C   UNL     1       6.318   8.117  -5.708  1.00  0.00     0.010 A 
ATOM     35  C   UNL     1       6.836   8.791  -6.822  1.00  0.00    -0.014 A 
BRANCH  35  36
ATOM     36  C   UNL     1       6.059   9.874  -7.477  1.00  0.00     0.031 A 
ATOM     37  C   UNL     1       5.758  11.156  -6.749  1.00  0.00     0.074 A 
ATOM     38  C   UNL     1       5.604   9.687  -8.732  1.00  0.00     0.049 A 
ATOM     39  N   UNL     1       5.125  12.217  -7.181  1.00  0.00    -0.248 NA
ATOM     40  C   UNL     1       6.205  11.254  -5.351  1.00  0.00     0.031 C 
ATOM     41  C   UNL     1       5.789   8.467  -9.524  1.00  0.00     0.029 A 
ATOM     42  N   UNL     1       4.902  10.519  -9.567  1.00  0.00    -0.354 N 
ATOM     43  C   UNL     1       5.095  13.105  -6.112  1.00  0.00     0.074 A 
ATOM     44  C   UNL     1       5.723  12.436  -4.993  1.00  0.00     0.031 C 
ATOM     45  C   UNL     1       5.255   8.648 -10.742  1.00  0.00     0.029 A 
ATOM     46  C   UNL     1       4.655   9.976 -10.806  1.00  0.00     0.049 A 
ATOM     47  H   UNL     1       4.604  11.419  -9.303  1.00  0.00     0.167 HD
ATOM     48  C   UNL     1       4.608  14.369  -6.071  1.00  0.00     0.031 A 
ATOM     49  C   UNL     1       4.019  10.489 -11.877  1.00  0.00     0.031 A 
ATOM     50  C   UNL     1       3.982  15.028  -7.188  1.00  0.00     0.049 A 
ATOM     51  C   UNL     1       3.477  11.889 -11.802  1.00  0.00     0.074 A 
ATOM     52  C   UNL     1       3.504  16.325  -7.264  1.00  0.00     0.029 A 
ATOM     53  N   UNL     1       3.739  14.441  -8.421  1.00  0.00    -0.354 N 
ATOM     54  N   UNL     1       3.529  12.741 -10.806  1.00  0.00    -0.248 NA
ATOM     55  C   UNL     1       2.803  12.402 -13.002  1.00  0.00     0.031 C 
ATOM     56  C   UNL     1       2.917  16.502  -8.521  1.00  0.00     0.029 A 
ATOM     57  C   UNL     1       3.089  15.338  -9.254  1.00  0.00     0.049 A 
ATOM     58  H   UNL     1       3.992  13.522  -8.669  1.00  0.00     0.167 HD
ATOM     59  C   UNL     1       2.912  13.899 -11.266  1.00  0.00     0.074 A 
ATOM     60  C   UNL     1       2.519  13.645 -12.637  1.00  0.00     0.031 C 
ATOM     61  C   UNL     1       2.689  15.066 -10.612  1.00  0.00     0.031 A 
BRANCH  48  62
ATOM     62  C   UNL     1       4.726  15.121  -4.770  1.00  0.00    -0.014 A 
ATOM     63  C   UNL     1       5.977  15.540  -4.281  1.00  0.00     0.010 A 
ATOM     64  C   UNL     1       3.566  15.457  -4.047  1.00  0.00     0.010 A 
ATOM     65  C   UNL     1       6.070  16.243  -3.076  1.00  0.00     0.020 A 
ATOM     66  C   UNL     1       3.651  16.186  -2.857  1.00  0.00     0.020 A 
ATOM     67  C   UNL     1       4.906  16.560  -2.371  1.00  0.00     0.054 A 
BRANCH  67  68
ATOM     68  S   UNL     1       5.056  17.494  -0.823  1.00  0.00     0.124 S 
ATOM     69  O   UNL     1       5.633  16.497   0.075  1.00  0.00    -0.237 OA
ATOM     70  O   UNL     1       5.944  18.591  -1.196  1.00  0.00    -0.237 OA
ATOM     71  O   UNL     1       3.681  17.884  -0.518  1.00  0.00    -0.744 OA
ENDBRANCH  67  68
ENDBRANCH  48  62
BRANCH  49  72
ATOM     72  C   UNL     1       3.876   9.675 -13.116  1.00  0.00    -0.014 A 
ATOM     73  C   UNL     1       4.576  10.019 -14.286  1.00  0.00     0.010 A 
ATOM     74  C   UNL     1       3.047   8.538 -13.126  1.00  0.00     0.010 A 
ATOM     75  C   UNL     1       4.435   9.254 -15.447  1.00  0.00     0.020 A 
ATOM     76  C   UNL     1       2.928   7.753 -14.275  1.00  0.00     0.020 A 
ATOM     77  C   UNL     1       3.613   8.123 -15.433  1.00  0.00     0.054 A 
BRANCH  77  78
ATOM     78  S   UNL     1       3.483   7.116 -16.936  1.00  0.00     0.124 S 
ATOM     79  O   UNL     1       2.675   7.968 -17.803  1.00  0.00    -0.237 OA
ATOM     80  O   UNL     1       4.881   6.955 -17.329  1.00  0.00    -0.237 OA
ATOM     81  O   UNL     1       2.829   5.894 -16.473  1.00  0.00    -0.744 OA
ENDBRANCH  77  78
ENDBRANCH  49  72
BRANCH  61  82
ATOM     82  C   UNL     1       2.003  16.165 -11.381  1.00  0.00    -0.014 A 
ATOM     83  C   UNL     1       0.645  16.069 -11.735  1.00  0.00     0.010 A 
ATOM     84  C   UNL     1       2.720  17.324 -11.728  1.00  0.00     0.010 A 
ATOM     85  C   UNL     1       0.029  17.092 -12.461  1.00  0.00     0.020 A 
ATOM     86  C   UNL     1       2.099  18.364 -12.425  1.00  0.00     0.020 A 
ATOM     87  C   UNL     1       0.762  18.232 -12.803  1.00  0.00     0.054 A 
BRANCH  87  88
ATOM     88  S   UNL     1      -0.067  19.556 -13.724  1.00  0.00     0.124 S 
ATOM     89  O   UNL     1      -0.194  18.967 -15.054  1.00  0.00    -0.237 OA
ATOM     90  O   UNL     1      -1.318  19.723 -12.989  1.00  0.00    -0.237 OA
ATOM     91  O   UNL     1       0.861  20.681 -13.627  1.00  0.00    -0.744 OA
ENDBRANCH  87  88
ENDBRANCH  61  82
ENDBRANCH  35  36
ENDBRANCH  27  30
ENDBRANCH  25  26
ENDBRANCH  24  25
ENDBRANCH  23  24
ENDBRANCH  22  23
ENDBRANCH   1  22
TORSDOF 23
