REMARK SMILES O=C(NCCCCCCNC(=O)C1CCN(C(=O)CCN2C(=O)[C@H]3Cc4ccccc4CN3C2=O)CC1)c1ccc(-c2c3nc(c(-c4ccc(S(=O)(=O)[O-])cc4)c4ccc([nH]4)c(-c4ccc(S(=O)(=O)[O-])cc4)c4nc(c(-c5ccc(S(=O)(=O)[O-])cc5)c5ccc2[nH]5)C=C4)C=C3)cc1
REMARK SMILES IDX 6 1 5 2 4 3 3 4 1 5 2 6 38 8 39 9 97 10 40 11 96 12 41 13
REMARK SMILES IDX 42 14 43 15 90 16 44 17 95 18 89 19 91 20 45 21 94 22 88 23
REMARK SMILES IDX 87 24 46 26 76 27 57 28 75 29 58 30 61 31 74 32 92 33 59 34
REMARK SMILES IDX 60 35 73 37 93 38 62 39 47 40 48 41 56 42 49 43 55 44 50 45
REMARK SMILES IDX 51 46 52 47 53 48 54 49 77 50 78 51 86 52 79 53 85 54 80 55
REMARK SMILES IDX 81 56 82 57 83 58 84 59 63 60 64 61 72 62 65 63 71 64 66 65
REMARK SMILES IDX 67 66 68 67 69 68 70 69 7 70 8 71 9 72 10 73 11 74 12 76
REMARK SMILES IDX 13 77 14 78 37 79 15 80 36 81 16 82 17 83 18 84 19 85 20 86
REMARK SMILES IDX 21 87 22 88 34 89 23 90 24 91 33 92 35 93 25 94 32 95 26 96
REMARK SMILES IDX 31 97 27 98 30 99 28 100 29 101
REMARK H PARENT 3 7 91 25 61 36 10 75
REMARK Flexibility Score: inf
ROOT
ATOM      1  C   UNL     1       3.620  -3.300   1.514  1.00  0.00     0.002 C 
ENDROOT
BRANCH   1   2
ATOM      2  C   UNL     1       4.165  -1.871   1.583  1.00  0.00     0.021 C 
BRANCH   2   3
ATOM      3  C   UNL     1       4.177  -1.143   0.249  1.00  0.00     0.116 C 
BRANCH   3   4
ATOM      4  N   UNL     1       2.829  -0.944  -0.238  1.00  0.00    -0.352 N 
ATOM      5  O   UNL     1       0.913   0.220  -0.421  1.00  0.00    -0.269 OA
ATOM      6  C   UNL     1       2.136   0.233  -0.333  1.00  0.00     0.251 C 
ATOM      7  H   UNL     1       2.352  -1.752  -0.536  1.00  0.00     0.163 HD
BRANCH   6   8
ATOM      8  C   UNL     1       2.878   1.512  -0.350  1.00  0.00     0.039 A 
ATOM      9  C   UNL     1       2.346   2.615   0.320  1.00  0.00     0.014 A 
ATOM     10  C   UNL     1       4.059   1.635  -1.091  1.00  0.00     0.014 A 
ATOM     11  C   UNL     1       2.985   3.851   0.223  1.00  0.00     0.010 A 
ATOM     12  C   UNL     1       4.741   2.844  -1.116  1.00  0.00     0.010 A 
ATOM     13  C   UNL     1       4.176   3.975  -0.511  1.00  0.00    -0.014 A 
BRANCH  13  14
ATOM     14  C   UNL     1       4.766   5.302  -0.796  1.00  0.00     0.031 A 
ATOM     15  C   UNL     1       4.756   5.805  -2.217  1.00  0.00     0.074 A 
ATOM     16  C   UNL     1       5.315   6.035   0.190  1.00  0.00     0.049 A 
ATOM     17  N   UNL     1       5.289   6.891  -2.710  1.00  0.00    -0.248 NA
ATOM     18  C   UNL     1       4.079   4.963  -3.222  1.00  0.00     0.031 C 
ATOM     19  C   UNL     1       5.374   5.644   1.599  1.00  0.00     0.029 A 
ATOM     20  N   UNL     1       5.922   7.264   0.157  1.00  0.00    -0.354 N 
ATOM     21  C   UNL     1       5.029   6.850  -4.075  1.00  0.00     0.074 A 
ATOM     22  C   UNL     1       4.346   5.608  -4.347  1.00  0.00     0.031 C 
ATOM     23  C   UNL     1       5.955   6.630   2.301  1.00  0.00     0.029 A 
ATOM     24  C   UNL     1       6.350   7.701   1.388  1.00  0.00     0.049 A 
ATOM     25  H   UNL     1       6.041   7.784  -0.670  1.00  0.00     0.167 HD
ATOM     26  C   UNL     1       5.303   7.784  -5.013  1.00  0.00     0.031 A 
ATOM     27  C   UNL     1       6.987   8.836   1.740  1.00  0.00     0.031 A 
ATOM     28  C   UNL     1       5.937   9.039  -4.719  1.00  0.00     0.049 A 
ATOM     29  C   UNL     1       7.296   9.856   0.677  1.00  0.00     0.074 A 
ATOM     30  C   UNL     1       6.225  10.074  -5.590  1.00  0.00     0.029 A 
ATOM     31  N   UNL     1       6.358   9.439  -3.460  1.00  0.00    -0.354 N 
ATOM     32  N   UNL     1       7.025   9.811  -0.606  1.00  0.00    -0.248 NA
ATOM     33  C   UNL     1       7.986  11.082   1.103  1.00  0.00     0.031 C 
ATOM     34  C   UNL     1       6.871  11.077  -4.867  1.00  0.00     0.029 A 
ATOM     35  C   UNL     1       6.921  10.699  -3.534  1.00  0.00     0.049 A 
ATOM     36  H   UNL     1       6.270   8.905  -2.638  1.00  0.00     0.167 HD
ATOM     37  C   UNL     1       7.487  11.011  -1.136  1.00  0.00     0.074 A 
ATOM     38  C   UNL     1       8.046  11.766  -0.034  1.00  0.00     0.031 C 
ATOM     39  C   UNL     1       7.454  11.444  -2.419  1.00  0.00     0.031 A 
BRANCH  26  40
ATOM     40  C   UNL     1       4.895   7.514  -6.437  1.00  0.00    -0.014 A 
ATOM     41  C   UNL     1       5.878   7.372  -7.433  1.00  0.00     0.010 A 
ATOM     42  C   UNL     1       3.538   7.519  -6.810  1.00  0.00     0.010 A 
ATOM     43  C   UNL     1       5.516   7.279  -8.779  1.00  0.00     0.020 A 
ATOM     44  C   UNL     1       3.171   7.394  -8.153  1.00  0.00     0.020 A 
ATOM     45  C   UNL     1       4.164   7.303  -9.131  1.00  0.00     0.054 A 
BRANCH  45  46
ATOM     46  S   UNL     1       3.714   7.225 -10.886  1.00  0.00     0.124 S 
ATOM     47  O   UNL     1       4.050   8.567 -11.350  1.00  0.00    -0.237 OA
ATOM     48  O   UNL     1       4.568   6.150 -11.386  1.00  0.00    -0.237 OA
ATOM     49  O   UNL     1       2.287   6.911 -10.859  1.00  0.00    -0.744 OA
ENDBRANCH  45  46
ENDBRANCH  26  40
BRANCH  27  50
ATOM     50  C   UNL     1       7.323   9.069   3.172  1.00  0.00    -0.014 A 
ATOM     51  C   UNL     1       8.279   8.267   3.823  1.00  0.00     0.010 A 
ATOM     52  C   UNL     1       6.627  10.037   3.916  1.00  0.00     0.010 A 
ATOM     53  C   UNL     1       8.494   8.391   5.198  1.00  0.00     0.020 A 
ATOM     54  C   UNL     1       6.860  10.185   5.288  1.00  0.00     0.020 A 
ATOM     55  C   UNL     1       7.771   9.340   5.925  1.00  0.00     0.054 A 
BRANCH  55  56
ATOM     56  S   UNL     1       8.026   9.445   7.718  1.00  0.00     0.124 S 
ATOM     57  O   UNL     1       7.299   8.270   8.192  1.00  0.00    -0.237 OA
ATOM     58  O   UNL     1       9.480   9.375   7.839  1.00  0.00    -0.237 OA
ATOM     59  O   UNL     1       7.435  10.732   8.073  1.00  0.00    -0.744 OA
ENDBRANCH  55  56
ENDBRANCH  27  50
BRANCH  39  60
ATOM     60  C   UNL     1       8.017  12.803  -2.736  1.00  0.00    -0.014 A 
ATOM     61  C   UNL     1       7.152  13.825  -3.172  1.00  0.00     0.010 A 
ATOM     62  C   UNL     1       9.406  13.008  -2.787  1.00  0.00     0.010 A 
ATOM     63  C   UNL     1       7.667  15.007  -3.708  1.00  0.00     0.020 A 
ATOM     64  C   UNL     1       9.924  14.203  -3.295  1.00  0.00     0.020 A 
ATOM     65  C   UNL     1       9.051  15.180  -3.783  1.00  0.00     0.054 A 
BRANCH  65  66
ATOM     66  S   UNL     1       9.701  16.687  -4.554  1.00  0.00     0.124 S 
ATOM     67  O   UNL     1       9.475  16.428  -5.972  1.00  0.00    -0.237 OA
ATOM     68  O   UNL     1       8.870  17.733  -3.963  1.00  0.00    -0.237 OA
ATOM     69  O   UNL     1      11.102  16.706  -4.138  1.00  0.00    -0.744 OA
ENDBRANCH  65  66
ENDBRANCH  39  60
ENDBRANCH  13  14
ENDBRANCH   6   8
ENDBRANCH   3   4
ENDBRANCH   2   3
ENDBRANCH   1   2
BRANCH   1  70
ATOM     70  C   UNL     1       4.309  -4.219   0.502  1.00  0.00     0.002 C 
BRANCH  70  71
ATOM     71  C   UNL     1       5.836  -4.172   0.501  1.00  0.00     0.021 C 
BRANCH  71  72
ATOM     72  C   UNL     1       6.486  -4.265   1.873  1.00  0.00     0.116 C 
BRANCH  72  73
ATOM     73  N   UNL     1       6.586  -5.614   2.355  1.00  0.00    -0.356 N 
ATOM     74  C   UNL     1       7.608  -6.492   2.247  1.00  0.00     0.223 C 
ATOM     75  H   UNL     1       5.793  -5.949   2.833  1.00  0.00     0.163 HD
ATOM     76  O   UNL     1       7.489  -7.572   2.837  1.00  0.00    -0.275 OA
BRANCH  74  77
ATOM     77  C   UNL     1       8.796  -6.253   1.320  1.00  0.00     0.082 C 
ATOM     78  C   UNL     1       9.658  -4.994   1.487  1.00  0.00     0.035 C 
ATOM     79  C   UNL     1       8.419  -6.707  -0.103  1.00  0.00     0.035 C 
ATOM     80  C   UNL     1       9.789  -4.138   0.232  1.00  0.00     0.120 C 
ATOM     81  C   UNL     1       8.758  -5.762  -1.242  1.00  0.00     0.120 C 
ATOM     82  N   UNL     1       9.946  -4.990  -0.942  1.00  0.00    -0.343 N 
ATOM     83  C   UNL     1      11.171  -5.045  -1.587  1.00  0.00     0.224 C 
ATOM     84  O   UNL     1      12.112  -4.319  -1.256  1.00  0.00    -0.275 OA
BRANCH  83  85
ATOM     85  C   UNL     1      11.382  -6.017  -2.737  1.00  0.00     0.122 C 
BRANCH  85  86
ATOM     86  C   UNL     1      12.318  -7.166  -2.349  1.00  0.00     0.140 C 
BRANCH  86  87
ATOM     87  N   UNL     1      11.671  -8.196  -1.548  1.00  0.00    -0.262 N 
ATOM     88  C   UNL     1      11.032  -9.312  -2.035  1.00  0.00     0.253 C 
ATOM     89  C   UNL     1      11.626  -8.182  -0.181  1.00  0.00     0.327 C 
ATOM     90  O   UNL     1      10.949  -9.649  -3.208  1.00  0.00    -0.272 OA
ATOM     91  C   UNL     1      10.328 -10.010  -0.873  1.00  0.00     0.181 C 
ATOM     92  N   UNL     1      10.881  -9.264   0.227  1.00  0.00    -0.308 N 
ATOM     93  O   UNL     1      12.123  -7.351   0.562  1.00  0.00    -0.248 OA
ATOM     94  C   UNL     1      10.548 -11.499  -0.657  1.00  0.00     0.071 C 
ATOM     95  C   UNL     1      10.438  -9.533   1.570  1.00  0.00     0.158 C 
ATOM     96  C   UNL     1       9.994 -11.891   0.708  1.00  0.00    -0.040 A 
ATOM     97  C   UNL     1       9.950 -10.943   1.754  1.00  0.00    -0.025 A 
ATOM     98  C   UNL     1       9.505 -13.179   0.950  1.00  0.00     0.004 A 
ATOM     99  C   UNL     1       9.354 -11.269   2.982  1.00  0.00     0.006 A 
ATOM    100  C   UNL     1       8.927 -13.497   2.184  1.00  0.00     0.000 A 
ATOM    101  C   UNL     1       8.836 -12.540   3.193  1.00  0.00     0.000 A 
ENDBRANCH  86  87
ENDBRANCH  85  86
ENDBRANCH  83  85
ENDBRANCH  74  77
ENDBRANCH  72  73
ENDBRANCH  71  72
ENDBRANCH  70  71
ENDBRANCH   1  70
TORSDOF 19
