REMARK SMILES CCCc1cc(OC(F)(F)F)cc2c1O[C@@H](C(F)(F)F)C(C(=O)NCCCCCCNC(=O)c1ccc(-c3c4nc(c(-c5ccc(S(=O)(=O)[O-])cc5)c5ccc([nH]5)c(-c5ccc(S(=O)(=O)[O-])cc5)c5nc(c(-c6ccc(S(=O)(=O)[O-])cc6)c6ccc3[nH]6)C=C5)C=C4)cc1)=C2
REMARK SMILES IDX 28 1 27 2 26 3 25 4 24 5 22 6 23 7 21 9 4 10 5 11 14 12 6 13
REMARK SMILES IDX 13 14 15 15 12 16 94 17 16 18 3 19 2 20 1 21 7 22 8 23 9 24
REMARK SMILES IDX 10 25 11 26 17 27 18 28 19 29 20 30 29 31 30 32 31 33 32 34
REMARK SMILES IDX 33 36 34 37 35 38 93 39 36 40 92 41 37 42 38 43 39 44 86 45
REMARK SMILES IDX 40 46 91 47 85 48 87 49 41 50 90 51 84 52 83 53 42 55 72 56
REMARK SMILES IDX 53 57 71 58 54 59 57 60 70 61 88 62 55 63 56 64 69 66 89 67
REMARK SMILES IDX 58 68 43 69 44 70 52 71 45 72 51 73 46 74 47 75 48 76 49 77
REMARK SMILES IDX 50 78 73 79 74 80 82 81 75 82 81 83 76 84 77 85 78 86 79 87
REMARK SMILES IDX 80 88 59 89 60 90 68 91 61 92 67 93 62 94 63 95 64 96 65 97
REMARK SMILES IDX 66 98
REMARK H PARENT 24 8 31 35 87 54 57 65
REMARK Flexibility Score: inf
ROOT
ATOM      1  C   UNL     1       2.151 -11.566   2.316  1.00  0.00     0.002 C 
ENDROOT
BRANCH   1   2
ATOM      2  C   UNL     1       1.082 -11.096   1.323  1.00  0.00     0.002 C 
BRANCH   2   3
ATOM      3  C   UNL     1       0.853  -9.579   1.299  1.00  0.00     0.021 C 
BRANCH   3   4
ATOM      4  C   UNL     1       2.059  -8.790   0.775  1.00  0.00     0.116 C 
BRANCH   4   5
ATOM      5  N   UNL     1       2.100  -8.870  -0.677  1.00  0.00    -0.352 N 
ATOM      6  C   UNL     1       1.624  -8.057  -1.655  1.00  0.00     0.251 C 
ATOM      7  O   UNL     1       1.634  -8.472  -2.811  1.00  0.00    -0.270 OA
ATOM      8  H   UNL     1       2.564  -9.669  -1.017  1.00  0.00     0.163 HD
BRANCH   6   9
ATOM      9  C   UNL     1       1.172  -6.666  -1.391  1.00  0.00     0.067 C 
ATOM     10  C   UNL     1       0.312  -2.591  -0.754  1.00  0.00    -0.002 A 
ATOM     11  C   UNL     1      -0.458  -2.240   0.368  1.00  0.00     0.054 A 
ATOM     12  C   UNL     1       0.587  -3.955  -0.973  1.00  0.00     0.131 A 
ATOM     13  C   UNL     1      -0.895  -3.205   1.279  1.00  0.00     0.130 A 
ATOM     14  C   UNL     1       0.111  -4.932  -0.097  1.00  0.00     0.021 A 
ATOM     15  O   UNL     1       1.395  -4.269  -2.030  1.00  0.00    -0.475 OA
ATOM     16  C   UNL     1      -0.623  -4.551   1.030  1.00  0.00     0.058 A 
ATOM     17  C   UNL     1       0.461  -6.329  -0.306  1.00  0.00     0.025 C 
ATOM     18  C   UNL     1       1.409  -5.648  -2.500  1.00  0.00     0.314 C 
BRANCH  10  19
ATOM     19  C   UNL     1       0.848  -1.566  -1.739  1.00  0.00     0.039 C 
BRANCH  19  20
ATOM     20  C   UNL     1       0.561  -0.079  -1.491  1.00  0.00     0.001 C 
ATOM     21  C   UNL     1       1.398   0.524  -0.370  1.00  0.00     0.004 C 
ENDBRANCH  19  20
ENDBRANCH  10  19
BRANCH  13  22
ATOM     22  O   UNL     1      -1.580  -2.971   2.437  1.00  0.00    -0.406 OA
BRANCH  22  23
ATOM     23  C   UNL     1      -1.694  -1.627   2.877  1.00  0.00     0.573 C 
ATOM     24  F   UNL     1      -0.487  -1.027   2.956  1.00  0.00    -0.132 F 
ATOM     25  F   UNL     1      -2.491  -0.920   2.046  1.00  0.00    -0.132 F 
ATOM     26  F   UNL     1      -2.251  -1.615   4.107  1.00  0.00    -0.132 F 
ENDBRANCH  22  23
ENDBRANCH  13  22
BRANCH  18  27
ATOM     27  C   UNL     1       2.690  -5.821  -3.348  1.00  0.00     0.429 C 
ATOM     28  F   UNL     1       2.539  -6.709  -4.356  1.00  0.00    -0.167 F 
ATOM     29  F   UNL     1       3.028  -4.649  -3.956  1.00  0.00    -0.167 F 
ATOM     30  F   UNL     1       3.759  -6.194  -2.608  1.00  0.00    -0.167 F 
ENDBRANCH  18  27
ENDBRANCH   6   9
ENDBRANCH   4   5
ENDBRANCH   3   4
ENDBRANCH   2   3
ENDBRANCH   1   2
BRANCH   1  31
ATOM     31  C   UNL     1       1.913 -11.150   3.772  1.00  0.00     0.021 C 
BRANCH  31  32
ATOM     32  C   UNL     1       0.614 -11.673   4.380  1.00  0.00     0.116 C 
BRANCH  32  33
ATOM     33  N   UNL     1       0.603 -13.123   4.454  1.00  0.00    -0.352 N 
ATOM     34  C   UNL     1       0.384 -13.943   5.533  1.00  0.00     0.251 C 
ATOM     35  H   UNL     1       0.779 -13.588   3.604  1.00  0.00     0.163 HD
ATOM     36  O   UNL     1       0.651 -15.137   5.449  1.00  0.00    -0.269 OA
BRANCH  34  37
ATOM     37  C   UNL     1      -0.167 -13.393   6.793  1.00  0.00     0.039 A 
ATOM     38  C   UNL     1       0.350 -13.854   8.006  1.00  0.00     0.014 A 
ATOM     39  C   UNL     1      -1.221 -12.475   6.785  1.00  0.00     0.014 A 
ATOM     40  C   UNL     1      -0.167 -13.370   9.210  1.00  0.00     0.010 A 
ATOM     41  C   UNL     1      -1.694 -11.946   7.986  1.00  0.00     0.010 A 
ATOM     42  C   UNL     1      -1.183 -12.400   9.210  1.00  0.00    -0.014 A 
BRANCH  42  43
ATOM     43  C   UNL     1      -1.719 -11.867  10.488  1.00  0.00     0.031 A 
ATOM     44  C   UNL     1      -3.140 -12.148  10.896  1.00  0.00     0.074 A 
ATOM     45  C   UNL     1      -0.931 -11.104  11.271  1.00  0.00     0.049 A 
ATOM     46  N   UNL     1      -3.774 -11.782  11.981  1.00  0.00    -0.248 NA
ATOM     47  C   UNL     1      -3.965 -12.923   9.954  1.00  0.00     0.031 C 
ATOM     48  C   UNL     1       0.449 -10.719  10.963  1.00  0.00     0.029 A 
ATOM     49  N   UNL     1      -1.175 -10.519  12.488  1.00  0.00    -0.354 N 
ATOM     50  C   UNL     1      -5.069 -12.268  11.848  1.00  0.00     0.074 A 
ATOM     51  C   UNL     1      -5.146 -12.914  10.556  1.00  0.00     0.031 C 
ATOM     52  C   UNL     1       0.938  -9.989  11.978  1.00  0.00     0.029 A 
ATOM     53  C   UNL     1      -0.097  -9.832  12.995  1.00  0.00     0.049 A 
ATOM     54  H   UNL     1      -2.039 -10.585  12.953  1.00  0.00     0.167 HD
ATOM     55  C   UNL     1      -6.097 -12.202  12.729  1.00  0.00     0.031 A 
ATOM     56  C   UNL     1       0.045  -9.158  14.152  1.00  0.00     0.031 A 
ATOM     57  C   UNL     1      -6.015 -11.570  14.020  1.00  0.00     0.049 A 
ATOM     58  C   UNL     1      -1.101  -9.118  15.123  1.00  0.00     0.074 A 
ATOM     59  C   UNL     1      -6.982 -11.498  15.007  1.00  0.00     0.029 A 
ATOM     60  N   UNL     1      -4.901 -10.900  14.503  1.00  0.00    -0.354 N 
ATOM     61  N   UNL     1      -2.297  -9.645  15.008  1.00  0.00    -0.248 NA
ATOM     62  C   UNL     1      -0.871  -8.408  16.389  1.00  0.00     0.031 C 
ATOM     63  C   UNL     1      -6.467 -10.749  16.071  1.00  0.00     0.029 A 
ATOM     64  C   UNL     1      -5.162 -10.397  15.766  1.00  0.00     0.049 A 
ATOM     65  H   UNL     1      -4.050 -10.797  14.019  1.00  0.00     0.167 HD
ATOM     66  C   UNL     1      -2.955  -9.349  16.196  1.00  0.00     0.074 A 
ATOM     67  C   UNL     1      -2.018  -8.615  17.022  1.00  0.00     0.031 C 
ATOM     68  C   UNL     1      -4.221  -9.659  16.571  1.00  0.00     0.031 A 
BRANCH  55  69
ATOM     69  C   UNL     1      -7.404 -12.830  12.321  1.00  0.00    -0.014 A 
ATOM     70  C   UNL     1      -7.542 -14.228  12.236  1.00  0.00     0.010 A 
ATOM     71  C   UNL     1      -8.519 -12.016  12.051  1.00  0.00     0.010 A 
ATOM     72  C   UNL     1      -8.757 -14.798  11.846  1.00  0.00     0.020 A 
ATOM     73  C   UNL     1      -9.744 -12.584  11.687  1.00  0.00     0.020 A 
ATOM     74  C   UNL     1      -9.849 -13.971  11.569  1.00  0.00     0.054 A 
BRANCH  74  75
ATOM     75  S   UNL     1     -11.420 -14.738  11.081  1.00  0.00     0.124 S 
ATOM     76  O   UNL     1     -11.141 -15.144   9.706  1.00  0.00    -0.237 OA
ATOM     77  O   UNL     1     -11.558 -15.829  12.042  1.00  0.00    -0.237 OA
ATOM     78  O   UNL     1     -12.392 -13.657  11.226  1.00  0.00    -0.744 OA
ENDBRANCH  74  75
ENDBRANCH  55  69
BRANCH  56  79
ATOM     79  C   UNL     1       1.339  -8.494  14.466  1.00  0.00    -0.014 A 
ATOM     80  C   UNL     1       2.193  -9.024  15.450  1.00  0.00     0.010 A 
ATOM     81  C   UNL     1       1.732  -7.338  13.768  1.00  0.00     0.010 A 
ATOM     82  C   UNL     1       3.410  -8.401  15.741  1.00  0.00     0.020 A 
ATOM     83  C   UNL     1       2.960  -6.727  14.039  1.00  0.00     0.020 A 
ATOM     84  C   UNL     1       3.786  -7.257  15.032  1.00  0.00     0.054 A 
BRANCH  84  85
ATOM     85  S   UNL     1       5.396  -6.496  15.384  1.00  0.00     0.124 S 
ATOM     86  O   UNL     1       5.137  -5.809  16.645  1.00  0.00    -0.237 OA
ATOM     87  O   UNL     1       6.283  -7.654  15.463  1.00  0.00    -0.237 OA
ATOM     88  O   UNL     1       5.621  -5.628  14.230  1.00  0.00    -0.744 OA
ENDBRANCH  84  85
ENDBRANCH  56  79
BRANCH  68  89
ATOM     89  C   UNL     1      -4.656  -9.223  17.944  1.00  0.00    -0.014 A 
ATOM     90  C   UNL     1      -4.910  -7.870  18.232  1.00  0.00     0.010 A 
ATOM     91  C   UNL     1      -4.836 -10.186  18.954  1.00  0.00     0.010 A 
ATOM     92  C   UNL     1      -5.295  -7.483  19.518  1.00  0.00     0.020 A 
ATOM     93  C   UNL     1      -5.246  -9.805  20.234  1.00  0.00     0.020 A 
ATOM     94  C   UNL     1      -5.454  -8.453  20.513  1.00  0.00     0.054 A 
BRANCH  94  95
ATOM     95  S   UNL     1      -5.972  -7.930  22.171  1.00  0.00     0.124 S 
ATOM     96  O   UNL     1      -4.735  -7.373  22.712  1.00  0.00    -0.237 OA
ATOM     97  O   UNL     1      -7.027  -6.960  21.889  1.00  0.00    -0.237 OA
ATOM     98  O   UNL     1      -6.425  -9.169  22.798  1.00  0.00    -0.744 OA
ENDBRANCH  94  95
ENDBRANCH  68  89
ENDBRANCH  42  43
ENDBRANCH  34  37
ENDBRANCH  32  33
ENDBRANCH  31  32
ENDBRANCH   1  31
TORSDOF 21
