REMARK SMILES O=C(/C=C/c1ccccc1Oc1cccc(Cl)c1)NCCCCCCNC(=O)c1ccc(-c2c3nc(c(-c4ccc(S(=O)(=O)[O-])cc4)c4ccc([nH]4)c(-c4ccc(S(=O)(=O)[O-])cc4)c4nc(c(-c5ccc(S(=O)(=O)[O-])cc5)c5ccc2[nH]5)C=C4)C=C3)cc1
REMARK SMILES IDX 22 1 21 2 20 3 19 4 1 5 2 6 3 8 4 9 5 10 6 11 10 12 7 13
REMARK SMILES IDX 9 14 8 15 11 16 12 17 13 18 18 19 14 20 16 21 15 22 17 23
REMARK SMILES IDX 23 24 24 25 25 26 26 27 27 28 28 30 29 31 30 32 88 33 31 34
REMARK SMILES IDX 87 35 32 36 33 37 34 38 81 39 35 40 86 41 80 42 82 43 36 44
REMARK SMILES IDX 85 45 79 46 78 47 37 49 67 50 48 51 66 52 49 53 52 54 65 55
REMARK SMILES IDX 83 56 50 57 51 58 64 60 84 61 53 62 38 63 39 64 47 65 40 66
REMARK SMILES IDX 46 67 41 68 42 69 43 70 44 71 45 72 68 73 69 74 77 75 70 76
REMARK SMILES IDX 76 77 71 78 72 79 73 80 74 81 75 82 54 83 55 84 63 85 56 86
REMARK SMILES IDX 62 87 57 88 58 89 59 90 60 91 61 92
REMARK H PARENT 19 7 26 29 82 48 52 59
REMARK Flexibility Score: inf
ROOT
ATOM      1  C   UNL     1       4.262   3.741  -0.654  1.00  0.00     0.002 C 
ENDROOT
BRANCH   1   2
ATOM      2  C   UNL     1       2.758   3.594  -0.389  1.00  0.00     0.021 C 
BRANCH   2   3
ATOM      3  C   UNL     1       2.156   2.258  -0.825  1.00  0.00     0.116 C 
BRANCH   3   4
ATOM      4  N   UNL     1       2.816   1.123  -0.217  1.00  0.00    -0.353 N 
ATOM      5  O   UNL     1       1.801   1.305   1.835  1.00  0.00    -0.270 OA
ATOM      6  C   UNL     1       2.594   0.753   1.085  1.00  0.00     0.244 C 
ATOM      7  H   UNL     1       3.448   0.597  -0.758  1.00  0.00     0.163 HD
BRANCH   6   8
ATOM      8  C   UNL     1       3.349  -0.437   1.562  1.00  0.00     0.072 C 
ATOM      9  C   UNL     1       4.458  -0.921   0.985  1.00  0.00     0.017 C 
BRANCH   9  10
ATOM     10  C   UNL     1       5.159  -2.118   1.464  1.00  0.00     0.017 A 
ATOM     11  C   UNL     1       6.380  -1.852   2.119  1.00  0.00     0.012 A 
ATOM     12  C   UNL     1       4.758  -3.457   1.295  1.00  0.00     0.134 A 
ATOM     13  C   UNL     1       7.190  -2.882   2.599  1.00  0.00     0.001 A 
ATOM     14  C   UNL     1       5.588  -4.481   1.789  1.00  0.00     0.048 A 
ATOM     15  C   UNL     1       6.794  -4.201   2.432  1.00  0.00     0.004 A 
BRANCH  12  16
ATOM     16  O   UNL     1       3.620  -3.982   0.716  1.00  0.00    -0.457 OA
BRANCH  16  17
ATOM     17  C   UNL     1       2.730  -3.201   0.035  1.00  0.00     0.128 A 
ATOM     18  C   UNL     1       1.455  -3.044   0.585  1.00  0.00     0.047 A 
ATOM     19  C   UNL     1       3.032  -2.671  -1.218  1.00  0.00     0.067 A 
ATOM     20  C   UNL     1       0.497  -2.282  -0.084  1.00  0.00     0.005 A 
ATOM     21  C   UNL     1       2.073  -1.902  -1.875  1.00  0.00     0.044 A 
ATOM     22  C   UNL     1       0.811  -1.700  -1.313  1.00  0.00     0.021 A 
ATOM     23  Cl  UNL     1       2.467  -1.155  -3.373  1.00  0.00    -0.084 Cl
ENDBRANCH  16  17
ENDBRANCH  12  16
ENDBRANCH   9  10
ENDBRANCH   6   8
ENDBRANCH   3   4
ENDBRANCH   2   3
ENDBRANCH   1   2
BRANCH   1  24
ATOM     24  C   UNL     1       4.692   3.646  -2.120  1.00  0.00     0.002 C 
BRANCH  24  25
ATOM     25  C   UNL     1       4.033   4.645  -3.074  1.00  0.00     0.021 C 
BRANCH  25  26
ATOM     26  C   UNL     1       4.144   6.115  -2.676  1.00  0.00     0.116 C 
BRANCH  26  27
ATOM     27  N   UNL     1       5.519   6.584  -2.602  1.00  0.00    -0.352 N 
ATOM     28  C   UNL     1       6.067   7.751  -3.082  1.00  0.00     0.251 C 
ATOM     29  H   UNL     1       6.147   5.981  -2.143  1.00  0.00     0.163 HD
ATOM     30  O   UNL     1       7.281   7.926  -3.026  1.00  0.00    -0.269 OA
BRANCH  28  31
ATOM     31  C   UNL     1       5.199   8.778  -3.700  1.00  0.00     0.039 A 
ATOM     32  C   UNL     1       5.575   9.325  -4.931  1.00  0.00     0.014 A 
ATOM     33  C   UNL     1       4.016   9.194  -3.081  1.00  0.00     0.014 A 
ATOM     34  C   UNL     1       4.726  10.225  -5.580  1.00  0.00     0.010 A 
ATOM     35  C   UNL     1       3.145  10.049  -3.754  1.00  0.00     0.010 A 
ATOM     36  C   UNL     1       3.484  10.561  -5.016  1.00  0.00    -0.014 A 
BRANCH  36  37
ATOM     37  C   UNL     1       2.508  11.405  -5.752  1.00  0.00     0.031 A 
ATOM     38  C   UNL     1       2.125  12.763  -5.236  1.00  0.00     0.074 A 
ATOM     39  C   UNL     1       1.902  10.908  -6.848  1.00  0.00     0.049 A 
ATOM     40  N   UNL     1       1.240  13.604  -5.707  1.00  0.00    -0.248 NA
ATOM     41  C   UNL     1       2.810  13.226  -4.019  1.00  0.00     0.031 C 
ATOM     42  C   UNL     1       2.147   9.584  -7.424  1.00  0.00     0.029 A 
ATOM     43  N   UNL     1       0.940  11.452  -7.663  1.00  0.00    -0.354 N 
ATOM     44  C   UNL     1       1.251  14.690  -4.841  1.00  0.00     0.074 A 
ATOM     45  C   UNL     1       2.201  14.381  -3.793  1.00  0.00     0.031 C 
ATOM     46  C   UNL     1       1.362   9.422  -8.501  1.00  0.00     0.029 A 
ATOM     47  C   UNL     1       0.536  10.613  -8.674  1.00  0.00     0.049 A 
ATOM     48  H   UNL     1       0.574  12.357  -7.535  1.00  0.00     0.167 HD
ATOM     49  C   UNL     1       0.546  15.845  -4.918  1.00  0.00     0.031 A 
ATOM     50  C   UNL     1      -0.404  10.772  -9.626  1.00  0.00     0.031 A 
ATOM     51  C   UNL     1      -0.402  16.150  -5.956  1.00  0.00     0.049 A 
ATOM     52  C   UNL     1      -1.179  12.056  -9.690  1.00  0.00     0.074 A 
ATOM     53  C   UNL     1      -1.124  17.315  -6.149  1.00  0.00     0.029 A 
ATOM     54  N   UNL     1      -0.770  15.280  -6.972  1.00  0.00    -0.354 N 
ATOM     55  N   UNL     1      -1.104  13.101  -8.902  1.00  0.00    -0.248 NA
ATOM     56  C   UNL     1      -2.160  12.185 -10.776  1.00  0.00     0.031 C 
ATOM     57  C   UNL     1      -1.960  17.134  -7.258  1.00  0.00     0.029 A 
ATOM     58  C   UNL     1      -1.726  15.872  -7.781  1.00  0.00     0.049 A 
ATOM     59  H   UNL     1      -0.404  14.375  -7.100  1.00  0.00     0.167 HD
ATOM     60  C   UNL     1      -2.022  14.017  -9.401  1.00  0.00     0.074 A 
ATOM     61  C   UNL     1      -2.627  13.410 -10.570  1.00  0.00     0.031 C 
ATOM     62  C   UNL     1      -2.335  15.250  -8.930  1.00  0.00     0.031 A 
BRANCH  49  63
ATOM     63  C   UNL     1       0.776  16.859  -3.829  1.00  0.00    -0.014 A 
ATOM     64  C   UNL     1       1.985  17.574  -3.750  1.00  0.00     0.010 A 
ATOM     65  C   UNL     1      -0.225  17.099  -2.871  1.00  0.00     0.010 A 
ATOM     66  C   UNL     1       2.213  18.466  -2.700  1.00  0.00     0.020 A 
ATOM     67  C   UNL     1      -0.011  18.011  -1.832  1.00  0.00     0.020 A 
ATOM     68  C   UNL     1       1.218  18.669  -1.739  1.00  0.00     0.054 A 
BRANCH  68  69
ATOM     69  S   UNL     1       1.543  19.817  -0.373  1.00  0.00     0.124 S 
ATOM     70  O   UNL     1       2.403  19.015   0.493  1.00  0.00    -0.237 OA
ATOM     71  O   UNL     1       2.199  20.939  -1.042  1.00  0.00    -0.237 OA
ATOM     72  O   UNL     1       0.214  20.105   0.160  1.00  0.00    -0.744 OA
ENDBRANCH  68  69
ENDBRANCH  49  63
BRANCH  50  73
ATOM     73  C   UNL     1      -0.650   9.672 -10.595  1.00  0.00    -0.014 A 
ATOM     74  C   UNL     1      -0.169   9.762 -11.912  1.00  0.00     0.010 A 
ATOM     75  C   UNL     1      -1.315   8.502 -10.184  1.00  0.00     0.010 A 
ATOM     76  C   UNL     1      -0.343   8.697 -12.801  1.00  0.00     0.020 A 
ATOM     77  C   UNL     1      -1.473   7.428 -11.065  1.00  0.00     0.020 A 
ATOM     78  C   UNL     1      -0.988   7.535 -12.370  1.00  0.00     0.054 A 
BRANCH  78  79
ATOM     79  S   UNL     1      -1.118   6.128 -13.510  1.00  0.00     0.124 S 
ATOM     80  O   UNL     1      -2.206   6.548 -14.387  1.00  0.00    -0.237 OA
ATOM     81  O   UNL     1       0.209   6.090 -14.120  1.00  0.00    -0.237 OA
ATOM     82  O   UNL     1      -1.420   5.003 -12.628  1.00  0.00    -0.744 OA
ENDBRANCH  78  79
ENDBRANCH  50  73
BRANCH  62  83
ATOM     83  C   UNL     1      -3.381  16.028  -9.681  1.00  0.00    -0.014 A 
ATOM     84  C   UNL     1      -4.743  15.699  -9.569  1.00  0.00     0.010 A 
ATOM     85  C   UNL     1      -3.002  17.132 -10.466  1.00  0.00     0.010 A 
ATOM     86  C   UNL     1      -5.708  16.448 -10.248  1.00  0.00     0.020 A 
ATOM     87  C   UNL     1      -3.967  17.896 -11.129  1.00  0.00     0.020 A 
ATOM     88  C   UNL     1      -5.314  17.542 -11.025  1.00  0.00     0.054 A 
BRANCH  88  89
ATOM     89  S   UNL     1      -6.588  18.529 -11.857  1.00  0.00     0.124 S 
ATOM     90  O   UNL     1      -6.943  17.676 -12.988  1.00  0.00    -0.237 OA
ATOM     91  O   UNL     1      -7.614  18.667 -10.827  1.00  0.00    -0.237 OA
ATOM     92  O   UNL     1      -5.893  19.767 -12.204  1.00  0.00    -0.744 OA
ENDBRANCH  88  89
ENDBRANCH  62  83
ENDBRANCH  36  37
ENDBRANCH  28  31
ENDBRANCH  26  27
ENDBRANCH  25  26
ENDBRANCH  24  25
ENDBRANCH   1  24
TORSDOF 19
