REMARK SMILES CC(C)n1ccc(Cn2cc(C(=O)NCCCCCCNC(=O)c3ccc(-c4c5nc(c(-c6ccc(S(=O)(=O)[O-])cc6)c6ccc([nH]6)c(-c6ccc(S(=O)(=O)[O-])cc6)c6nc(c(-c7ccc(S(=O)(=O)[O-])cc7)c7ccc4[nH]7)C=C6)C=C5)cc3)cc2Br)n1
REMARK SMILES IDX 17 1 16 2 15 3 14 4 12 5 13 6 11 8 9 9 10 10 85 11 84 12
REMARK SMILES IDX 86 13 8 14 7 15 4 16 5 17 87 18 6 19 2 20 1 21 3 22 18 23
REMARK SMILES IDX 19 24 20 25 21 26 22 27 23 29 24 30 25 31 83 32 26 33 82 34
REMARK SMILES IDX 27 35 28 36 29 37 76 38 30 39 81 40 75 41 77 42 31 43 80 44
REMARK SMILES IDX 74 45 73 46 32 48 62 49 43 50 61 51 44 52 47 53 60 54 78 55
REMARK SMILES IDX 45 56 46 57 59 59 79 60 48 61 33 62 34 63 42 64 35 65 41 66
REMARK SMILES IDX 36 67 37 68 38 69 39 70 40 71 63 72 64 73 72 74 65 75 71 76
REMARK SMILES IDX 66 77 67 78 68 79 69 80 70 81 49 82 50 83 58 84 51 85 57 86
REMARK SMILES IDX 52 87 53 88 54 89 55 90 56 91
REMARK H PARENT 14 7 21 28 77 47 47 58
REMARK Flexibility Score: inf
ROOT
ATOM      1  C   UNL     1      -8.495  -5.544  -1.543  1.00  0.00     0.002 C 
ENDROOT
BRANCH   1   2
ATOM      2  C   UNL     1      -7.702  -4.347  -1.000  1.00  0.00     0.021 C 
BRANCH   2   3
ATOM      3  C   UNL     1      -6.607  -3.861  -1.949  1.00  0.00     0.116 C 
BRANCH   3   4
ATOM      4  N   UNL     1      -7.174  -3.117  -3.054  1.00  0.00    -0.352 N 
ATOM      5  C   UNL     1      -7.090  -1.800  -3.424  1.00  0.00     0.252 C 
ATOM      6  O   UNL     1      -7.627  -1.489  -4.489  1.00  0.00    -0.269 OA
ATOM      7  H   UNL     1      -7.726  -3.664  -3.658  1.00  0.00     0.163 HD
BRANCH   5   8
ATOM      8  C   UNL     1      -6.326  -0.822  -2.653  1.00  0.00     0.058 A 
ATOM      9  N   UNL     1      -5.035   0.202  -1.122  1.00  0.00    -0.335 N 
ATOM     10  C   UNL     1      -5.939  -0.824  -1.323  1.00  0.00     0.101 A 
ATOM     11  C   UNL     1      -5.091   1.036  -2.203  1.00  0.00     0.086 A 
ATOM     12  C   UNL     1      -5.864   0.433  -3.167  1.00  0.00     0.049 A 
ATOM     13  Br  UNL     1      -4.257   2.693  -2.414  1.00  0.00    -0.031 Br
BRANCH   9  14
ATOM     14  C   UNL     1      -4.189   0.329   0.064  1.00  0.00     0.180 C 
BRANCH  14  15
ATOM     15  C   UNL     1      -3.063  -0.668   0.033  1.00  0.00     0.082 A 
ATOM     16  N   UNL     1      -1.065  -1.414   0.027  1.00  0.00    -0.270 N 
ATOM     17  C   UNL     1      -1.854  -2.531   0.018  1.00  0.00     0.109 A 
ATOM     18  N   UNL     1      -1.781  -0.270   0.006  1.00  0.00    -0.176 NA
ATOM     19  C   UNL     1      -3.150  -2.083   0.068  1.00  0.00     0.047 A 
BRANCH  16  20
ATOM     20  C   UNL     1       0.398  -1.401   0.029  1.00  0.00     0.101 C 
ATOM     21  C   UNL     1       1.004   0.007   0.031  1.00  0.00     0.033 C 
ATOM     22  C   UNL     1       0.964  -2.202   1.206  1.00  0.00     0.033 C 
ENDBRANCH  16  20
ENDBRANCH  14  15
ENDBRANCH   9  14
ENDBRANCH   5   8
ENDBRANCH   3   4
ENDBRANCH   2   3
ENDBRANCH   1   2
BRANCH   1  23
ATOM     23  C   UNL     1      -7.659  -6.774  -1.936  1.00  0.00     0.002 C 
BRANCH  23  24
ATOM     24  C   UNL     1      -6.673  -7.293  -0.877  1.00  0.00     0.021 C 
BRANCH  24  25
ATOM     25  C   UNL     1      -7.354  -7.875   0.351  1.00  0.00     0.116 C 
BRANCH  25  26
ATOM     26  N   UNL     1      -8.087  -9.104   0.043  1.00  0.00    -0.352 N 
ATOM     27  C   UNL     1      -8.861  -9.883   0.885  1.00  0.00     0.251 C 
ATOM     28  H   UNL     1      -8.020  -9.419  -0.887  1.00  0.00     0.163 HD
ATOM     29  O   UNL     1      -9.101 -11.047   0.616  1.00  0.00    -0.269 OA
BRANCH  27  30
ATOM     30  C   UNL     1      -9.396  -9.265   2.112  1.00  0.00     0.039 A 
ATOM     31  C   UNL     1      -9.463  -9.965   3.321  1.00  0.00     0.014 A 
ATOM     32  C   UNL     1      -9.819  -7.944   2.029  1.00  0.00     0.014 A 
ATOM     33  C   UNL     1      -9.896  -9.291   4.462  1.00  0.00     0.010 A 
ATOM     34  C   UNL     1     -10.063  -7.239   3.174  1.00  0.00     0.010 A 
ATOM     35  C   UNL     1     -10.182  -7.922   4.378  1.00  0.00    -0.014 A 
BRANCH  35  36
ATOM     36  C   UNL     1     -10.524  -7.134   5.553  1.00  0.00     0.031 A 
ATOM     37  C   UNL     1      -9.473  -7.107   6.603  1.00  0.00     0.074 A 
ATOM     38  C   UNL     1     -11.570  -6.277   5.550  1.00  0.00     0.049 A 
ATOM     39  N   UNL     1      -9.518  -7.633   7.781  1.00  0.00    -0.248 NA
ATOM     40  C   UNL     1      -8.149  -6.568   6.245  1.00  0.00     0.031 C 
ATOM     41  C   UNL     1     -12.479  -5.966   4.436  1.00  0.00     0.029 A 
ATOM     42  N   UNL     1     -11.950  -5.379   6.494  1.00  0.00    -0.354 N 
ATOM     43  C   UNL     1      -8.328  -7.267   8.404  1.00  0.00     0.074 A 
ATOM     44  C   UNL     1      -7.448  -6.833   7.349  1.00  0.00     0.031 C 
ATOM     45  C   UNL     1     -13.101  -4.792   4.675  1.00  0.00     0.029 A 
ATOM     46  C   UNL     1     -12.775  -4.362   6.022  1.00  0.00     0.049 A 
ATOM     47  H   UNL     1     -11.665  -5.441   7.435  1.00  0.00     0.167 HD
ATOM     48  C   UNL     1      -8.266  -7.066   9.752  1.00  0.00     0.031 A 
ATOM     49  C   UNL     1     -13.121  -3.222   6.674  1.00  0.00     0.031 A 
ATOM     50  C   UNL     1      -9.445  -7.576  10.411  1.00  0.00     0.049 A 
ATOM     51  C   UNL     1     -12.883  -3.470   8.118  1.00  0.00     0.074 A 
ATOM     52  C   UNL     1     -10.070  -8.807  10.475  1.00  0.00     0.029 A 
ATOM     53  N   UNL     1     -10.392  -6.652  10.794  1.00  0.00    -0.354 N 
ATOM     54  N   UNL     1     -13.546  -4.359   8.807  1.00  0.00    -0.248 NA
ATOM     55  C   UNL     1     -11.595  -3.087   8.675  1.00  0.00     0.031 C 
ATOM     56  C   UNL     1     -11.464  -8.512  10.407  1.00  0.00     0.029 A 
ATOM     57  C   UNL     1     -11.617  -7.124  10.400  1.00  0.00     0.049 A 
ATOM     58  H   UNL     1     -10.220  -5.805  11.265  1.00  0.00     0.167 HD
ATOM     59  C   UNL     1     -12.590  -4.970   9.608  1.00  0.00     0.074 A 
ATOM     60  C   UNL     1     -11.432  -4.076   9.559  1.00  0.00     0.031 C 
ATOM     61  C   UNL     1     -12.719  -6.276   9.993  1.00  0.00     0.031 A 
BRANCH  48  62
ATOM     62  C   UNL     1      -7.384  -6.024  10.410  1.00  0.00    -0.014 A 
ATOM     63  C   UNL     1      -7.457  -5.873  11.812  1.00  0.00     0.010 A 
ATOM     64  C   UNL     1      -6.720  -5.005   9.698  1.00  0.00     0.010 A 
ATOM     65  C   UNL     1      -6.999  -4.711  12.445  1.00  0.00     0.020 A 
ATOM     66  C   UNL     1      -6.217  -3.864  10.325  1.00  0.00     0.020 A 
ATOM     67  C   UNL     1      -6.401  -3.703  11.690  1.00  0.00     0.054 A 
BRANCH  67  68
ATOM     68  S   UNL     1      -5.936  -2.150  12.491  1.00  0.00     0.124 S 
ATOM     69  O   UNL     1      -7.239  -1.605  12.859  1.00  0.00    -0.237 OA
ATOM     70  O   UNL     1      -5.103  -2.612  13.597  1.00  0.00    -0.237 OA
ATOM     71  O   UNL     1      -5.225  -1.426  11.440  1.00  0.00    -0.744 OA
ENDBRANCH  67  68
ENDBRANCH  48  62
BRANCH  49  72
ATOM     72  C   UNL     1     -13.304  -1.863   6.098  1.00  0.00    -0.014 A 
ATOM     73  C   UNL     1     -13.832  -0.809   6.868  1.00  0.00     0.010 A 
ATOM     74  C   UNL     1     -12.695  -1.526   4.870  1.00  0.00     0.010 A 
ATOM     75  C   UNL     1     -13.690   0.531   6.461  1.00  0.00     0.020 A 
ATOM     76  C   UNL     1     -12.558  -0.196   4.453  1.00  0.00     0.020 A 
ATOM     77  C   UNL     1     -13.031   0.830   5.266  1.00  0.00     0.054 A 
BRANCH  77  78
ATOM     78  S   UNL     1     -12.665   2.561   4.843  1.00  0.00     0.124 S 
ATOM     79  O   UNL     1     -13.980   3.077   4.476  1.00  0.00    -0.237 OA
ATOM     80  O   UNL     1     -12.105   3.082   6.087  1.00  0.00    -0.237 OA
ATOM     81  O   UNL     1     -11.712   2.450   3.739  1.00  0.00    -0.744 OA
ENDBRANCH  77  78
ENDBRANCH  49  72
BRANCH  61  82
ATOM     82  C   UNL     1     -14.046  -6.971   9.776  1.00  0.00    -0.014 A 
ATOM     83  C   UNL     1     -14.631  -7.178   8.510  1.00  0.00     0.010 A 
ATOM     84  C   UNL     1     -14.638  -7.585  10.893  1.00  0.00     0.010 A 
ATOM     85  C   UNL     1     -15.791  -7.957   8.375  1.00  0.00     0.020 A 
ATOM     86  C   UNL     1     -15.781  -8.376  10.763  1.00  0.00     0.020 A 
ATOM     87  C   UNL     1     -16.359  -8.552   9.506  1.00  0.00     0.054 A 
BRANCH  87  88
ATOM     88  S   UNL     1     -17.836  -9.592   9.327  1.00  0.00     0.124 S 
ATOM     89  O   UNL     1     -18.865  -8.623   8.961  1.00  0.00    -0.237 OA
ATOM     90  O   UNL     1     -17.449 -10.529   8.274  1.00  0.00    -0.237 OA
ATOM     91  O   UNL     1     -17.999 -10.196  10.649  1.00  0.00    -0.744 OA
ENDBRANCH  87  88
ENDBRANCH  61  82
ENDBRANCH  35  36
ENDBRANCH  27  30
ENDBRANCH  25  26
ENDBRANCH  24  25
ENDBRANCH  23  24
ENDBRANCH   1  23
TORSDOF 19
