REMARK SMILES Nc1cc(C(=O)NCCCCCCNC(=O)c2ccc(-c3c4nc(c(-c5ccc(S(=O)(=O)[O-])cc5)c5ccc([nH]5)c(-c5ccc(S(=O)(=O)[O-])cc5)c5nc(c(-c6ccc(S(=O)(=O)[O-])cc6)c6ccc3[nH]6)C=C5)C=C4)cc2)c(-c2ccc(F)cc2O)cn1
REMARK SMILES IDX 11 1 10 2 9 3 8 4 7 5 5 6 6 7 4 9 2 10 3 11 87 12 86 13
REMARK SMILES IDX 77 14 1 15 78 18 79 19 84 20 80 21 83 22 81 23 82 24 85 25
REMARK SMILES IDX 12 27 13 28 14 29 15 30 16 32 17 33 18 34 76 35 19 36 75 37
REMARK SMILES IDX 20 38 21 39 22 40 69 41 23 42 74 43 68 44 70 45 24 46 73 47
REMARK SMILES IDX 67 48 66 49 25 51 55 52 36 53 54 54 37 55 40 56 53 57 71 58
REMARK SMILES IDX 38 59 39 60 52 62 72 63 41 64 26 65 27 66 35 67 28 68 34 69
REMARK SMILES IDX 29 70 30 71 31 72 32 73 33 74 56 75 57 76 65 77 58 78 64 79
REMARK SMILES IDX 59 80 60 81 61 82 62 83 63 84 42 85 43 86 51 87 44 88 50 89
REMARK SMILES IDX 45 90 46 91 47 92 48 93 49 94
REMARK H PARENT 7 8 1 16 1 17 85 26 14 31 70 50 40 61
REMARK Flexibility Score: inf
ROOT
ATOM      1  C   UNL     1       0.084  -7.087   0.081  1.00  0.00     0.002 C 
ENDROOT
BRANCH   1   2
ATOM      2  C   UNL     1      -0.314  -6.055   1.144  1.00  0.00     0.002 C 
BRANCH   2   3
ATOM      3  C   UNL     1       0.355  -4.678   0.988  1.00  0.00     0.021 C 
BRANCH   3   4
ATOM      4  C   UNL     1       0.069  -4.022  -0.367  1.00  0.00     0.116 C 
BRANCH   4   5
ATOM      5  N   UNL     1      -1.284  -3.502  -0.372  1.00  0.00    -0.352 N 
ATOM      6  C   UNL     1      -1.868  -2.306  -0.055  1.00  0.00     0.252 C 
ATOM      7  O   UNL     1      -3.088  -2.372   0.107  1.00  0.00    -0.269 OA
ATOM      8  H   UNL     1      -1.940  -4.169  -0.677  1.00  0.00     0.163 HD
BRANCH   6   9
ATOM      9  C   UNL     1      -1.163  -0.988   0.082  1.00  0.00     0.052 A 
ATOM     10  C   UNL     1       0.876   0.302   0.231  1.00  0.00     0.124 A 
ATOM     11  C   UNL     1       0.218  -0.914   0.298  1.00  0.00     0.061 A 
ATOM     12  N   UNL     1       0.229   1.458   0.076  1.00  0.00    -0.239 NA
ATOM     13  C   UNL     1      -1.119   1.399  -0.008  1.00  0.00     0.123 A 
ATOM     14  C   UNL     1      -1.884   0.227  -0.012  1.00  0.00     0.017 A 
BRANCH  10  15
ATOM     15  N   UNL     1       2.246   0.371   0.380  1.00  0.00    -0.384 N 
ATOM     16  H   UNL     1       2.770  -0.454   0.497  1.00  0.00     0.158 HD
ATOM     17  H   UNL     1       2.699   1.245   0.368  1.00  0.00     0.158 HD
ENDBRANCH  10  15
BRANCH  14  18
ATOM     18  C   UNL     1      -3.356   0.378  -0.069  1.00  0.00     0.026 A 
ATOM     19  C   UNL     1      -3.972   0.943  -1.201  1.00  0.00     0.015 A 
ATOM     20  C   UNL     1      -4.192   0.038   1.015  1.00  0.00     0.126 A 
ATOM     21  C   UNL     1      -5.358   1.133  -1.245  1.00  0.00     0.040 A 
ATOM     22  C   UNL     1      -5.570   0.222   0.981  1.00  0.00     0.086 A 
ATOM     23  C   UNL     1      -6.142   0.765  -0.157  1.00  0.00     0.126 A 
ATOM     24  F   UNL     1      -7.470   0.933  -0.214  1.00  0.00    -0.207 F 
BRANCH  20  25
ATOM     25  O   UNL     1      -3.683  -0.559   2.138  1.00  0.00    -0.507 OA
ATOM     26  H   UNL     1      -2.760  -0.707   2.212  1.00  0.00     0.293 HD
ENDBRANCH  20  25
ENDBRANCH  14  18
ENDBRANCH   6   9
ENDBRANCH   4   5
ENDBRANCH   3   4
ENDBRANCH   2   3
ENDBRANCH   1   2
BRANCH   1  27
ATOM     27  C   UNL     1       1.593  -7.269  -0.098  1.00  0.00     0.021 C 
BRANCH  27  28
ATOM     28  C   UNL     1       2.305  -7.780   1.150  1.00  0.00     0.116 C 
BRANCH  28  29
ATOM     29  N   UNL     1       1.880  -9.129   1.486  1.00  0.00    -0.352 N 
ATOM     30  C   UNL     1       2.639 -10.265   1.615  1.00  0.00     0.251 C 
ATOM     31  H   UNL     1       0.915  -9.243   1.643  1.00  0.00     0.163 HD
ATOM     32  O   UNL     1       2.099 -11.365   1.647  1.00  0.00    -0.269 OA
BRANCH  30  33
ATOM     33  C   UNL     1       4.110 -10.152   1.704  1.00  0.00     0.039 A 
ATOM     34  C   UNL     1       4.906 -11.032   0.968  1.00  0.00     0.014 A 
ATOM     35  C   UNL     1       4.699  -9.182   2.521  1.00  0.00     0.014 A 
ATOM     36  C   UNL     1       6.295 -10.907   1.014  1.00  0.00     0.010 A 
ATOM     37  C   UNL     1       6.080  -9.011   2.507  1.00  0.00     0.010 A 
ATOM     38  C   UNL     1       6.893  -9.878   1.762  1.00  0.00    -0.014 A 
BRANCH  38  39
ATOM     39  C   UNL     1       8.366  -9.696   1.780  1.00  0.00     0.031 A 
ATOM     40  C   UNL     1       9.132  -9.861   3.065  1.00  0.00     0.074 A 
ATOM     41  C   UNL     1       9.005  -9.325   0.653  1.00  0.00     0.049 A 
ATOM     42  N   UNL     1      10.409  -9.694   3.290  1.00  0.00    -0.248 NA
ATOM     43  C   UNL     1       8.357 -10.238   4.259  1.00  0.00     0.031 C 
ATOM     44  C   UNL     1       8.367  -9.096  -0.647  1.00  0.00     0.029 A 
ATOM     45  N   UNL     1      10.333  -9.070   0.419  1.00  0.00    -0.354 N 
ATOM     46  C   UNL     1      10.589  -9.930   4.648  1.00  0.00     0.074 A 
ATOM     47  C   UNL     1       9.283 -10.199   5.207  1.00  0.00     0.031 C 
ATOM     48  C   UNL     1       9.308  -8.764  -1.546  1.00  0.00     0.029 A 
ATOM     49  C   UNL     1      10.606  -8.713  -0.881  1.00  0.00     0.049 A 
ATOM     50  H   UNL     1      11.025  -9.137   1.116  1.00  0.00     0.167 HD
ATOM     51  C   UNL     1      11.740  -9.940   5.362  1.00  0.00     0.031 A 
ATOM     52  C   UNL     1      11.769  -8.376  -1.471  1.00  0.00     0.031 A 
ATOM     53  C   UNL     1      13.038  -9.680   4.799  1.00  0.00     0.049 A 
ATOM     54  C   UNL     1      13.032  -8.380  -0.653  1.00  0.00     0.074 A 
ATOM     55  C   UNL     1      14.271  -9.721   5.426  1.00  0.00     0.029 A 
ATOM     56  N   UNL     1      13.272  -9.326   3.478  1.00  0.00    -0.354 N 
ATOM     57  N   UNL     1      13.190  -8.671   0.616  1.00  0.00    -0.248 NA
ATOM     58  C   UNL     1      14.274  -8.021  -1.350  1.00  0.00     0.031 C 
ATOM     59  C   UNL     1      15.245  -9.335   4.499  1.00  0.00     0.029 A 
ATOM     60  C   UNL     1      14.627  -9.119   3.278  1.00  0.00     0.049 A 
ATOM     61  H   UNL     1      12.578  -9.236   2.786  1.00  0.00     0.167 HD
ATOM     62  C   UNL     1      14.554  -8.559   0.862  1.00  0.00     0.074 A 
ATOM     63  C   UNL     1      15.176  -8.189  -0.393  1.00  0.00     0.031 C 
ATOM     64  C   UNL     1      15.231  -8.748   2.022  1.00  0.00     0.031 A 
BRANCH  51  65
ATOM     65  C   UNL     1      11.644 -10.235   6.837  1.00  0.00    -0.014 A 
ATOM     66  C   UNL     1      11.292 -11.515   7.303  1.00  0.00     0.010 A 
ATOM     67  C   UNL     1      11.951  -9.229   7.772  1.00  0.00     0.010 A 
ATOM     68  C   UNL     1      11.206 -11.771   8.674  1.00  0.00     0.020 A 
ATOM     69  C   UNL     1      11.896  -9.490   9.144  1.00  0.00     0.020 A 
ATOM     70  C   UNL     1      11.507 -10.756   9.587  1.00  0.00     0.054 A 
BRANCH  70  71
ATOM     71  S   UNL     1      11.409 -11.124  11.360  1.00  0.00     0.124 S 
ATOM     72  O   UNL     1       9.966 -11.220  11.568  1.00  0.00    -0.237 OA
ATOM     73  O   UNL     1      12.143 -12.382  11.466  1.00  0.00    -0.237 OA
ATOM     74  O   UNL     1      12.053  -9.975  11.990  1.00  0.00    -0.744 OA
ENDBRANCH  70  71
ENDBRANCH  51  65
BRANCH  52  75
ATOM     75  C   UNL     1      11.793  -8.018  -2.916  1.00  0.00    -0.014 A 
ATOM     76  C   UNL     1      12.400  -8.872  -3.854  1.00  0.00     0.010 A 
ATOM     77  C   UNL     1      11.196  -6.825  -3.364  1.00  0.00     0.010 A 
ATOM     78  C   UNL     1      12.427  -8.531  -5.210  1.00  0.00     0.020 A 
ATOM     79  C   UNL     1      11.194  -6.496  -4.722  1.00  0.00     0.020 A 
ATOM     80  C   UNL     1      11.820  -7.346  -5.635  1.00  0.00     0.054 A 
BRANCH  80  81
ATOM     81  S   UNL     1      11.823  -6.948  -7.406  1.00  0.00     0.124 S 
ATOM     82  O   UNL     1      13.216  -6.578  -7.632  1.00  0.00    -0.237 OA
ATOM     83  O   UNL     1      11.394  -8.206  -8.011  1.00  0.00    -0.237 OA
ATOM     84  O   UNL     1      10.859  -5.855  -7.511  1.00  0.00    -0.744 OA
ENDBRANCH  80  81
ENDBRANCH  52  75
BRANCH  64  85
ATOM     85  C   UNL     1      16.728  -8.594   1.985  1.00  0.00    -0.014 A 
ATOM     86  C   UNL     1      17.330  -7.332   1.842  1.00  0.00     0.010 A 
ATOM     87  C   UNL     1      17.545  -9.728   2.152  1.00  0.00     0.010 A 
ATOM     88  C   UNL     1      18.723  -7.211   1.835  1.00  0.00     0.020 A 
ATOM     89  C   UNL     1      18.936  -9.607   2.177  1.00  0.00     0.020 A 
ATOM     90  C   UNL     1      19.517  -8.350   2.004  1.00  0.00     0.054 A 
BRANCH  90  91
ATOM     91  S   UNL     1      21.320  -8.159   2.037  1.00  0.00     0.124 S 
ATOM     92  O   UNL     1      21.621  -7.885   0.634  1.00  0.00    -0.237 OA
ATOM     93  O   UNL     1      21.506  -7.035   2.951  1.00  0.00    -0.237 OA
ATOM     94  O   UNL     1      21.796  -9.447   2.536  1.00  0.00    -0.744 OA
ENDBRANCH  90  91
ENDBRANCH  64  85
ENDBRANCH  38  39
ENDBRANCH  30  33
ENDBRANCH  28  29
ENDBRANCH  27  28
ENDBRANCH   1  27
TORSDOF 19
