REMARK SMILES O=C1[NH+]=C(Nc2ccc(C(=O)NCCCCCCNC(=O)c3ccc(-c4c5nc(c(-c6ccc(S(=O)(=O)[O-])cc6)c6ccc([nH]6)c(-c6ccc(S(=O)(=O)[O-])cc6)c6nc(c(-c7ccc(S(=O)(=O)[O-])cc7)c7ccc4[nH]7)C=C6)C=C5)cc3)c(O)c2)S/C1=C\c1ccncc1
REMARK SMILES IDX 16 1 15 2 14 3 13 4 12 5 10 6 11 7 9 9 6 10 7 11 84 12 8 13
REMARK SMILES IDX 82 14 5 15 1 16 2 17 3 18 86 19 4 20 85 22 87 23 88 25 89 26
REMARK SMILES IDX 93 27 90 28 92 29 91 30 83 31 17 33 18 34 19 35 20 36 21 38
REMARK SMILES IDX 22 39 23 40 81 41 24 42 80 43 25 44 26 45 27 46 74 47 28 48
REMARK SMILES IDX 79 49 73 50 75 51 29 52 78 53 72 54 71 55 30 57 60 58 41 59
REMARK SMILES IDX 59 60 42 61 45 62 58 63 76 64 43 65 44 66 57 68 77 69 46 70
REMARK SMILES IDX 31 71 32 72 40 73 33 74 39 75 34 76 35 77 36 78 37 79 38 80
REMARK SMILES IDX 61 81 62 82 70 83 63 84 69 85 64 86 65 87 66 88 67 89 68 90
REMARK SMILES IDX 47 91 48 92 56 93 49 94 55 95 50 96 51 97 52 98 53 99 54 100
REMARK H PARENT 12 8 3 21 5 24 83 32 19 37 75 56 45 67
REMARK Flexibility Score: inf
ROOT
ATOM      1  C   UNL     1      -0.243  11.084  -3.573  1.00  0.00     0.002 C 
ENDROOT
BRANCH   1   2
ATOM      2  C   UNL     1      -1.514  10.230  -3.543  1.00  0.00     0.002 C 
BRANCH   2   3
ATOM      3  C   UNL     1      -1.326   8.711  -3.482  1.00  0.00     0.021 C 
BRANCH   3   4
ATOM      4  C   UNL     1      -0.383   8.185  -2.403  1.00  0.00     0.116 C 
BRANCH   4   5
ATOM      5  N   UNL     1      -0.780   8.522  -1.047  1.00  0.00    -0.352 N 
ATOM      6  C   UNL     1      -0.606   7.830   0.128  1.00  0.00     0.255 C 
ATOM      7  O   UNL     1      -1.057   8.306   1.168  1.00  0.00    -0.269 OA
ATOM      8  H   UNL     1      -1.247   9.384  -0.954  1.00  0.00     0.163 HD
BRANCH   6   9
ATOM      9  C   UNL     1       0.055   6.500   0.170  1.00  0.00     0.081 A 
ATOM     10  C   UNL     1       1.029   3.844   0.231  1.00  0.00     0.129 A 
ATOM     11  C   UNL     1      -0.071   4.221   1.008  1.00  0.00     0.053 A 
ATOM     12  C   UNL     1       1.675   4.831  -0.522  1.00  0.00     0.098 A 
ATOM     13  C   UNL     1      -0.552   5.534   0.983  1.00  0.00     0.022 A 
ATOM     14  C   UNL     1       1.218   6.152  -0.519  1.00  0.00     0.132 A 
BRANCH  10  15
ATOM     15  N   UNL     1       1.446   2.513   0.111  1.00  0.00    -0.234 N 
ATOM     16  O   UNL     1      -2.292  -0.281   0.126  1.00  0.00    -0.240 OA
ATOM     17  C   UNL     1      -1.110   0.039   0.118  1.00  0.00     0.346 C 
ATOM     18  N   UNL     1      -0.640   1.329   0.183  1.00  0.00    -0.199 N 
ATOM     19  C   UNL     1       0.003  -0.950   0.055  1.00  0.00     0.110 C 
ATOM     20  C   UNL     1       0.648   1.410   0.123  1.00  0.00     0.322 C 
ATOM     21  H   UNL     1      -1.227   2.114   0.266  1.00  0.00     0.316 HD
ATOM     22  S   UNL     1       1.503  -0.114   0.002  1.00  0.00     0.006 SA
ATOM     23  C   UNL     1      -0.205  -2.273   0.053  1.00  0.00     0.032 C 
ATOM     24  H   UNL     1       2.413   2.360   0.007  1.00  0.00     0.313 HD
BRANCH  23  25
ATOM     25  C   UNL     1       0.855  -3.286   0.056  1.00  0.00    -0.021 A 
ATOM     26  C   UNL     1       1.746  -3.385   1.126  1.00  0.00     0.028 A 
ATOM     27  C   UNL     1       0.980  -4.169  -1.014  1.00  0.00     0.028 A 
ATOM     28  C   UNL     1       2.742  -4.344   1.066  1.00  0.00     0.111 A 
ATOM     29  C   UNL     1       2.008  -5.097  -0.978  1.00  0.00     0.111 A 
ATOM     30  N   UNL     1       2.891  -5.205   0.038  1.00  0.00    -0.265 NA
ENDBRANCH  23  25
ENDBRANCH  10  15
BRANCH  14  31
ATOM     31  O   UNL     1       2.003   7.039  -1.199  1.00  0.00    -0.507 OA
ATOM     32  H   UNL     1       1.760   7.943  -1.240  1.00  0.00     0.293 HD
ENDBRANCH  14  31
ENDBRANCH   6   9
ENDBRANCH   4   5
ENDBRANCH   3   4
ENDBRANCH   2   3
ENDBRANCH   1   2
BRANCH   1  33
ATOM     33  C   UNL     1       0.786  10.739  -4.651  1.00  0.00     0.021 C 
BRANCH  33  34
ATOM     34  C   UNL     1       0.256  10.658  -6.078  1.00  0.00     0.116 C 
BRANCH  34  35
ATOM     35  N   UNL     1      -0.351  11.899  -6.529  1.00  0.00    -0.352 N 
ATOM     36  C   UNL     1      -0.094  12.639  -7.658  1.00  0.00     0.251 C 
ATOM     37  H   UNL     1      -1.048  12.264  -5.938  1.00  0.00     0.163 HD
ATOM     38  O   UNL     1      -0.613  13.743  -7.796  1.00  0.00    -0.269 OA
BRANCH  36  39
ATOM     39  C   UNL     1       0.832  12.121  -8.690  1.00  0.00     0.039 A 
ATOM     40  C   UNL     1       1.809  12.976  -9.206  1.00  0.00     0.014 A 
ATOM     41  C   UNL     1       0.748  10.800  -9.140  1.00  0.00     0.014 A 
ATOM     42  C   UNL     1       2.750  12.484 -10.114  1.00  0.00     0.010 A 
ATOM     43  C   UNL     1       1.731  10.293  -9.988  1.00  0.00     0.010 A 
ATOM     44  C   UNL     1       2.747  11.127 -10.478  1.00  0.00    -0.014 A 
BRANCH  44  45
ATOM     45  C   UNL     1       3.819  10.558 -11.338  1.00  0.00     0.031 A 
ATOM     46  C   UNL     1       3.488   9.972 -12.684  1.00  0.00     0.074 A 
ATOM     47  C   UNL     1       5.085  10.510 -10.874  1.00  0.00     0.049 A 
ATOM     48  N   UNL     1       4.280   9.379 -13.540  1.00  0.00    -0.248 NA
ATOM     49  C   UNL     1       2.082  10.042 -13.115  1.00  0.00     0.031 C 
ATOM     50  C   UNL     1       5.529  11.013  -9.571  1.00  0.00     0.029 A 
ATOM     51  N   UNL     1       6.231  10.009 -11.441  1.00  0.00    -0.354 N 
ATOM     52  C   UNL     1       3.470   8.996 -14.604  1.00  0.00     0.074 A 
ATOM     53  C   UNL     1       2.118   9.380 -14.263  1.00  0.00     0.031 C 
ATOM     54  C   UNL     1       6.851  10.818  -9.451  1.00  0.00     0.029 A 
ATOM     55  C   UNL     1       7.343  10.132 -10.641  1.00  0.00     0.049 A 
ATOM     56  H   UNL     1       6.254   9.600 -12.336  1.00  0.00     0.167 HD
ATOM     57  C   UNL     1       3.824   8.394 -15.764  1.00  0.00     0.031 A 
ATOM     58  C   UNL     1       8.614   9.724 -10.832  1.00  0.00     0.031 A 
ATOM     59  C   UNL     1       5.172   8.014 -16.098  1.00  0.00     0.049 A 
ATOM     60  C   UNL     1       8.973   9.023 -12.114  1.00  0.00     0.074 A 
ATOM     61  C   UNL     1       5.638   7.447 -17.272  1.00  0.00     0.029 A 
ATOM     62  N   UNL     1       6.267   8.150 -15.259  1.00  0.00    -0.354 N 
ATOM     63  N   UNL     1       8.205   8.737 -13.139  1.00  0.00    -0.248 NA
ATOM     64  C   UNL     1      10.370   8.596 -12.269  1.00  0.00     0.031 C 
ATOM     65  C   UNL     1       7.001   7.177 -17.116  1.00  0.00     0.029 A 
ATOM     66  C   UNL     1       7.400   7.643 -15.874  1.00  0.00     0.049 A 
ATOM     67  H   UNL     1       6.243   8.548 -14.358  1.00  0.00     0.167 HD
ATOM     68  C   UNL     1       9.033   8.120 -14.070  1.00  0.00     0.074 A 
ATOM     69  C   UNL     1      10.362   8.093 -13.496  1.00  0.00     0.031 C 
ATOM     70  C   UNL     1       8.719   7.619 -15.291  1.00  0.00     0.031 A 
BRANCH  57  71
ATOM     71  C   UNL     1       2.733   8.095 -16.761  1.00  0.00    -0.014 A 
ATOM     72  C   UNL     1       2.073   9.127 -17.453  1.00  0.00     0.010 A 
ATOM     73  C   UNL     1       2.404   6.758 -17.056  1.00  0.00     0.010 A 
ATOM     74  C   UNL     1       1.082   8.830 -18.392  1.00  0.00     0.020 A 
ATOM     75  C   UNL     1       1.436   6.456 -18.017  1.00  0.00     0.020 A 
ATOM     76  C   UNL     1       0.770   7.496 -18.669  1.00  0.00     0.054 A 
BRANCH  76  77
ATOM     77  S   UNL     1      -0.497   7.142 -19.918  1.00  0.00     0.124 S 
ATOM     78  O   UNL     1      -1.716   7.579 -19.241  1.00  0.00    -0.237 OA
ATOM     79  O   UNL     1      -0.074   7.970 -21.044  1.00  0.00    -0.237 OA
ATOM     80  O   UNL     1      -0.386   5.701 -20.129  1.00  0.00    -0.744 OA
ENDBRANCH  76  77
ENDBRANCH  57  71
BRANCH  58  81
ATOM     81  C   UNL     1       9.640   9.961  -9.778  1.00  0.00    -0.014 A 
ATOM     82  C   UNL     1      10.701  10.857  -9.997  1.00  0.00     0.010 A 
ATOM     83  C   UNL     1       9.559   9.289  -8.544  1.00  0.00     0.010 A 
ATOM     84  C   UNL     1      11.673  11.060  -9.012  1.00  0.00     0.020 A 
ATOM     85  C   UNL     1      10.510   9.514  -7.544  1.00  0.00     0.020 A 
ATOM     86  C   UNL     1      11.569  10.388  -7.790  1.00  0.00     0.054 A 
BRANCH  86  87
ATOM     87  S   UNL     1      12.818  10.699  -6.512  1.00  0.00     0.124 S 
ATOM     88  O   UNL     1      13.992  10.032  -7.065  1.00  0.00    -0.237 OA
ATOM     89  O   UNL     1      12.876  12.158  -6.478  1.00  0.00    -0.237 OA
ATOM     90  O   UNL     1      12.248  10.077  -5.319  1.00  0.00    -0.744 OA
ENDBRANCH  86  87
ENDBRANCH  58  81
BRANCH  70  91
ATOM     91  C   UNL     1       9.835   7.021 -16.107  1.00  0.00    -0.014 A 
ATOM     92  C   UNL     1      10.427   5.797 -15.749  1.00  0.00     0.010 A 
ATOM     93  C   UNL     1      10.253   7.664 -17.288  1.00  0.00     0.010 A 
ATOM     94  C   UNL     1      11.434   5.240 -16.543  1.00  0.00     0.020 A 
ATOM     95  C   UNL     1      11.235   7.094 -18.101  1.00  0.00     0.020 A 
ATOM     96  C   UNL     1      11.828   5.890 -17.717  1.00  0.00     0.054 A 
BRANCH  96  97
ATOM     97  S   UNL     1      13.095   5.115 -18.757  1.00  0.00     0.124 S 
ATOM     98  O   UNL     1      14.299   5.286 -17.950  1.00  0.00    -0.237 OA
ATOM     99  O   UNL     1      12.610   3.742 -18.880  1.00  0.00    -0.237 OA
ATOM    100  O   UNL     1      13.057   5.896 -19.992  1.00  0.00    -0.744 OA
ENDBRANCH  96  97
ENDBRANCH  70  91
ENDBRANCH  44  45
ENDBRANCH  36  39
ENDBRANCH  34  35
ENDBRANCH  33  34
ENDBRANCH   1  33
TORSDOF 19
