REMARK SMILES Cc1noc(C)c1CNc1cnc(C(=O)NCCCCCCNC(=O)c2ccc(-c3c4nc(c(-c5ccc(S(=O)(=O)[O-])cc5)c5ccc([nH]5)c(-c5ccc(S(=O)(=O)[O-])cc5)c5nc(c(-c6ccc(S(=O)(=O)[O-])cc6)c6ccc3[nH]6)C=C5)C=C4)cc2)cn1
REMARK SMILES IDX 19 1 18 2 17 3 16 4 14 5 15 6 13 8 10 9 11 10 87 11 12 12
REMARK SMILES IDX 86 13 9 14 8 16 7 17 1 18 2 19 3 20 4 21 5 22 6 23 20 24
REMARK SMILES IDX 21 25 22 26 23 27 24 28 25 30 26 31 27 32 85 33 28 34 84 35
REMARK SMILES IDX 29 36 30 37 31 38 78 39 32 40 83 41 77 42 79 43 33 44 82 45
REMARK SMILES IDX 76 46 75 47 34 49 64 50 45 51 63 52 46 53 49 54 62 55 80 56
REMARK SMILES IDX 47 57 48 58 61 60 81 61 50 62 35 63 36 64 44 65 37 66 43 67
REMARK SMILES IDX 38 68 39 69 40 70 41 71 42 72 65 73 66 74 74 75 67 76 73 77
REMARK SMILES IDX 68 78 69 79 70 80 71 81 72 82 51 83 52 84 60 85 53 86 59 87
REMARK SMILES IDX 54 88 55 89 56 90 57 91 58 92
REMARK H PARENT 16 7 9 15 23 29 79 48 49 59
REMARK Flexibility Score: inf
ROOT
ATOM      1  C   UNL     1      -4.954  10.244   1.213  1.00  0.00     0.002 C 
ENDROOT
BRANCH   1   2
ATOM      2  C   UNL     1      -3.867   9.221   0.868  1.00  0.00     0.021 C 
BRANCH   2   3
ATOM      3  C   UNL     1      -4.227   7.791   1.265  1.00  0.00     0.116 C 
BRANCH   3   4
ATOM      4  N   UNL     1      -5.214   7.228   0.357  1.00  0.00    -0.351 N 
ATOM      5  C   UNL     1      -5.117   6.239  -0.597  1.00  0.00     0.271 C 
ATOM      6  O   UNL     1      -6.120   5.986  -1.268  1.00  0.00    -0.267 OA
ATOM      7  H   UNL     1      -6.112   7.624   0.439  1.00  0.00     0.163 HD
BRANCH   5   8
ATOM      8  C   UNL     1      -3.872   5.455  -0.830  1.00  0.00     0.146 A 
ATOM      9  C   UNL     1      -1.722   3.837  -1.208  1.00  0.00     0.144 A 
ATOM     10  C   UNL     1      -1.724   4.876  -0.282  1.00  0.00     0.158 A 
ATOM     11  N   UNL     1      -2.795   3.635  -1.999  1.00  0.00    -0.235 NA
ATOM     12  N   UNL     1      -2.780   5.691  -0.072  1.00  0.00    -0.246 NA
ATOM     13  C   UNL     1      -3.866   4.452  -1.787  1.00  0.00     0.147 A 
BRANCH   9  14
ATOM     14  N   UNL     1      -0.687   2.946  -1.353  1.00  0.00    -0.365 N 
ATOM     15  H   UNL     1      -0.422   2.647  -2.253  1.00  0.00     0.162 HD
BRANCH  14  16
ATOM     16  C   UNL     1       0.019   2.440  -0.190  1.00  0.00     0.156 C 
BRANCH  16  17
ATOM     17  C   UNL     1       0.053   0.959  -0.086  1.00  0.00     0.037 A 
ATOM     18  C   UNL     1      -2.497   0.382  -0.005  1.00  0.00     0.071 C 
ATOM     19  C   UNL     1      -1.049   0.062  -0.006  1.00  0.00     0.086 A 
ATOM     20  N   UNL     1      -0.637  -1.209   0.075  1.00  0.00    -0.085 NA
ATOM     21  O   UNL     1       0.744  -1.160   0.067  1.00  0.00    -0.361 OA
ATOM     22  C   UNL     1       1.152   0.132  -0.023  1.00  0.00     0.138 A 
ATOM     23  C   UNL     1       2.608   0.368  -0.024  1.00  0.00     0.091 C 
ENDBRANCH  16  17
ENDBRANCH  14  16
ENDBRANCH   9  14
ENDBRANCH   5   8
ENDBRANCH   3   4
ENDBRANCH   2   3
ENDBRANCH   1   2
BRANCH   1  24
ATOM     24  C   UNL     1      -5.364  10.275   2.691  1.00  0.00     0.002 C 
BRANCH  24  25
ATOM     25  C   UNL     1      -4.208  10.440   3.682  1.00  0.00     0.021 C 
BRANCH  25  26
ATOM     26  C   UNL     1      -3.392  11.715   3.494  1.00  0.00     0.116 C 
BRANCH  26  27
ATOM     27  N   UNL     1      -4.200  12.907   3.697  1.00  0.00    -0.352 N 
ATOM     28  C   UNL     1      -4.000  13.956   4.555  1.00  0.00     0.251 C 
ATOM     29  H   UNL     1      -5.007  12.969   3.137  1.00  0.00     0.163 HD
ATOM     30  O   UNL     1      -4.903  14.770   4.749  1.00  0.00    -0.269 OA
BRANCH  28  31
ATOM     31  C   UNL     1      -2.708  14.102   5.258  1.00  0.00     0.039 A 
ATOM     32  C   UNL     1      -2.709  14.436   6.614  1.00  0.00     0.014 A 
ATOM     33  C   UNL     1      -1.498  13.923   4.580  1.00  0.00     0.014 A 
ATOM     34  C   UNL     1      -1.498  14.537   7.303  1.00  0.00     0.010 A 
ATOM     35  C   UNL     1      -0.297  13.953   5.284  1.00  0.00     0.010 A 
ATOM     36  C   UNL     1      -0.283  14.265   6.652  1.00  0.00    -0.014 A 
BRANCH  36  37
ATOM     37  C   UNL     1       1.007  14.296   7.389  1.00  0.00     0.031 A 
ATOM     38  C   UNL     1       2.072  15.294   7.012  1.00  0.00     0.074 A 
ATOM     39  C   UNL     1       1.244  13.384   8.354  1.00  0.00     0.049 A 
ATOM     40  N   UNL     1       3.276  15.434   7.503  1.00  0.00    -0.248 NA
ATOM     41  C   UNL     1       1.754  16.241   5.930  1.00  0.00     0.031 C 
ATOM     42  C   UNL     1       0.311  12.337   8.779  1.00  0.00     0.029 A 
ATOM     43  N   UNL     1       2.347  13.183   9.146  1.00  0.00    -0.354 N 
ATOM     44  C   UNL     1       3.867  16.461   6.775  1.00  0.00     0.074 A 
ATOM     45  C   UNL     1       2.902  16.888   5.786  1.00  0.00     0.031 C 
ATOM     46  C   UNL     1       0.873  11.618   9.765  1.00  0.00     0.029 A 
ATOM     47  C   UNL     1       2.220  12.122  10.014  1.00  0.00     0.049 A 
ATOM     48  H   UNL     1       3.154  13.745   9.099  1.00  0.00     0.167 HD
ATOM     49  C   UNL     1       5.097  17.006   6.926  1.00  0.00     0.031 A 
ATOM     50  C   UNL     1       3.093  11.601  10.899  1.00  0.00     0.031 A 
ATOM     51  C   UNL     1       6.041  16.600   7.932  1.00  0.00     0.049 A 
ATOM     52  C   UNL     1       4.452  12.235  11.046  1.00  0.00     0.074 A 
ATOM     53  C   UNL     1       7.277  17.154   8.220  1.00  0.00     0.029 A 
ATOM     54  N   UNL     1       5.864  15.540   8.807  1.00  0.00    -0.354 N 
ATOM     55  N   UNL     1       4.951  13.270  10.414  1.00  0.00    -0.248 NA
ATOM     56  C   UNL     1       5.360  11.638  12.036  1.00  0.00     0.031 C 
ATOM     57  C   UNL     1       7.875  16.388   9.223  1.00  0.00     0.029 A 
ATOM     58  C   UNL     1       6.984  15.401   9.610  1.00  0.00     0.049 A 
ATOM     59  H   UNL     1       5.062  14.972   8.852  1.00  0.00     0.167 HD
ATOM     60  C   UNL     1       6.218  13.467  10.954  1.00  0.00     0.074 A 
ATOM     61  C   UNL     1       6.400  12.459  11.976  1.00  0.00     0.031 C 
ATOM     62  C   UNL     1       7.147  14.400  10.632  1.00  0.00     0.031 A 
BRANCH  49  63
ATOM     63  C   UNL     1       5.513  18.102   5.980  1.00  0.00    -0.014 A 
ATOM     64  C   UNL     1       4.956  19.391   6.063  1.00  0.00     0.010 A 
ATOM     65  C   UNL     1       6.555  17.864   5.065  1.00  0.00     0.010 A 
ATOM     66  C   UNL     1       5.426  20.418   5.239  1.00  0.00     0.020 A 
ATOM     67  C   UNL     1       7.046  18.895   4.258  1.00  0.00     0.020 A 
ATOM     68  C   UNL     1       6.473  20.165   4.347  1.00  0.00     0.054 A 
BRANCH  68  69
ATOM     69  S   UNL     1       7.113  21.536   3.346  1.00  0.00     0.124 S 
ATOM     70  O   UNL     1       6.020  21.757   2.404  1.00  0.00    -0.237 OA
ATOM     71  O   UNL     1       7.310  22.589   4.339  1.00  0.00    -0.237 OA
ATOM     72  O   UNL     1       8.339  20.997   2.762  1.00  0.00    -0.744 OA
ENDBRANCH  68  69
ENDBRANCH  49  63
BRANCH  50  73
ATOM     73  C   UNL     1       2.727  10.403  11.706  1.00  0.00    -0.014 A 
ATOM     74  C   UNL     1       2.587  10.489  13.103  1.00  0.00     0.010 A 
ATOM     75  C   UNL     1       2.557   9.154  11.081  1.00  0.00     0.010 A 
ATOM     76  C   UNL     1       2.333   9.343  13.863  1.00  0.00     0.020 A 
ATOM     77  C   UNL     1       2.268   8.012  11.833  1.00  0.00     0.020 A 
ATOM     78  C   UNL     1       2.181   8.110  13.222  1.00  0.00     0.054 A 
BRANCH  78  79
ATOM     79  S   UNL     1       1.855   6.634  14.225  1.00  0.00     0.124 S 
ATOM     80  O   UNL     1       3.157   6.392  14.838  1.00  0.00    -0.237 OA
ATOM     81  O   UNL     1       0.804   7.092  15.129  1.00  0.00    -0.237 OA
ATOM     82  O   UNL     1       1.431   5.641  13.241  1.00  0.00    -0.744 OA
ENDBRANCH  78  79
ENDBRANCH  50  73
BRANCH  62  83
ATOM     83  C   UNL     1       8.429  14.409  11.422  1.00  0.00    -0.014 A 
ATOM     84  C   UNL     1       9.390  13.394  11.274  1.00  0.00     0.010 A 
ATOM     85  C   UNL     1       8.698  15.486  12.287  1.00  0.00     0.010 A 
ATOM     86  C   UNL     1      10.582  13.438  12.002  1.00  0.00     0.020 A 
ATOM     87  C   UNL     1       9.902  15.551  12.992  1.00  0.00     0.020 A 
ATOM     88  C   UNL     1      10.831  14.517  12.856  1.00  0.00     0.054 A 
BRANCH  88  89
ATOM     89  S   UNL     1      12.404  14.572  13.757  1.00  0.00     0.124 S 
ATOM     90  O   UNL     1      12.215  13.530  14.761  1.00  0.00    -0.237 OA
ATOM     91  O   UNL     1      13.380  14.270  12.713  1.00  0.00    -0.237 OA
ATOM     92  O   UNL     1      12.458  15.937  14.277  1.00  0.00    -0.744 OA
ENDBRANCH  88  89
ENDBRANCH  62  83
ENDBRANCH  36  37
ENDBRANCH  28  31
ENDBRANCH  26  27
ENDBRANCH  25  26
ENDBRANCH  24  25
ENDBRANCH   1  24
TORSDOF 19
