REMARK SMILES O=C(CS(=O)(=O)NCc1ccc(N2CCOCC2)nc1)NCCCCCCNC(=O)c1ccc(-c2c3nc(c(-c4ccc(S(=O)(=O)[O-])cc4)c4ccc([nH]4)c(-c4ccc(S(=O)(=O)[O-])cc4)c4nc(c(-c5ccc(S(=O)(=O)[O-])cc5)c5ccc2[nH]5)C=C4)C=C3)cc1
REMARK SMILES IDX 23 1 22 2 21 3 1 4 2 5 3 7 4 8 5 9 6 10 7 11 8 13 9 14 10 15
REMARK SMILES IDX 20 16 11 17 19 18 12 19 13 20 14 21 18 22 15 23 17 24 16 25
REMARK SMILES IDX 24 26 25 27 26 28 27 29 28 30 29 31 30 33 31 34 32 35 90 36
REMARK SMILES IDX 33 37 89 38 34 39 35 40 36 41 83 42 37 43 88 44 82 45 84 46
REMARK SMILES IDX 38 47 87 48 81 49 80 50 39 52 69 53 50 54 68 55 51 56 54 57
REMARK SMILES IDX 67 58 85 59 52 60 53 61 66 63 86 64 55 65 40 66 41 67 49 68
REMARK SMILES IDX 42 69 48 70 43 71 44 72 45 73 46 74 47 75 70 76 71 77 79 78
REMARK SMILES IDX 72 79 78 80 73 81 74 82 75 83 76 84 77 85 56 86 57 87 65 88
REMARK SMILES IDX 58 89 64 90 59 91 60 92 61 93 62 94 63 95
REMARK H PARENT 21 6 7 12 28 32 84 51 54 62
REMARK Flexibility Score: inf
ROOT
ATOM      1  C   UNL     1       2.726   1.514   2.945  1.00  0.00     0.021 C 
ENDROOT
BRANCH   1   2
ATOM      2  C   UNL     1       2.225   1.445   1.502  1.00  0.00     0.116 C 
BRANCH   2   3
ATOM      3  N   UNL     1       2.836   0.360   0.746  1.00  0.00    -0.355 N 
ATOM      4  O   UNL     1       0.891  -0.241  -0.300  1.00  0.00    -0.274 OA
ATOM      5  C   UNL     1       2.099  -0.405  -0.132  1.00  0.00     0.236 C 
ATOM      6  H   UNL     1       3.795   0.170   0.864  1.00  0.00     0.163 HD
BRANCH   5   7
ATOM      7  C   UNL     1       2.816  -1.492  -0.849  1.00  0.00     0.253 C 
BRANCH   7   8
ATOM      8  S   UNL     1       3.896  -0.937  -2.140  1.00  0.00     0.220 S 
ATOM      9  O   UNL     1       5.133  -0.529  -1.500  1.00  0.00    -0.212 OA
ATOM     10  O   UNL     1       3.949  -1.985  -3.132  1.00  0.00    -0.212 OA
BRANCH   8  11
ATOM     11  N   UNL     1       3.281   0.355  -2.958  1.00  0.00    -0.210 NA
ATOM     12  H   UNL     1       2.520  -0.040  -3.511  1.00  0.00     0.141 HD
BRANCH  11  13
ATOM     13  C   UNL     1       2.741   1.613  -2.454  1.00  0.00     0.135 C 
BRANCH  13  14
ATOM     14  C   UNL     1       3.638   2.706  -1.948  1.00  0.00    -0.015 A 
ATOM     15  C   UNL     1       3.137   4.011  -1.889  1.00  0.00     0.010 A 
ATOM     16  C   UNL     1       4.911   2.541  -1.436  1.00  0.00     0.118 A 
ATOM     17  C   UNL     1       3.901   5.040  -1.336  1.00  0.00     0.047 A 
ATOM     18  N   UNL     1       5.675   3.529  -0.907  1.00  0.00    -0.239 NA
ATOM     19  C   UNL     1       5.173   4.774  -0.845  1.00  0.00     0.128 A 
BRANCH  19  20
ATOM     20  N   UNL     1       5.962   5.786  -0.352  1.00  0.00    -0.352 N 
ATOM     21  C   UNL     1       5.480   6.652   0.728  1.00  0.00     0.146 C 
ATOM     22  C   UNL     1       7.415   5.598  -0.339  1.00  0.00     0.146 C 
ATOM     23  C   UNL     1       6.206   8.002   0.646  1.00  0.00     0.181 C 
ATOM     24  C   UNL     1       8.068   6.987  -0.411  1.00  0.00     0.181 C 
ATOM     25  O   UNL     1       7.636   7.835   0.668  1.00  0.00    -0.378 OA
ENDBRANCH  19  20
ENDBRANCH  13  14
ENDBRANCH  11  13
ENDBRANCH   8  11
ENDBRANCH   7   8
ENDBRANCH   5   7
ENDBRANCH   2   3
ENDBRANCH   1   2
BRANCH   1  26
ATOM     26  C   UNL     1       4.186   1.955   3.099  1.00  0.00     0.002 C 
BRANCH  26  27
ATOM     27  C   UNL     1       4.489   3.372   2.607  1.00  0.00     0.002 C 
BRANCH  27  28
ATOM     28  C   UNL     1       3.745   4.492   3.334  1.00  0.00     0.021 C 
BRANCH  28  29
ATOM     29  C   UNL     1       4.046   4.617   4.823  1.00  0.00     0.116 C 
BRANCH  29  30
ATOM     30  N   UNL     1       5.452   4.867   5.103  1.00  0.00    -0.352 N 
ATOM     31  C   UNL     1       6.058   5.856   5.841  1.00  0.00     0.251 C 
ATOM     32  H   UNL     1       6.073   4.219   4.697  1.00  0.00     0.163 HD
ATOM     33  O   UNL     1       7.284   5.936   5.847  1.00  0.00    -0.269 OA
BRANCH  31  34
ATOM     34  C   UNL     1       5.252   6.843   6.596  1.00  0.00     0.039 A 
ATOM     35  C   UNL     1       5.664   8.180   6.605  1.00  0.00     0.014 A 
ATOM     36  C   UNL     1       4.106   6.470   7.300  1.00  0.00     0.014 A 
ATOM     37  C   UNL     1       4.885   9.145   7.249  1.00  0.00     0.010 A 
ATOM     38  C   UNL     1       3.282   7.444   7.860  1.00  0.00     0.010 A 
ATOM     39  C   UNL     1       3.662   8.794   7.842  1.00  0.00    -0.014 A 
BRANCH  39  40
ATOM     40  C   UNL     1       2.764   9.827   8.425  1.00  0.00     0.031 A 
ATOM     41  C   UNL     1       2.412   9.804   9.889  1.00  0.00     0.074 A 
ATOM     42  C   UNL     1       2.216  10.757   7.618  1.00  0.00     0.049 A 
ATOM     43  N   UNL     1       1.641  10.619  10.563  1.00  0.00    -0.248 NA
ATOM     44  C   UNL     1       2.973   8.708  10.694  1.00  0.00     0.031 C 
ATOM     45  C   UNL     1       2.428  10.856   6.171  1.00  0.00     0.029 A 
ATOM     46  N   UNL     1       1.369  11.801   7.898  1.00  0.00    -0.354 N 
ATOM     47  C   UNL     1       1.607  10.123  11.862  1.00  0.00     0.074 A 
ATOM     48  C   UNL     1       2.393   8.908  11.868  1.00  0.00     0.031 C 
ATOM     49  C   UNL     1       1.772  11.929   5.701  1.00  0.00     0.029 A 
ATOM     50  C   UNL     1       1.060  12.571   6.801  1.00  0.00     0.049 A 
ATOM     51  H   UNL     1       1.018  11.982   8.800  1.00  0.00     0.167 HD
ATOM     52  C   UNL     1       0.996  10.640  12.956  1.00  0.00     0.031 A 
ATOM     53  C   UNL     1       0.295  13.674   6.690  1.00  0.00     0.031 A 
ATOM     54  C   UNL     1       0.227  11.857  12.951  1.00  0.00     0.049 A 
ATOM     55  C   UNL     1      -0.363  14.237   7.918  1.00  0.00     0.074 A 
ATOM     56  C   UNL     1      -0.365  12.506  14.021  1.00  0.00     0.029 A 
ATOM     57  N   UNL     1      -0.064  12.605  11.820  1.00  0.00    -0.354 N 
ATOM     58  N   UNL     1      -0.312  13.800   9.154  1.00  0.00    -0.248 NA
ATOM     59  C   UNL     1      -1.171  15.450   7.737  1.00  0.00     0.031 C 
ATOM     60  C   UNL     1      -1.060  13.617  13.528  1.00  0.00     0.029 A 
ATOM     61  C   UNL     1      -0.853  13.692  12.160  1.00  0.00     0.049 A 
ATOM     62  H   UNL     1       0.246  12.395  10.909  1.00  0.00     0.167 HD
ATOM     63  C   UNL     1      -1.068  14.695   9.902  1.00  0.00     0.074 A 
ATOM     64  C   UNL     1      -1.545  15.709   8.982  1.00  0.00     0.031 C 
ATOM     65  C   UNL     1      -1.340  14.680  11.231  1.00  0.00     0.031 A 
BRANCH  52  66
ATOM     66  C   UNL     1       1.128   9.876  14.249  1.00  0.00    -0.014 A 
ATOM     67  C   UNL     1       2.362   9.782  14.920  1.00  0.00     0.010 A 
ATOM     68  C   UNL     1      -0.002   9.256  14.811  1.00  0.00     0.010 A 
ATOM     69  C   UNL     1       2.475   9.034  16.095  1.00  0.00     0.020 A 
ATOM     70  C   UNL     1       0.100   8.532  16.003  1.00  0.00     0.020 A 
ATOM     71  C   UNL     1       1.344   8.407  16.625  1.00  0.00     0.054 A 
BRANCH  71  72
ATOM     72  S   UNL     1       1.518   7.440  18.150  1.00  0.00     0.124 S 
ATOM     73  O   UNL     1       2.203   6.242  17.669  1.00  0.00    -0.237 OA
ATOM     74  O   UNL     1       2.316   8.320  19.000  1.00  0.00    -0.237 OA
ATOM     75  O   UNL     1       0.140   7.234  18.590  1.00  0.00    -0.744 OA
ENDBRANCH  71  72
ENDBRANCH  52  66
BRANCH  53  76
ATOM     76  C   UNL     1       0.148  14.341   5.368  1.00  0.00    -0.014 A 
ATOM     77  C   UNL     1       0.786  15.569   5.118  1.00  0.00     0.010 A 
ATOM     78  C   UNL     1      -0.601  13.737   4.341  1.00  0.00     0.010 A 
ATOM     79  C   UNL     1       0.673  16.185   3.869  1.00  0.00     0.020 A 
ATOM     80  C   UNL     1      -0.695  14.338   3.083  1.00  0.00     0.020 A 
ATOM     81  C   UNL     1      -0.062  15.562   2.857  1.00  0.00     0.054 A 
BRANCH  81  82
ATOM     82  S   UNL     1      -0.132  16.343   1.220  1.00  0.00     0.124 S 
ATOM     83  O   UNL     1      -1.043  17.458   1.453  1.00  0.00    -0.237 OA
ATOM     84  O   UNL     1       1.263  16.702   0.982  1.00  0.00    -0.237 OA
ATOM     85  O   UNL     1      -0.648  15.281   0.358  1.00  0.00    -0.744 OA
ENDBRANCH  81  82
ENDBRANCH  53  76
BRANCH  65  86
ATOM     86  C   UNL     1      -2.187  15.804  11.768  1.00  0.00    -0.014 A 
ATOM     87  C   UNL     1      -3.559  15.886  11.473  1.00  0.00     0.010 A 
ATOM     88  C   UNL     1      -1.605  16.780  12.597  1.00  0.00     0.010 A 
ATOM     89  C   UNL     1      -4.324  16.949  11.958  1.00  0.00     0.020 A 
ATOM     90  C   UNL     1      -2.373  17.829  13.108  1.00  0.00     0.020 A 
ATOM     91  C   UNL     1      -3.724  17.918  12.769  1.00  0.00     0.054 A 
BRANCH  91  92
ATOM     92  S   UNL     1      -4.740  19.282  13.399  1.00  0.00     0.124 S 
ATOM     93  O   UNL     1      -4.893  20.119  12.213  1.00  0.00    -0.237 OA
ATOM     94  O   UNL     1      -5.952  18.599  13.847  1.00  0.00    -0.237 OA
ATOM     95  O   UNL     1      -3.925  19.855  14.467  1.00  0.00    -0.744 OA
ENDBRANCH  91  92
ENDBRANCH  65  86
ENDBRANCH  39  40
ENDBRANCH  31  34
ENDBRANCH  29  30
ENDBRANCH  28  29
ENDBRANCH  27  28
ENDBRANCH  26  27
ENDBRANCH   1  26
TORSDOF 21
