REMARK SMILES CC(C)(C)OC(=O)N1C[C@@H](C(=O)NCCCCCCNC(=O)c2ccc(-c3c4nc(c(-c5ccc(S(=O)(=O)[O-])cc5)c5ccc([nH]5)c(-c5ccc(S(=O)(=O)[O-])cc5)c5nc(c(-c6ccc(S(=O)(=O)[O-])cc6)c6ccc3[nH]6)C=C5)C=C4)cc2)[C@@]2(C1)C(=O)Nc1ccccc12
REMARK SMILES IDX 16 1 15 2 14 3 13 4 11 5 12 6 10 8 8 9 9 10 84 11 83 12
REMARK SMILES IDX 85 13 93 14 86 15 87 16 88 17 92 18 89 20 91 21 90 22 6 23
REMARK SMILES IDX 7 24 5 25 2 26 1 27 3 28 4 29 17 30 18 31 19 32 20 33 21 34
REMARK SMILES IDX 22 36 23 37 24 38 82 39 25 40 81 41 26 42 27 43 28 44 75 45
REMARK SMILES IDX 29 46 80 47 74 48 76 49 30 50 79 51 73 52 72 53 31 55 61 56
REMARK SMILES IDX 42 57 60 58 43 59 46 60 59 61 77 62 44 63 45 64 58 66 78 67
REMARK SMILES IDX 47 68 32 69 33 70 41 71 34 72 40 73 35 74 36 75 37 76 38 77
REMARK SMILES IDX 39 78 62 79 63 80 71 81 64 82 70 83 65 84 66 85 67 86 68 87
REMARK SMILES IDX 69 88 48 89 49 90 57 91 50 92 56 93 51 94 52 95 53 96 54 97
REMARK SMILES IDX 55 98
REMARK H PARENT 13 7 87 19 20 35 76 54 46 65
REMARK Flexibility Score: inf
ROOT
ATOM      1  C   UNL     1       2.908   0.320  -7.803  1.00  0.00     0.002 C 
ENDROOT
BRANCH   1   2
ATOM      2  C   UNL     1       2.616  -0.415  -6.490  1.00  0.00     0.021 C 
BRANCH   2   3
ATOM      3  C   UNL     1       1.236  -1.077  -6.438  1.00  0.00     0.116 C 
BRANCH   3   4
ATOM      4  N   UNL     1       1.119  -2.201  -7.355  1.00  0.00    -0.356 N 
ATOM      5  C   UNL     1       1.145  -3.550  -7.224  1.00  0.00     0.226 C 
ATOM      6  O   UNL     1       1.000  -4.185  -8.277  1.00  0.00    -0.275 OA
ATOM      7  H   UNL     1       0.990  -1.914  -8.288  1.00  0.00     0.163 HD
BRANCH   5   8
ATOM      8  C   UNL     1       1.349  -4.325  -5.928  1.00  0.00     0.120 C 
ATOM      9  N   UNL     1       1.107  -3.214  -3.846  1.00  0.00    -0.306 N 
ATOM     10  C   UNL     1       0.354  -3.941  -4.850  1.00  0.00     0.138 C 
ATOM     11  C   UNL     1       2.549  -3.216  -4.123  1.00  0.00     0.145 C 
ATOM     12  C   UNL     1       2.718  -4.280  -5.232  1.00  0.00     0.107 C 
ATOM     13  C   UNL     1       2.947  -5.612  -4.442  1.00  0.00     0.237 C 
ATOM     14  C   UNL     1       3.957  -4.279  -6.112  1.00  0.00    -0.006 A 
ATOM     15  O   UNL     1       2.179  -6.165  -3.672  1.00  0.00    -0.274 OA
ATOM     16  N   UNL     1       4.212  -6.079  -4.741  1.00  0.00    -0.325 N 
ATOM     17  C   UNL     1       4.798  -5.332  -5.742  1.00  0.00     0.045 A 
ATOM     18  C   UNL     1       4.303  -3.545  -7.236  1.00  0.00     0.007 A 
ATOM     19  H   UNL     1       4.641  -6.846  -4.298  1.00  0.00     0.169 HD
ATOM     20  C   UNL     1       5.985  -5.637  -6.383  1.00  0.00     0.026 A 
ATOM     21  C   UNL     1       5.492  -3.837  -7.920  1.00  0.00     0.000 A 
ATOM     22  C   UNL     1       6.334  -4.869  -7.489  1.00  0.00     0.002 A 
BRANCH   9  23
ATOM     23  C   UNL     1       0.447  -2.787  -2.716  1.00  0.00     0.410 C 
ATOM     24  O   UNL     1      -0.711  -3.115  -2.491  1.00  0.00    -0.224 OA
BRANCH  23  25
ATOM     25  O   UNL     1       1.184  -1.954  -1.940  1.00  0.00    -0.444 OA
BRANCH  25  26
ATOM     26  C   UNL     1       0.658  -1.474  -0.662  1.00  0.00     0.106 C 
ATOM     27  C   UNL     1       1.403  -0.163  -0.373  1.00  0.00     0.056 C 
ATOM     28  C   UNL     1       1.009  -2.509   0.410  1.00  0.00     0.056 C 
ATOM     29  C   UNL     1      -0.849  -1.158  -0.633  1.00  0.00     0.056 C 
ENDBRANCH  25  26
ENDBRANCH  23  25
ENDBRANCH   9  23
ENDBRANCH   5   8
ENDBRANCH   3   4
ENDBRANCH   2   3
ENDBRANCH   1   2
BRANCH   1  30
ATOM     30  C   UNL     1       2.081   1.593  -8.009  1.00  0.00     0.002 C 
BRANCH  30  31
ATOM     31  C   UNL     1       2.172   2.615  -6.870  1.00  0.00     0.021 C 
BRANCH  31  32
ATOM     32  C   UNL     1       3.587   3.091  -6.553  1.00  0.00     0.116 C 
BRANCH  32  33
ATOM     33  N   UNL     1       4.146   3.862  -7.650  1.00  0.00    -0.352 N 
ATOM     34  C   UNL     1       4.682   5.124  -7.629  1.00  0.00     0.251 C 
ATOM     35  H   UNL     1       4.141   3.417  -8.528  1.00  0.00     0.163 HD
ATOM     36  O   UNL     1       4.877   5.721  -8.683  1.00  0.00    -0.269 OA
BRANCH  34  37
ATOM     37  C   UNL     1       5.020   5.765  -6.338  1.00  0.00     0.039 A 
ATOM     38  C   UNL     1       4.704   7.112  -6.151  1.00  0.00     0.014 A 
ATOM     39  C   UNL     1       5.693   5.055  -5.338  1.00  0.00     0.014 A 
ATOM     40  C   UNL     1       5.046   7.744  -4.953  1.00  0.00     0.010 A 
ATOM     41  C   UNL     1       5.979   5.670  -4.120  1.00  0.00     0.010 A 
ATOM     42  C   UNL     1       5.681   7.027  -3.925  1.00  0.00    -0.014 A 
BRANCH  42  43
ATOM     43  C   UNL     1       6.077   7.703  -2.664  1.00  0.00     0.031 A 
ATOM     44  C   UNL     1       7.534   7.886  -2.330  1.00  0.00     0.074 A 
ATOM     45  C   UNL     1       5.128   8.134  -1.810  1.00  0.00     0.049 A 
ATOM     46  N   UNL     1       8.075   8.466  -1.289  1.00  0.00    -0.248 NA
ATOM     47  C   UNL     1       8.511   7.326  -3.278  1.00  0.00     0.031 C 
ATOM     48  C   UNL     1       3.684   7.975  -1.997  1.00  0.00     0.029 A 
ATOM     49  N   UNL     1       5.237   8.798  -0.615  1.00  0.00    -0.354 N 
ATOM     50  C   UNL     1       9.449   8.329  -1.449  1.00  0.00     0.074 A 
ATOM     51  C   UNL     1       9.658   7.567  -2.661  1.00  0.00     0.031 C 
ATOM     52  C   UNL     1       3.042   8.555  -0.970  1.00  0.00     0.029 A 
ATOM     53  C   UNL     1       4.026   9.105  -0.042  1.00  0.00     0.049 A 
ATOM     54  H   UNL     1       6.102   9.033  -0.206  1.00  0.00     0.167 HD
ATOM     55  C   UNL     1      10.449   8.812  -0.673  1.00  0.00     0.031 A 
ATOM     56  C   UNL     1       3.740   9.767   1.095  1.00  0.00     0.031 A 
ATOM     57  C   UNL     1      10.240   9.583   0.524  1.00  0.00     0.049 A 
ATOM     58  C   UNL     1       4.865  10.322   1.924  1.00  0.00     0.074 A 
ATOM     59  C   UNL     1      11.185  10.156   1.357  1.00  0.00     0.029 A 
ATOM     60  N   UNL     1       8.998   9.895   1.055  1.00  0.00    -0.354 N 
ATOM     61  N   UNL     1       6.159  10.231   1.725  1.00  0.00    -0.248 NA
ATOM     62  C   UNL     1       4.489  11.091   3.118  1.00  0.00     0.031 C 
ATOM     63  C   UNL     1      10.514  10.786   2.412  1.00  0.00     0.029 A 
ATOM     64  C   UNL     1       9.151  10.646   2.208  1.00  0.00     0.049 A 
ATOM     65  H   UNL     1       8.134   9.622   0.669  1.00  0.00     0.167 HD
ATOM     66  C   UNL     1       6.751  10.958   2.752  1.00  0.00     0.074 A 
ATOM     67  C   UNL     1       5.673  11.493   3.560  1.00  0.00     0.031 C 
ATOM     68  C   UNL     1       8.067  11.168   3.001  1.00  0.00     0.031 A 
BRANCH  55  69
ATOM     69  C   UNL     1      11.863   8.514  -1.101  1.00  0.00    -0.014 A 
ATOM     70  C   UNL     1      12.418   9.123  -2.241  1.00  0.00     0.010 A 
ATOM     71  C   UNL     1      12.654   7.633  -0.343  1.00  0.00     0.010 A 
ATOM     72  C   UNL     1      13.722   8.819  -2.643  1.00  0.00     0.020 A 
ATOM     73  C   UNL     1      13.969   7.348  -0.726  1.00  0.00     0.020 A 
ATOM     74  C   UNL     1      14.487   7.928  -1.886  1.00  0.00     0.054 A 
BRANCH  74  75
ATOM     75  S   UNL     1      16.179   7.557  -2.423  1.00  0.00     0.124 S 
ATOM     76  O   UNL     1      15.946   6.666  -3.557  1.00  0.00    -0.237 OA
ATOM     77  O   UNL     1      16.707   8.877  -2.760  1.00  0.00    -0.237 OA
ATOM     78  O   UNL     1      16.785   6.929  -1.252  1.00  0.00    -0.744 OA
ENDBRANCH  74  75
ENDBRANCH  55  69
BRANCH  56  79
ATOM     79  C   UNL     1       2.322   9.979   1.493  1.00  0.00    -0.014 A 
ATOM     80  C   UNL     1       1.737  11.254   1.393  1.00  0.00     0.010 A 
ATOM     81  C   UNL     1       1.545   8.904   1.960  1.00  0.00     0.010 A 
ATOM     82  C   UNL     1       0.407  11.454   1.773  1.00  0.00     0.020 A 
ATOM     83  C   UNL     1       0.208   9.095   2.317  1.00  0.00     0.020 A 
ATOM     84  C   UNL     1      -0.350  10.373   2.233  1.00  0.00     0.054 A 
BRANCH  84  85
ATOM     85  S   UNL     1      -2.090  10.643   2.671  1.00  0.00     0.124 S 
ATOM     86  O   UNL     1      -1.977  11.304   3.967  1.00  0.00    -0.237 OA
ATOM     87  O   UNL     1      -2.568  11.479   1.573  1.00  0.00    -0.237 OA
ATOM     88  O   UNL     1      -2.646   9.292   2.702  1.00  0.00    -0.744 OA
ENDBRANCH  84  85
ENDBRANCH  56  79
BRANCH  68  89
ATOM     89  C   UNL     1       8.410  12.047   4.173  1.00  0.00    -0.014 A 
ATOM     90  C   UNL     1       8.236  11.604   5.497  1.00  0.00     0.010 A 
ATOM     91  C   UNL     1       8.931  13.334   3.943  1.00  0.00     0.010 A 
ATOM     92  C   UNL     1       8.529  12.452   6.568  1.00  0.00     0.020 A 
ATOM     93  C   UNL     1       9.250  14.174   5.012  1.00  0.00     0.020 A 
ATOM     94  C   UNL     1       9.026  13.735   6.318  1.00  0.00     0.054 A 
BRANCH  94  95
ATOM     95  S   UNL     1       9.406  14.818   7.723  1.00  0.00     0.124 S 
ATOM     96  O   UNL     1       8.078  15.274   8.120  1.00  0.00    -0.237 OA
ATOM     97  O   UNL     1      10.066  13.912   8.660  1.00  0.00    -0.237 OA
ATOM     98  O   UNL     1      10.271  15.843   7.144  1.00  0.00    -0.744 OA
ENDBRANCH  94  95
ENDBRANCH  68  89
ENDBRANCH  42  43
ENDBRANCH  34  37
ENDBRANCH  32  33
ENDBRANCH  31  32
ENDBRANCH  30  31
ENDBRANCH   1  30
TORSDOF 19
