REMARK SMILES O=C(NCCCCCCNC(=O)C1(CCc2ccccn2)CCCCC1)c1ccc(-c2c3nc(c(-c4ccc(S(=O)(=O)[O-])cc4)c4ccc([nH]4)c(-c4ccc(S(=O)(=O)[O-])cc4)c4nc(c(-c5ccc(S(=O)(=O)[O-])cc5)c5ccc2[nH]5)C=C4)C=C3)cc1
REMARK SMILES IDX 6 1 5 2 4 3 3 4 1 5 2 6 27 8 28 9 86 10 29 11 85 12 30 13
REMARK SMILES IDX 31 14 32 15 79 16 33 17 84 18 78 19 80 20 34 21 83 22 77 23
REMARK SMILES IDX 76 24 35 26 65 27 46 28 64 29 47 30 50 31 63 32 81 33 48 34
REMARK SMILES IDX 49 35 62 37 82 38 51 39 36 40 37 41 45 42 38 43 44 44 39 45
REMARK SMILES IDX 40 46 41 47 42 48 43 49 66 50 67 51 75 52 68 53 74 54 69 55
REMARK SMILES IDX 70 56 71 57 72 58 73 59 52 60 53 61 61 62 54 63 60 64 55 65
REMARK SMILES IDX 56 66 57 67 58 68 59 69 7 70 8 71 9 72 10 73 11 74 12 76
REMARK SMILES IDX 13 77 22 78 26 79 23 80 25 81 24 82 14 83 15 84 16 85 17 86
REMARK SMILES IDX 21 87 18 88 20 89 19 90
REMARK H PARENT 3 7 80 25 50 36 10 75
REMARK Flexibility Score: inf
ROOT
ATOM      1  C   UNL     1       3.855  -3.603  -1.238  1.00  0.00     0.002 C 
ENDROOT
BRANCH   1   2
ATOM      2  C   UNL     1       4.368  -2.585  -0.217  1.00  0.00     0.021 C 
BRANCH   2   3
ATOM      3  C   UNL     1       4.207  -1.121  -0.604  1.00  0.00     0.116 C 
BRANCH   3   4
ATOM      4  N   UNL     1       2.819  -0.717  -0.729  1.00  0.00    -0.352 N 
ATOM      5  O   UNL     1       0.937   0.420  -0.234  1.00  0.00    -0.269 OA
ATOM      6  C   UNL     1       2.149   0.312  -0.107  1.00  0.00     0.251 C 
ATOM      7  H   UNL     1       2.277  -1.257  -1.350  1.00  0.00     0.163 HD
BRANCH   6   8
ATOM      8  C   UNL     1       2.897   1.268   0.744  1.00  0.00     0.039 A 
ATOM      9  C   UNL     1       4.109   1.814   0.317  1.00  0.00     0.014 A 
ATOM     10  C   UNL     1       2.377   1.614   1.995  1.00  0.00     0.014 A 
ATOM     11  C   UNL     1       4.873   2.574   1.197  1.00  0.00     0.010 A 
ATOM     12  C   UNL     1       3.107   2.451   2.845  1.00  0.00     0.010 A 
ATOM     13  C   UNL     1       4.381   2.905   2.471  1.00  0.00    -0.014 A 
BRANCH  13  14
ATOM     14  C   UNL     1       5.206   3.750   3.374  1.00  0.00     0.031 A 
ATOM     15  C   UNL     1       5.730   3.213   4.681  1.00  0.00     0.074 A 
ATOM     16  C   UNL     1       5.518   5.004   2.989  1.00  0.00     0.049 A 
ATOM     17  N   UNL     1       6.507   3.799   5.558  1.00  0.00    -0.248 NA
ATOM     18  C   UNL     1       5.325   1.850   5.059  1.00  0.00     0.031 C 
ATOM     19  C   UNL     1       5.065   5.641   1.749  1.00  0.00     0.029 A 
ATOM     20  N   UNL     1       6.308   5.956   3.581  1.00  0.00    -0.354 N 
ATOM     21  C   UNL     1       6.662   2.891   6.600  1.00  0.00     0.074 A 
ATOM     22  C   UNL     1       5.881   1.722   6.257  1.00  0.00     0.031 C 
ATOM     23  C   UNL     1       5.632   6.852   1.644  1.00  0.00     0.029 A 
ATOM     24  C   UNL     1       6.439   7.103   2.833  1.00  0.00     0.049 A 
ATOM     25  H   UNL     1       6.740   5.831   4.457  1.00  0.00     0.167 HD
ATOM     26  C   UNL     1       7.390   3.018   7.737  1.00  0.00     0.031 A 
ATOM     27  C   UNL     1       7.127   8.234   3.074  1.00  0.00     0.031 A 
ATOM     28  C   UNL     1       8.174   4.179   8.071  1.00  0.00     0.049 A 
ATOM     29  C   UNL     1       7.923   8.349   4.342  1.00  0.00     0.074 A 
ATOM     30  C   UNL     1       8.975   4.388   9.182  1.00  0.00     0.029 A 
ATOM     31  N   UNL     1       8.257   5.329   7.300  1.00  0.00    -0.354 N 
ATOM     32  N   UNL     1       8.081   7.465   5.298  1.00  0.00    -0.248 NA
ATOM     33  C   UNL     1       8.639   9.613   4.559  1.00  0.00     0.031 C 
ATOM     34  C   UNL     1       9.504   5.681   9.105  1.00  0.00     0.029 A 
ATOM     35  C   UNL     1       9.080   6.257   7.919  1.00  0.00     0.049 A 
ATOM     36  H   UNL     1       7.799   5.466   6.439  1.00  0.00     0.167 HD
ATOM     37  C   UNL     1       8.936   8.057   6.220  1.00  0.00     0.074 A 
ATOM     38  C   UNL     1       9.272   9.367   5.698  1.00  0.00     0.031 C 
ATOM     39  C   UNL     1       9.403   7.558   7.391  1.00  0.00     0.031 A 
BRANCH  26  40
ATOM     40  C   UNL     1       7.348   1.880   8.725  1.00  0.00    -0.014 A 
ATOM     41  C   UNL     1       7.994   0.659   8.464  1.00  0.00     0.010 A 
ATOM     42  C   UNL     1       6.684   2.052   9.954  1.00  0.00     0.010 A 
ATOM     43  C   UNL     1       7.941  -0.384   9.395  1.00  0.00     0.020 A 
ATOM     44  C   UNL     1       6.650   1.022  10.899  1.00  0.00     0.020 A 
ATOM     45  C   UNL     1       7.263  -0.197  10.604  1.00  0.00     0.054 A 
BRANCH  45  46
ATOM     46  S   UNL     1       7.217  -1.562  11.799  1.00  0.00     0.124 S 
ATOM     47  O   UNL     1       6.255  -2.470  11.180  1.00  0.00    -0.237 OA
ATOM     48  O   UNL     1       8.602  -2.027  11.809  1.00  0.00    -0.237 OA
ATOM     49  O   UNL     1       6.768  -0.926  13.035  1.00  0.00    -0.744 OA
ENDBRANCH  45  46
ENDBRANCH  26  40
BRANCH  27  50
ATOM     50  C   UNL     1       7.097   9.341   2.081  1.00  0.00    -0.014 A 
ATOM     51  C   UNL     1       8.238   9.648   1.320  1.00  0.00     0.010 A 
ATOM     52  C   UNL     1       5.916  10.076   1.873  1.00  0.00     0.010 A 
ATOM     53  C   UNL     1       8.203  10.680   0.378  1.00  0.00     0.020 A 
ATOM     54  C   UNL     1       5.868  11.089   0.912  1.00  0.00     0.020 A 
ATOM     55  C   UNL     1       7.016  11.392   0.178  1.00  0.00     0.054 A 
BRANCH  55  56
ATOM     56  S   UNL     1       6.975  12.688  -1.090  1.00  0.00     0.124 S 
ATOM     57  O   UNL     1       7.702  13.773  -0.438  1.00  0.00    -0.237 OA
ATOM     58  O   UNL     1       7.658  12.053  -2.215  1.00  0.00    -0.237 OA
ATOM     59  O   UNL     1       5.547  12.922  -1.292  1.00  0.00    -0.744 OA
ENDBRANCH  55  56
ENDBRANCH  27  50
BRANCH  39  60
ATOM     60  C   UNL     1      10.364   8.418   8.166  1.00  0.00    -0.014 A 
ATOM     61  C   UNL     1       9.931   9.571   8.845  1.00  0.00     0.010 A 
ATOM     62  C   UNL     1      11.720   8.049   8.235  1.00  0.00     0.010 A 
ATOM     63  C   UNL     1      10.846  10.364   9.543  1.00  0.00     0.020 A 
ATOM     64  C   UNL     1      12.632   8.824   8.954  1.00  0.00     0.020 A 
ATOM     65  C   UNL     1      12.193   9.988   9.588  1.00  0.00     0.054 A 
BRANCH  65  66
ATOM     66  S   UNL     1      13.360  11.020  10.516  1.00  0.00     0.124 S 
ATOM     67  O   UNL     1      13.553  12.149   9.610  1.00  0.00    -0.237 OA
ATOM     68  O   UNL     1      12.624  11.317  11.742  1.00  0.00    -0.237 OA
ATOM     69  O   UNL     1      14.524  10.153  10.690  1.00  0.00    -0.744 OA
ENDBRANCH  65  66
ENDBRANCH  39  60
ENDBRANCH  13  14
ENDBRANCH   6   8
ENDBRANCH   3   4
ENDBRANCH   2   3
ENDBRANCH   1   2
BRANCH   1  70
ATOM     70  C   UNL     1       4.397  -3.475  -2.666  1.00  0.00     0.002 C 
BRANCH  70  71
ATOM     71  C   UNL     1       5.911  -3.313  -2.810  1.00  0.00     0.021 C 
BRANCH  71  72
ATOM     72  C   UNL     1       6.760  -4.351  -2.090  1.00  0.00     0.116 C 
BRANCH  72  73
ATOM     73  N   UNL     1       6.748  -5.651  -2.729  1.00  0.00    -0.356 N 
ATOM     74  C   UNL     1       7.679  -6.644  -2.708  1.00  0.00     0.226 C 
ATOM     75  H   UNL     1       5.942  -5.847  -3.260  1.00  0.00     0.163 HD
ATOM     76  O   UNL     1       7.221  -7.790  -2.595  1.00  0.00    -0.274 OA
BRANCH  74  77
ATOM     77  C   UNL     1       9.204  -6.435  -2.952  1.00  0.00     0.050 C 
ATOM     78  C   UNL     1       9.765  -5.113  -2.375  1.00  0.00     0.017 C 
ATOM     79  C   UNL     1       9.914  -7.612  -2.217  1.00  0.00     0.017 C 
ATOM     80  C   UNL     1      11.288  -5.016  -2.294  1.00  0.00     0.001 C 
ATOM     81  C   UNL     1      11.435  -7.503  -2.133  1.00  0.00     0.001 C 
ATOM     82  C   UNL     1      11.867  -6.182  -1.516  1.00  0.00     0.000 C 
BRANCH  77  83
ATOM     83  C   UNL     1       9.474  -6.434  -4.495  1.00  0.00     0.023 C 
BRANCH  83  84
ATOM     84  C   UNL     1       9.184  -7.713  -5.304  1.00  0.00     0.057 C 
BRANCH  84  85
ATOM     85  C   UNL     1       7.732  -7.999  -5.589  1.00  0.00     0.040 A 
ATOM     86  C   UNL     1       7.253  -9.306  -5.525  1.00  0.00     0.024 A 
ATOM     87  N   UNL     1       6.944  -6.956  -5.949  1.00  0.00    -0.261 NA
ATOM     88  C   UNL     1       5.905  -9.544  -5.777  1.00  0.00     0.003 A 
ATOM     89  C   UNL     1       5.637  -7.215  -6.172  1.00  0.00     0.111 A 
ATOM     90  C   UNL     1       5.075  -8.477  -6.095  1.00  0.00     0.020 A 
ENDBRANCH  84  85
ENDBRANCH  83  84
ENDBRANCH  77  83
ENDBRANCH  74  77
ENDBRANCH  72  73
ENDBRANCH  71  72
ENDBRANCH  70  71
ENDBRANCH   1  70
TORSDOF 19
