REMARK SMILES Cc1c(CC(=O)N[C@H](CO)C(=O)NCCCCCCNC(=O)c2ccc(-c3c4nc(c(-c5ccc(S(=O)(=O)[O-])cc5)c5ccc([nH]5)c(-c5ccc(S(=O)(=O)[O-])cc5)c5nc(c(-c6ccc(S(=O)(=O)[O-])cc6)c6ccc3[nH]6)C=C5)C=C4)cc2)cc(-c2ccc(S(C)(=O)=O)cc2)n1-c1cccc(F)c1
REMARK SMILES IDX 15 1 14 2 13 3 11 4 12 5 8 7 7 8 5 9 6 10 4 12 3 13 1 14
REMARK SMILES IDX 2 15 95 16 83 17 84 18 96 19 97 20 102 21 98 22 100 23 99 24
REMARK SMILES IDX 101 25 85 26 86 27 94 28 87 29 93 30 88 31 89 32 90 33 91 34
REMARK SMILES IDX 92 35 9 36 10 37 16 39 17 40 18 41 19 42 20 43 21 44 22 46
REMARK SMILES IDX 23 47 24 48 82 49 25 50 81 51 26 52 27 53 28 54 75 55 29 56
REMARK SMILES IDX 80 57 74 58 76 59 30 60 79 61 73 62 72 63 31 65 61 66 42 67
REMARK SMILES IDX 60 68 43 69 46 70 59 71 77 72 44 73 45 74 58 76 78 77 47 78
REMARK SMILES IDX 32 79 33 80 41 81 34 82 40 83 35 84 36 85 37 86 38 87 39 88
REMARK SMILES IDX 62 89 63 90 71 91 64 92 70 93 65 94 66 95 67 96 68 97 69 98
REMARK SMILES IDX 48 99 49 100 57 101 50 102 56 103 51 104 52 105 53 106
REMARK SMILES IDX 54 107 55 108
REMARK H PARENT 13 6 7 11 10 38 20 45 76 64 46 75
REMARK Flexibility Score: inf
ROOT
ATOM      1  C   UNL     1       8.082  -3.048  -1.128  1.00  0.00     0.021 C 
ENDROOT
BRANCH   1   2
ATOM      2  C   UNL     1       5.804  -3.121  -1.001  1.00  0.00     0.116 C 
BRANCH   2   3
ATOM      3  N   UNL     1       4.783  -4.306  -1.638  1.00  0.00    -0.354 N 
ATOM      4  C   UNL     1       3.563  -4.210  -2.226  1.00  0.00     0.244 C 
ATOM      5  O   UNL     1       3.043  -5.202  -2.733  1.00  0.00    -0.273 OA
ATOM      6  H   UNL     1       5.132  -5.225  -1.571  1.00  0.00     0.163 HD
BRANCH   4   7
ATOM      7  C   UNL     1       2.979  -2.838  -2.315  1.00  0.00     0.197 C 
BRANCH   7   8
ATOM      8  N   UNL     1       3.691  -2.031  -3.346  1.00  0.00    -0.342 N 
ATOM      9  C   UNL     1       4.888  -2.057  -4.018  1.00  0.00     0.225 C 
ATOM     10  O   UNL     1       5.023  -1.114  -4.817  1.00  0.00    -0.275 OA
ATOM     11  H   UNL     1       3.148  -1.259  -3.626  1.00  0.00     0.164 HD
BRANCH   9  12
ATOM     12  C   UNL     1       6.042  -3.121  -3.942  1.00  0.00     0.137 C 
BRANCH  12  13
ATOM     13  C   UNL     1       6.816  -3.081  -2.623  1.00  0.00    -0.017 A 
ATOM     14  C   UNL     1       7.047  -0.167  -2.172  1.00  0.00     0.065 C 
ATOM     15  C   UNL     1       6.874  -1.561  -1.661  1.00  0.00     0.024 A 
ATOM     16  N   UNL     1       6.999  -2.032   0.110  1.00  0.00    -0.313 N 
ATOM     17  C   UNL     1       6.997  -4.590  -1.347  1.00  0.00     0.033 A 
ATOM     18  C   UNL     1       7.009  -3.887   0.310  1.00  0.00     0.053 A 
BRANCH  16  19
ATOM     19  C   UNL     1       7.414  -1.166   1.149  1.00  0.00     0.049 A 
ATOM     20  C   UNL     1       8.272  -1.705   2.114  1.00  0.00     0.027 A 
ATOM     21  C   UNL     1       6.974   0.144   1.240  1.00  0.00     0.065 A 
ATOM     22  C   UNL     1       8.480  -1.045   3.304  1.00  0.00     0.005 A 
ATOM     23  C   UNL     1       7.251   0.828   2.417  1.00  0.00     0.125 A 
ATOM     24  C   UNL     1       7.910   0.208   3.475  1.00  0.00     0.039 A 
ATOM     25  F   UNL     1       6.862   2.101   2.549  1.00  0.00    -0.207 F 
ENDBRANCH  16  19
BRANCH  18  26
ATOM     26  C   UNL     1       7.008  -4.535   1.618  1.00  0.00    -0.001 A 
ATOM     27  C   UNL     1       6.375  -3.971   2.741  1.00  0.00     0.011 A 
ATOM     28  C   UNL     1       7.770  -5.689   1.758  1.00  0.00     0.011 A 
ATOM     29  C   UNL     1       6.583  -4.511   4.012  1.00  0.00     0.021 A 
ATOM     30  C   UNL     1       7.967  -6.243   3.017  1.00  0.00     0.021 A 
ATOM     31  C   UNL     1       7.390  -5.644   4.139  1.00  0.00     0.067 A 
BRANCH  31  32
ATOM     32  S   UNL     1       7.602  -6.403   5.730  1.00  0.00     0.175 S 
ATOM     33  C   UNL     1       8.531  -5.232   6.683  1.00  0.00     0.163 C 
ATOM     34  O   UNL     1       6.274  -6.526   6.301  1.00  0.00    -0.224 OA
ATOM     35  O   UNL     1       8.431  -7.579   5.534  1.00  0.00    -0.224 OA
ENDBRANCH  31  32
ENDBRANCH  18  26
ENDBRANCH  12  13
ENDBRANCH   9  12
ENDBRANCH   7   8
BRANCH   7  36
ATOM     36  C   UNL     1       2.794  -2.254  -0.885  1.00  0.00     0.191 C 
BRANCH  36  37
ATOM     37  O   UNL     1       1.414  -2.310  -0.505  1.00  0.00    -0.394 OA
ATOM     38  H   UNL     1       0.885  -1.788  -1.128  1.00  0.00     0.210 HD
ENDBRANCH  36  37
ENDBRANCH   7  36
ENDBRANCH   4   7
ENDBRANCH   2   3
ENDBRANCH   1   2
BRANCH   1  39
ATOM     39  C   UNL     1       9.296  -4.023  -1.787  1.00  0.00     0.002 C 
BRANCH  39  40
ATOM     40  C   UNL     1      10.367  -3.250  -2.580  1.00  0.00     0.002 C 
BRANCH  40  41
ATOM     41  C   UNL     1      10.764  -1.801  -2.178  1.00  0.00     0.021 C 
BRANCH  41  42
ATOM     42  C   UNL     1      10.884  -1.377  -0.679  1.00  0.00     0.116 C 
BRANCH  42  43
ATOM     43  N   UNL     1      12.222  -1.235  -0.147  1.00  0.00    -0.352 N 
ATOM     44  C   UNL     1      12.696  -0.435   0.904  1.00  0.00     0.251 C 
ATOM     45  H   UNL     1      12.906  -1.786  -0.591  1.00  0.00     0.163 HD
ATOM     46  O   UNL     1      13.920  -0.426   1.047  1.00  0.00    -0.269 OA
BRANCH  44  47
ATOM     47  C   UNL     1      11.807   0.473   1.791  1.00  0.00     0.039 A 
ATOM     48  C   UNL     1      11.636   1.810   1.484  1.00  0.00     0.014 A 
ATOM     49  C   UNL     1      11.359   0.196   3.096  1.00  0.00     0.014 A 
ATOM     50  C   UNL     1      10.817   2.724   2.316  1.00  0.00     0.010 A 
ATOM     51  C   UNL     1      10.614   1.189   4.002  1.00  0.00     0.010 A 
ATOM     52  C   UNL     1      10.169   2.488   3.615  1.00  0.00    -0.014 A 
BRANCH  52  53
ATOM     53  C   UNL     1       9.543   3.896   4.559  1.00  0.00     0.031 A 
ATOM     54  C   UNL     1      10.748   4.725   4.320  1.00  0.00     0.074 A 
ATOM     55  C   UNL     1       8.671   4.521   5.583  1.00  0.00     0.049 A 
ATOM     56  N   UNL     1      11.809   4.141   4.787  1.00  0.00    -0.248 NA
ATOM     57  C   UNL     1      11.023   5.700   3.272  1.00  0.00     0.031 C 
ATOM     58  C   UNL     1       7.707   3.904   6.548  1.00  0.00     0.029 A 
ATOM     59  N   UNL     1       8.462   5.955   6.095  1.00  0.00    -0.354 N 
ATOM     60  C   UNL     1      12.921   4.753   4.287  1.00  0.00     0.074 A 
ATOM     61  C   UNL     1      12.370   5.637   3.251  1.00  0.00     0.031 C 
ATOM     62  C   UNL     1       6.961   4.800   7.299  1.00  0.00     0.029 A 
ATOM     63  C   UNL     1       7.262   6.229   7.035  1.00  0.00     0.049 A 
ATOM     64  H   UNL     1       9.074   6.679   5.833  1.00  0.00     0.167 HD
ATOM     65  C   UNL     1      13.794   5.005   5.304  1.00  0.00     0.031 A 
ATOM     66  C   UNL     1       6.821   7.405   7.794  1.00  0.00     0.031 A 
ATOM     67  C   UNL     1      13.339   6.188   6.008  1.00  0.00     0.049 A 
ATOM     68  C   UNL     1       8.056   8.041   8.239  1.00  0.00     0.074 A 
ATOM     69  C   UNL     1      12.854   7.386   5.503  1.00  0.00     0.029 A 
ATOM     70  N   UNL     1      12.778   6.032   7.262  1.00  0.00    -0.354 N 
ATOM     71  N   UNL     1       8.809   7.628   9.203  1.00  0.00    -0.248 NA
ATOM     72  C   UNL     1       8.516   9.185   7.483  1.00  0.00     0.031 C 
ATOM     73  C   UNL     1      11.628   7.547   6.168  1.00  0.00     0.029 A 
ATOM     74  C   UNL     1      11.752   6.942   7.408  1.00  0.00     0.049 A 
ATOM     75  H   UNL     1      13.065   5.379   7.940  1.00  0.00     0.167 HD
ATOM     76  C   UNL     1      10.033   7.955   8.694  1.00  0.00     0.074 A 
ATOM     77  C   UNL     1       9.804   9.081   7.790  1.00  0.00     0.031 C 
ATOM     78  C   UNL     1      10.950   6.957   8.596  1.00  0.00     0.031 A 
BRANCH  65  79
ATOM     79  C   UNL     1      14.207   3.691   5.975  1.00  0.00    -0.014 A 
ATOM     80  C   UNL     1      15.503   3.211   5.756  1.00  0.00     0.010 A 
ATOM     81  C   UNL     1      13.294   2.827   6.646  1.00  0.00     0.010 A 
ATOM     82  C   UNL     1      15.870   1.924   6.180  1.00  0.00     0.020 A 
ATOM     83  C   UNL     1      13.640   1.528   7.032  1.00  0.00     0.020 A 
ATOM     84  C   UNL     1      14.939   1.090   6.811  1.00  0.00     0.054 A 
BRANCH  84  85
ATOM     85  S   UNL     1      15.460  -0.562   7.347  1.00  0.00     0.124 S 
ATOM     86  O   UNL     1      16.018  -1.135   6.123  1.00  0.00    -0.237 OA
ATOM     87  O   UNL     1      16.435  -0.249   8.387  1.00  0.00    -0.237 OA
ATOM     88  O   UNL     1      14.225  -1.195   7.803  1.00  0.00    -0.744 OA
ENDBRANCH  84  85
ENDBRANCH  65  79
BRANCH  66  89
ATOM     89  C   UNL     1       5.627   8.395   8.489  1.00  0.00    -0.014 A 
ATOM     90  C   UNL     1       5.943   9.443   9.477  1.00  0.00     0.010 A 
ATOM     91  C   UNL     1       4.394   8.671   7.864  1.00  0.00     0.010 A 
ATOM     92  C   UNL     1       5.175  10.655   9.723  1.00  0.00     0.020 A 
ATOM     93  C   UNL     1       3.605   9.875   8.120  1.00  0.00     0.020 A 
ATOM     94  C   UNL     1       4.010  10.882   9.008  1.00  0.00     0.054 A 
BRANCH  94  95
ATOM     95  S   UNL     1       3.116  12.516   9.107  1.00  0.00     0.124 S 
ATOM     96  O   UNL     1       2.558  12.523  10.456  1.00  0.00    -0.237 OA
ATOM     97  O   UNL     1       4.175  13.495   8.868  1.00  0.00    -0.237 OA
ATOM     98  O   UNL     1       2.125  12.427   8.034  1.00  0.00    -0.744 OA
ENDBRANCH  94  95
ENDBRANCH  66  89
BRANCH  78  99
ATOM     99  C   UNL     1      10.995   5.923   9.696  1.00  0.00    -0.014 A 
ATOM    100  C   UNL     1       9.889   5.188  10.181  1.00  0.00     0.010 A 
ATOM    101  C   UNL     1      12.226   5.749  10.346  1.00  0.00     0.010 A 
ATOM    102  C   UNL     1       9.997   4.375  11.320  1.00  0.00     0.020 A 
ATOM    103  C   UNL     1      12.353   4.912  11.455  1.00  0.00     0.020 A 
ATOM    104  C   UNL     1      11.230   4.260  11.962  1.00  0.00     0.054 A 
BRANCH 104 105
ATOM    105  S   UNL     1      11.347   3.309  13.502  1.00  0.00     0.124 S 
ATOM    106  O   UNL     1      10.534   4.105  14.419  1.00  0.00    -0.237 OA
ATOM    107  O   UNL     1      10.781   2.017  13.127  1.00  0.00    -0.237 OA
ATOM    108  O   UNL     1      12.778   3.306  13.798  1.00  0.00    -0.744 OA
ENDBRANCH 104 105
ENDBRANCH  78  99
ENDBRANCH  52  53
ENDBRANCH  44  47
ENDBRANCH  42  43
ENDBRANCH  41  42
ENDBRANCH  40  41
ENDBRANCH  39  40
ENDBRANCH   1  39
TORSDOF 24
