REMARK SMILES O=C(/C=C/c1ccc(NC(=O)[C@H]2COc3ccccc3C2)cc1)NCCCCCCNC(=O)c1ccc(-c2c3nc(c(-c4ccc(S(=O)(=O)[O-])cc4)c4ccc([nH]4)c(-c4ccc(S(=O)(=O)[O-])cc4)c4nc(c(-c5ccc(S(=O)(=O)[O-])cc5)c5ccc2[nH]5)C=C4)C=C3)cc1
REMARK SMILES IDX 27 1 26 2 25 3 24 4 1 5 2 6 3 8 4 9 5 10 6 11 23 12 7 13
REMARK SMILES IDX 22 14 8 15 9 16 10 17 11 19 12 20 13 21 21 22 14 23 20 24
REMARK SMILES IDX 15 25 19 26 16 27 18 28 17 29 28 30 29 31 30 32 31 33 32 34
REMARK SMILES IDX 33 36 34 37 35 38 93 39 36 40 92 41 37 42 38 43 39 44 86 45
REMARK SMILES IDX 40 46 91 47 85 48 87 49 41 50 90 51 84 52 83 53 42 55 72 56
REMARK SMILES IDX 53 57 71 58 54 59 57 60 70 61 88 62 55 63 56 64 69 66 89 67
REMARK SMILES IDX 58 68 43 69 44 70 52 71 45 72 51 73 46 74 47 75 48 76 49 77
REMARK SMILES IDX 50 78 73 79 74 80 82 81 75 82 81 83 76 84 77 85 78 86 79 87
REMARK SMILES IDX 80 88 59 89 60 90 68 91 61 92 67 93 62 94 63 95 64 96 65 97
REMARK SMILES IDX 66 98
REMARK H PARENT 24 7 9 18 31 35 87 54 57 65
REMARK Flexibility Score: inf
ROOT
ATOM      1  C   UNL     1       4.130   2.434  -2.678  1.00  0.00     0.002 C 
ENDROOT
BRANCH   1   2
ATOM      2  C   UNL     1       2.620   2.389  -2.398  1.00  0.00     0.021 C 
BRANCH   2   3
ATOM      3  C   UNL     1       2.010   0.989  -2.288  1.00  0.00     0.116 C 
BRANCH   3   4
ATOM      4  N   UNL     1       2.643   0.200  -1.254  1.00  0.00    -0.353 N 
ATOM      5  O   UNL     1       0.910   0.212   0.264  1.00  0.00    -0.270 OA
ATOM      6  C   UNL     1       2.063  -0.068  -0.039  1.00  0.00     0.243 C 
ATOM      7  H   UNL     1       3.540  -0.165  -1.431  1.00  0.00     0.163 HD
BRANCH   6   8
ATOM      8  C   UNL     1       2.934  -0.775   0.942  1.00  0.00     0.072 C 
ATOM      9  C   UNL     1       4.268  -0.655   0.905  1.00  0.00     0.014 C 
BRANCH   9  10
ATOM     10  C   UNL     1       5.250  -1.202   1.844  1.00  0.00    -0.025 A 
ATOM     11  C   UNL     1       6.493  -0.558   1.860  1.00  0.00     0.010 A 
ATOM     12  C   UNL     1       5.056  -2.331   2.649  1.00  0.00     0.010 A 
ATOM     13  C   UNL     1       7.510  -1.000   2.690  1.00  0.00     0.027 A 
ATOM     14  C   UNL     1       6.096  -2.801   3.465  1.00  0.00     0.027 A 
ATOM     15  C   UNL     1       7.306  -2.108   3.506  1.00  0.00     0.041 A 
BRANCH  15  16
ATOM     16  N   UNL     1       8.334  -2.529   4.356  1.00  0.00    -0.326 N 
ATOM     17  C   UNL     1       9.290  -1.698   4.885  1.00  0.00     0.231 C 
ATOM     18  H   UNL     1       8.374  -3.484   4.590  1.00  0.00     0.169 HD
ATOM     19  O   UNL     1      10.471  -2.045   4.914  1.00  0.00    -0.274 OA
BRANCH  17  20
ATOM     20  C   UNL     1       8.809  -0.493   5.685  1.00  0.00     0.121 C 
ATOM     21  C   UNL     1       9.295   0.914   5.339  1.00  0.00     0.243 C 
ATOM     22  C   UNL     1       7.319  -0.364   5.986  1.00  0.00     0.056 C 
ATOM     23  O   UNL     1       8.933   1.915   6.343  1.00  0.00    -0.492 OA
ATOM     24  C   UNL     1       7.349   0.344   7.301  1.00  0.00    -0.005 A 
ATOM     25  C   UNL     1       8.185   1.463   7.408  1.00  0.00     0.122 A 
ATOM     26  C   UNL     1       6.795  -0.250   8.436  1.00  0.00     0.007 A 
ATOM     27  C   UNL     1       8.393   2.045   8.652  1.00  0.00     0.047 A 
ATOM     28  C   UNL     1       7.083   0.278   9.687  1.00  0.00     0.001 A 
ATOM     29  C   UNL     1       7.862   1.434   9.794  1.00  0.00     0.004 A 
ENDBRANCH  17  20
ENDBRANCH  15  16
ENDBRANCH   9  10
ENDBRANCH   6   8
ENDBRANCH   3   4
ENDBRANCH   2   3
ENDBRANCH   1   2
BRANCH   1  30
ATOM     30  C   UNL     1       4.605   1.700  -3.936  1.00  0.00     0.002 C 
BRANCH  30  31
ATOM     31  C   UNL     1       3.945   2.137  -5.245  1.00  0.00     0.021 C 
BRANCH  31  32
ATOM     32  C   UNL     1       4.109   3.612  -5.598  1.00  0.00     0.116 C 
BRANCH  32  33
ATOM     33  N   UNL     1       5.493   3.978  -5.857  1.00  0.00    -0.352 N 
ATOM     34  C   UNL     1       6.045   4.601  -6.955  1.00  0.00     0.251 C 
ATOM     35  H   UNL     1       6.129   3.745  -5.143  1.00  0.00     0.163 HD
ATOM     36  O   UNL     1       7.260   4.682  -7.065  1.00  0.00    -0.269 OA
BRANCH  34  37
ATOM     37  C   UNL     1       5.163   5.147  -8.014  1.00  0.00     0.039 A 
ATOM     38  C   UNL     1       5.476   4.889  -9.352  1.00  0.00     0.014 A 
ATOM     39  C   UNL     1       4.032   5.902  -7.693  1.00  0.00     0.014 A 
ATOM     40  C   UNL     1       4.610   5.321 -10.361  1.00  0.00     0.010 A 
ATOM     41  C   UNL     1       3.134   6.266  -8.694  1.00  0.00     0.010 A 
ATOM     42  C   UNL     1       3.409   5.974 -10.039  1.00  0.00    -0.014 A 
BRANCH  42  43
ATOM     43  C   UNL     1       2.417   6.331 -11.088  1.00  0.00     0.031 A 
ATOM     44  C   UNL     1       2.057   7.771 -11.339  1.00  0.00     0.074 A 
ATOM     45  C   UNL     1       1.782   5.352 -11.764  1.00  0.00     0.049 A 
ATOM     46  N   UNL     1       1.168   8.266 -12.162  1.00  0.00    -0.248 NA
ATOM     47  C   UNL     1       2.772   8.784 -10.547  1.00  0.00     0.031 C 
ATOM     48  C   UNL     1       2.007   3.916 -11.583  1.00  0.00     0.029 A 
ATOM     49  N   UNL     1       0.808   5.415 -12.730  1.00  0.00    -0.354 N 
ATOM     50  C   UNL     1       1.206   9.644 -11.977  1.00  0.00     0.074 A 
ATOM     51  C   UNL     1       2.169   9.900 -10.928  1.00  0.00     0.031 C 
ATOM     52  C   UNL     1       1.210   3.236 -12.423  1.00  0.00     0.029 A 
ATOM     53  C   UNL     1       0.383   4.181 -13.167  1.00  0.00     0.049 A 
ATOM     54  H   UNL     1       0.447   6.263 -13.077  1.00  0.00     0.167 HD
ATOM     55  C   UNL     1       0.515  10.609 -12.631  1.00  0.00     0.031 A 
ATOM     56  C   UNL     1      -0.574   3.843 -14.054  1.00  0.00     0.031 A 
ATOM     57  C   UNL     1      -0.446  10.349 -13.671  1.00  0.00     0.049 A 
ATOM     58  C   UNL     1      -1.346   4.929 -14.751  1.00  0.00     0.074 A 
ATOM     59  C   UNL     1      -1.157  11.261 -14.432  1.00  0.00     0.029 A 
ATOM     60  N   UNL     1      -0.840   9.086 -14.091  1.00  0.00    -0.354 N 
ATOM     61  N   UNL     1      -1.240   6.230 -14.617  1.00  0.00    -0.248 NA
ATOM     62  C   UNL     1      -2.358   4.504 -15.727  1.00  0.00     0.031 C 
ATOM     63  C   UNL     1      -2.027  10.550 -15.266  1.00  0.00     0.029 A 
ATOM     64  C   UNL     1      -1.808   9.195 -15.076  1.00  0.00     0.049 A 
ATOM     65  H   UNL     1      -0.484   8.238 -13.740  1.00  0.00     0.167 HD
ATOM     66  C   UNL     1      -2.155   6.779 -15.508  1.00  0.00     0.074 A 
ATOM     67  C   UNL     1      -2.792   5.670 -16.188  1.00  0.00     0.031 C 
ATOM     68  C   UNL     1      -2.441   8.084 -15.742  1.00  0.00     0.031 A 
BRANCH  55  69
ATOM     69  C   UNL     1       0.763  12.040 -12.225  1.00  0.00    -0.014 A 
ATOM     70  C   UNL     1       1.996  12.667 -12.480  1.00  0.00     0.010 A 
ATOM     71  C   UNL     1      -0.263  12.779 -11.607  1.00  0.00     0.010 A 
ATOM     72  C   UNL     1       2.217  13.988 -12.079  1.00  0.00     0.020 A 
ATOM     73  C   UNL     1      -0.058  14.111 -11.235  1.00  0.00     0.020 A 
ATOM     74  C   UNL     1       1.189  14.700 -11.455  1.00  0.00     0.054 A 
BRANCH  74  75
ATOM     75  S   UNL     1       1.502  16.415 -10.953  1.00  0.00     0.124 S 
ATOM     76  O   UNL     1       2.409  16.236  -9.822  1.00  0.00    -0.237 OA
ATOM     77  O   UNL     1       2.100  16.995 -12.152  1.00  0.00    -0.237 OA
ATOM     78  O   UNL     1       0.176  16.925 -10.611  1.00  0.00    -0.744 OA
ENDBRANCH  74  75
ENDBRANCH  55  69
BRANCH  56  79
ATOM     79  C   UNL     1      -0.855   2.406 -14.326  1.00  0.00    -0.014 A 
ATOM     80  C   UNL     1      -0.519   1.829 -15.563  1.00  0.00     0.010 A 
ATOM     81  C   UNL     1      -1.440   1.598 -13.333  1.00  0.00     0.010 A 
ATOM     82  C   UNL     1      -0.774   0.476 -15.807  1.00  0.00     0.020 A 
ATOM     83  C   UNL     1      -1.668   0.238 -13.562  1.00  0.00     0.020 A 
ATOM     84  C   UNL     1      -1.342  -0.313 -14.802  1.00  0.00     0.054 A 
BRANCH  84  85
ATOM     85  S   UNL     1      -1.604  -2.080 -15.119  1.00  0.00     0.124 S 
ATOM     86  O   UNL     1      -2.721  -2.058 -16.057  1.00  0.00    -0.237 OA
ATOM     87  O   UNL     1      -0.318  -2.494 -15.674  1.00  0.00    -0.237 OA
ATOM     88  O   UNL     1      -1.906  -2.623 -13.796  1.00  0.00    -0.744 OA
ENDBRANCH  84  85
ENDBRANCH  56  79
BRANCH  68  89
ATOM     89  C   UNL     1      -3.470   8.394 -16.798  1.00  0.00    -0.014 A 
ATOM     90  C   UNL     1      -4.836   8.134 -16.587  1.00  0.00     0.010 A 
ATOM     91  C   UNL     1      -3.069   9.014 -17.997  1.00  0.00     0.010 A 
ATOM     92  C   UNL     1      -5.778   8.466 -17.566  1.00  0.00     0.020 A 
ATOM     93  C   UNL     1      -4.010   9.374 -18.964  1.00  0.00     0.020 A 
ATOM     94  C   UNL     1      -5.359   9.087 -18.747  1.00  0.00     0.054 A 
BRANCH  94  95
ATOM     95  S   UNL     1      -6.608   9.555 -19.976  1.00  0.00     0.124 S 
ATOM     96  O   UNL     1      -7.006   8.258 -20.515  1.00  0.00    -0.237 OA
ATOM     97  O   UNL     1      -7.615  10.235 -19.165  1.00  0.00    -0.237 OA
ATOM     98  O   UNL     1      -5.877  10.416 -20.903  1.00  0.00    -0.744 OA
ENDBRANCH  94  95
ENDBRANCH  68  89
ENDBRANCH  42  43
ENDBRANCH  34  37
ENDBRANCH  32  33
ENDBRANCH  31  32
ENDBRANCH  30  31
ENDBRANCH   1  30
TORSDOF 19
