REMARK SMILES O=C(NCCCCCCNC(=O)[C@H]1Cc2c([nH]c3ccccc23)[C@H](c2c[nH]c3ccccc23)[NH2+]1)c1ccc(-c2c3nc(c(-c4ccc(S(=O)(=O)[O-])cc4)c4ccc([nH]4)c(-c4ccc(S(=O)(=O)[O-])cc4)c4nc(c(-c5ccc(S(=O)(=O)[O-])cc5)c5ccc2[nH]5)C=C4)C=C3)cc1
REMARK SMILES IDX 5 1 4 2 3 3 1 4 2 5 35 7 36 8 94 9 37 10 93 11 38 12 39 13
REMARK SMILES IDX 40 14 87 15 41 16 92 17 86 18 88 19 42 20 91 21 85 22 84 23
REMARK SMILES IDX 43 25 73 26 54 27 72 28 55 29 58 30 71 31 89 32 56 33 57 34
REMARK SMILES IDX 70 36 90 37 59 38 44 39 45 40 53 41 46 42 52 43 47 44 48 45
REMARK SMILES IDX 49 46 50 47 51 48 74 49 75 50 83 51 76 52 82 53 77 54 78 55
REMARK SMILES IDX 79 56 80 57 81 58 60 59 61 60 69 61 62 62 68 63 63 64 64 65
REMARK SMILES IDX 65 66 66 67 67 68 6 69 7 70 8 71 9 72 10 73 11 74 12 76
REMARK SMILES IDX 13 77 14 78 34 79 15 80 24 81 16 84 23 85 17 86 18 87 22 88
REMARK SMILES IDX 19 90 21 91 20 92 25 93 26 94 33 95 27 96 28 97 32 98 29 100
REMARK SMILES IDX 31 101 30 102
REMARK H PARENT 3 6 88 24 58 35 10 75 34 82 34 83 17 89 27 99
REMARK Flexibility Score: inf
ROOT
ATOM      1  C   UNL     1       4.295  -2.579  -0.800  1.00  0.00     0.021 C 
ENDROOT
BRANCH   1   2
ATOM      2  C   UNL     1       4.236  -1.058  -0.900  1.00  0.00     0.116 C 
BRANCH   2   3
ATOM      3  N   UNL     1       2.868  -0.565  -0.915  1.00  0.00    -0.352 N 
ATOM      4  O   UNL     1       0.988   0.345  -0.071  1.00  0.00    -0.269 OA
ATOM      5  C   UNL     1       2.204   0.215   0.003  1.00  0.00     0.251 C 
ATOM      6  H   UNL     1       2.336  -0.831  -1.700  1.00  0.00     0.163 HD
BRANCH   5   7
ATOM      7  C   UNL     1       2.958   0.883   1.089  1.00  0.00     0.039 A 
ATOM      8  C   UNL     1       4.171   1.523   0.825  1.00  0.00     0.014 A 
ATOM      9  C   UNL     1       2.434   0.889   2.385  1.00  0.00     0.014 A 
ATOM     10  C   UNL     1       4.929   2.029   1.876  1.00  0.00     0.010 A 
ATOM     11  C   UNL     1       3.157   1.479   3.427  1.00  0.00     0.010 A 
ATOM     12  C   UNL     1       4.429   2.021   3.189  1.00  0.00    -0.014 A 
BRANCH  12  13
ATOM     13  C   UNL     1       5.244   2.621   4.278  1.00  0.00     0.031 A 
ATOM     14  C   UNL     1       5.774   1.781   5.410  1.00  0.00     0.074 A 
ATOM     15  C   UNL     1       5.545   3.934   4.216  1.00  0.00     0.049 A 
ATOM     16  N   UNL     1       6.561   2.134   6.396  1.00  0.00    -0.248 NA
ATOM     17  C   UNL     1       5.367   0.368   5.449  1.00  0.00     0.031 C 
ATOM     18  C   UNL     1       5.083   4.856   3.174  1.00  0.00     0.029 A 
ATOM     19  N   UNL     1       6.332   4.715   5.022  1.00  0.00    -0.354 N 
ATOM     20  C   UNL     1       6.722   1.000   7.184  1.00  0.00     0.074 A 
ATOM     21  C   UNL     1       5.934  -0.049   6.573  1.00  0.00     0.031 C 
ATOM     22  C   UNL     1       5.645   6.057   3.368  1.00  0.00     0.029 A 
ATOM     23  C   UNL     1       6.457   6.011   4.578  1.00  0.00     0.049 A 
ATOM     24  H   UNL     1       6.767   4.381   5.840  1.00  0.00     0.167 HD
ATOM     25  C   UNL     1       7.460   0.845   8.310  1.00  0.00     0.031 A 
ATOM     26  C   UNL     1       7.144   7.051   5.087  1.00  0.00     0.031 A 
ATOM     27  C   UNL     1       8.248   1.890   8.912  1.00  0.00     0.049 A 
ATOM     28  C   UNL     1       7.946   6.854   6.340  1.00  0.00     0.074 A 
ATOM     29  C   UNL     1       9.063   1.818  10.029  1.00  0.00     0.029 A 
ATOM     30  N   UNL     1       8.317   3.197   8.454  1.00  0.00    -0.354 N 
ATOM     31  N   UNL     1       8.119   5.761   7.044  1.00  0.00    -0.248 NA
ATOM     32  C   UNL     1       8.650   8.031   6.865  1.00  0.00     0.031 C 
ATOM     33  C   UNL     1       9.583   3.094  10.276  1.00  0.00     0.029 A 
ATOM     34  C   UNL     1       9.140   3.947   9.278  1.00  0.00     0.049 A 
ATOM     35  H   UNL     1       7.849   3.542   7.659  1.00  0.00     0.167 HD
ATOM     36  C   UNL     1       8.971   6.113   8.083  1.00  0.00     0.074 A 
ATOM     37  C   UNL     1       9.291   7.515   7.905  1.00  0.00     0.031 C 
ATOM     38  C   UNL     1       9.446   5.343   9.093  1.00  0.00     0.031 A 
BRANCH  25  39
ATOM     39  C   UNL     1       7.427  -0.501   8.989  1.00  0.00    -0.014 A 
ATOM     40  C   UNL     1       8.062  -1.622   8.427  1.00  0.00     0.010 A 
ATOM     41  C   UNL     1       6.784  -0.634  10.235  1.00  0.00     0.010 A 
ATOM     42  C   UNL     1       8.019  -2.860   9.076  1.00  0.00     0.020 A 
ATOM     43  C   UNL     1       6.761  -1.863  10.899  1.00  0.00     0.020 A 
ATOM     44  C   UNL     1       7.363  -2.974  10.306  1.00  0.00     0.054 A 
BRANCH  44  45
ATOM     45  S   UNL     1       7.332  -4.590  11.132  1.00  0.00     0.124 S 
ATOM     46  O   UNL     1       6.368  -5.324  10.316  1.00  0.00    -0.237 OA
ATOM     47  O   UNL     1       8.718  -5.035  11.018  1.00  0.00    -0.237 OA
ATOM     48  O   UNL     1       6.890  -4.278  12.489  1.00  0.00    -0.744 OA
ENDBRANCH  44  45
ENDBRANCH  25  39
BRANCH  26  49
ATOM     49  C   UNL     1       7.106   8.369   4.398  1.00  0.00    -0.014 A 
ATOM     50  C   UNL     1       8.245   8.866   3.741  1.00  0.00     0.010 A 
ATOM     51  C   UNL     1       5.918   9.124   4.374  1.00  0.00     0.010 A 
ATOM     52  C   UNL     1       8.202  10.099   3.085  1.00  0.00     0.020 A 
ATOM     53  C   UNL     1       5.863  10.343   3.695  1.00  0.00     0.020 A 
ATOM     54  C   UNL     1       7.009  10.829   3.064  1.00  0.00     0.054 A 
BRANCH  54  55
ATOM     55  S   UNL     1       6.960  12.400   2.159  1.00  0.00     0.124 S 
ATOM     56  O   UNL     1       7.691  13.289   3.057  1.00  0.00    -0.237 OA
ATOM     57  O   UNL     1       7.636  12.066   0.908  1.00  0.00    -0.237 OA
ATOM     58  O   UNL     1       5.530  12.675   2.031  1.00  0.00    -0.744 OA
ENDBRANCH  54  55
ENDBRANCH  26  49
BRANCH  38  59
ATOM     59  C   UNL     1      10.396   5.994  10.062  1.00  0.00    -0.014 A 
ATOM     60  C   UNL     1       9.950   6.943  10.999  1.00  0.00     0.010 A 
ATOM     61  C   UNL     1      11.755   5.630  10.048  1.00  0.00     0.010 A 
ATOM     62  C   UNL     1      10.855   7.548  11.876  1.00  0.00     0.020 A 
ATOM     63  C   UNL     1      12.657   6.212  10.942  1.00  0.00     0.020 A 
ATOM     64  C   UNL     1      12.204   7.182  11.838  1.00  0.00     0.054 A 
BRANCH  64  65
ATOM     65  S   UNL     1      13.357   7.965  12.998  1.00  0.00     0.124 S 
ATOM     66  O   UNL     1      13.531   9.288  12.407  1.00  0.00    -0.237 OA
ATOM     67  O   UNL     1      12.619   7.931  14.258  1.00  0.00    -0.237 OA
ATOM     68  O   UNL     1      14.535   7.101  12.950  1.00  0.00    -0.744 OA
ENDBRANCH  64  65
ENDBRANCH  38  59
ENDBRANCH  12  13
ENDBRANCH   5   7
ENDBRANCH   2   3
ENDBRANCH   1   2
BRANCH   1  69
ATOM     69  C   UNL     1       3.736  -3.321  -2.018  1.00  0.00     0.002 C 
BRANCH  69  70
ATOM     70  C   UNL     1       4.408  -2.990  -3.358  1.00  0.00     0.002 C 
BRANCH  70  71
ATOM     71  C   UNL     1       5.935  -3.117  -3.358  1.00  0.00     0.021 C 
BRANCH  71  72
ATOM     72  C   UNL     1       6.436  -4.551  -3.165  1.00  0.00     0.116 C 
BRANCH  72  73
ATOM     73  N   UNL     1       6.465  -5.239  -4.436  1.00  0.00    -0.351 N 
ATOM     74  C   UNL     1       7.498  -5.502  -5.285  1.00  0.00     0.278 C 
ATOM     75  H   UNL     1       5.591  -5.575  -4.739  1.00  0.00     0.163 HD
ATOM     76  O   UNL     1       7.180  -5.978  -6.381  1.00  0.00    -0.268 OA
BRANCH  74  77
ATOM     77  C   UNL     1       8.977  -5.237  -4.888  1.00  0.00     0.277 C 
ATOM     78  C   UNL     1       9.763  -6.486  -5.386  1.00  0.00     0.114 C 
ATOM     79  N   UNL     1       9.431  -3.944  -5.479  1.00  0.00    -0.324 N 
ATOM     80  C   UNL     1      11.213  -6.204  -5.475  1.00  0.00    -0.006 A 
ATOM     81  C   UNL     1      10.874  -3.646  -5.399  1.00  0.00     0.264 C 
ATOM     82  H   UNL     1       8.934  -3.194  -4.998  1.00  0.00     0.347 HD
ATOM     83  H   UNL     1       9.228  -4.020  -6.475  1.00  0.00     0.347 HD
ATOM     84  C   UNL     1      11.682  -4.909  -5.504  1.00  0.00     0.083 A 
ATOM     85  C   UNL     1      12.319  -7.086  -5.596  1.00  0.00     0.003 A 
ATOM     86  N   UNL     1      13.040  -4.976  -5.679  1.00  0.00    -0.353 N 
ATOM     87  C   UNL     1      13.457  -6.288  -5.717  1.00  0.00     0.046 A 
ATOM     88  C   UNL     1      12.469  -8.486  -5.627  1.00  0.00     0.010 A 
ATOM     89  H   UNL     1      13.633  -4.195  -5.766  1.00  0.00     0.166 HD
ATOM     90  C   UNL     1      14.744  -6.821  -5.855  1.00  0.00     0.026 A 
ATOM     91  C   UNL     1      13.749  -9.036  -5.761  1.00  0.00     0.001 A 
ATOM     92  C   UNL     1      14.868  -8.213  -5.872  1.00  0.00     0.002 A 
BRANCH  81  93
ATOM     93  C   UNL     1      11.319  -2.778  -4.221  1.00  0.00     0.041 A 
ATOM     94  C   UNL     1      12.584  -2.195  -4.144  1.00  0.00     0.093 A 
ATOM     95  C   UNL     1      10.648  -2.341  -3.019  1.00  0.00     0.009 A 
ATOM     96  N   UNL     1      12.737  -1.583  -2.933  1.00  0.00    -0.361 N 
ATOM     97  C   UNL     1      11.570  -1.656  -2.222  1.00  0.00     0.046 A 
ATOM     98  C   UNL     1       9.344  -2.448  -2.504  1.00  0.00     0.011 A 
ATOM     99  H   UNL     1      13.565  -1.154  -2.617  1.00  0.00     0.166 HD
ATOM    100  C   UNL     1      11.273  -1.154  -0.947  1.00  0.00     0.026 A 
ATOM    101  C   UNL     1       9.015  -1.952  -1.236  1.00  0.00     0.001 A 
ATOM    102  C   UNL     1       9.977  -1.324  -0.461  1.00  0.00     0.002 A 
ENDBRANCH  81  93
ENDBRANCH  74  77
ENDBRANCH  72  73
ENDBRANCH  71  72
ENDBRANCH  70  71
ENDBRANCH  69  70
ENDBRANCH   1  69
TORSDOF 17
