REMARK SMILES CC[C@@H](C)[C@H](NC(=O)[C@H](C)N1C(=O)N2CCC3=c4cc(OC)ccc4=N[C@@H]3[C@@]2(C)C1=O)C(=O)NCCCCCCNC(=O)c1ccc(-c2c3nc(c(-c4ccc(S(=O)(=O)[O-])cc4)c4ccc([nH]4)c(-c4ccc(S(=O)(=O)[O-])cc4)c4nc(c(-c5ccc(S(=O)(=O)[O-])cc5)c5ccc2[nH]5)C=C4)C=C3)cc1
REMARK SMILES IDX 37 1 36 2 35 3 34 4 32 5 33 6 5 8 3 9 4 10 2 11 1 12 6 13
REMARK SMILES IDX 7 14 8 16 9 17 10 18 11 19 12 20 30 21 14 22 13 23 28 24
REMARK SMILES IDX 31 25 15 26 27 27 29 28 16 29 17 30 26 31 18 32 25 33 19 34
REMARK SMILES IDX 24 35 20 36 23 37 21 38 22 39 38 40 39 41 40 42 41 43 42 44
REMARK SMILES IDX 43 46 44 47 45 48 103 49 46 50 102 51 47 52 48 53 49 54
REMARK SMILES IDX 96 55 50 56 101 57 95 58 97 59 51 60 100 61 94 62 93 63
REMARK SMILES IDX 52 65 82 66 63 67 81 68 64 69 67 70 80 71 98 72 65 73 66 74
REMARK SMILES IDX 79 76 99 77 68 78 53 79 54 80 62 81 55 82 61 83 56 84 57 85
REMARK SMILES IDX 58 86 59 87 60 88 83 89 84 90 92 91 85 92 91 93 86 94 87 95
REMARK SMILES IDX 88 96 89 97 90 98 69 99 70 100 78 101 71 102 77 103 72 104
REMARK SMILES IDX 73 105 74 106 75 107 76 108
REMARK H PARENT 34 7 6 15 41 45 97 64 67 75
REMARK Flexibility Score: inf
ROOT
ATOM      1  C   UNL     1      -0.392   8.326   3.611  1.00  0.00     0.002 C 
ENDROOT
BRANCH   1   2
ATOM      2  C   UNL     1       0.029   7.992   2.175  1.00  0.00     0.021 C 
BRANCH   2   3
ATOM      3  C   UNL     1       1.186   7.010   1.983  1.00  0.00     0.116 C 
BRANCH   3   4
ATOM      4  N   UNL     1       1.164   5.856   2.864  1.00  0.00    -0.354 N 
ATOM      5  C   UNL     1       1.544   4.555   2.681  1.00  0.00     0.242 C 
ATOM      6  O   UNL     1       2.002   3.989   3.685  1.00  0.00    -0.273 OA
ATOM      7  H   UNL     1       0.807   6.045   3.762  1.00  0.00     0.163 HD
BRANCH   5   8
ATOM      8  C   UNL     1       1.615   3.840   1.299  1.00  0.00     0.174 C 
BRANCH   8   9
ATOM      9  C   UNL     1       3.046   4.025   0.639  1.00  0.00     0.018 C 
ATOM     10  C   UNL     1       3.679   5.416   0.783  1.00  0.00     0.010 C 
BRANCH   9  11
ATOM     11  C   UNL     1       3.120   3.579  -0.835  1.00  0.00     0.002 C 
ATOM     12  C   UNL     1       4.511   3.590  -1.455  1.00  0.00     0.004 C 
ENDBRANCH   9  11
ENDBRANCH   8   9
BRANCH   8  13
ATOM     13  N   UNL     1       0.436   4.065   0.437  1.00  0.00    -0.342 N 
ATOM     14  C   UNL     1       0.023   3.137  -0.498  1.00  0.00     0.243 C 
ATOM     15  H   UNL     1      -0.071   4.904   0.532  1.00  0.00     0.164 HD
ATOM     16  O   UNL     1       0.404   3.310  -1.665  1.00  0.00    -0.273 OA
BRANCH  14  17
ATOM     17  C   UNL     1      -1.252   2.269  -0.304  1.00  0.00     0.181 C 
ATOM     18  C   UNL     1      -2.383   3.214  -0.786  1.00  0.00     0.042 C 
BRANCH  17  19
ATOM     19  N   UNL     1      -1.569   1.589   0.957  1.00  0.00    -0.250 N 
ATOM     20  C   UNL     1      -1.052   0.367   1.421  1.00  0.00     0.328 C 
ATOM     21  C   UNL     1      -2.533   2.038   1.805  1.00  0.00     0.259 C 
ATOM     22  N   UNL     1      -1.752   0.022   2.626  1.00  0.00    -0.307 N 
ATOM     23  O   UNL     1      -0.130  -0.258   0.945  1.00  0.00    -0.248 OA
ATOM     24  C   UNL     1      -2.448   1.211   3.027  1.00  0.00     0.147 C 
ATOM     25  O   UNL     1      -3.337   2.951   1.679  1.00  0.00    -0.271 OA
ATOM     26  C   UNL     1      -1.288  -0.825   3.805  1.00  0.00     0.127 C 
ATOM     27  C   UNL     1      -1.341   1.806   3.908  1.00  0.00     0.168 C 
ATOM     28  C   UNL     1      -3.871   0.813   3.472  1.00  0.00     0.048 C 
ATOM     29  C   UNL     1      -1.552  -0.120   5.316  1.00  0.00     0.055 C 
ATOM     30  C   UNL     1      -1.695   1.408   5.266  1.00  0.00    -0.032 C 
ATOM     31  N   UNL     1      -0.927   3.188   3.902  1.00  0.00    -0.274 NA
ATOM     32  C   UNL     1      -1.863   2.514   6.030  1.00  0.00     0.005 A 
ATOM     33  C   UNL     1      -0.905   3.376   5.193  1.00  0.00     0.066 A 
ATOM     34  C   UNL     1      -3.105   3.400   5.923  1.00  0.00     0.056 A 
ATOM     35  C   UNL     1      -0.524   4.649   5.804  1.00  0.00     0.032 A 
ATOM     36  C   UNL     1      -2.929   4.740   5.728  1.00  0.00     0.119 A 
ATOM     37  C   UNL     1      -1.637   5.363   6.019  1.00  0.00     0.048 A 
BRANCH  36  38
ATOM     38  O   UNL     1      -3.801   5.503   4.972  1.00  0.00    -0.497 OA
ATOM     39  C   UNL     1      -3.263   5.805   3.659  1.00  0.00     0.278 C 
ENDBRANCH  36  38
ENDBRANCH  17  19
ENDBRANCH  14  17
ENDBRANCH   8  13
ENDBRANCH   5   8
ENDBRANCH   3   4
ENDBRANCH   2   3
ENDBRANCH   1   2
BRANCH   1  40
ATOM     40  C   UNL     1       0.623   9.022   4.519  1.00  0.00     0.002 C 
BRANCH  40  41
ATOM     41  C   UNL     1       1.184  10.358   4.036  1.00  0.00     0.021 C 
BRANCH  41  42
ATOM     42  C   UNL     1       0.172  11.368   3.512  1.00  0.00     0.116 C 
BRANCH  42  43
ATOM     43  N   UNL     1      -0.734  11.902   4.518  1.00  0.00    -0.352 N 
ATOM     44  C   UNL     1      -1.252  13.183   4.558  1.00  0.00     0.251 C 
ATOM     45  H   UNL     1      -1.004  11.291   5.241  1.00  0.00     0.163 HD
ATOM     46  O   UNL     1      -1.975  13.554   5.474  1.00  0.00    -0.269 OA
BRANCH  44  47
ATOM     47  C   UNL     1      -0.865  14.111   3.474  1.00  0.00     0.039 A 
ATOM     48  C   UNL     1      -1.105  13.753   2.146  1.00  0.00     0.014 A 
ATOM     49  C   UNL     1      -0.121  15.253   3.783  1.00  0.00     0.014 A 
ATOM     50  C   UNL     1      -0.464  14.449   1.128  1.00  0.00     0.010 A 
ATOM     51  C   UNL     1       0.459  15.996   2.751  1.00  0.00     0.010 A 
ATOM     52  C   UNL     1       0.332  15.573   1.418  1.00  0.00    -0.014 A 
BRANCH  52  53
ATOM     53  C   UNL     1       0.992  16.298   0.302  1.00  0.00     0.031 A 
ATOM     54  C   UNL     1       2.489  16.309   0.147  1.00  0.00     0.074 A 
ATOM     55  C   UNL     1       0.215  16.890  -0.625  1.00  0.00     0.049 A 
ATOM     56  N   UNL     1       3.208  16.838  -0.811  1.00  0.00    -0.248 NA
ATOM     57  C   UNL     1       3.284  15.645   1.192  1.00  0.00     0.031 C 
ATOM     58  C   UNL     1      -1.249  16.924  -0.588  1.00  0.00     0.029 A 
ATOM     59  N   UNL     1       0.535  17.531  -1.794  1.00  0.00    -0.354 N 
ATOM     60  C   UNL     1       4.534  16.585  -0.481  1.00  0.00     0.074 A 
ATOM     61  C   UNL     1       4.524  15.873   0.778  1.00  0.00     0.031 C 
ATOM     62  C   UNL     1      -1.702  17.476  -1.721  1.00  0.00     0.029 A 
ATOM     63  C   UNL     1      -0.564  17.901  -2.531  1.00  0.00     0.049 A 
ATOM     64  H   UNL     1       1.461  17.708  -2.077  1.00  0.00     0.167 HD
ATOM     65  C   UNL     1       5.655  16.913  -1.170  1.00  0.00     0.031 A 
ATOM     66  C   UNL     1      -0.658  18.515  -3.727  1.00  0.00     0.031 A 
ATOM     67  C   UNL     1       5.656  17.620  -2.425  1.00  0.00     0.049 A 
ATOM     68  C   UNL     1       0.595  18.905  -4.449  1.00  0.00     0.074 A 
ATOM     69  C   UNL     1       6.743  17.989  -3.200  1.00  0.00     0.029 A 
ATOM     70  N   UNL     1       4.524  18.065  -3.091  1.00  0.00    -0.354 N 
ATOM     71  N   UNL     1       1.839  18.672  -4.109  1.00  0.00    -0.248 NA
ATOM     72  C   UNL     1       0.435  19.652  -5.703  1.00  0.00     0.031 C 
ATOM     73  C   UNL     1       6.270  18.702  -4.307  1.00  0.00     0.029 A 
ATOM     74  C   UNL     1       4.886  18.729  -4.252  1.00  0.00     0.049 A 
ATOM     75  H   UNL     1       3.598  17.929  -2.783  1.00  0.00     0.167 HD
ATOM     76  C   UNL     1       2.616  19.258  -5.100  1.00  0.00     0.074 A 
ATOM     77  C   UNL     1       1.700  19.828  -6.068  1.00  0.00     0.031 C 
ATOM     78  C   UNL     1       3.966  19.324  -5.189  1.00  0.00     0.031 A 
BRANCH  65  79
ATOM     79  C   UNL     1       6.987  16.524  -0.583  1.00  0.00    -0.014 A 
ATOM     80  C   UNL     1       7.847  17.520  -0.082  1.00  0.00     0.010 A 
ATOM     81  C   UNL     1       7.430  15.190  -0.611  1.00  0.00     0.010 A 
ATOM     82  C   UNL     1       9.128  17.192   0.371  1.00  0.00     0.020 A 
ATOM     83  C   UNL     1       8.703  14.854  -0.138  1.00  0.00     0.020 A 
ATOM     84  C   UNL     1       9.550  15.860   0.335  1.00  0.00     0.054 A 
BRANCH  84  85
ATOM     85  S   UNL     1      11.209  15.443   0.943  1.00  0.00     0.124 S 
ATOM     86  O   UNL     1      12.052  15.791  -0.196  1.00  0.00    -0.237 OA
ATOM     87  O   UNL     1      11.348  16.300   2.118  1.00  0.00    -0.237 OA
ATOM     88  O   UNL     1      11.111  14.014   1.237  1.00  0.00    -0.744 OA
ENDBRANCH  84  85
ENDBRANCH  65  79
BRANCH  66  89
ATOM     89  C   UNL     1      -2.010  18.765  -4.291  1.00  0.00    -0.014 A 
ATOM     90  C   UNL     1      -2.865  19.708  -3.690  1.00  0.00     0.010 A 
ATOM     91  C   UNL     1      -2.498  17.960  -5.334  1.00  0.00     0.010 A 
ATOM     92  C   UNL     1      -4.207  19.786  -4.068  1.00  0.00     0.020 A 
ATOM     93  C   UNL     1      -3.834  18.055  -5.732  1.00  0.00     0.020 A 
ATOM     94  C   UNL     1      -4.688  18.940  -5.070  1.00  0.00     0.054 A 
BRANCH  94  95
ATOM     95  S   UNL     1      -6.455  18.985  -5.480  1.00  0.00     0.124 S 
ATOM     96  O   UNL     1      -7.029  18.175  -4.409  1.00  0.00    -0.237 OA
ATOM     97  O   UNL     1      -6.763  20.412  -5.424  1.00  0.00    -0.237 OA
ATOM     98  O   UNL     1      -6.509  18.392  -6.813  1.00  0.00    -0.744 OA
ENDBRANCH  94  95
ENDBRANCH  66  89
BRANCH  78  99
ATOM     99  C   UNL     1       4.552  20.073  -6.355  1.00  0.00    -0.014 A 
ATOM    100  C   UNL     1       5.203  19.375  -7.387  1.00  0.00     0.010 A 
ATOM    101  C   UNL     1       4.541  21.479  -6.374  1.00  0.00     0.010 A 
ATOM    102  C   UNL     1       5.855  20.070  -8.408  1.00  0.00     0.020 A 
ATOM    103  C   UNL     1       5.174  22.177  -7.407  1.00  0.00     0.020 A 
ATOM    104  C   UNL     1       5.845  21.467  -8.406  1.00  0.00     0.054 A 
BRANCH 104 105
ATOM    105  S   UNL     1       6.706  22.357  -9.732  1.00  0.00     0.124 S 
ATOM    106  O   UNL     1       8.095  22.305  -9.284  1.00  0.00    -0.237 OA
ATOM    107  O   UNL     1       6.395  21.556 -10.914  1.00  0.00    -0.237 OA
ATOM    108  O   UNL     1       6.090  23.682  -9.709  1.00  0.00    -0.744 OA
ENDBRANCH 104 105
ENDBRANCH  78  99
ENDBRANCH  52  53
ENDBRANCH  44  47
ENDBRANCH  42  43
ENDBRANCH  41  42
ENDBRANCH  40  41
ENDBRANCH   1  40
TORSDOF 22
