REMARK SMILES O=C(NCCCCCCNC(=O)c1ccc(-c2c3nc(c(-c4ccc(S(=O)(=O)[O-])cc4)c4ccc([nH]4)c(-c4ccc(S(=O)(=O)[O-])cc4)c4nc(c(-c5ccc(S(=O)(=O)[O-])cc5)c5ccc2[nH]5)C=C4)C=C3)cc1)C1=Cc2cc(Cl)cc(C#Cc3ccccc3)c2O[C@@H]1C(F)(F)F
REMARK SMILES IDX 7 1 6 2 5 3 4 4 3 5 1 6 2 7 73 9 74 10 91 11 75 12 90 13
REMARK SMILES IDX 76 14 89 15 77 16 80 17 78 18 79 19 92 20 93 21 94 22 95 23
REMARK SMILES IDX 81 24 82 25 83 26 84 27 88 28 85 29 87 30 86 31 8 32 9 33
REMARK SMILES IDX 10 34 11 35 12 37 13 38 14 39 72 40 15 41 71 42 16 43 17 44
REMARK SMILES IDX 18 45 65 46 19 47 70 48 64 49 66 50 20 51 69 52 63 53 62 54
REMARK SMILES IDX 21 56 51 57 32 58 50 59 33 60 36 61 49 62 67 63 34 64 35 65
REMARK SMILES IDX 48 67 68 68 37 69 22 70 23 71 31 72 24 73 30 74 25 75 26 76
REMARK SMILES IDX 27 77 28 78 29 79 52 80 53 81 61 82 54 83 60 84 55 85 56 86
REMARK SMILES IDX 57 87 58 88 59 89 38 90 39 91 47 92 40 93 46 94 41 95 42 96
REMARK SMILES IDX 43 97 44 98 45 99
REMARK H PARENT 3 8 10 36 66 55 36 66
REMARK Flexibility Score: inf
ROOT
ATOM      1  C   UNL     1       4.369  -3.886   2.685  1.00  0.00     0.002 C 
ENDROOT
BRANCH   1   2
ATOM      2  C   UNL     1       3.752  -2.794   3.568  1.00  0.00     0.002 C 
BRANCH   2   3
ATOM      3  C   UNL     1       4.115  -1.347   3.232  1.00  0.00     0.021 C 
BRANCH   3   4
ATOM      4  C   UNL     1       3.848  -0.902   1.799  1.00  0.00     0.116 C 
BRANCH   4   5
ATOM      5  N   UNL     1       2.555  -0.284   1.560  1.00  0.00    -0.352 N 
ATOM      6  O   UNL     1       0.966   0.822   0.420  1.00  0.00    -0.270 OA
ATOM      7  C   UNL     1       2.154   0.519   0.526  1.00  0.00     0.251 C 
ATOM      8  H   UNL     1       1.868  -0.469   2.240  1.00  0.00     0.163 HD
BRANCH   7   9
ATOM      9  C   UNL     1       3.092   0.964  -0.552  1.00  0.00     0.067 C 
ATOM     10  C   UNL     1       4.339   1.385  -0.280  1.00  0.00     0.025 C 
ATOM     11  C   UNL     1       2.865   0.209  -1.839  1.00  0.00     0.314 C 
ATOM     12  C   UNL     1       5.384   0.420  -0.705  1.00  0.00     0.020 A 
ATOM     13  O   UNL     1       3.763  -0.927  -1.933  1.00  0.00    -0.474 OA
ATOM     14  C   UNL     1       6.652   0.541  -0.123  1.00  0.00     0.032 A 
ATOM     15  C   UNL     1       5.003  -0.774  -1.352  1.00  0.00     0.143 A 
ATOM     16  C   UNL     1       7.502  -0.561  -0.104  1.00  0.00     0.043 A 
ATOM     17  C   UNL     1       5.837  -1.896  -1.255  1.00  0.00     0.069 A 
ATOM     18  Cl  UNL     1       8.980  -0.476   0.772  1.00  0.00    -0.084 Cl
ATOM     19  C   UNL     1       7.096  -1.776  -0.651  1.00  0.00     0.041 A 
BRANCH  11  20
ATOM     20  C   UNL     1       2.940   1.151  -3.058  1.00  0.00     0.429 C 
ATOM     21  F   UNL     1       2.581   0.520  -4.201  1.00  0.00    -0.167 F 
ATOM     22  F   UNL     1       2.097   2.206  -2.915  1.00  0.00    -0.167 F 
ATOM     23  F   UNL     1       4.177   1.665  -3.252  1.00  0.00    -0.167 F 
ENDBRANCH  11  20
BRANCH  17  24
ATOM     24  C   UNL     1       5.345  -3.227  -1.481  1.00  0.00    -0.058 C 
ATOM     25  C   UNL     1       4.987  -4.373  -1.440  1.00  0.00    -0.062 C 
BRANCH  25  26
ATOM     26  C   UNL     1       4.646  -5.752  -1.242  1.00  0.00     0.025 A 
ATOM     27  C   UNL     1       3.340  -6.205  -1.444  1.00  0.00     0.017 A 
ATOM     28  C   UNL     1       5.630  -6.649  -0.814  1.00  0.00     0.017 A 
ATOM     29  C   UNL     1       3.029  -7.554  -1.246  1.00  0.00     0.001 A 
ATOM     30  C   UNL     1       5.318  -7.995  -0.615  1.00  0.00     0.001 A 
ATOM     31  C   UNL     1       4.019  -8.449  -0.837  1.00  0.00     0.000 A 
ENDBRANCH  25  26
ENDBRANCH  17  24
ENDBRANCH   7   9
ENDBRANCH   4   5
ENDBRANCH   3   4
ENDBRANCH   2   3
ENDBRANCH   1   2
BRANCH   1  32
ATOM     32  C   UNL     1       5.881  -3.815   2.449  1.00  0.00     0.021 C 
BRANCH  32  33
ATOM     33  C   UNL     1       6.761  -3.785   3.694  1.00  0.00     0.116 C 
BRANCH  33  34
ATOM     34  N   UNL     1       6.555  -4.934   4.557  1.00  0.00    -0.352 N 
ATOM     35  C   UNL     1       7.465  -5.802   5.108  1.00  0.00     0.251 C 
ATOM     36  H   UNL     1       5.615  -5.120   4.784  1.00  0.00     0.163 HD
ATOM     37  O   UNL     1       7.062  -6.806   5.691  1.00  0.00    -0.269 OA
BRANCH  35  38
ATOM     38  C   UNL     1       8.921  -5.556   4.988  1.00  0.00     0.039 A 
ATOM     39  C   UNL     1       9.764  -6.644   4.739  1.00  0.00     0.014 A 
ATOM     40  C   UNL     1       9.466  -4.280   5.158  1.00  0.00     0.014 A 
ATOM     41  C   UNL     1      11.141  -6.446   4.614  1.00  0.00     0.010 A 
ATOM     42  C   UNL     1      10.831  -4.072   4.959  1.00  0.00     0.010 A 
ATOM     43  C   UNL     1      11.685  -5.154   4.695  1.00  0.00    -0.014 A 
BRANCH  43  44
ATOM     44  C   UNL     1      13.142  -4.923   4.515  1.00  0.00     0.031 A 
ATOM     45  C   UNL     1      13.974  -4.385   5.649  1.00  0.00     0.074 A 
ATOM     46  C   UNL     1      13.711  -5.154   3.315  1.00  0.00     0.049 A 
ATOM     47  N   UNL     1      15.248  -4.088   5.669  1.00  0.00    -0.248 NA
ATOM     48  C   UNL     1      13.278  -4.125   6.919  1.00  0.00     0.031 C 
ATOM     49  C   UNL     1      13.007  -5.640   2.126  1.00  0.00     0.029 A 
ATOM     50  N   UNL     1      15.009  -5.007   2.895  1.00  0.00    -0.354 N 
ATOM     51  C   UNL     1      15.504  -3.597   6.945  1.00  0.00     0.074 A 
ATOM     52  C   UNL     1      14.241  -3.583   7.650  1.00  0.00     0.031 C 
ATOM     53  C   UNL     1      13.886  -5.774   1.120  1.00  0.00     0.029 A 
ATOM     54  C   UNL     1      15.204  -5.345   1.576  1.00  0.00     0.049 A 
ATOM     55  H   UNL     1      15.733  -4.689   3.482  1.00  0.00     0.167 HD
ATOM     56  C   UNL     1      16.684  -3.212   7.488  1.00  0.00     0.031 A 
ATOM     57  C   UNL     1      16.314  -5.305   0.814  1.00  0.00     0.031 A 
ATOM     58  C   UNL     1      17.938  -3.223   6.780  1.00  0.00     0.049 A 
ATOM     59  C   UNL     1      17.610  -4.855   1.429  1.00  0.00     0.074 A 
ATOM     60  C   UNL     1      19.196  -2.894   7.253  1.00  0.00     0.029 A 
ATOM     61  N   UNL     1      18.092  -3.574   5.447  1.00  0.00    -0.354 N 
ATOM     62  N   UNL     1      17.844  -4.456   2.657  1.00  0.00    -0.248 NA
ATOM     63  C   UNL     1      18.796  -4.864   0.561  1.00  0.00     0.031 C 
ATOM     64  C   UNL     1      20.101  -2.990   6.191  1.00  0.00     0.029 A 
ATOM     65  C   UNL     1      19.420  -3.445   5.073  1.00  0.00     0.049 A 
ATOM     66  H   UNL     1      17.365  -3.872   4.854  1.00  0.00     0.167 HD
ATOM     67  C   UNL     1      19.207  -4.189   2.716  1.00  0.00     0.074 A 
ATOM     68  C   UNL     1      19.748  -4.488   1.405  1.00  0.00     0.031 C 
ATOM     69  C   UNL     1      19.944  -3.738   3.762  1.00  0.00     0.031 A 
BRANCH  56  70
ATOM     70  C   UNL     1      16.666  -2.732   8.918  1.00  0.00    -0.014 A 
ATOM     71  C   UNL     1      16.389  -3.614   9.979  1.00  0.00     0.010 A 
ATOM     72  C   UNL     1      16.949  -1.385   9.209  1.00  0.00     0.010 A 
ATOM     73  C   UNL     1      16.339  -3.147  11.296  1.00  0.00     0.020 A 
ATOM     74  C   UNL     1      16.933  -0.920  10.528  1.00  0.00     0.020 A 
ATOM     75  C   UNL     1      16.605  -1.801  11.561  1.00  0.00     0.054 A 
BRANCH  75  76
ATOM     76  S   UNL     1      16.532  -1.224  13.279  1.00  0.00     0.124 S 
ATOM     77  O   UNL     1      15.095  -1.242  13.541  1.00  0.00    -0.237 OA
ATOM     78  O   UNL     1      17.313  -2.233  13.990  1.00  0.00    -0.237 OA
ATOM     79  O   UNL     1      17.137   0.105  13.225  1.00  0.00    -0.744 OA
ENDBRANCH  75  76
ENDBRANCH  56  70
BRANCH  57  80
ATOM     80  C   UNL     1      16.241  -5.717  -0.615  1.00  0.00    -0.014 A 
ATOM     81  C   UNL     1      16.835  -6.916  -1.048  1.00  0.00     0.010 A 
ATOM     82  C   UNL     1      15.541  -4.927  -1.546  1.00  0.00     0.010 A 
ATOM     83  C   UNL     1      16.738  -7.312  -2.385  1.00  0.00     0.020 A 
ATOM     84  C   UNL     1      15.417  -5.334  -2.877  1.00  0.00     0.020 A 
ATOM     85  C   UNL     1      16.023  -6.522  -3.290  1.00  0.00     0.054 A 
BRANCH  85  86
ATOM     86  S   UNL     1      15.848  -7.094  -5.003  1.00  0.00     0.124 S 
ATOM     87  O   UNL     1      17.193  -6.888  -5.531  1.00  0.00    -0.237 OA
ATOM     88  O   UNL     1      15.441  -8.486  -4.829  1.00  0.00    -0.237 OA
ATOM     89  O   UNL     1      14.817  -6.216  -5.553  1.00  0.00    -0.744 OA
ENDBRANCH  85  86
ENDBRANCH  57  80
BRANCH  69  90
ATOM     90  C   UNL     1      21.425  -3.568   3.545  1.00  0.00    -0.014 A 
ATOM     91  C   UNL     1      21.933  -2.533   2.740  1.00  0.00     0.010 A 
ATOM     92  C   UNL     1      22.325  -4.426   4.205  1.00  0.00     0.010 A 
ATOM     93  C   UNL     1      23.312  -2.379   2.573  1.00  0.00     0.020 A 
ATOM     94  C   UNL     1      23.704  -4.257   4.066  1.00  0.00     0.020 A 
ATOM     95  C   UNL     1      24.189  -3.242   3.239  1.00  0.00     0.054 A 
BRANCH  95  96
ATOM     96  S   UNL     1      25.975  -2.993   3.041  1.00  0.00     0.124 S 
ATOM     97  O   UNL     1      26.197  -3.453   1.673  1.00  0.00    -0.237 OA
ATOM     98  O   UNL     1      26.123  -1.555   3.253  1.00  0.00    -0.237 OA
ATOM     99  O   UNL     1      26.560  -3.833   4.083  1.00  0.00    -0.744 OA
ENDBRANCH  95  96
ENDBRANCH  69  90
ENDBRANCH  43  44
ENDBRANCH  35  38
ENDBRANCH  33  34
ENDBRANCH  32  33
ENDBRANCH   1  32
TORSDOF 19
