REMARK SMILES Cc1c(Cl)cccc1NC(=O)C[C@](C)(C(=O)NCCCCCCNC(=O)c1ccc(-c2c3nc(c(-c4ccc(S(=O)(=O)[O-])cc4)c4ccc([nH]4)c(-c4ccc(S(=O)(=O)[O-])cc4)c4nc(c(-c5ccc(S(=O)(=O)[O-])cc5)c5ccc2[nH]5)C=C4)C=C3)cc1)c1ccccc1
REMARK SMILES IDX 20 1 19 2 18 3 17 4 15 5 16 6 13 8 14 9 12 10 10 11 9 12
REMARK SMILES IDX 11 14 8 15 1 16 2 17 3 18 4 19 5 20 7 21 6 22 87 23 88 24
REMARK SMILES IDX 92 25 89 26 91 27 90 28 21 29 22 30 23 31 24 32 25 33 26 35
REMARK SMILES IDX 27 36 28 37 86 38 29 39 85 40 30 41 31 42 32 43 79 44 33 45
REMARK SMILES IDX 84 46 78 47 80 48 34 49 83 50 77 51 76 52 35 54 65 55 46 56
REMARK SMILES IDX 64 57 47 58 50 59 63 60 81 61 48 62 49 63 62 65 82 66 51 67
REMARK SMILES IDX 36 68 37 69 45 70 38 71 44 72 39 73 40 74 41 75 42 76 43 77
REMARK SMILES IDX 66 78 67 79 75 80 68 81 74 82 69 83 70 84 71 85 72 86 73 87
REMARK SMILES IDX 52 88 53 89 61 90 54 91 60 92 55 93 56 94 57 95 58 96 59 97
REMARK H PARENT 17 7 9 13 24 34 80 53 50 64
REMARK Flexibility Score: inf
ROOT
ATOM      1  C   UNL     1      -5.753  -3.541   3.511  1.00  0.00     0.002 C 
ENDROOT
BRANCH   1   2
ATOM      2  C   UNL     1      -5.198  -2.169   3.118  1.00  0.00     0.021 C 
BRANCH   2   3
ATOM      3  C   UNL     1      -4.519  -2.142   1.560  1.00  0.00     0.116 C 
BRANCH   3   4
ATOM      4  N   UNL     1      -5.223  -1.392  -0.259  1.00  0.00    -0.355 N 
ATOM      5  C   UNL     1      -5.188  -0.527  -1.389  1.00  0.00     0.230 C 
ATOM      6  O   UNL     1      -6.142  -0.823  -2.135  1.00  0.00    -0.274 OA
ATOM      7  H   UNL     1      -6.021  -1.942  -0.429  1.00  0.00     0.163 HD
BRANCH   5   8
ATOM      8  C   UNL     1      -4.223   0.712  -1.770  1.00  0.00     0.080 C 
ATOM      9  C   UNL     1      -4.549   1.891  -0.777  1.00  0.00     0.027 C 
BRANCH   8  10
ATOM     10  C   UNL     1      -2.687   0.402  -1.839  1.00  0.00     0.121 C 
BRANCH  10  11
ATOM     11  C   UNL     1      -2.220  -1.010  -2.130  1.00  0.00     0.225 C 
ATOM     12  N   UNL     1      -2.329  -1.988  -1.185  1.00  0.00    -0.326 N 
ATOM     13  H   UNL     1      -1.699  -2.744  -1.215  1.00  0.00     0.169 HD
ATOM     14  O   UNL     1      -1.694  -1.298  -3.208  1.00  0.00    -0.275 OA
BRANCH  12  15
ATOM     15  C   UNL     1      -3.294  -1.964  -0.180  1.00  0.00     0.045 A 
ATOM     16  C   UNL     1      -4.017  -4.702  -0.695  1.00  0.00     0.048 C 
ATOM     17  C   UNL     1      -4.482  -3.330  -0.288  1.00  0.00    -0.009 A 
ATOM     18  C   UNL     1      -6.101  -3.155   0.474  1.00  0.00     0.046 A 
ATOM     19  Cl  UNL     1      -7.256  -4.429   0.365  1.00  0.00    -0.084 Cl
ATOM     20  C   UNL     1      -6.597  -1.595   1.230  1.00  0.00     0.021 A 
ATOM     21  C   UNL     1      -3.727  -0.413   0.694  1.00  0.00     0.026 A 
ATOM     22  C   UNL     1      -5.399  -0.238   1.393  1.00  0.00     0.004 A 
ENDBRANCH  12  15
ENDBRANCH  10  11
ENDBRANCH   8  10
BRANCH   8  23
ATOM     23  C   UNL     1      -4.528   1.403  -3.163  1.00  0.00    -0.032 A 
ATOM     24  C   UNL     1      -4.052   2.729  -3.372  1.00  0.00     0.005 A 
ATOM     25  C   UNL     1      -5.257   0.829  -4.207  1.00  0.00     0.005 A 
ATOM     26  C   UNL     1      -4.417   3.486  -4.480  1.00  0.00     0.000 A 
ATOM     27  C   UNL     1      -5.617   1.587  -5.330  1.00  0.00     0.000 A 
ATOM     28  C   UNL     1      -5.223   2.919  -5.453  1.00  0.00     0.000 A 
ENDBRANCH   8  23
ENDBRANCH   5   8
ENDBRANCH   3   4
ENDBRANCH   2   3
ENDBRANCH   1   2
BRANCH   1  29
ATOM     29  C   UNL     1      -4.749  -4.693   3.328  1.00  0.00     0.002 C 
BRANCH  29  30
ATOM     30  C   UNL     1      -3.482  -4.496   4.160  1.00  0.00     0.021 C 
BRANCH  30  31
ATOM     31  C   UNL     1      -3.827  -4.262   5.619  1.00  0.00     0.116 C 
BRANCH  31  32
ATOM     32  N   UNL     1      -4.874  -5.195   6.050  1.00  0.00    -0.352 N 
ATOM     33  C   UNL     1      -4.958  -5.888   7.216  1.00  0.00     0.251 C 
ATOM     34  H   UNL     1      -5.611  -5.337   5.412  1.00  0.00     0.163 HD
ATOM     35  O   UNL     1      -5.729  -6.822   7.370  1.00  0.00    -0.269 OA
BRANCH  33  36
ATOM     36  C   UNL     1      -4.074  -5.413   8.268  1.00  0.00     0.039 A 
ATOM     37  C   UNL     1      -3.112  -6.272   8.781  1.00  0.00     0.014 A 
ATOM     38  C   UNL     1      -4.097  -4.041   8.543  1.00  0.00     0.014 A 
ATOM     39  C   UNL     1      -2.147  -5.732   9.613  1.00  0.00     0.010 A 
ATOM     40  C   UNL     1      -3.050  -3.491   9.243  1.00  0.00     0.010 A 
ATOM     41  C   UNL     1      -2.110  -4.343   9.834  1.00  0.00    -0.014 A 
BRANCH  41  42
ATOM     42  C   UNL     1      -1.145  -3.766  10.778  1.00  0.00     0.031 A 
ATOM     43  C   UNL     1      -1.668  -3.086  12.010  1.00  0.00     0.074 A 
ATOM     44  C   UNL     1       0.169  -3.861  10.514  1.00  0.00     0.049 A 
ATOM     45  N   UNL     1      -0.999  -2.539  12.988  1.00  0.00    -0.248 NA
ATOM     46  C   UNL     1      -3.133  -2.970  12.150  1.00  0.00     0.031 C 
ATOM     47  C   UNL     1       0.754  -4.467   9.313  1.00  0.00     0.029 A 
ATOM     48  N   UNL     1       1.249  -3.473  11.254  1.00  0.00    -0.354 N 
ATOM     49  C   UNL     1      -1.960  -2.012  13.841  1.00  0.00     0.074 A 
ATOM     50  C   UNL     1      -3.247  -2.213  13.226  1.00  0.00     0.031 C 
ATOM     51  C   UNL     1       2.091  -4.470   9.434  1.00  0.00     0.029 A 
ATOM     52  C   UNL     1       2.451  -3.822  10.690  1.00  0.00     0.049 A 
ATOM     53  H   UNL     1       1.174  -2.989  12.108  1.00  0.00     0.167 HD
ATOM     54  C   UNL     1      -1.783  -1.448  15.055  1.00  0.00     0.031 A 
ATOM     55  C   UNL     1       3.701  -3.644  11.151  1.00  0.00     0.031 A 
ATOM     56  C   UNL     1      -0.491  -1.272  15.652  1.00  0.00     0.049 A 
ATOM     57  C   UNL     1       3.874  -2.990  12.494  1.00  0.00     0.074 A 
ATOM     58  C   UNL     1      -0.180  -0.750  16.892  1.00  0.00     0.029 A 
ATOM     59  N   UNL     1       0.709  -1.616  15.043  1.00  0.00    -0.354 N 
ATOM     60  N   UNL     1       2.955  -2.553  13.324  1.00  0.00    -0.248 NA
ATOM     61  C   UNL     1       5.251  -2.821  12.970  1.00  0.00     0.031 C 
ATOM     62  C   UNL     1       1.213  -0.709  17.002  1.00  0.00     0.029 A 
ATOM     63  C   UNL     1       1.766  -1.287  15.869  1.00  0.00     0.049 A 
ATOM     64  H   UNL     1       0.793  -2.032  14.154  1.00  0.00     0.167 HD
ATOM     65  C   UNL     1       3.642  -2.086  14.438  1.00  0.00     0.074 A 
ATOM     66  C   UNL     1       5.051  -2.314  14.178  1.00  0.00     0.031 C 
ATOM     67  C   UNL     1       3.158  -1.524  15.574  1.00  0.00     0.031 A 
BRANCH  54  68
ATOM     68  C   UNL     1      -3.012  -0.981  15.788  1.00  0.00    -0.014 A 
ATOM     69  C   UNL     1      -3.989  -1.889  16.239  1.00  0.00     0.010 A 
ATOM     70  C   UNL     1      -3.193   0.392  16.030  1.00  0.00     0.010 A 
ATOM     71  C   UNL     1      -5.143  -1.430  16.878  1.00  0.00     0.020 A 
ATOM     72  C   UNL     1      -4.328   0.852  16.703  1.00  0.00     0.020 A 
ATOM     73  C   UNL     1      -5.303  -0.061  17.108  1.00  0.00     0.054 A 
BRANCH  73  74
ATOM     74  S   UNL     1      -6.796   0.504  17.966  1.00  0.00     0.124 S 
ATOM     75  O   UNL     1      -7.832   0.253  16.967  1.00  0.00    -0.237 OA
ATOM     76  O   UNL     1      -6.834  -0.363  19.141  1.00  0.00    -0.237 OA
ATOM     77  O   UNL     1      -6.526   1.913  18.242  1.00  0.00    -0.744 OA
ENDBRANCH  73  74
ENDBRANCH  54  68
BRANCH  55  78
ATOM     78  C   UNL     1       4.864  -4.112  10.351  1.00  0.00    -0.014 A 
ATOM     79  C   UNL     1       5.666  -5.175  10.800  1.00  0.00     0.010 A 
ATOM     80  C   UNL     1       5.160  -3.507   9.115  1.00  0.00     0.010 A 
ATOM     81  C   UNL     1       6.758  -5.607  10.042  1.00  0.00     0.020 A 
ATOM     82  C   UNL     1       6.229  -3.959   8.338  1.00  0.00     0.020 A 
ATOM     83  C   UNL     1       7.029  -4.999   8.813  1.00  0.00     0.054 A 
BRANCH  83  84
ATOM     84  S   UNL     1       8.424  -5.607   7.826  1.00  0.00     0.124 S 
ATOM     85  O   UNL     1       9.569  -5.180   8.624  1.00  0.00    -0.237 OA
ATOM     86  O   UNL     1       8.177  -7.046   7.790  1.00  0.00    -0.237 OA
ATOM     87  O   UNL     1       8.262  -4.921   6.546  1.00  0.00    -0.744 OA
ENDBRANCH  83  84
ENDBRANCH  55  78
BRANCH  67  88
ATOM     88  C   UNL     1       4.158  -1.159  16.638  1.00  0.00    -0.014 A 
ATOM     89  C   UNL     1       5.076  -0.111  16.456  1.00  0.00     0.010 A 
ATOM     90  C   UNL     1       4.138  -1.852  17.863  1.00  0.00     0.010 A 
ATOM     91  C   UNL     1       5.989   0.206  17.463  1.00  0.00     0.020 A 
ATOM     92  C   UNL     1       5.021  -1.510  18.887  1.00  0.00     0.020 A 
ATOM     93  C   UNL     1       5.954  -0.495  18.672  1.00  0.00     0.054 A 
BRANCH  93  94
ATOM     94  S   UNL     1       7.130  -0.041  19.974  1.00  0.00     0.124 S 
ATOM     95  O   UNL     1       8.394  -0.515  19.419  1.00  0.00    -0.237 OA
ATOM     96  O   UNL     1       6.979   1.410  20.046  1.00  0.00    -0.237 OA
ATOM     97  O   UNL     1       6.650  -0.771  21.145  1.00  0.00    -0.744 OA
ENDBRANCH  93  94
ENDBRANCH  67  88
ENDBRANCH  41  42
ENDBRANCH  33  36
ENDBRANCH  31  32
ENDBRANCH  30  31
ENDBRANCH  29  30
ENDBRANCH   1  29
TORSDOF 20
