REMARK SMILES Cc1cc(NCc2ccc(C(=O)NCCCCCCNC(=O)c3ccc(-c4c5nc(c(-c6ccc(S(=O)(=O)[O-])cc6)c6ccc([nH]6)c(-c6ccc(S(=O)(=O)[O-])cc6)c6nc(c(-c7ccc(S(=O)(=O)[O-])cc7)c7ccc4[nH]7)C=C6)C=C5)cc3)o2)ccc1Br
REMARK SMILES IDX 16 1 15 2 14 3 13 4 11 5 12 6 10 8 7 9 8 10 83 11 9 12 6 13
REMARK SMILES IDX 5 14 4 16 1 17 2 18 3 19 86 20 85 21 87 22 84 23 17 24 18 25
REMARK SMILES IDX 19 26 20 27 21 28 22 30 23 31 24 32 82 33 25 34 81 35 26 36
REMARK SMILES IDX 27 37 28 38 75 39 29 40 80 41 74 42 76 43 30 44 79 45 73 46
REMARK SMILES IDX 72 47 31 49 61 50 42 51 60 52 43 53 46 54 59 55 77 56 44 57
REMARK SMILES IDX 45 58 58 60 78 61 47 62 32 63 33 64 41 65 34 66 40 67 35 68
REMARK SMILES IDX 36 69 37 70 38 71 39 72 62 73 63 74 71 75 64 76 70 77 65 78
REMARK SMILES IDX 66 79 67 80 68 81 69 82 48 83 49 84 57 85 50 86 56 87 51 88
REMARK SMILES IDX 52 89 53 90 54 91 55 92
REMARK H PARENT 13 7 5 15 20 29 76 48 46 59
REMARK Flexibility Score: inf
ROOT
ATOM      1  C   UNL     1       9.250   2.169   7.624  1.00  0.00     0.002 C 
ENDROOT
BRANCH   1   2
ATOM      2  C   UNL     1       8.465   2.736   6.432  1.00  0.00     0.021 C 
BRANCH   2   3
ATOM      3  C   UNL     1       9.090   2.402   5.078  1.00  0.00     0.116 C 
BRANCH   3   4
ATOM      4  N   UNL     1       8.743   1.059   4.667  1.00  0.00    -0.349 N 
ATOM      5  C   UNL     1       7.925   0.584   3.671  1.00  0.00     0.286 C 
ATOM      6  O   UNL     1       7.908  -0.644   3.548  1.00  0.00    -0.266 OA
ATOM      7  H   UNL     1       9.173   0.353   5.202  1.00  0.00     0.163 HD
BRANCH   5   8
ATOM      8  C   UNL     1       7.156   1.467   2.810  1.00  0.00     0.191 A 
ATOM      9  C   UNL     1       5.960   1.844   0.976  1.00  0.00     0.124 A 
ATOM     10  C   UNL     1       6.014   3.040   1.650  1.00  0.00     0.048 A 
ATOM     11  O   UNL     1       6.654   0.895   1.663  1.00  0.00    -0.454 OA
ATOM     12  C   UNL     1       6.748   2.791   2.839  1.00  0.00     0.056 A 
BRANCH   9  13
ATOM     13  C   UNL     1       5.333   1.405  -0.300  1.00  0.00     0.188 C 
BRANCH  13  14
ATOM     14  N   UNL     1       4.459   0.251  -0.173  1.00  0.00    -0.378 N 
ATOM     15  H   UNL     1       4.890  -0.635  -0.185  1.00  0.00     0.161 HD
BRANCH  14  16
ATOM     16  C   UNL     1       3.087   0.270  -0.037  1.00  0.00     0.035 A 
ATOM     17  C   UNL     1       0.349  -2.398   0.015  1.00  0.00     0.045 C 
ATOM     18  C   UNL     1       0.998  -1.044   0.018  1.00  0.00    -0.035 A 
ATOM     19  C   UNL     1       2.403  -0.957  -0.021  1.00  0.00     0.030 A 
ATOM     20  C   UNL     1       0.263   0.145   0.037  1.00  0.00     0.021 A 
ATOM     21  C   UNL     1       0.919   1.377   0.021  1.00  0.00     0.018 A 
ATOM     22  Br  UNL     1      -1.636   0.156   0.069  1.00  0.00    -0.051 Br
ATOM     23  C   UNL     1       2.317   1.434  -0.025  1.00  0.00     0.027 A 
ENDBRANCH  14  16
ENDBRANCH  13  14
ENDBRANCH   9  13
ENDBRANCH   5   8
ENDBRANCH   3   4
ENDBRANCH   2   3
ENDBRANCH   1   2
BRANCH   1  24
ATOM     24  C   UNL     1      10.698   2.663   7.745  1.00  0.00     0.002 C 
BRANCH  24  25
ATOM     25  C   UNL     1      10.868   4.185   7.739  1.00  0.00     0.021 C 
BRANCH  25  26
ATOM     26  C   UNL     1      10.166   4.903   8.888  1.00  0.00     0.116 C 
BRANCH  26  27
ATOM     27  N   UNL     1      10.720   4.523  10.178  1.00  0.00    -0.352 N 
ATOM     28  C   UNL     1      11.250   5.316  11.165  1.00  0.00     0.251 C 
ATOM     29  H   UNL     1      10.714   3.558  10.372  1.00  0.00     0.163 HD
ATOM     30  O   UNL     1      11.878   4.808  12.089  1.00  0.00    -0.269 OA
BRANCH  28  31
ATOM     31  C   UNL     1      11.074   6.783  11.104  1.00  0.00     0.039 A 
ATOM     32  C   UNL     1      12.166   7.609  11.382  1.00  0.00     0.014 A 
ATOM     33  C   UNL     1       9.833   7.341  10.784  1.00  0.00     0.014 A 
ATOM     34  C   UNL     1      12.027   8.995  11.279  1.00  0.00     0.010 A 
ATOM     35  C   UNL     1       9.716   8.718  10.613  1.00  0.00     0.010 A 
ATOM     36  C   UNL     1      10.810   9.559  10.860  1.00  0.00    -0.014 A 
BRANCH  36  37
ATOM     37  C   UNL     1      10.669  11.024  10.659  1.00  0.00     0.031 A 
ATOM     38  C   UNL     1       9.710  11.818  11.504  1.00  0.00     0.074 A 
ATOM     39  C   UNL     1      11.358  11.627   9.670  1.00  0.00     0.049 A 
ATOM     40  N   UNL     1       9.409  13.090  11.434  1.00  0.00    -0.248 NA
ATOM     41  C   UNL     1       8.974  11.084  12.546  1.00  0.00     0.031 C 
ATOM     42  C   UNL     1      12.290  10.959   8.758  1.00  0.00     0.029 A 
ATOM     43  N   UNL     1      11.378  12.937   9.261  1.00  0.00    -0.354 N 
ATOM     44  C   UNL     1       8.443  13.306  12.410  1.00  0.00     0.074 A 
ATOM     45  C   UNL     1       8.171  12.024  13.024  1.00  0.00     0.031 C 
ATOM     46  C   UNL     1      12.809  11.867   7.916  1.00  0.00     0.029 A 
ATOM     47  C   UNL     1      12.215  13.171   8.195  1.00  0.00     0.049 A 
ATOM     48  H   UNL     1      10.842  13.643   9.689  1.00  0.00     0.167 HD
ATOM     49  C   UNL     1       7.849  14.467  12.774  1.00  0.00     0.031 A 
ATOM     50  C   UNL     1      12.471  14.303   7.512  1.00  0.00     0.031 A 
ATOM     51  C   UNL     1       8.127  15.741  12.163  1.00  0.00     0.049 A 
ATOM     52  C   UNL     1      11.786  15.577   7.923  1.00  0.00     0.074 A 
ATOM     53  C   UNL     1       7.618  16.984  12.496  1.00  0.00     0.029 A 
ATOM     54  N   UNL     1       8.985  15.935  11.090  1.00  0.00    -0.354 N 
ATOM     55  N   UNL     1      10.923  15.772   8.892  1.00  0.00    -0.248 NA
ATOM     56  C   UNL     1      12.115  16.785   7.155  1.00  0.00     0.031 C 
ATOM     57  C   UNL     1       8.122  17.920  11.588  1.00  0.00     0.029 A 
ATOM     58  C   UNL     1       8.997  17.272  10.730  1.00  0.00     0.049 A 
ATOM     59  H   UNL     1       9.507  15.227  10.649  1.00  0.00     0.167 HD
ATOM     60  C   UNL     1      10.629  17.131   8.868  1.00  0.00     0.074 A 
ATOM     61  C   UNL     1      11.417  17.710   7.799  1.00  0.00     0.031 C 
ATOM     62  C   UNL     1       9.783  17.835   9.661  1.00  0.00     0.031 A 
BRANCH  49  63
ATOM     63  C   UNL     1       6.829  14.413  13.883  1.00  0.00    -0.014 A 
ATOM     64  C   UNL     1       7.210  14.144  15.210  1.00  0.00     0.010 A 
ATOM     65  C   UNL     1       5.476  14.678  13.602  1.00  0.00     0.010 A 
ATOM     66  C   UNL     1       6.252  14.098  16.227  1.00  0.00     0.020 A 
ATOM     67  C   UNL     1       4.519  14.664  14.621  1.00  0.00     0.020 A 
ATOM     68  C   UNL     1       4.912  14.357  15.925  1.00  0.00     0.054 A 
BRANCH  68  69
ATOM     69  S   UNL     1       3.695  14.313  17.269  1.00  0.00     0.124 S 
ATOM     70  O   UNL     1       3.611  12.882  17.552  1.00  0.00    -0.237 OA
ATOM     71  O   UNL     1       4.334  15.120  18.305  1.00  0.00    -0.237 OA
ATOM     72  O   UNL     1       2.498  14.901  16.674  1.00  0.00    -0.744 OA
ENDBRANCH  68  69
ENDBRANCH  49  63
BRANCH  50  73
ATOM     73  C   UNL     1      13.430  14.283   6.373  1.00  0.00    -0.014 A 
ATOM     74  C   UNL     1      14.679  14.918   6.478  1.00  0.00     0.010 A 
ATOM     75  C   UNL     1      13.102  13.612   5.179  1.00  0.00     0.010 A 
ATOM     76  C   UNL     1      15.576  14.900   5.405  1.00  0.00     0.020 A 
ATOM     77  C   UNL     1      14.008  13.566   4.116  1.00  0.00     0.020 A 
ATOM     78  C   UNL     1      15.236  14.220   4.232  1.00  0.00     0.054 A 
BRANCH  78  79
ATOM     79  S   UNL     1      16.436  14.165   2.873  1.00  0.00     0.124 S 
ATOM     80  O   UNL     1      16.378  15.529   2.360  1.00  0.00    -0.237 OA
ATOM     81  O   UNL     1      17.672  13.798   3.560  1.00  0.00    -0.237 OA
ATOM     82  O   UNL     1      15.898  13.137   1.984  1.00  0.00    -0.744 OA
ENDBRANCH  78  79
ENDBRANCH  50  73
BRANCH  62  83
ATOM     83  C   UNL     1       9.688  19.320   9.426  1.00  0.00    -0.014 A 
ATOM     84  C   UNL     1       9.052  19.841   8.286  1.00  0.00     0.010 A 
ATOM     85  C   UNL     1      10.199  20.207  10.392  1.00  0.00     0.010 A 
ATOM     86  C   UNL     1       8.957  21.222   8.099  1.00  0.00     0.020 A 
ATOM     87  C   UNL     1      10.079  21.589  10.224  1.00  0.00     0.020 A 
ATOM     88  C   UNL     1       9.471  22.088   9.070  1.00  0.00     0.054 A 
BRANCH  88  89
ATOM     89  S   UNL     1       9.297  23.876   8.825  1.00  0.00     0.124 S 
ATOM     90  O   UNL     1      10.268  24.133   7.764  1.00  0.00    -0.237 OA
ATOM     91  O   UNL     1       7.894  24.011   8.439  1.00  0.00    -0.237 OA
ATOM     92  O   UNL     1       9.635  24.441  10.129  1.00  0.00    -0.744 OA
ENDBRANCH  88  89
ENDBRANCH  62  83
ENDBRANCH  36  37
ENDBRANCH  28  31
ENDBRANCH  26  27
ENDBRANCH  25  26
ENDBRANCH  24  25
ENDBRANCH   1  24
TORSDOF 19
