REMARK SMILES CC(C)(C)c1n[nH]c2c1CC[C@@H](C(=O)NCCCCCCNC(=O)c1ccc(-c3c4nc(c(-c5ccc(S(=O)(=O)[O-])cc5)c5ccc([nH]5)c(-c5ccc(S(=O)(=O)[O-])cc5)c5nc(c(-c6ccc(S(=O)(=O)[O-])cc6)c6ccc3[nH]6)C=C5)C=C4)cc1)C2
REMARK SMILES IDX 19 1 18 2 17 3 16 4 15 5 13 6 14 7 12 9 5 10 6 11 9 12 7 13
REMARK SMILES IDX 8 14 10 15 85 17 11 18 2 19 1 20 3 21 4 22 20 23 21 24 22 25
REMARK SMILES IDX 23 26 24 28 25 29 26 30 84 31 27 32 83 33 28 34 29 35 30 36
REMARK SMILES IDX 77 37 31 38 82 39 76 40 78 41 32 42 81 43 75 44 74 45 33 47
REMARK SMILES IDX 63 48 44 49 62 50 45 51 48 52 61 53 79 54 46 55 47 56 60 58
REMARK SMILES IDX 80 59 49 60 34 61 35 62 43 63 36 64 42 65 37 66 38 67 39 68
REMARK SMILES IDX 40 69 41 70 64 71 65 72 73 73 66 74 72 75 67 76 68 77 69 78
REMARK SMILES IDX 70 79 71 80 50 81 51 82 59 83 52 84 58 85 53 86 54 87 55 88
REMARK SMILES IDX 56 89 57 90
REMARK H PARENT 15 8 7 16 22 27 78 46 48 57
REMARK Flexibility Score: inf
ROOT
ATOM      1  C   UNL     1       8.071  -3.391   6.410  1.00  0.00     0.002 C 
ENDROOT
BRANCH   1   2
ATOM      2  C   UNL     1       7.365  -4.741   6.256  1.00  0.00     0.002 C 
BRANCH   2   3
ATOM      3  C   UNL     1       5.903  -4.682   5.803  1.00  0.00     0.021 C 
BRANCH   3   4
ATOM      4  C   UNL     1       5.660  -3.964   4.479  1.00  0.00     0.116 C 
BRANCH   4   5
ATOM      5  N   UNL     1       6.288  -4.634   3.357  1.00  0.00    -0.356 N 
ATOM      6  C   UNL     1       5.977  -4.615   2.034  1.00  0.00     0.223 C 
ATOM      7  O   UNL     1       6.699  -5.264   1.272  1.00  0.00    -0.275 OA
ATOM      8  H   UNL     1       7.064  -5.193   3.591  1.00  0.00     0.163 HD
BRANCH   6   9
ATOM      9  C   UNL     1       4.762  -3.880   1.492  1.00  0.00     0.084 C 
ATOM     10  C   UNL     1       0.910  -2.062   1.361  1.00  0.00     0.071 A 
ATOM     11  N   UNL     1       0.129  -3.147   1.508  1.00  0.00    -0.180 NA
ATOM     12  C   UNL     1       2.281  -2.437   1.338  1.00  0.00    -0.003 A 
ATOM     13  N   UNL     1       0.980  -4.177   1.625  1.00  0.00    -0.282 N 
ATOM     14  C   UNL     1       2.282  -3.796   1.563  1.00  0.00     0.039 A 
ATOM     15  C   UNL     1       3.542  -1.664   1.177  1.00  0.00     0.040 C 
ATOM     16  H   UNL     1       0.692  -5.111   1.744  1.00  0.00     0.190 HD
ATOM     17  C   UNL     1       3.464  -4.674   1.766  1.00  0.00     0.069 C 
ATOM     18  C   UNL     1       4.692  -2.388   1.896  1.00  0.00     0.019 C 
BRANCH  10  19
ATOM     19  C   UNL     1       0.300  -0.667   1.286  1.00  0.00     0.006 C 
ATOM     20  C   UNL     1       0.769   0.062   0.012  1.00  0.00     0.017 C 
ATOM     21  C   UNL     1       0.707   0.152   2.530  1.00  0.00     0.017 C 
ATOM     22  C   UNL     1      -1.245  -0.709   1.254  1.00  0.00     0.017 C 
ENDBRANCH  10  19
ENDBRANCH   6   9
ENDBRANCH   4   5
ENDBRANCH   3   4
ENDBRANCH   2   3
ENDBRANCH   1   2
BRANCH   1  23
ATOM     23  C   UNL     1       7.375  -2.380   7.324  1.00  0.00     0.021 C 
BRANCH  23  24
ATOM     24  C   UNL     1       7.025  -2.892   8.717  1.00  0.00     0.116 C 
BRANCH  24  25
ATOM     25  N   UNL     1       8.192  -3.332   9.463  1.00  0.00    -0.352 N 
ATOM     26  C   UNL     1       8.581  -3.007  10.739  1.00  0.00     0.251 C 
ATOM     27  H   UNL     1       8.789  -3.951   8.985  1.00  0.00     0.163 HD
ATOM     28  O   UNL     1       9.687  -3.356  11.148  1.00  0.00    -0.269 OA
BRANCH  26  29
ATOM     29  C   UNL     1       7.683  -2.217  11.609  1.00  0.00     0.039 A 
ATOM     30  C   UNL     1       8.220  -1.158  12.345  1.00  0.00     0.014 A 
ATOM     31  C   UNL     1       6.321  -2.515  11.701  1.00  0.00     0.014 A 
ATOM     32  C   UNL     1       7.379  -0.362  13.126  1.00  0.00     0.010 A 
ATOM     33  C   UNL     1       5.473  -1.674  12.418  1.00  0.00     0.010 A 
ATOM     34  C   UNL     1       5.992  -0.591  13.142  1.00  0.00    -0.014 A 
BRANCH  34  35
ATOM     35  C   UNL     1       5.077   0.296  13.906  1.00  0.00     0.031 A 
ATOM     36  C   UNL     1       4.269  -0.250  15.053  1.00  0.00     0.074 A 
ATOM     37  C   UNL     1       4.936   1.585  13.535  1.00  0.00     0.049 A 
ATOM     38  N   UNL     1       3.397   0.363  15.812  1.00  0.00    -0.248 NA
ATOM     39  C   UNL     1       4.447  -1.676  15.376  1.00  0.00     0.031 C 
ATOM     40  C   UNL     1       5.634   2.226  12.417  1.00  0.00     0.029 A 
ATOM     41  N   UNL     1       4.158   2.588  14.057  1.00  0.00    -0.354 N 
ATOM     42  C   UNL     1       2.915  -0.601  16.691  1.00  0.00     0.074 A 
ATOM     43  C   UNL     1       3.550  -1.850  16.336  1.00  0.00     0.031 C 
ATOM     44  C   UNL     1       5.278   3.519  12.359  1.00  0.00     0.029 A 
ATOM     45  C   UNL     1       4.294   3.790  13.402  1.00  0.00     0.049 A 
ATOM     46  H   UNL     1       3.559   2.460  14.828  1.00  0.00     0.167 HD
ATOM     47  C   UNL     1       2.039  -0.455  17.715  1.00  0.00     0.031 A 
ATOM     48  C   UNL     1       3.691   4.977  13.612  1.00  0.00     0.031 A 
ATOM     49  C   UNL     1       1.411   0.792  18.066  1.00  0.00     0.049 A 
ATOM     50  C   UNL     1       2.704   5.108  14.740  1.00  0.00     0.074 A 
ATOM     51  C   UNL     1       0.548   1.053  19.116  1.00  0.00     0.029 A 
ATOM     52  N   UNL     1       1.573   1.984  17.376  1.00  0.00    -0.354 N 
ATOM     53  N   UNL     1       2.312   4.200  15.602  1.00  0.00    -0.248 NA
ATOM     54  C   UNL     1       2.087   6.428  14.931  1.00  0.00     0.031 C 
ATOM     55  C   UNL     1       0.139   2.387  19.024  1.00  0.00     0.029 A 
ATOM     56  C   UNL     1       0.803   2.977  17.960  1.00  0.00     0.049 A 
ATOM     57  H   UNL     1       2.149   2.107  16.588  1.00  0.00     0.167 HD
ATOM     58  C   UNL     1       1.426   4.847  16.456  1.00  0.00     0.074 A 
ATOM     59  C   UNL     1       1.353   6.226  16.017  1.00  0.00     0.031 C 
ATOM     60  C   UNL     1       0.736   4.345  17.510  1.00  0.00     0.031 A 
BRANCH  47  61
ATOM     61  C   UNL     1       1.702  -1.681  18.525  1.00  0.00    -0.014 A 
ATOM     62  C   UNL     1       2.657  -2.287  19.362  1.00  0.00     0.010 A 
ATOM     63  C   UNL     1       0.398  -2.208  18.485  1.00  0.00     0.010 A 
ATOM     64  C   UNL     1       2.327  -3.421  20.109  1.00  0.00     0.020 A 
ATOM     65  C   UNL     1       0.055  -3.323  19.256  1.00  0.00     0.020 A 
ATOM     66  C   UNL     1       1.028  -3.932  20.051  1.00  0.00     0.054 A 
BRANCH  66  67
ATOM     67  S   UNL     1       0.623  -5.390  21.051  1.00  0.00     0.124 S 
ATOM     68  O   UNL     1       1.352  -6.446  20.353  1.00  0.00    -0.237 OA
ATOM     69  O   UNL     1       1.147  -5.030  22.366  1.00  0.00    -0.237 OA
ATOM     70  O   UNL     1      -0.832  -5.478  20.965  1.00  0.00    -0.744 OA
ENDBRANCH  66  67
ENDBRANCH  47  61
BRANCH  48  71
ATOM     71  C   UNL     1       4.014   6.141  12.739  1.00  0.00    -0.014 A 
ATOM     72  C   UNL     1       4.719   7.245  13.248  1.00  0.00     0.010 A 
ATOM     73  C   UNL     1       3.624   6.145  11.387  1.00  0.00     0.010 A 
ATOM     74  C   UNL     1       5.011   8.340  12.429  1.00  0.00     0.020 A 
ATOM     75  C   UNL     1       3.941   7.223  10.556  1.00  0.00     0.020 A 
ATOM     76  C   UNL     1       4.622   8.320  11.086  1.00  0.00     0.054 A 
BRANCH  76  77
ATOM     77  S   UNL     1       5.055   9.730  10.030  1.00  0.00     0.124 S 
ATOM     78  O   UNL     1       4.155  10.768  10.524  1.00  0.00    -0.237 OA
ATOM     79  O   UNL     1       6.472   9.924  10.329  1.00  0.00    -0.237 OA
ATOM     80  O   UNL     1       4.772   9.246   8.680  1.00  0.00    -0.744 OA
ENDBRANCH  76  77
ENDBRANCH  48  71
BRANCH  60  81
ATOM     81  C   UNL     1      -0.132   5.299  18.290  1.00  0.00    -0.014 A 
ATOM     82  C   UNL     1      -1.318   5.824  17.745  1.00  0.00     0.010 A 
ATOM     83  C   UNL     1       0.222   5.635  19.610  1.00  0.00     0.010 A 
ATOM     84  C   UNL     1      -2.113   6.696  18.493  1.00  0.00     0.020 A 
ATOM     85  C   UNL     1      -0.587   6.481  20.372  1.00  0.00     0.020 A 
ATOM     86  C   UNL     1      -1.742   7.019  19.803  1.00  0.00     0.054 A 
BRANCH  86  87
ATOM     87  S   UNL     1      -2.812   8.123  20.765  1.00  0.00     0.124 S 
ATOM     88  O   UNL     1      -2.571   9.413  20.126  1.00  0.00    -0.237 OA
ATOM     89  O   UNL     1      -4.139   7.551  20.547  1.00  0.00    -0.237 OA
ATOM     90  O   UNL     1      -2.303   7.998  22.129  1.00  0.00    -0.744 OA
ENDBRANCH  86  87
ENDBRANCH  60  81
ENDBRANCH  34  35
ENDBRANCH  26  29
ENDBRANCH  24  25
ENDBRANCH  23  24
ENDBRANCH   1  23
TORSDOF 17
