REMARK SMILES O=C(NCCCCCCNC(=O)[C@@H](Cc1ccc(O)cc1)Nc1c2ccccc2nc2ccccc12)c1ccc(-c2c3nc(c(-c4ccc(S(=O)(=O)[O-])cc4)c4ccc([nH]4)c(-c4ccc(S(=O)(=O)[O-])cc4)c4nc(c(-c5ccc(S(=O)(=O)[O-])cc5)c5ccc2[nH]5)C=C4)C=C3)cc1
REMARK SMILES IDX 6 1 5 2 4 3 3 4 1 5 2 6 37 8 38 9 96 10 39 11 95 12 40 13
REMARK SMILES IDX 41 14 42 15 89 16 43 17 94 18 88 19 90 20 44 21 93 22 87 23
REMARK SMILES IDX 86 24 45 26 75 27 56 28 74 29 57 30 60 31 73 32 91 33 58 34
REMARK SMILES IDX 59 35 72 37 92 38 61 39 46 40 47 41 55 42 48 43 54 44 49 45
REMARK SMILES IDX 50 46 51 47 52 48 53 49 76 50 77 51 85 52 78 53 84 54 79 55
REMARK SMILES IDX 80 56 81 57 82 58 83 59 62 60 63 61 71 62 64 63 70 64 65 65
REMARK SMILES IDX 66 66 67 67 68 68 69 69 7 70 8 71 9 72 10 73 11 74 12 76
REMARK SMILES IDX 13 77 14 78 15 79 16 80 21 81 17 82 20 83 18 84 19 85 22 87
REMARK SMILES IDX 23 89 24 90 36 91 25 92 29 93 31 94 35 95 26 96 28 97 30 98
REMARK SMILES IDX 32 99 34 100 27 101 33 102
REMARK H PARENT 3 7 90 25 60 36 10 75 19 86 22 88
REMARK Flexibility Score: inf
ROOT
ATOM      1  C   UNL     1       3.708  -0.737   3.762  1.00  0.00     0.002 C 
ENDROOT
BRANCH   1   2
ATOM      2  C   UNL     1       4.385   0.054   2.634  1.00  0.00     0.021 C 
BRANCH   2   3
ATOM      3  C   UNL     1       4.314  -0.588   1.248  1.00  0.00     0.116 C 
BRANCH   3   4
ATOM      4  N   UNL     1       2.941  -0.733   0.796  1.00  0.00    -0.352 N 
ATOM      5  O   UNL     1       1.028  -0.144  -0.217  1.00  0.00    -0.269 OA
ATOM      6  C   UNL     1       2.251  -0.044  -0.167  1.00  0.00     0.251 C 
ATOM      7  H   UNL     1       2.426  -1.437   1.252  1.00  0.00     0.163 HD
BRANCH   6   8
ATOM      8  C   UNL     1       2.957   0.820  -1.141  1.00  0.00     0.039 A 
ATOM      9  C   UNL     1       4.112   0.386  -1.799  1.00  0.00     0.014 A 
ATOM     10  C   UNL     1       2.390   2.055  -1.470  1.00  0.00     0.014 A 
ATOM     11  C   UNL     1       4.742   1.216  -2.728  1.00  0.00     0.010 A 
ATOM     12  C   UNL     1       2.994   2.865  -2.435  1.00  0.00     0.010 A 
ATOM     13  C   UNL     1       4.181   2.458  -3.064  1.00  0.00    -0.014 A 
BRANCH  13  14
ATOM     14  C   UNL     1       4.790   3.307  -4.119  1.00  0.00     0.031 A 
ATOM     15  C   UNL     1       5.412   4.629  -3.775  1.00  0.00     0.074 A 
ATOM     16  C   UNL     1       4.725   2.907  -5.403  1.00  0.00     0.049 A 
ATOM     17  N   UNL     1       5.918   5.534  -4.573  1.00  0.00    -0.248 NA
ATOM     18  C   UNL     1       5.465   4.985  -2.349  1.00  0.00     0.031 C 
ATOM     19  C   UNL     1       4.133   1.651  -5.866  1.00  0.00     0.029 A 
ATOM     20  N   UNL     1       5.143   3.525  -6.555  1.00  0.00    -0.354 N 
ATOM     21  C   UNL     1       6.329   6.577  -3.753  1.00  0.00     0.074 A 
ATOM     22  C   UNL     1       5.997   6.199  -2.394  1.00  0.00     0.031 C 
ATOM     23  C   UNL     1       4.220   1.592  -7.203  1.00  0.00     0.029 A 
ATOM     24  C   UNL     1       4.831   2.824  -7.696  1.00  0.00     0.049 A 
ATOM     25  H   UNL     1       5.620   4.386  -6.564  1.00  0.00     0.167 HD
ATOM     26  C   UNL     1       6.925   7.744  -4.099  1.00  0.00     0.031 A 
ATOM     27  C   UNL     1       4.986   3.143  -8.995  1.00  0.00     0.031 A 
ATOM     28  C   UNL     1       7.237   8.123  -5.452  1.00  0.00     0.049 A 
ATOM     29  C   UNL     1       5.623   4.452  -9.362  1.00  0.00     0.074 A 
ATOM     30  C   UNL     1       7.878   9.266  -5.899  1.00  0.00     0.029 A 
ATOM     31  N   UNL     1       6.917   7.378  -6.577  1.00  0.00    -0.354 N 
ATOM     32  N   UNL     1       6.058   5.402  -8.569  1.00  0.00    -0.248 NA
ATOM     33  C   UNL     1       5.796   4.732 -10.793  1.00  0.00     0.031 C 
ATOM     34  C   UNL     1       7.903   9.233  -7.298  1.00  0.00     0.029 A 
ATOM     35  C   UNL     1       7.323   8.047  -7.720  1.00  0.00     0.049 A 
ATOM     36  H   UNL     1       6.467   6.502  -6.565  1.00  0.00     0.167 HD
ATOM     37  C   UNL     1       6.576   6.384  -9.403  1.00  0.00     0.074 A 
ATOM     38  C   UNL     1       6.404   5.912 -10.763  1.00  0.00     0.031 C 
ATOM     39  C   UNL     1       7.147   7.567  -9.069  1.00  0.00     0.031 A 
BRANCH  26  40
ATOM     40  C   UNL     1       7.236   8.712  -2.989  1.00  0.00    -0.014 A 
ATOM     41  C   UNL     1       8.268   8.457  -2.068  1.00  0.00     0.010 A 
ATOM     42  C   UNL     1       6.483   9.893  -2.864  1.00  0.00     0.010 A 
ATOM     43  C   UNL     1       8.498   9.334  -1.004  1.00  0.00     0.020 A 
ATOM     44  C   UNL     1       6.726  10.785  -1.816  1.00  0.00     0.020 A 
ATOM     45  C   UNL     1       7.714  10.485  -0.876  1.00  0.00     0.054 A 
BRANCH  45  46
ATOM     46  S   UNL     1       8.005  11.588   0.534  1.00  0.00     0.124 S 
ATOM     47  O   UNL     1       7.366  10.852   1.623  1.00  0.00    -0.237 OA
ATOM     48  O   UNL     1       9.462  11.658   0.596  1.00  0.00    -0.237 OA
ATOM     49  O   UNL     1       7.340  12.829   0.146  1.00  0.00    -0.744 OA
ENDBRANCH  45  46
ENDBRANCH  26  40
BRANCH  27  50
ATOM     50  C   UNL     1       4.506   2.191 -10.030  1.00  0.00    -0.014 A 
ATOM     51  C   UNL     1       5.416   1.389 -10.740  1.00  0.00     0.010 A 
ATOM     52  C   UNL     1       3.125   2.015 -10.240  1.00  0.00     0.010 A 
ATOM     53  C   UNL     1       4.952   0.416 -11.630  1.00  0.00     0.020 A 
ATOM     54  C   UNL     1       2.659   1.028 -11.112  1.00  0.00     0.020 A 
ATOM     55  C   UNL     1       3.576   0.235 -11.802  1.00  0.00     0.054 A 
BRANCH  55  56
ATOM     56  S   UNL     1       2.997  -1.111 -12.874  1.00  0.00     0.124 S 
ATOM     57  O   UNL     1       3.232  -0.561 -14.205  1.00  0.00    -0.237 OA
ATOM     58  O   UNL     1       3.864  -2.221 -12.486  1.00  0.00    -0.237 OA
ATOM     59  O   UNL     1       1.594  -1.267 -12.498  1.00  0.00    -0.744 OA
ENDBRANCH  55  56
ENDBRANCH  27  50
BRANCH  39  60
ATOM     60  C   UNL     1       7.663   8.435 -10.183  1.00  0.00    -0.014 A 
ATOM     61  C   UNL     1       6.788   9.204 -10.969  1.00  0.00     0.010 A 
ATOM     62  C   UNL     1       9.051   8.557 -10.378  1.00  0.00     0.010 A 
ATOM     63  C   UNL     1       7.293  10.081 -11.933  1.00  0.00     0.020 A 
ATOM     64  C   UNL     1       9.560   9.447 -11.327  1.00  0.00     0.020 A 
ATOM     65  C   UNL     1       8.677  10.201 -12.102  1.00  0.00     0.054 A 
BRANCH  65  66
ATOM     66  S   UNL     1       9.313  11.411 -13.296  1.00  0.00     0.124 S 
ATOM     67  O   UNL     1       9.066  10.741 -14.569  1.00  0.00    -0.237 OA
ATOM     68  O   UNL     1       8.486  12.587 -13.033  1.00  0.00    -0.237 OA
ATOM     69  O   UNL     1      10.720  11.553 -12.928  1.00  0.00    -0.744 OA
ENDBRANCH  65  66
ENDBRANCH  39  60
ENDBRANCH  13  14
ENDBRANCH   6   8
ENDBRANCH   3   4
ENDBRANCH   2   3
ENDBRANCH   1   2
BRANCH   1  70
ATOM     70  C   UNL     1       4.170  -2.188   3.941  1.00  0.00     0.002 C 
BRANCH  70  71
ATOM     71  C   UNL     1       5.685  -2.380   4.020  1.00  0.00     0.021 C 
BRANCH  71  72
ATOM     72  C   UNL     1       6.354  -1.778   5.255  1.00  0.00     0.116 C 
BRANCH  72  73
ATOM     73  N   UNL     1       6.524  -2.774   6.292  1.00  0.00    -0.354 N 
ATOM     74  C   UNL     1       7.607  -3.483   6.711  1.00  0.00     0.242 C 
ATOM     75  H   UNL     1       5.699  -2.978   6.788  1.00  0.00     0.163 HD
ATOM     76  O   UNL     1       7.372  -4.388   7.525  1.00  0.00    -0.273 OA
BRANCH  74  77
ATOM     77  C   UNL     1       9.064  -3.242   6.232  1.00  0.00     0.173 C 
BRANCH  77  78
ATOM     78  C   UNL     1       9.343  -3.766   4.796  1.00  0.00     0.070 C 
BRANCH  78  79
ATOM     79  C   UNL     1       9.046  -2.949   3.555  1.00  0.00    -0.045 A 
ATOM     80  C   UNL     1       9.466  -1.619   3.399  1.00  0.00     0.007 A 
ATOM     81  C   UNL     1       8.403  -3.567   2.468  1.00  0.00     0.007 A 
ATOM     82  C   UNL     1       9.124  -0.884   2.258  1.00  0.00     0.046 A 
ATOM     83  C   UNL     1       8.082  -2.844   1.316  1.00  0.00     0.046 A 
ATOM     84  C   UNL     1       8.414  -1.499   1.235  1.00  0.00     0.115 A 
BRANCH  84  85
ATOM     85  O   UNL     1       8.009  -0.810   0.131  1.00  0.00    -0.508 OA
ATOM     86  H   UNL     1       8.216   0.099   0.044  1.00  0.00     0.293 HD
ENDBRANCH  84  85
ENDBRANCH  78  79
ENDBRANCH  77  78
BRANCH  77  87
ATOM     87  N   UNL     1       9.528  -1.867   6.484  1.00  0.00    -0.372 N 
ATOM     88  H   UNL     1       9.209  -1.167   5.870  1.00  0.00     0.161 HD
BRANCH  87  89
ATOM     89  C   UNL     1      10.385  -1.465   7.524  1.00  0.00     0.054 A 
ATOM     90  C   UNL     1      11.635  -2.107   7.806  1.00  0.00     0.024 A 
ATOM     91  C   UNL     1       9.993  -0.349   8.336  1.00  0.00     0.024 A 
ATOM     92  C   UNL     1      12.206  -3.183   7.077  1.00  0.00     0.012 A 
ATOM     93  C   UNL     1      12.404  -1.593   8.872  1.00  0.00     0.073 A 
ATOM     94  C   UNL     1      10.887   0.076   9.339  1.00  0.00     0.073 A 
ATOM     95  C   UNL     1       8.768   0.363   8.209  1.00  0.00     0.012 A 
ATOM     96  C   UNL     1      13.428  -3.765   7.423  1.00  0.00     0.001 A 
ATOM     97  C   UNL     1      13.624  -2.174   9.197  1.00  0.00     0.029 A 
ATOM     98  N   UNL     1      12.042  -0.536   9.601  1.00  0.00    -0.248 NA
ATOM     99  C   UNL     1      10.579   1.187  10.113  1.00  0.00     0.029 A 
ATOM    100  C   UNL     1       8.473   1.472   9.004  1.00  0.00     0.001 A 
ATOM    101  C   UNL     1      14.139  -3.261   8.494  1.00  0.00     0.002 A 
ATOM    102  C   UNL     1       9.389   1.894   9.953  1.00  0.00     0.002 A 
ENDBRANCH  87  89
ENDBRANCH  77  87
ENDBRANCH  74  77
ENDBRANCH  72  73
ENDBRANCH  71  72
ENDBRANCH  70  71
ENDBRANCH   1  70
TORSDOF 21
