REMARK SMILES Cc1cc(N2CC[NH+]([C@@H](C(=O)NCCCCCCNC(=O)c3ccc(-c4c5nc(c(-c6ccc(S(=O)(=O)[O-])cc6)c6ccc([nH]6)c(-c6ccc(S(=O)(=O)[O-])cc6)c6nc(c(-c7ccc(S(=O)(=O)[O-])cc7)c7ccc4[nH]7)C=C6)C=C5)cc3)c3c[nH]c4ccccc34)CC2)nc2ccccc12
REMARK SMILES IDX 16 1 15 2 14 3 13 4 12 5 10 6 11 7 9 9 8 10 5 11 6 12 92 13
REMARK SMILES IDX 7 14 91 15 4 17 1 18 2 19 3 20 99 21 94 22 98 23 93 24 95 25
REMARK SMILES IDX 97 26 96 27 82 28 83 29 90 30 84 31 85 32 89 33 86 35 88 36
REMARK SMILES IDX 87 37 17 38 18 39 19 40 20 41 21 43 22 44 23 45 81 46 24 47
REMARK SMILES IDX 80 48 25 49 26 50 27 51 74 52 28 53 79 54 73 55 75 56 29 57
REMARK SMILES IDX 78 58 72 59 71 60 30 62 60 63 41 64 59 65 42 66 45 67 58 68
REMARK SMILES IDX 76 69 43 70 44 71 57 73 77 74 46 75 31 76 32 77 40 78 33 79
REMARK SMILES IDX 39 80 34 81 35 82 36 83 37 84 38 85 61 86 62 87 70 88 63 89
REMARK SMILES IDX 69 90 64 91 65 92 66 93 67 94 68 95 47 96 48 97 56 98 49 99
REMARK SMILES IDX 55 100 50 101 51 102 52 103 53 104 54 105
REMARK H PARENT 12 8 8 16 84 34 19 42 75 61 45 72
REMARK Flexibility Score: inf
ROOT
ATOM      1  C   UNL     1      -2.434  -1.614  -4.867  1.00  0.00     0.002 C 
ENDROOT
BRANCH   1   2
ATOM      2  C   UNL     1      -2.780  -2.095  -3.456  1.00  0.00     0.002 C 
BRANCH   2   3
ATOM      3  C   UNL     1      -4.228  -2.592  -3.275  1.00  0.00     0.021 C 
BRANCH   3   4
ATOM      4  C   UNL     1      -4.425  -4.091  -2.890  1.00  0.00     0.116 C 
BRANCH   4   5
ATOM      5  N   UNL     1      -3.400  -4.689  -2.020  1.00  0.00    -0.351 N 
ATOM      6  C   UNL     1      -3.280  -5.180  -0.736  1.00  0.00     0.283 C 
ATOM      7  O   UNL     1      -2.183  -5.715  -0.522  1.00  0.00    -0.268 OA
ATOM      8  H   UNL     1      -2.542  -4.761  -2.497  1.00  0.00     0.163 HD
BRANCH   6   9
ATOM      9  C   UNL     1      -4.414  -5.179   0.340  1.00  0.00     0.307 C 
BRANCH   9  10
ATOM     10  N   UNL     1      -4.862  -3.867   0.948  1.00  0.00    -0.318 N 
ATOM     11  N   UNL     1      -2.860  -1.738   1.083  1.00  0.00    -0.345 N 
ATOM     12  C   UNL     1      -2.778  -2.849   2.018  1.00  0.00     0.179 C 
ATOM     13  C   UNL     1      -3.517  -2.049  -0.186  1.00  0.00     0.179 C 
ATOM     14  C   UNL     1      -4.224  -3.345   2.178  1.00  0.00     0.284 C 
ATOM     15  C   UNL     1      -4.891  -2.725   0.035  1.00  0.00     0.284 C 
ATOM     16  H   UNL     1      -5.787  -4.215   1.203  1.00  0.00     0.349 HD
BRANCH  11  17
ATOM     17  C   UNL     1      -1.775  -0.897   0.912  1.00  0.00     0.129 A 
ATOM     18  C   UNL     1      -1.475   2.738  -0.002  1.00  0.00     0.045 C 
ATOM     19  C   UNL     1      -1.074   1.325   0.303  1.00  0.00    -0.038 A 
ATOM     20  C   UNL     1      -2.072   0.439   0.678  1.00  0.00     0.051 A 
ATOM     21  C   UNL     1       0.244   0.841   0.222  1.00  0.00     0.003 A 
ATOM     22  C   UNL     1       0.460  -0.536   0.478  1.00  0.00     0.073 A 
ATOM     23  C   UNL     1       1.339   1.663  -0.110  1.00  0.00     0.010 A 
ATOM     24  N   UNL     1      -0.526  -1.383   0.825  1.00  0.00    -0.231 NA
ATOM     25  C   UNL     1       1.748  -1.039   0.341  1.00  0.00     0.029 A 
ATOM     26  C   UNL     1       2.624   1.135  -0.216  1.00  0.00     0.001 A 
ATOM     27  C   UNL     1       2.827  -0.222  -0.004  1.00  0.00     0.002 A 
ENDBRANCH  11  17
ENDBRANCH   9  10
BRANCH   9  28
ATOM     28  C   UNL     1      -4.255  -6.254   1.471  1.00  0.00     0.044 A 
ATOM     29  C   UNL     1      -5.351  -6.837   2.114  1.00  0.00     0.094 A 
ATOM     30  C   UNL     1      -3.234  -6.369   2.497  1.00  0.00     0.009 A 
ATOM     31  N   UNL     1      -5.271  -6.249   3.368  1.00  0.00    -0.361 N 
ATOM     32  C   UNL     1      -3.936  -6.128   3.690  1.00  0.00     0.046 A 
ATOM     33  C   UNL     1      -1.827  -6.415   2.573  1.00  0.00     0.011 A 
ATOM     34  H   UNL     1      -6.031  -5.968   3.927  1.00  0.00     0.166 HD
ATOM     35  C   UNL     1      -3.317  -5.679   4.863  1.00  0.00     0.026 A 
ATOM     36  C   UNL     1      -1.190  -6.126   3.793  1.00  0.00     0.001 A 
ATOM     37  C   UNL     1      -1.923  -5.682   4.892  1.00  0.00     0.002 A 
ENDBRANCH   9  28
ENDBRANCH   6   9
ENDBRANCH   4   5
ENDBRANCH   3   4
ENDBRANCH   2   3
ENDBRANCH   1   2
BRANCH   1  38
ATOM     38  C   UNL     1      -3.181  -0.363  -5.343  1.00  0.00     0.021 C 
BRANCH  38  39
ATOM     39  C   UNL     1      -2.899   0.908  -4.543  1.00  0.00     0.116 C 
BRANCH  39  40
ATOM     40  N   UNL     1      -1.568   1.435  -4.808  1.00  0.00    -0.352 N 
ATOM     41  C   UNL     1      -1.216   2.578  -5.494  1.00  0.00     0.251 C 
ATOM     42  H   UNL     1      -0.820   0.905  -4.449  1.00  0.00     0.163 HD
ATOM     43  O   UNL     1      -0.067   2.757  -5.863  1.00  0.00    -0.269 OA
BRANCH  41  44
ATOM     44  C   UNL     1      -2.258   3.591  -5.780  1.00  0.00     0.039 A 
ATOM     45  C   UNL     1      -2.395   4.090  -7.077  1.00  0.00     0.014 A 
ATOM     46  C   UNL     1      -3.102   4.035  -4.759  1.00  0.00     0.014 A 
ATOM     47  C   UNL     1      -3.421   4.996  -7.360  1.00  0.00     0.010 A 
ATOM     48  C   UNL     1      -4.168   4.878  -5.060  1.00  0.00     0.010 A 
ATOM     49  C   UNL     1      -4.335   5.374  -6.362  1.00  0.00    -0.014 A 
BRANCH  49  50
ATOM     50  C   UNL     1      -5.471   6.285  -6.662  1.00  0.00     0.031 A 
ATOM     51  C   UNL     1      -5.569   7.626  -5.985  1.00  0.00     0.074 A 
ATOM     52  C   UNL     1      -6.453   5.878  -7.489  1.00  0.00     0.049 A 
ATOM     53  N   UNL     1      -6.500   8.540  -6.095  1.00  0.00    -0.248 NA
ATOM     54  C   UNL     1      -4.497   7.972  -5.039  1.00  0.00     0.031 C 
ATOM     55  C   UNL     1      -6.507   4.577  -8.161  1.00  0.00     0.029 A 
ATOM     56  N   UNL     1      -7.601   6.510  -7.898  1.00  0.00    -0.354 N 
ATOM     57  C   UNL     1      -6.138   9.556  -5.218  1.00  0.00     0.074 A 
ATOM     58  C   UNL     1      -4.933   9.121  -4.545  1.00  0.00     0.031 C 
ATOM     59  C   UNL     1      -7.618   4.517  -8.912  1.00  0.00     0.029 A 
ATOM     60  C   UNL     1      -8.376   5.754  -8.745  1.00  0.00     0.049 A 
ATOM     61  H   UNL     1      -7.847   7.419  -7.611  1.00  0.00     0.167 HD
ATOM     62  C   UNL     1      -6.744  10.749  -5.001  1.00  0.00     0.031 A 
ATOM     63  C   UNL     1      -9.568   6.015  -9.318  1.00  0.00     0.031 A 
ATOM     64  C   UNL     1      -7.945  11.173  -5.672  1.00  0.00     0.049 A 
ATOM     65  C   UNL     1     -10.222   7.346  -9.075  1.00  0.00     0.074 A 
ATOM     66  C   UNL     1      -8.595  12.391  -5.583  1.00  0.00     0.029 A 
ATOM     67  N   UNL     1      -8.687  10.387  -6.542  1.00  0.00    -0.354 N 
ATOM     68  N   UNL     1      -9.813   8.337  -8.318  1.00  0.00    -0.248 NA
ATOM     69  C   UNL     1     -11.488   7.602  -9.774  1.00  0.00     0.031 C 
ATOM     70  C   UNL     1      -9.769  12.315  -6.342  1.00  0.00     0.029 A 
ATOM     71  C   UNL     1      -9.811  11.078  -6.965  1.00  0.00     0.049 A 
ATOM     72  H   UNL     1      -8.450   9.472  -6.818  1.00  0.00     0.167 HD
ATOM     73  C   UNL     1     -10.763   9.342  -8.462  1.00  0.00     0.074 A 
ATOM     74  C   UNL     1     -11.756   8.845  -9.394  1.00  0.00     0.031 C 
ATOM     75  C   UNL     1     -10.805  10.566  -7.878  1.00  0.00     0.031 A 
BRANCH  62  76
ATOM     76  C   UNL     1      -6.129  11.661  -3.969  1.00  0.00    -0.014 A 
ATOM     77  C   UNL     1      -4.859  12.240  -4.159  1.00  0.00     0.010 A 
ATOM     78  C   UNL     1      -6.834  11.945  -2.785  1.00  0.00     0.010 A 
ATOM     79  C   UNL     1      -4.279  13.022  -3.156  1.00  0.00     0.020 A 
ATOM     80  C   UNL     1      -6.272  12.757  -1.795  1.00  0.00     0.020 A 
ATOM     81  C   UNL     1      -4.986  13.267  -1.976  1.00  0.00     0.054 A 
BRANCH  81  82
ATOM     82  S   UNL     1      -4.199  14.266  -0.682  1.00  0.00     0.124 S 
ATOM     83  O   UNL     1      -3.183  13.348  -0.172  1.00  0.00    -0.237 OA
ATOM     84  O   UNL     1      -3.691  15.414  -1.428  1.00  0.00    -0.237 OA
ATOM     85  O   UNL     1      -5.292  14.560   0.242  1.00  0.00    -0.744 OA
ENDBRANCH  81  82
ENDBRANCH  62  76
BRANCH  63  86
ATOM     86  C   UNL     1     -10.201   4.981 -10.182  1.00  0.00    -0.014 A 
ATOM     87  C   UNL     1     -10.244   5.135 -11.578  1.00  0.00     0.010 A 
ATOM     88  C   UNL     1     -10.699   3.796  -9.608  1.00  0.00     0.010 A 
ATOM     89  C   UNL     1     -10.763   4.118 -12.386  1.00  0.00     0.020 A 
ATOM     90  C   UNL     1     -11.193   2.767 -10.414  1.00  0.00     0.020 A 
ATOM     91  C   UNL     1     -11.222   2.935 -11.799  1.00  0.00     0.054 A 
BRANCH  91  92
ATOM     92  S   UNL     1     -11.789   1.587 -12.874  1.00  0.00     0.124 S 
ATOM     93  O   UNL     1     -13.057   2.108 -13.374  1.00  0.00    -0.237 OA
ATOM     94  O   UNL     1     -10.711   1.494 -13.855  1.00  0.00    -0.237 OA
ATOM     95  O   UNL     1     -11.893   0.446 -11.966  1.00  0.00    -0.744 OA
ENDBRANCH  91  92
ENDBRANCH  63  86
BRANCH  75  96
ATOM     96  C   UNL     1     -11.957  11.469  -8.238  1.00  0.00    -0.014 A 
ATOM     97  C   UNL     1     -13.264  11.199  -7.795  1.00  0.00     0.010 A 
ATOM     98  C   UNL     1     -11.714  12.638  -8.982  1.00  0.00     0.010 A 
ATOM     99  C   UNL     1     -14.312  12.066  -8.117  1.00  0.00     0.020 A 
ATOM    100  C   UNL     1     -12.753  13.524  -9.279  1.00  0.00     0.020 A 
ATOM    101  C   UNL     1     -14.050  13.224  -8.856  1.00  0.00     0.054 A 
BRANCH 101 102
ATOM    102  S   UNL     1     -15.420  14.355  -9.223  1.00  0.00     0.124 S 
ATOM    103  O   UNL     1     -16.178  13.600 -10.217  1.00  0.00    -0.237 OA
ATOM    104  O   UNL     1     -16.065  14.507  -7.922  1.00  0.00    -0.237 OA
ATOM    105  O   UNL     1     -14.755  15.554  -9.727  1.00  0.00    -0.744 OA
ENDBRANCH 101 102
ENDBRANCH  75  96
ENDBRANCH  49  50
ENDBRANCH  41  44
ENDBRANCH  39  40
ENDBRANCH  38  39
ENDBRANCH   1  38
TORSDOF 19
