REMARK SMILES Cc1c(CC(=O)N[C@@H](CCO)C(=O)NCCCCCCNC(=O)c2ccc(-c3c4nc(c(-c5ccc(S(=O)(=O)[O-])cc5)c5ccc([nH]5)c(-c5ccc(S(=O)(=O)[O-])cc5)c5nc(c(-c6ccc(S(=O)(=O)[O-])cc6)c6ccc3[nH]6)C=C5)C=C4)cc2)cc(-c2ccc(S(C)(=O)=O)cc2)n1-c1ccc(F)cc1
REMARK SMILES IDX 16 1 15 2 14 3 12 4 13 5 8 7 7 8 5 9 6 10 4 12 3 13 1 14
REMARK SMILES IDX 2 15 96 16 84 17 85 18 97 19 98 20 103 21 99 22 102 23
REMARK SMILES IDX 100 24 101 25 86 26 87 27 95 28 88 29 94 30 89 31 90 32
REMARK SMILES IDX 91 33 92 34 93 35 9 36 10 37 11 38 17 40 18 41 19 42 20 43
REMARK SMILES IDX 21 44 22 45 23 47 24 48 25 49 83 50 26 51 82 52 27 53 28 54
REMARK SMILES IDX 29 55 76 56 30 57 81 58 75 59 77 60 31 61 80 62 74 63 73 64
REMARK SMILES IDX 32 66 62 67 43 68 61 69 44 70 47 71 60 72 78 73 45 74 46 75
REMARK SMILES IDX 59 77 79 78 48 79 33 80 34 81 42 82 35 83 41 84 36 85 37 86
REMARK SMILES IDX 38 87 39 88 40 89 63 90 64 91 72 92 65 93 71 94 66 95 67 96
REMARK SMILES IDX 68 97 69 98 70 99 49 100 50 101 58 102 51 103 57 104 52 105
REMARK SMILES IDX 53 106 54 107 55 108 56 109
REMARK H PARENT 14 6 7 11 11 39 21 46 77 65 47 76
REMARK Flexibility Score: inf
ROOT
ATOM      1  C   UNL     1       6.792  -4.066  -2.047  1.00  0.00     0.021 C 
ENDROOT
BRANCH   1   2
ATOM      2  C   UNL     1       6.095  -3.088  -2.974  1.00  0.00     0.116 C 
BRANCH   2   3
ATOM      3  N   UNL     1       5.145  -3.740  -3.848  1.00  0.00    -0.354 N 
ATOM      4  C   UNL     1       3.815  -3.537  -4.049  1.00  0.00     0.242 C 
ATOM      5  O   UNL     1       3.296  -4.160  -4.981  1.00  0.00    -0.273 OA
ATOM      6  H   UNL     1       5.530  -4.461  -4.397  1.00  0.00     0.163 HD
BRANCH   4   7
ATOM      7  C   UNL     1       3.005  -2.466  -3.291  1.00  0.00     0.173 C 
BRANCH   7   8
ATOM      8  N   UNL     1       3.130  -2.535  -1.833  1.00  0.00    -0.344 N 
ATOM      9  C   UNL     1       2.153  -2.766  -0.903  1.00  0.00     0.225 C 
ATOM     10  O   UNL     1       2.506  -2.927   0.267  1.00  0.00    -0.275 OA
ATOM     11  H   UNL     1       4.036  -2.396  -1.475  1.00  0.00     0.164 HD
BRANCH   9  12
ATOM     12  C   UNL     1       0.685  -2.827  -1.304  1.00  0.00     0.137 C 
BRANCH  12  13
ATOM     13  C   UNL     1       0.203  -1.534  -1.892  1.00  0.00    -0.017 A 
ATOM     14  C   UNL     1       0.810   0.103   0.018  1.00  0.00     0.065 C 
ATOM     15  C   UNL     1       0.314  -0.263  -1.345  1.00  0.00     0.024 A 
ATOM     16  N   UNL     1      -0.150   0.658  -2.280  1.00  0.00    -0.314 N 
ATOM     17  C   UNL     1      -0.427  -1.386  -3.153  1.00  0.00     0.033 A 
ATOM     18  C   UNL     1      -0.577  -0.036  -3.414  1.00  0.00     0.053 A 
BRANCH  16  19
ATOM     19  C   UNL     1      -0.165   2.072  -2.128  1.00  0.00     0.046 A 
ATOM     20  C   UNL     1      -1.330   2.784  -2.446  1.00  0.00     0.029 A 
ATOM     21  C   UNL     1       0.986   2.746  -1.700  1.00  0.00     0.029 A 
ATOM     22  C   UNL     1      -1.342   4.173  -2.329  1.00  0.00     0.041 A 
ATOM     23  C   UNL     1       0.970   4.138  -1.602  1.00  0.00     0.041 A 
ATOM     24  C   UNL     1      -0.192   4.837  -1.915  1.00  0.00     0.123 A 
ATOM     25  F   UNL     1      -0.203   6.173  -1.824  1.00  0.00    -0.207 F 
ENDBRANCH  16  19
BRANCH  18  26
ATOM     26  C   UNL     1      -0.950   0.568  -4.699  1.00  0.00    -0.001 A 
ATOM     27  C   UNL     1      -0.067   1.430  -5.369  1.00  0.00     0.011 A 
ATOM     28  C   UNL     1      -2.173   0.243  -5.299  1.00  0.00     0.011 A 
ATOM     29  C   UNL     1      -0.411   1.984  -6.604  1.00  0.00     0.021 A 
ATOM     30  C   UNL     1      -2.527   0.796  -6.532  1.00  0.00     0.021 A 
ATOM     31  C   UNL     1      -1.647   1.672  -7.173  1.00  0.00     0.067 A 
BRANCH  31  32
ATOM     32  S   UNL     1      -2.080   2.370  -8.748  1.00  0.00     0.175 S 
ATOM     33  C   UNL     1      -2.211   4.109  -8.428  1.00  0.00     0.163 C 
ATOM     34  O   UNL     1      -0.949   2.156  -9.635  1.00  0.00    -0.224 OA
ATOM     35  O   UNL     1      -3.401   1.892  -9.099  1.00  0.00    -0.224 OA
ENDBRANCH  31  32
ENDBRANCH  18  26
ENDBRANCH  12  13
ENDBRANCH   9  12
ENDBRANCH   7   8
BRANCH   7  36
ATOM     36  C   UNL     1       3.121  -1.038  -3.864  1.00  0.00     0.063 C 
BRANCH  36  37
ATOM     37  C   UNL     1       4.497  -0.412  -4.043  1.00  0.00     0.158 C 
BRANCH  37  38
ATOM     38  O   UNL     1       5.172  -0.898  -5.193  1.00  0.00    -0.396 OA
ATOM     39  H   UNL     1       5.310  -1.854  -5.106  1.00  0.00     0.210 HD
ENDBRANCH  37  38
ENDBRANCH  36  37
ENDBRANCH   7  36
ENDBRANCH   4   7
ENDBRANCH   2   3
ENDBRANCH   1   2
BRANCH   1  40
ATOM     40  C   UNL     1       7.974  -4.813  -2.673  1.00  0.00     0.002 C 
BRANCH  40  41
ATOM     41  C   UNL     1       9.079  -3.971  -3.327  1.00  0.00     0.002 C 
BRANCH  41  42
ATOM     42  C   UNL     1       9.567  -2.701  -2.607  1.00  0.00     0.021 C 
BRANCH  42  43
ATOM     43  C   UNL     1       9.665  -2.722  -1.074  1.00  0.00     0.116 C 
BRANCH  43  44
ATOM     44  N   UNL     1      10.988  -2.938  -0.557  1.00  0.00    -0.352 N 
ATOM     45  C   UNL     1      11.437  -2.651   0.718  1.00  0.00     0.251 C 
ATOM     46  H   UNL     1      11.643  -3.332  -1.176  1.00  0.00     0.163 HD
ATOM     47  O   UNL     1      12.598  -2.934   0.998  1.00  0.00    -0.269 OA
BRANCH  45  48
ATOM     48  C   UNL     1      10.581  -1.911   1.707  1.00  0.00     0.039 A 
ATOM     49  C   UNL     1      10.751  -0.533   1.814  1.00  0.00     0.014 A 
ATOM     50  C   UNL     1       9.811  -2.549   2.692  1.00  0.00     0.014 A 
ATOM     51  C   UNL     1      10.169   0.190   2.888  1.00  0.00     0.010 A 
ATOM     52  C   UNL     1       9.268  -1.822   3.809  1.00  0.00     0.010 A 
ATOM     53  C   UNL     1       9.464  -0.432   3.963  1.00  0.00    -0.014 A 
BRANCH  53  54
ATOM     54  C   UNL     1       9.645   0.242   5.356  1.00  0.00     0.031 A 
ATOM     55  C   UNL     1      11.123   0.263   5.554  1.00  0.00     0.074 A 
ATOM     56  C   UNL     1       8.894   0.751   6.392  1.00  0.00     0.049 A 
ATOM     57  N   UNL     1      11.827  -0.832   5.518  1.00  0.00    -0.248 NA
ATOM     58  C   UNL     1      11.891   1.501   5.426  1.00  0.00     0.031 C 
ATOM     59  C   UNL     1       7.433   0.792   6.520  1.00  0.00     0.029 A 
ATOM     60  N   UNL     1       9.282   1.381   7.596  1.00  0.00    -0.354 N 
ATOM     61  C   UNL     1      13.142  -0.442   5.602  1.00  0.00     0.074 A 
ATOM     62  C   UNL     1      13.123   0.992   5.341  1.00  0.00     0.031 C 
ATOM     63  C   UNL     1       7.059   1.510   7.619  1.00  0.00     0.029 A 
ATOM     64  C   UNL     1       8.230   1.955   8.368  1.00  0.00     0.049 A 
ATOM     65  H   UNL     1      10.223   1.421   7.884  1.00  0.00     0.167 HD
ATOM     66  C   UNL     1      13.929  -1.097   6.501  1.00  0.00     0.031 A 
ATOM     67  C   UNL     1       8.286   2.684   9.539  1.00  0.00     0.031 A 
ATOM     68  C   UNL     1      14.077  -0.346   7.720  1.00  0.00     0.049 A 
ATOM     69  C   UNL     1       9.576   2.381  10.181  1.00  0.00     0.074 A 
ATOM     70  C   UNL     1      14.462   0.950   7.991  1.00  0.00     0.029 A 
ATOM     71  N   UNL     1      13.369  -0.799   8.818  1.00  0.00    -0.354 N 
ATOM     72  N   UNL     1       9.800   1.251  10.776  1.00  0.00    -0.248 NA
ATOM     73  C   UNL     1      10.649   3.366  10.278  1.00  0.00     0.031 C 
ATOM     74  C   UNL     1      13.603   1.379   9.030  1.00  0.00     0.029 A 
ATOM     75  C   UNL     1      12.922   0.283   9.551  1.00  0.00     0.049 A 
ATOM     76  H   UNL     1      13.209  -1.744   9.041  1.00  0.00     0.167 HD
ATOM     77  C   UNL     1      11.160   1.209  10.881  1.00  0.00     0.074 A 
ATOM     78  C   UNL     1      11.587   2.593  10.828  1.00  0.00     0.031 C 
ATOM     79  C   UNL     1      11.796   0.091  10.444  1.00  0.00     0.031 A 
BRANCH  66  80
ATOM     80  C   UNL     1      13.869  -2.596   6.476  1.00  0.00    -0.014 A 
ATOM     81  C   UNL     1      15.032  -3.308   6.153  1.00  0.00     0.010 A 
ATOM     82  C   UNL     1      12.682  -3.316   6.725  1.00  0.00     0.010 A 
ATOM     83  C   UNL     1      14.998  -4.702   6.040  1.00  0.00     0.020 A 
ATOM     84  C   UNL     1      12.638  -4.705   6.600  1.00  0.00     0.020 A 
ATOM     85  C   UNL     1      13.799  -5.391   6.252  1.00  0.00     0.054 A 
BRANCH  85  86
ATOM     86  S   UNL     1      13.775  -7.187   6.010  1.00  0.00     0.124 S 
ATOM     87  O   UNL     1      14.399  -7.339   4.696  1.00  0.00    -0.237 OA
ATOM     88  O   UNL     1      14.579  -7.659   7.134  1.00  0.00    -0.237 OA
ATOM     89  O   UNL     1      12.357  -7.532   6.054  1.00  0.00    -0.744 OA
ENDBRANCH  85  86
ENDBRANCH  66  80
BRANCH  67  90
ATOM     90  C   UNL     1       7.438   3.578  10.447  1.00  0.00    -0.014 A 
ATOM     91  C   UNL     1       7.746   3.628  11.846  1.00  0.00     0.010 A 
ATOM     92  C   UNL     1       6.662   4.640   9.961  1.00  0.00     0.010 A 
ATOM     93  C   UNL     1       7.454   4.736  12.663  1.00  0.00     0.020 A 
ATOM     94  C   UNL     1       6.328   5.747  10.792  1.00  0.00     0.020 A 
ATOM     95  C   UNL     1       6.774   5.815  12.118  1.00  0.00     0.054 A 
BRANCH  95  96
ATOM     96  S   UNL     1       6.621   7.343  13.110  1.00  0.00     0.124 S 
ATOM     97  O   UNL     1       5.754   6.932  14.210  1.00  0.00    -0.237 OA
ATOM     98  O   UNL     1       8.008   7.624  13.475  1.00  0.00    -0.237 OA
ATOM     99  O   UNL     1       6.030   8.300  12.176  1.00  0.00    -0.744 OA
ENDBRANCH  95  96
ENDBRANCH  67  90
BRANCH  79 100
ATOM    100  C   UNL     1      11.142  -1.251  10.760  1.00  0.00    -0.014 A 
ATOM    101  C   UNL     1       9.757  -1.528  10.655  1.00  0.00     0.010 A 
ATOM    102  C   UNL     1      11.952  -2.269  11.293  1.00  0.00     0.010 A 
ATOM    103  C   UNL     1       9.194  -2.705  11.169  1.00  0.00     0.020 A 
ATOM    104  C   UNL     1      11.404  -3.472  11.766  1.00  0.00     0.020 A 
ATOM    105  C   UNL     1      10.022  -3.664  11.744  1.00  0.00     0.054 A 
BRANCH 105 106
ATOM    106  S   UNL     1       9.269  -5.127  12.509  1.00  0.00     0.124 S 
ATOM    107  O   UNL     1       8.538  -4.547  13.635  1.00  0.00    -0.237 OA
ATOM    108  O   UNL     1       8.435  -5.662  11.437  1.00  0.00    -0.237 OA
ATOM    109  O   UNL     1      10.415  -5.952  12.886  1.00  0.00    -0.744 OA
ENDBRANCH 105 106
ENDBRANCH  79 100
ENDBRANCH  53  54
ENDBRANCH  45  48
ENDBRANCH  43  44
ENDBRANCH  42  43
ENDBRANCH  41  42
ENDBRANCH  40  41
ENDBRANCH   1  40
TORSDOF 25
