REMARK SMILES Cc1cc(Cl)cc2c1O[C@H](C(F)(F)F)C(C(=O)NCCCCCCNC(=O)c1ccc(-c3c4nc(c(-c5ccc(S(=O)(=O)[O-])cc5)c5ccc([nH]5)c(-c5ccc(S(=O)(=O)[O-])cc5)c5nc(c(-c6ccc(S(=O)(=O)[O-])cc6)c6ccc3[nH]6)C=C5)C=C4)cc1)=C2
REMARK SMILES IDX 22 1 21 2 20 3 19 4 18 5 16 6 17 7 15 9 1 10 2 11 3 12 8 13
REMARK SMILES IDX 4 14 7 15 9 16 5 17 6 18 88 19 10 20 11 21 12 22 13 23 14 24
REMARK SMILES IDX 23 25 24 26 25 27 26 28 27 30 28 31 29 32 87 33 30 34 86 35
REMARK SMILES IDX 31 36 32 37 33 38 80 39 34 40 85 41 79 42 81 43 35 44 84 45
REMARK SMILES IDX 78 46 77 47 36 49 66 50 47 51 65 52 48 53 51 54 64 55 82 56
REMARK SMILES IDX 49 57 50 58 63 60 83 61 52 62 37 63 38 64 46 65 39 66 45 67
REMARK SMILES IDX 40 68 41 69 42 70 43 71 44 72 67 73 68 74 76 75 69 76 75 77
REMARK SMILES IDX 70 78 71 79 72 80 73 81 74 82 53 83 54 84 62 85 55 86 61 87
REMARK SMILES IDX 56 88 57 89 58 90 59 91 60 92
REMARK H PARENT 18 8 25 29 81 48 51 59
REMARK Flexibility Score: inf
ROOT
ATOM      1  C   UNL     1       9.175  -5.091  -0.741  1.00  0.00     0.002 C 
ENDROOT
BRANCH   1   2
ATOM      2  C   UNL     1       8.370  -5.325   0.545  1.00  0.00     0.002 C 
BRANCH   2   3
ATOM      3  C   UNL     1       7.175  -4.389   0.738  1.00  0.00     0.021 C 
BRANCH   3   4
ATOM      4  C   UNL     1       6.193  -4.413  -0.429  1.00  0.00     0.116 C 
BRANCH   4   5
ATOM      5  N   UNL     1       5.226  -5.490  -0.296  1.00  0.00    -0.352 N 
ATOM      6  C   UNL     1       3.881  -5.608  -0.205  1.00  0.00     0.251 C 
ATOM      7  O   UNL     1       3.455  -6.766  -0.132  1.00  0.00    -0.270 OA
ATOM      8  H   UNL     1       5.668  -6.369  -0.265  1.00  0.00     0.163 HD
BRANCH   6   9
ATOM      9  C   UNL     1       2.918  -4.467  -0.184  1.00  0.00     0.067 C 
ATOM     10  C   UNL     1       0.556   0.112   0.093  1.00  0.00     0.048 C 
ATOM     11  C   UNL     1       0.130  -1.329   0.151  1.00  0.00    -0.007 A 
ATOM     12  C   UNL     1      -1.231  -1.639   0.261  1.00  0.00     0.027 A 
ATOM     13  C   UNL     1       1.053  -2.381   0.066  1.00  0.00     0.131 A 
ATOM     14  C   UNL     1      -1.647  -2.970   0.305  1.00  0.00     0.042 A 
ATOM     15  C   UNL     1       0.640  -3.717   0.118  1.00  0.00     0.019 A 
ATOM     16  O   UNL     1       2.369  -2.037  -0.015  1.00  0.00    -0.475 OA
ATOM     17  Cl  UNL     1      -3.323  -3.332   0.454  1.00  0.00    -0.084 Cl
ATOM     18  C   UNL     1      -0.720  -4.010   0.238  1.00  0.00     0.032 A 
ATOM     19  C   UNL     1       1.638  -4.780   0.090  1.00  0.00     0.025 C 
ATOM     20  C   UNL     1       3.298  -3.046  -0.478  1.00  0.00     0.314 C 
BRANCH  20  21
ATOM     21  C   UNL     1       3.600  -2.807  -1.969  1.00  0.00     0.429 C 
ATOM     22  F   UNL     1       4.278  -1.645  -2.136  1.00  0.00    -0.167 F 
ATOM     23  F   UNL     1       4.370  -3.781  -2.507  1.00  0.00    -0.167 F 
ATOM     24  F   UNL     1       2.476  -2.736  -2.717  1.00  0.00    -0.167 F 
ENDBRANCH  20  21
ENDBRANCH   6   9
ENDBRANCH   4   5
ENDBRANCH   3   4
ENDBRANCH   2   3
ENDBRANCH   1   2
BRANCH   1  25
ATOM     25  C   UNL     1       9.597  -3.640  -0.990  1.00  0.00     0.021 C 
BRANCH  25  26
ATOM     26  C   UNL     1      10.435  -3.030   0.128  1.00  0.00     0.116 C 
BRANCH  26  27
ATOM     27  N   UNL     1      11.665  -3.775   0.342  1.00  0.00    -0.352 N 
ATOM     28  C   UNL     1      12.962  -3.344   0.249  1.00  0.00     0.251 C 
ATOM     29  H   UNL     1      11.550  -4.721   0.587  1.00  0.00     0.163 HD
ATOM     30  O   UNL     1      13.882  -4.158   0.226  1.00  0.00    -0.269 OA
BRANCH  28  31
ATOM     31  C   UNL     1      13.243  -1.898   0.168  1.00  0.00     0.039 A 
ATOM     32  C   UNL     1      14.162  -1.435  -0.775  1.00  0.00     0.014 A 
ATOM     33  C   UNL     1      12.600  -1.003   1.030  1.00  0.00     0.014 A 
ATOM     34  C   UNL     1      14.404  -0.066  -0.884  1.00  0.00     0.010 A 
ATOM     35  C   UNL     1      12.787   0.366   0.870  1.00  0.00     0.010 A 
ATOM     36  C   UNL     1      13.701   0.846  -0.079  1.00  0.00    -0.014 A 
BRANCH  36  37
ATOM     37  C   UNL     1      13.935   2.306  -0.195  1.00  0.00     0.031 A 
ATOM     38  C   UNL     1      14.546   3.060   0.954  1.00  0.00     0.074 A 
ATOM     39  C   UNL     1      13.570   2.954  -1.319  1.00  0.00     0.049 A 
ATOM     40  N   UNL     1      14.804   4.338   1.055  1.00  0.00    -0.248 NA
ATOM     41  C   UNL     1      14.896   2.280   2.153  1.00  0.00     0.031 C 
ATOM     42  C   UNL     1      12.950   2.332  -2.491  1.00  0.00     0.029 A 
ATOM     43  N   UNL     1      13.674   4.278  -1.662  1.00  0.00    -0.354 N 
ATOM     44  C   UNL     1      15.343   4.514   2.324  1.00  0.00     0.074 A 
ATOM     45  C   UNL     1      15.318   3.226   2.979  1.00  0.00     0.031 C 
ATOM     46  C   UNL     1      12.766   3.267  -3.438  1.00  0.00     0.029 A 
ATOM     47  C   UNL     1      13.214   4.559  -2.927  1.00  0.00     0.049 A 
ATOM     48  H   UNL     1      14.043   4.963  -1.059  1.00  0.00     0.167 HD
ATOM     49  C   UNL     1      15.841   5.641   2.883  1.00  0.00     0.031 A 
ATOM     50  C   UNL     1      13.160   5.725  -3.600  1.00  0.00     0.031 A 
ATOM     51  C   UNL     1      15.869   6.919   2.224  1.00  0.00     0.049 A 
ATOM     52  C   UNL     1      13.677   6.973  -2.939  1.00  0.00     0.074 A 
ATOM     53  C   UNL     1      16.382   8.116   2.693  1.00  0.00     0.029 A 
ATOM     54  N   UNL     1      15.365   7.167   0.956  1.00  0.00    -0.354 N 
ATOM     55  N   UNL     1      14.225   7.112  -1.754  1.00  0.00    -0.248 NA
ATOM     56  C   UNL     1      13.575   8.222  -3.706  1.00  0.00     0.031 C 
ATOM     57  C   UNL     1      16.137   9.100   1.731  1.00  0.00     0.029 A 
ATOM     58  C   UNL     1      15.530   8.504   0.637  1.00  0.00     0.049 A 
ATOM     59  H   UNL     1      14.952   6.493   0.370  1.00  0.00     0.167 HD
ATOM     60  C   UNL     1      14.551   8.459  -1.643  1.00  0.00     0.074 A 
ATOM     61  C   UNL     1      14.157   9.088  -2.887  1.00  0.00     0.031 C 
ATOM     62  C   UNL     1      15.125   9.115  -0.605  1.00  0.00     0.031 A 
BRANCH  49  63
ATOM     63  C   UNL     1      16.404   5.540   4.276  1.00  0.00    -0.014 A 
ATOM     64  C   UNL     1      17.605   4.849   4.521  1.00  0.00     0.010 A 
ATOM     65  C   UNL     1      15.755   6.185   5.345  1.00  0.00     0.010 A 
ATOM     66  C   UNL     1      18.129   4.777   5.814  1.00  0.00     0.020 A 
ATOM     67  C   UNL     1      16.292   6.140   6.635  1.00  0.00     0.020 A 
ATOM     68  C   UNL     1      17.470   5.425   6.863  1.00  0.00     0.054 A 
BRANCH  68  69
ATOM     69  S   UNL     1      18.195   5.340   8.523  1.00  0.00     0.124 S 
ATOM     70  O   UNL     1      17.998   3.934   8.867  1.00  0.00    -0.237 OA
ATOM     71  O   UNL     1      19.580   5.741   8.286  1.00  0.00    -0.237 OA
ATOM     72  O   UNL     1      17.399   6.287   9.299  1.00  0.00    -0.744 OA
ENDBRANCH  68  69
ENDBRANCH  49  63
BRANCH  50  73
ATOM     73  C   UNL     1      12.618   5.757  -4.986  1.00  0.00    -0.014 A 
ATOM     74  C   UNL     1      13.473   5.986  -6.078  1.00  0.00     0.010 A 
ATOM     75  C   UNL     1      11.249   5.534  -5.225  1.00  0.00     0.010 A 
ATOM     76  C   UNL     1      12.969   5.999  -7.382  1.00  0.00     0.020 A 
ATOM     77  C   UNL     1      10.746   5.519  -6.529  1.00  0.00     0.020 A 
ATOM     78  C   UNL     1      11.609   5.760  -7.600  1.00  0.00     0.054 A 
BRANCH  78  79
ATOM     79  S   UNL     1      10.992   5.724  -9.306  1.00  0.00     0.124 S 
ATOM     80  O   UNL     1      11.103   7.125  -9.699  1.00  0.00    -0.237 OA
ATOM     81  O   UNL     1      11.925   4.807  -9.956  1.00  0.00    -0.237 OA
ATOM     82  O   UNL     1       9.628   5.218  -9.166  1.00  0.00    -0.744 OA
ENDBRANCH  78  79
ENDBRANCH  50  73
BRANCH  62  83
ATOM     83  C   UNL     1      15.376  10.591  -0.765  1.00  0.00    -0.014 A 
ATOM     84  C   UNL     1      14.315  11.513  -0.740  1.00  0.00     0.010 A 
ATOM     85  C   UNL     1      16.697  11.067  -0.859  1.00  0.00     0.010 A 
ATOM     86  C   UNL     1      14.569  12.883  -0.827  1.00  0.00     0.020 A 
ATOM     87  C   UNL     1      16.957  12.438  -0.915  1.00  0.00     0.020 A 
ATOM     88  C   UNL     1      15.889  13.338  -0.908  1.00  0.00     0.054 A 
BRANCH  88  89
ATOM     89  S   UNL     1      16.190  15.125  -0.960  1.00  0.00     0.124 S 
ATOM     90  O   UNL     1      15.691  15.480  -2.285  1.00  0.00    -0.237 OA
ATOM     91  O   UNL     1      15.395  15.614   0.164  1.00  0.00    -0.237 OA
ATOM     92  O   UNL     1      17.637  15.240  -0.788  1.00  0.00    -0.744 OA
ENDBRANCH  88  89
ENDBRANCH  62  83
ENDBRANCH  36  37
ENDBRANCH  28  31
ENDBRANCH  26  27
ENDBRANCH  25  26
ENDBRANCH   1  25
TORSDOF 17
