REMARK SMILES CC[C@@H](C)SCc1cc(F)cc(/C=C/C(=O)NCCCCCCNC(=O)c2ccc(-c3c4nc(c(-c5ccc(S(=O)(=O)[O-])cc5)c5ccc([nH]5)c(-c5ccc(S(=O)(=O)[O-])cc5)c5nc(c(-c6ccc(S(=O)(=O)[O-])cc6)c6ccc3[nH]6)C=C5)C=C4)cc2)c1
REMARK SMILES IDX 19 1 18 2 17 3 15 4 16 5 14 7 13 8 12 9 7 10 8 11 87 12 9 13
REMARK SMILES IDX 10 14 11 15 6 16 5 17 3 18 4 19 2 20 1 21 20 22 21 23 22 24
REMARK SMILES IDX 23 25 24 26 25 27 26 29 27 30 28 31 86 32 29 33 85 34 30 35
REMARK SMILES IDX 31 36 32 37 79 38 33 39 84 40 78 41 80 42 34 43 83 44 77 45
REMARK SMILES IDX 76 46 35 48 65 49 46 50 64 51 47 52 50 53 63 54 81 55 48 56
REMARK SMILES IDX 49 57 62 59 82 60 51 61 36 62 37 63 45 64 38 65 44 66 39 67
REMARK SMILES IDX 40 68 41 69 42 70 43 71 66 72 67 73 75 74 68 75 74 76 69 77
REMARK SMILES IDX 70 78 71 79 72 80 73 81 52 82 53 83 61 84 54 85 60 86 55 87
REMARK SMILES IDX 56 88 57 89 58 90 59 91
REMARK H PARENT 17 6 24 28 80 47 50 58
REMARK Flexibility Score: inf
ROOT
ATOM      1  C   UNL     1       2.058   6.639   5.429  1.00  0.00     0.021 C 
ENDROOT
BRANCH   1   2
ATOM      2  C   UNL     1       0.581   6.923   5.712  1.00  0.00     0.116 C 
BRANCH   2   3
ATOM      3  N   UNL     1       0.084   7.974   4.838  1.00  0.00    -0.353 N 
ATOM      4  C   UNL     1      -0.919   7.982   3.921  1.00  0.00     0.243 C 
ATOM      5  O   UNL     1      -1.222   9.032   3.358  1.00  0.00    -0.270 OA
ATOM      6  H   UNL     1       0.559   8.832   4.926  1.00  0.00     0.163 HD
BRANCH   4   7
ATOM      7  C   UNL     1      -1.710   6.764   3.644  1.00  0.00     0.072 C 
ATOM      8  C   UNL     1      -1.161   5.564   3.419  1.00  0.00     0.014 C 
BRANCH   8   9
ATOM      9  C   UNL     1      -1.919   4.343   3.128  1.00  0.00    -0.022 A 
ATOM     10  C   UNL     1      -1.999   1.904   3.322  1.00  0.00    -0.035 A 
ATOM     11  C   UNL     1      -3.045   1.884   2.392  1.00  0.00     0.043 A 
ATOM     12  C   UNL     1      -1.494   3.150   3.730  1.00  0.00     0.013 A 
ATOM     13  C   UNL     1      -3.509   3.076   1.842  1.00  0.00     0.124 A 
ATOM     14  F   UNL     1      -4.488   3.037   0.927  1.00  0.00    -0.207 F 
ATOM     15  C   UNL     1      -2.943   4.300   2.183  1.00  0.00     0.047 A 
BRANCH  10  16
ATOM     16  C   UNL     1      -1.428   0.612   3.851  1.00  0.00     0.105 C 
BRANCH  16  17
ATOM     17  S   UNL     1       0.397   0.554   3.974  1.00  0.00    -0.154 SA
BRANCH  17  18
ATOM     18  C   UNL     1       0.976   0.711   2.227  1.00  0.00     0.043 C 
ATOM     19  C   UNL     1       0.817   2.123   1.667  1.00  0.00     0.019 C 
BRANCH  18  20
ATOM     20  C   UNL     1       0.391  -0.377   1.317  1.00  0.00     0.011 C 
ATOM     21  C   UNL     1       0.969  -0.338  -0.093  1.00  0.00     0.005 C 
ENDBRANCH  18  20
ENDBRANCH  17  18
ENDBRANCH  16  17
ENDBRANCH  10  16
ENDBRANCH   8   9
ENDBRANCH   4   7
ENDBRANCH   2   3
ENDBRANCH   1   2
BRANCH   1  22
ATOM     22  C   UNL     1       3.010   7.686   6.021  1.00  0.00     0.002 C 
BRANCH  22  23
ATOM     23  C   UNL     1       2.976   7.801   7.551  1.00  0.00     0.002 C 
BRANCH  23  24
ATOM     24  C   UNL     1       3.234   6.495   8.308  1.00  0.00     0.021 C 
BRANCH  24  25
ATOM     25  C   UNL     1       4.596   5.860   8.039  1.00  0.00     0.116 C 
BRANCH  25  26
ATOM     26  N   UNL     1       5.687   6.714   8.482  1.00  0.00    -0.352 N 
ATOM     27  C   UNL     1       6.740   6.425   9.312  1.00  0.00     0.251 C 
ATOM     28  H   UNL     1       5.667   7.635   8.134  1.00  0.00     0.163 HD
ATOM     29  O   UNL     1       7.441   7.334   9.746  1.00  0.00    -0.269 OA
BRANCH  27  30
ATOM     30  C   UNL     1       7.023   5.023   9.694  1.00  0.00     0.039 A 
ATOM     31  C   UNL     1       7.356   4.740  11.021  1.00  0.00     0.014 A 
ATOM     32  C   UNL     1       6.990   3.997   8.745  1.00  0.00     0.014 A 
ATOM     33  C   UNL     1       7.607   3.422  11.406  1.00  0.00     0.010 A 
ATOM     34  C   UNL     1       7.175   2.674   9.144  1.00  0.00     0.010 A 
ATOM     35  C   UNL     1       7.492   2.374  10.477  1.00  0.00    -0.014 A 
BRANCH  35  36
ATOM     36  C   UNL     1       7.690   0.962  10.894  1.00  0.00     0.031 A 
ATOM     37  C   UNL     1       8.838   0.157  10.346  1.00  0.00     0.074 A 
ATOM     38  C   UNL     1       6.805   0.391  11.735  1.00  0.00     0.049 A 
ATOM     39  N   UNL     1       9.163  -1.087  10.594  1.00  0.00    -0.248 NA
ATOM     40  C   UNL     1       9.723   0.827   9.380  1.00  0.00     0.031 C 
ATOM     41  C   UNL     1       5.623   1.051  12.295  1.00  0.00     0.029 A 
ATOM     42  N   UNL     1       6.762  -0.872  12.268  1.00  0.00    -0.354 N 
ATOM     43  C   UNL     1      10.278  -1.352   9.807  1.00  0.00     0.074 A 
ATOM     44  C   UNL     1      10.544  -0.156   9.038  1.00  0.00     0.031 C 
ATOM     45  C   UNL     1       4.991   0.198  13.117  1.00  0.00     0.029 A 
ATOM     46  C   UNL     1       5.700  -1.077  13.117  1.00  0.00     0.049 A 
ATOM     47  H   UNL     1       7.429  -1.567  12.062  1.00  0.00     0.167 HD
ATOM     48  C   UNL     1      11.025  -2.481   9.745  1.00  0.00     0.031 A 
ATOM     49  C   UNL     1       5.337  -2.167  13.819  1.00  0.00     0.031 A 
ATOM     50  C   UNL     1      10.761  -3.667  10.517  1.00  0.00     0.049 A 
ATOM     51  C   UNL     1       6.188  -3.405  13.742  1.00  0.00     0.074 A 
ATOM     52  C   UNL     1      11.490  -4.843  10.565  1.00  0.00     0.029 A 
ATOM     53  N   UNL     1       9.684  -3.829  11.375  1.00  0.00    -0.354 N 
ATOM     54  N   UNL     1       7.279  -3.612  13.043  1.00  0.00    -0.248 NA
ATOM     55  C   UNL     1       5.768  -4.548  14.562  1.00  0.00     0.031 C 
ATOM     56  C   UNL     1      10.826  -5.734  11.416  1.00  0.00     0.029 A 
ATOM     57  C   UNL     1       9.717  -5.092  11.943  1.00  0.00     0.049 A 
ATOM     58  H   UNL     1       8.997  -3.147  11.555  1.00  0.00     0.167 HD
ATOM     59  C   UNL     1       7.691  -4.901  13.361  1.00  0.00     0.074 A 
ATOM     60  C   UNL     1       6.742  -5.417  14.327  1.00  0.00     0.031 C 
ATOM     61  C   UNL     1       8.760  -5.595  12.896  1.00  0.00     0.031 A 
BRANCH  48  62
ATOM     62  C   UNL     1      12.201  -2.486   8.803  1.00  0.00    -0.014 A 
ATOM     63  C   UNL     1      13.344  -1.706   9.062  1.00  0.00     0.010 A 
ATOM     64  C   UNL     1      12.183  -3.310   7.663  1.00  0.00     0.010 A 
ATOM     65  C   UNL     1      14.425  -1.716   8.177  1.00  0.00     0.020 A 
ATOM     66  C   UNL     1      13.275  -3.346   6.790  1.00  0.00     0.020 A 
ATOM     67  C   UNL     1      14.383  -2.534   7.044  1.00  0.00     0.054 A 
BRANCH  67  68
ATOM     68  S   UNL     1      15.809  -2.543   5.924  1.00  0.00     0.124 S 
ATOM     69  O   UNL     1      15.675  -1.250   5.256  1.00  0.00    -0.237 OA
ATOM     70  O   UNL     1      16.938  -2.662   6.842  1.00  0.00    -0.237 OA
ATOM     71  O   UNL     1      15.576  -3.709   5.074  1.00  0.00    -0.744 OA
ENDBRANCH  67  68
ENDBRANCH  48  62
BRANCH  49  72
ATOM     72  C   UNL     1       4.124  -2.125  14.680  1.00  0.00    -0.014 A 
ATOM     73  C   UNL     1       4.242  -2.113  16.081  1.00  0.00     0.010 A 
ATOM     74  C   UNL     1       2.842  -2.077  14.101  1.00  0.00     0.010 A 
ATOM     75  C   UNL     1       3.101  -2.074  16.888  1.00  0.00     0.020 A 
ATOM     76  C   UNL     1       1.700  -2.009  14.904  1.00  0.00     0.020 A 
ATOM     77  C   UNL     1       1.837  -2.020  16.293  1.00  0.00     0.054 A 
BRANCH  77  78
ATOM     78  S   UNL     1       0.372  -1.914  17.359  1.00  0.00     0.124 S 
ATOM     79  O   UNL     1       0.270  -3.276  17.871  1.00  0.00    -0.237 OA
ATOM     80  O   UNL     1       0.762  -0.898  18.333  1.00  0.00    -0.237 OA
ATOM     81  O   UNL     1      -0.689  -1.509  16.439  1.00  0.00    -0.744 OA
ENDBRANCH  77  78
ENDBRANCH  49  72
BRANCH  61  82
ATOM     82  C   UNL     1       8.976  -6.977  13.454  1.00  0.00    -0.014 A 
ATOM     83  C   UNL     1       8.128  -8.045  13.111  1.00  0.00     0.010 A 
ATOM     84  C   UNL     1      10.064  -7.214  14.314  1.00  0.00     0.010 A 
ATOM     85  C   UNL     1       8.335  -9.314  13.656  1.00  0.00     0.020 A 
ATOM     86  C   UNL     1      10.292  -8.489  14.838  1.00  0.00     0.020 A 
ATOM     87  C   UNL     1       9.414  -9.527  14.521  1.00  0.00     0.054 A 
BRANCH  87  88
ATOM     88  S   UNL     1       9.674 -11.187  15.203  1.00  0.00     0.124 S 
ATOM     89  O   UNL     1       8.625 -11.266  16.216  1.00  0.00    -0.237 OA
ATOM     90  O   UNL     1       9.488 -12.047  14.037  1.00  0.00    -0.237 OA
ATOM     91  O   UNL     1      11.039 -11.138  15.722  1.00  0.00    -0.744 OA
ENDBRANCH  87  88
ENDBRANCH  61  82
ENDBRANCH  35  36
ENDBRANCH  27  30
ENDBRANCH  25  26
ENDBRANCH  24  25
ENDBRANCH  23  24
ENDBRANCH  22  23
ENDBRANCH   1  22
TORSDOF 21
