REMARK SMILES O=C(Cc1ccccc1-c1ccn(C(F)F)c(=O)c1)NCCCCCCNC(=O)c1ccc(-c2c3nc(c(-c4ccc(S(=O)(=O)[O-])cc4)c4ccc([nH]4)c(-c4ccc(S(=O)(=O)[O-])cc4)c4nc(c(-c5ccc(S(=O)(=O)[O-])cc5)c5ccc2[nH]5)C=C4)C=C3)cc1
REMARK SMILES IDX 23 1 22 2 21 3 20 4 1 5 2 6 3 8 4 9 5 10 9 11 6 12 8 13 7 14
REMARK SMILES IDX 10 15 11 16 19 17 12 18 17 19 13 20 18 21 14 22 15 23 16 24
REMARK SMILES IDX 24 25 25 26 26 27 27 28 28 29 29 31 30 32 31 33 89 34 32 35
REMARK SMILES IDX 88 36 33 37 34 38 35 39 82 40 36 41 87 42 81 43 83 44 37 45
REMARK SMILES IDX 86 46 80 47 79 48 38 50 68 51 49 52 67 53 50 54 53 55 66 56
REMARK SMILES IDX 84 57 51 58 52 59 65 61 85 62 54 63 39 64 40 65 48 66 41 67
REMARK SMILES IDX 47 68 42 69 43 70 44 71 45 72 46 73 69 74 70 75 78 76 71 77
REMARK SMILES IDX 77 78 72 79 73 80 74 81 75 82 76 83 55 84 56 85 64 86 57 87
REMARK SMILES IDX 63 88 58 89 59 90 60 91 61 92 62 93
REMARK H PARENT 20 7 27 30 83 49 53 60
REMARK Flexibility Score: inf
ROOT
ATOM      1  C   UNL     1       4.093  -3.425   1.781  1.00  0.00     0.002 C 
ENDROOT
BRANCH   1   2
ATOM      2  C   UNL     1       2.586  -3.272   1.515  1.00  0.00     0.021 C 
BRANCH   2   3
ATOM      3  C   UNL     1       2.054  -1.842   1.633  1.00  0.00     0.116 C 
BRANCH   3   4
ATOM      4  N   UNL     1       2.810  -0.956   0.777  1.00  0.00    -0.356 N 
ATOM      5  O   UNL     1       1.071   0.150  -0.243  1.00  0.00    -0.275 OA
ATOM      6  C   UNL     1       2.273  -0.047  -0.104  1.00  0.00     0.224 C 
ATOM      7  H   UNL     1       3.792  -1.008   0.829  1.00  0.00     0.163 HD
BRANCH   6   8
ATOM      8  C   UNL     1       3.337   0.685  -0.914  1.00  0.00     0.136 C 
BRANCH   8   9
ATOM      9  C   UNL     1       3.958   1.838  -0.150  1.00  0.00    -0.031 A 
ATOM     10  C   UNL     1       4.920   1.552   0.840  1.00  0.00     0.005 A 
ATOM     11  C   UNL     1       3.602   3.185  -0.375  1.00  0.00    -0.014 A 
ATOM     12  C   UNL     1       5.471   2.560   1.628  1.00  0.00     0.000 A 
ATOM     13  C   UNL     1       4.160   4.191   0.434  1.00  0.00     0.009 A 
ATOM     14  C   UNL     1       5.081   3.878   1.434  1.00  0.00     0.001 A 
BRANCH  11  15
ATOM     15  C   UNL     1       2.729   3.582  -1.499  1.00  0.00    -0.011 A 
ATOM     16  C   UNL     1       1.312   3.287  -1.565  1.00  0.00     0.027 A 
ATOM     17  C   UNL     1       3.326   4.162  -2.556  1.00  0.00     0.080 A 
ATOM     18  C   UNL     1       0.628   3.505  -2.694  1.00  0.00     0.095 A 
ATOM     19  C   UNL     1       2.565   4.462  -3.798  1.00  0.00     0.255 A 
ATOM     20  N   UNL     1       1.240   4.062  -3.803  1.00  0.00    -0.258 N 
ATOM     21  O   UNL     1       3.154   5.005  -4.728  1.00  0.00    -0.269 OA
BRANCH  20  22
ATOM     22  C   UNL     1       0.513   4.232  -5.033  1.00  0.00     0.451 C 
ATOM     23  F   UNL     1       0.460   5.537  -5.396  1.00  0.00    -0.185 F 
ATOM     24  F   UNL     1       1.102   3.543  -6.043  1.00  0.00    -0.185 F 
ENDBRANCH  20  22
ENDBRANCH  11  15
ENDBRANCH   8   9
ENDBRANCH   6   8
ENDBRANCH   3   4
ENDBRANCH   2   3
ENDBRANCH   1   2
BRANCH   1  25
ATOM     25  C   UNL     1       4.565  -2.968   3.164  1.00  0.00     0.002 C 
BRANCH  25  26
ATOM     26  C   UNL     1       3.915  -3.702   4.337  1.00  0.00     0.021 C 
BRANCH  26  27
ATOM     27  C   UNL     1       4.074  -5.218   4.307  1.00  0.00     0.116 C 
BRANCH  27  28
ATOM     28  N   UNL     1       5.463  -5.634   4.416  1.00  0.00    -0.352 N 
ATOM     29  C   UNL     1       6.013  -6.596   5.227  1.00  0.00     0.251 C 
ATOM     30  H   UNL     1       6.096  -5.162   3.828  1.00  0.00     0.163 HD
ATOM     31  O   UNL     1       7.235  -6.696   5.316  1.00  0.00    -0.269 OA
BRANCH  29  32
ATOM     32  C   UNL     1       5.133  -7.492   6.010  1.00  0.00     0.039 A 
ATOM     33  C   UNL     1       5.454  -7.762   7.343  1.00  0.00     0.014 A 
ATOM     34  C   UNL     1       3.998  -8.068   5.432  1.00  0.00     0.014 A 
ATOM     35  C   UNL     1       4.611  -8.573   8.107  1.00  0.00     0.010 A 
ATOM     36  C   UNL     1       3.118  -8.808   6.217  1.00  0.00     0.010 A 
ATOM     37  C   UNL     1       3.422  -9.083   7.559  1.00  0.00    -0.014 A 
BRANCH  37  38
ATOM     38  C   UNL     1       2.508  -9.939   8.360  1.00  0.00     0.031 A 
ATOM     39  C   UNL     1       2.260 -11.367   7.945  1.00  0.00     0.074 A 
ATOM     40  C   UNL     1       1.875  -9.428   9.436  1.00  0.00     0.049 A 
ATOM     41  N   UNL     1       1.457 -12.252   8.477  1.00  0.00    -0.248 NA
ATOM     42  C   UNL     1       2.991 -11.856   6.764  1.00  0.00     0.031 C 
ATOM     43  C   UNL     1       2.002  -8.052   9.922  1.00  0.00     0.029 A 
ATOM     44  N   UNL     1       0.993 -10.008  10.314  1.00  0.00    -0.354 N 
ATOM     45  C   UNL     1       1.587 -13.397   7.698  1.00  0.00     0.074 A 
ATOM     46  C   UNL     1       2.490 -13.073   6.617  1.00  0.00     0.031 C 
ATOM     47  C   UNL     1       1.245  -7.902  11.022  1.00  0.00     0.029 A 
ATOM     48  C   UNL     1       0.548  -9.155  11.297  1.00  0.00     0.049 A 
ATOM     49  H   UNL     1       0.706 -10.948  10.247  1.00  0.00     0.167 HD
ATOM     50  C   UNL     1       1.032 -14.619   7.882  1.00  0.00     0.031 A 
ATOM     51  C   UNL     1      -0.329  -9.354  12.300  1.00  0.00     0.031 A 
ATOM     52  C   UNL     1       0.139 -14.944   8.962  1.00  0.00     0.049 A 
ATOM     53  C   UNL     1      -0.952 -10.716  12.468  1.00  0.00     0.074 A 
ATOM     54  C   UNL     1      -0.464 -16.158   9.244  1.00  0.00     0.029 A 
ATOM     55  N   UNL     1      -0.272 -14.056   9.944  1.00  0.00    -0.354 N 
ATOM     56  N   UNL     1      -0.785 -11.796  11.741  1.00  0.00    -0.248 NA
ATOM     57  C   UNL     1      -1.867 -10.893  13.604  1.00  0.00     0.031 C 
ATOM     58  C   UNL     1      -1.273 -15.993  10.372  1.00  0.00     0.029 A 
ATOM     59  C   UNL     1      -1.122 -14.694  10.831  1.00  0.00     0.049 A 
ATOM     60  H   UNL     1       0.001 -13.112  10.002  1.00  0.00     0.167 HD
ATOM     61  C   UNL     1      -1.537 -12.789  12.360  1.00  0.00     0.074 A 
ATOM     62  C   UNL     1      -2.148 -12.186  13.526  1.00  0.00     0.031 C 
ATOM     63  C   UNL     1      -1.706 -14.085  11.998  1.00  0.00     0.031 A 
BRANCH  50  64
ATOM     64  C   UNL     1       1.395 -15.705   6.903  1.00  0.00    -0.014 A 
ATOM     65  C   UNL     1       2.692 -16.250   6.882  1.00  0.00     0.010 A 
ATOM     66  C   UNL     1       0.419 -16.233   6.039  1.00  0.00     0.010 A 
ATOM     67  C   UNL     1       3.015 -17.281   5.997  1.00  0.00     0.020 A 
ATOM     68  C   UNL     1       0.729 -17.286   5.173  1.00  0.00     0.020 A 
ATOM     69  C   UNL     1       2.029 -17.795   5.150  1.00  0.00     0.054 A 
BRANCH  69  70
ATOM     70  S   UNL     1       2.467 -19.168   4.049  1.00  0.00     0.124 S 
ATOM     71  O   UNL     1       3.340 -18.510   3.079  1.00  0.00    -0.237 OA
ATOM     72  O   UNL     1       3.127 -20.105   4.954  1.00  0.00    -0.237 OA
ATOM     73  O   UNL     1       1.180 -19.616   3.522  1.00  0.00    -0.744 OA
ENDBRANCH  69  70
ENDBRANCH  50  64
BRANCH  51  74
ATOM     74  C   UNL     1      -0.680  -8.242  13.229  1.00  0.00    -0.014 A 
ATOM     75  C   UNL     1      -0.322  -8.295  14.588  1.00  0.00     0.010 A 
ATOM     76  C   UNL     1      -1.413  -7.136  12.761  1.00  0.00     0.010 A 
ATOM     77  C   UNL     1      -0.732  -7.290  15.470  1.00  0.00     0.020 A 
ATOM     78  C   UNL     1      -1.794  -6.111  13.632  1.00  0.00     0.020 A 
ATOM     79  C   UNL     1      -1.471  -6.207  14.986  1.00  0.00     0.054 A 
BRANCH  79  80
ATOM     80  S   UNL     1      -1.994  -4.913  16.146  1.00  0.00     0.124 S 
ATOM     81  O   UNL     1      -3.053  -5.585  16.891  1.00  0.00    -0.237 OA
ATOM     82  O   UNL     1      -0.767  -4.643  16.892  1.00  0.00    -0.237 OA
ATOM     83  O   UNL     1      -2.433  -3.828  15.271  1.00  0.00    -0.744 OA
ENDBRANCH  79  80
ENDBRANCH  51  74
BRANCH  63  84
ATOM     84  C   UNL     1      -2.525 -14.961  12.911  1.00  0.00    -0.014 A 
ATOM     85  C   UNL     1      -3.915 -14.800  13.041  1.00  0.00     0.010 A 
ATOM     86  C   UNL     1      -1.886 -15.994  13.624  1.00  0.00     0.010 A 
ATOM     87  C   UNL     1      -4.644 -15.624  13.904  1.00  0.00     0.020 A 
ATOM     88  C   UNL     1      -2.615 -16.841  14.460  1.00  0.00     0.020 A 
ATOM     89  C   UNL     1      -3.988 -16.638  14.610  1.00  0.00     0.054 A 
BRANCH  89  90
ATOM     90  S   UNL     1      -4.959 -17.709  15.705  1.00  0.00     0.124 S 
ATOM     91  O   UNL     1      -5.255 -16.815  16.820  1.00  0.00    -0.237 OA
ATOM     92  O   UNL     1      -6.101 -18.070  14.868  1.00  0.00    -0.237 OA
ATOM     93  O   UNL     1      -4.048 -18.809  16.012  1.00  0.00    -0.744 OA
ENDBRANCH  89  90
ENDBRANCH  63  84
ENDBRANCH  37  38
ENDBRANCH  29  32
ENDBRANCH  27  28
ENDBRANCH  26  27
ENDBRANCH  25  26
ENDBRANCH   1  25
TORSDOF 19
