REMARK SMILES Cc1cc(NC(=O)N2CCO[C@@H](CC(=O)NCCCCCCNC(=O)c3ccc(-c4c5nc(c(-c6ccc(S(=O)(=O)[O-])cc6)c6ccc([nH]6)c(-c6ccc(S(=O)(=O)[O-])cc6)c6nc(c(-c7ccc(S(=O)(=O)[O-])cc7)c7ccc4[nH]7)C=C6)C=C5)cc3)C2)ccc1F
REMARK SMILES IDX 19 1 18 2 17 3 16 4 14 5 15 6 13 8 12 9 8 10 9 11 86 12
REMARK SMILES IDX 10 13 11 14 6 15 5 16 7 18 4 19 1 20 2 21 3 22 89 23 88 24
REMARK SMILES IDX 90 25 87 26 20 27 21 28 22 29 23 30 24 31 25 33 26 34 27 35
REMARK SMILES IDX 85 36 28 37 84 38 29 39 30 40 31 41 78 42 32 43 83 44 77 45
REMARK SMILES IDX 79 46 33 47 82 48 76 49 75 50 34 52 64 53 45 54 63 55 46 56
REMARK SMILES IDX 49 57 62 58 80 59 47 60 48 61 61 63 81 64 50 65 35 66 36 67
REMARK SMILES IDX 44 68 37 69 43 70 38 71 39 72 40 73 41 74 42 75 65 76 66 77
REMARK SMILES IDX 74 78 67 79 73 80 68 81 69 82 70 83 71 84 72 85 51 86 52 87
REMARK SMILES IDX 60 88 53 89 59 90 54 91 55 92 56 93 57 94 58 95
REMARK H PARENT 16 7 5 17 23 32 79 51 49 62
REMARK Flexibility Score: inf
ROOT
ATOM      1  C   UNL     1      -8.985  -0.744  -2.097  1.00  0.00     0.002 C 
ENDROOT
BRANCH   1   2
ATOM      2  C   UNL     1      -7.804  -1.423  -1.406  1.00  0.00     0.021 C 
BRANCH   2   3
ATOM      3  C   UNL     1      -8.006  -2.918  -1.132  1.00  0.00     0.116 C 
BRANCH   3   4
ATOM      4  N   UNL     1      -7.295  -3.718  -2.120  1.00  0.00    -0.356 N 
ATOM      5  C   UNL     1      -6.169  -4.477  -2.003  1.00  0.00     0.222 C 
ATOM      6  O   UNL     1      -5.668  -4.944  -3.028  1.00  0.00    -0.275 OA
ATOM      7  H   UNL     1      -7.693  -3.710  -3.020  1.00  0.00     0.163 HD
BRANCH   5   8
ATOM      8  C   UNL     1      -5.543  -4.733  -0.651  1.00  0.00     0.133 C 
BRANCH   8   9
ATOM      9  C   UNL     1      -4.361  -3.808  -0.363  1.00  0.00     0.147 C 
ATOM     10  N   UNL     1      -3.767  -1.472   0.264  1.00  0.00    -0.320 N 
ATOM     11  C   UNL     1      -3.058  -1.984   1.439  1.00  0.00     0.150 C 
ATOM     12  C   UNL     1      -4.816  -2.349  -0.220  1.00  0.00     0.154 C 
ATOM     13  C   UNL     1      -2.619  -3.434   1.217  1.00  0.00     0.182 C 
ATOM     14  O   UNL     1      -3.739  -4.263   0.860  1.00  0.00    -0.374 OA
BRANCH  10  15
ATOM     15  C   UNL     1      -3.899  -0.127   0.010  1.00  0.00     0.322 C 
ATOM     16  N   UNL     1      -2.798   0.671   0.064  1.00  0.00    -0.308 N 
ATOM     17  H   UNL     1      -2.977   1.604   0.321  1.00  0.00     0.171 HD
ATOM     18  O   UNL     1      -4.992   0.382  -0.251  1.00  0.00    -0.248 OA
BRANCH  16  19
ATOM     19  C   UNL     1      -1.446   0.377  -0.186  1.00  0.00     0.043 A 
ATOM     20  C   UNL     1       1.885   2.160   0.311  1.00  0.00     0.047 C 
ATOM     21  C   UNL     1       0.868   1.128  -0.066  1.00  0.00    -0.013 A 
ATOM     22  C   UNL     1      -0.501   1.360   0.134  1.00  0.00     0.032 A 
ATOM     23  C   UNL     1       1.273  -0.105  -0.578  1.00  0.00     0.126 A 
ATOM     24  C   UNL     1       0.345  -1.069  -0.947  1.00  0.00     0.041 A 
ATOM     25  F   UNL     1       2.577  -0.372  -0.732  1.00  0.00    -0.207 F 
ATOM     26  C   UNL     1      -1.015  -0.816  -0.775  1.00  0.00     0.029 A 
ENDBRANCH  16  19
ENDBRANCH  10  15
ENDBRANCH   8   9
ENDBRANCH   5   8
ENDBRANCH   3   4
ENDBRANCH   2   3
ENDBRANCH   1   2
BRANCH   1  27
ATOM     27  C   UNL     1     -10.218  -0.542  -1.214  1.00  0.00     0.002 C 
BRANCH  27  28
ATOM     28  C   UNL     1      -9.986   0.223   0.096  1.00  0.00     0.021 C 
BRANCH  28  29
ATOM     29  C   UNL     1      -9.268   1.566  -0.038  1.00  0.00     0.116 C 
BRANCH  29  30
ATOM     30  N   UNL     1      -9.986   2.483  -0.908  1.00  0.00    -0.352 N 
ATOM     31  C   UNL     1     -10.566   3.694  -0.639  1.00  0.00     0.251 C 
ATOM     32  H   UNL     1     -10.069   2.184  -1.843  1.00  0.00     0.163 HD
ATOM     33  O   UNL     1     -11.311   4.201  -1.474  1.00  0.00    -0.269 OA
BRANCH  31  34
ATOM     34  C   UNL     1     -10.314   4.398   0.640  1.00  0.00     0.039 A 
ATOM     35  C   UNL     1     -11.382   5.057   1.259  1.00  0.00     0.014 A 
ATOM     36  C   UNL     1      -9.032   4.485   1.191  1.00  0.00     0.014 A 
ATOM     37  C   UNL     1     -11.171   5.776   2.438  1.00  0.00     0.010 A 
ATOM     38  C   UNL     1      -8.834   5.154   2.401  1.00  0.00     0.010 A 
ATOM     39  C   UNL     1      -9.897   5.822   3.026  1.00  0.00    -0.014 A 
BRANCH  39  40
ATOM     40  C   UNL     1      -9.669   6.595   4.276  1.00  0.00     0.031 A 
ATOM     41  C   UNL     1      -8.808   7.831   4.260  1.00  0.00     0.074 A 
ATOM     42  C   UNL     1     -10.212   6.169   5.433  1.00  0.00     0.049 A 
ATOM     43  N   UNL     1      -8.504   8.636   5.247  1.00  0.00    -0.248 NA
ATOM     44  C   UNL     1      -8.187   8.199   2.977  1.00  0.00     0.031 C 
ATOM     45  C   UNL     1     -11.018   4.956   5.596  1.00  0.00     0.029 A 
ATOM     46  N   UNL     1     -10.166   6.707   6.695  1.00  0.00    -0.354 N 
ATOM     47  C   UNL     1      -7.644   9.588   4.711  1.00  0.00     0.074 A 
ATOM     48  C   UNL     1      -7.444   9.241   3.321  1.00  0.00     0.031 C 
ATOM     49  C   UNL     1     -11.403   4.853   6.879  1.00  0.00     0.029 A 
ATOM     50  C   UNL     1     -10.860   5.979   7.632  1.00  0.00     0.049 A 
ATOM     51  H   UNL     1      -9.681   7.537   6.909  1.00  0.00     0.167 HD
ATOM     52  C   UNL     1      -7.084  10.664   5.316  1.00  0.00     0.031 A 
ATOM     53  C   UNL     1     -11.042   6.194   8.949  1.00  0.00     0.031 A 
ATOM     54  C   UNL     1      -7.309  11.030   6.689  1.00  0.00     0.049 A 
ATOM     55  C   UNL     1     -10.456   7.426   9.583  1.00  0.00     0.074 A 
ATOM     56  C   UNL     1      -6.852  12.147   7.368  1.00  0.00     0.029 A 
ATOM     57  N   UNL     1      -8.056  10.291   7.592  1.00  0.00    -0.354 N 
ATOM     58  N   UNL     1      -9.717   8.361   9.035  1.00  0.00    -0.248 NA
ATOM     59  C   UNL     1     -10.748   7.642  11.007  1.00  0.00     0.031 C 
ATOM     60  C   UNL     1      -7.292  12.063   8.694  1.00  0.00     0.029 A 
ATOM     61  C   UNL     1      -8.059  10.918   8.827  1.00  0.00     0.049 A 
ATOM     62  H   UNL     1      -8.518   9.446   7.387  1.00  0.00     0.167 HD
ATOM     63  C   UNL     1      -9.473   9.287  10.043  1.00  0.00     0.074 A 
ATOM     64  C   UNL     1     -10.161   8.810  11.226  1.00  0.00     0.031 C 
ATOM     65  C   UNL     1      -8.744  10.429   9.995  1.00  0.00     0.031 A 
BRANCH  52  66
ATOM     66  C   UNL     1      -6.168  11.530   4.493  1.00  0.00    -0.014 A 
ATOM     67  C   UNL     1      -6.676  12.383   3.496  1.00  0.00     0.010 A 
ATOM     68  C   UNL     1      -4.787  11.534   4.760  1.00  0.00     0.010 A 
ATOM     69  C   UNL     1      -5.814  13.200   2.758  1.00  0.00     0.020 A 
ATOM     70  C   UNL     1      -3.925  12.367   4.040  1.00  0.00     0.020 A 
ATOM     71  C   UNL     1      -4.444  13.184   3.033  1.00  0.00     0.054 A 
BRANCH  71  72
ATOM     72  S   UNL     1      -3.351  14.280   2.085  1.00  0.00     0.124 S 
ATOM     73  O   UNL     1      -3.268  13.586   0.803  1.00  0.00    -0.237 OA
ATOM     74  O   UNL     1      -4.092  15.539   2.071  1.00  0.00    -0.237 OA
ATOM     75  O   UNL     1      -2.116  14.297   2.865  1.00  0.00    -0.744 OA
ENDBRANCH  71  72
ENDBRANCH  52  66
BRANCH  53  76
ATOM     76  C   UNL     1     -11.832   5.228   9.759  1.00  0.00    -0.014 A 
ATOM     77  C   UNL     1     -13.120   5.561  10.216  1.00  0.00     0.010 A 
ATOM     78  C   UNL     1     -11.295   3.969  10.080  1.00  0.00     0.010 A 
ATOM     79  C   UNL     1     -13.845   4.662  11.003  1.00  0.00     0.020 A 
ATOM     80  C   UNL     1     -12.027   3.058  10.846  1.00  0.00     0.020 A 
ATOM     81  C   UNL     1     -13.292   3.417  11.316  1.00  0.00     0.054 A 
BRANCH  81  82
ATOM     82  S   UNL     1     -14.263   2.246  12.306  1.00  0.00     0.124 S 
ATOM     83  O   UNL     1     -14.088   2.774  13.655  1.00  0.00    -0.237 OA
ATOM     84  O   UNL     1     -15.603   2.384  11.741  1.00  0.00    -0.237 OA
ATOM     85  O   UNL     1     -13.615   0.963  12.044  1.00  0.00    -0.744 OA
ENDBRANCH  81  82
ENDBRANCH  53  76
BRANCH  65  86
ATOM     86  C   UNL     1      -8.673  11.251  11.253  1.00  0.00    -0.014 A 
ATOM     87  C   UNL     1      -7.902  10.831  12.352  1.00  0.00     0.010 A 
ATOM     88  C   UNL     1      -9.366  12.472  11.327  1.00  0.00     0.010 A 
ATOM     89  C   UNL     1      -7.862  11.597  13.520  1.00  0.00     0.020 A 
ATOM     90  C   UNL     1      -9.308  13.253  12.484  1.00  0.00     0.020 A 
ATOM     91  C   UNL     1      -8.572  12.800  13.581  1.00  0.00     0.054 A 
BRANCH  91  92
ATOM     92  S   UNL     1      -8.493  13.789  15.099  1.00  0.00     0.124 S 
ATOM     93  O   UNL     1      -9.424  13.079  15.971  1.00  0.00    -0.237 OA
ATOM     94  O   UNL     1      -7.084  13.696  15.474  1.00  0.00    -0.237 OA
ATOM     95  O   UNL     1      -8.930  15.116  14.669  1.00  0.00    -0.744 OA
ENDBRANCH  91  92
ENDBRANCH  65  86
ENDBRANCH  39  40
ENDBRANCH  31  34
ENDBRANCH  29  30
ENDBRANCH  28  29
ENDBRANCH  27  28
ENDBRANCH   1  27
TORSDOF 19
