REMARK SMILES CC(C)(C)c1ccc(NC(=O)CCC(=O)NCCCCCCNC(=O)c2ccc(-c3c4nc(c(-c5ccc(S(=O)(=O)[O-])cc5)c5ccc([nH]5)c(-c5ccc(S(=O)(=O)[O-])cc5)c5nc(c(-c6ccc(S(=O)(=O)[O-])cc6)c6ccc3[nH]6)C=C5)C=C4)cc2)cc1
REMARK SMILES IDX 19 1 18 2 17 3 16 4 14 5 15 6 13 8 12 9 10 10 9 11 11 13
REMARK SMILES IDX 8 14 5 15 6 16 87 17 7 18 86 19 2 20 1 21 3 22 4 23 20 24
REMARK SMILES IDX 21 25 22 26 23 27 24 28 25 30 26 31 27 32 85 33 28 34 84 35
REMARK SMILES IDX 29 36 30 37 31 38 78 39 32 40 83 41 77 42 79 43 33 44 82 45
REMARK SMILES IDX 76 46 75 47 34 49 64 50 45 51 63 52 46 53 49 54 62 55 80 56
REMARK SMILES IDX 47 57 48 58 61 60 81 61 50 62 35 63 36 64 44 65 37 66 43 67
REMARK SMILES IDX 38 68 39 69 40 70 41 71 42 72 65 73 66 74 74 75 67 76 73 77
REMARK SMILES IDX 68 78 69 79 70 80 71 81 72 82 51 83 52 84 60 85 53 86 59 87
REMARK SMILES IDX 54 88 55 89 56 90 57 91 58 92
REMARK H PARENT 16 7 9 12 23 29 79 48 49 59
REMARK Flexibility Score: inf
ROOT
ATOM      1  C   UNL     1       0.569   6.830   2.444  1.00  0.00     0.002 C 
ENDROOT
BRANCH   1   2
ATOM      2  C   UNL     1       1.011   6.386   3.841  1.00  0.00     0.021 C 
BRANCH   2   3
ATOM      3  C   UNL     1       0.012   5.508   4.587  1.00  0.00     0.116 C 
BRANCH   3   4
ATOM      4  N   UNL     1      -0.263   4.261   3.898  1.00  0.00    -0.356 N 
ATOM      5  C   UNL     1      -0.179   2.980   4.353  1.00  0.00     0.220 C 
ATOM      6  O   UNL     1      -0.595   2.066   3.639  1.00  0.00    -0.275 OA
ATOM      7  H   UNL     1      -0.553   4.354   2.962  1.00  0.00     0.163 HD
BRANCH   5   8
ATOM      8  C   UNL     1       0.389   2.699   5.724  1.00  0.00     0.110 C 
BRANCH   8   9
ATOM      9  C   UNL     1       1.890   2.442   5.785  1.00  0.00     0.110 C 
BRANCH   9  10
ATOM     10  C   UNL     1       2.788   3.547   5.269  1.00  0.00     0.224 C 
ATOM     11  N   UNL     1       3.154   3.665   3.958  1.00  0.00    -0.326 N 
ATOM     12  H   UNL     1       3.832   4.355   3.777  1.00  0.00     0.169 HD
ATOM     13  O   UNL     1       3.159   4.437   6.044  1.00  0.00    -0.275 OA
BRANCH  11  14
ATOM     14  C   UNL     1       2.717   2.957   2.831  1.00  0.00     0.041 A 
ATOM     15  C   UNL     1       1.456   1.715   0.621  1.00  0.00    -0.042 A 
ATOM     16  C   UNL     1       1.930   0.970   1.713  1.00  0.00     0.006 A 
ATOM     17  C   UNL     1       1.704   3.096   0.634  1.00  0.00     0.006 A 
ATOM     18  C   UNL     1       2.560   1.582   2.800  1.00  0.00     0.026 A 
ATOM     19  C   UNL     1       2.371   3.701   1.703  1.00  0.00     0.026 A 
BRANCH  15  20
ATOM     20  C   UNL     1       0.668   1.062  -0.526  1.00  0.00    -0.013 C 
ATOM     21  C   UNL     1       0.885  -0.465  -0.605  1.00  0.00     0.016 C 
ATOM     22  C   UNL     1       1.087   1.650  -1.891  1.00  0.00     0.016 C 
ATOM     23  C   UNL     1      -0.838   1.320  -0.310  1.00  0.00     0.016 C 
ENDBRANCH  15  20
ENDBRANCH  11  14
ENDBRANCH   9  10
ENDBRANCH   8   9
ENDBRANCH   5   8
ENDBRANCH   3   4
ENDBRANCH   2   3
ENDBRANCH   1   2
BRANCH   1  24
ATOM     24  C   UNL     1      -0.619   7.789   2.433  1.00  0.00     0.002 C 
BRANCH  24  25
ATOM     25  C   UNL     1      -0.445   9.023   3.318  1.00  0.00     0.021 C 
BRANCH  25  26
ATOM     26  C   UNL     1       0.863   9.776   3.103  1.00  0.00     0.116 C 
BRANCH  26  27
ATOM     27  N   UNL     1       1.003  10.243   1.735  1.00  0.00    -0.352 N 
ATOM     28  C   UNL     1       1.262  11.518   1.297  1.00  0.00     0.251 C 
ATOM     29  H   UNL     1       0.898   9.560   1.034  1.00  0.00     0.163 HD
ATOM     30  O   UNL     1       1.145  11.807   0.115  1.00  0.00    -0.269 OA
BRANCH  28  31
ATOM     31  C   UNL     1       1.674  12.531   2.287  1.00  0.00     0.039 A 
ATOM     32  C   UNL     1       1.033  13.769   2.296  1.00  0.00     0.014 A 
ATOM     33  C   UNL     1       2.678  12.238   3.216  1.00  0.00     0.014 A 
ATOM     34  C   UNL     1       1.393  14.714   3.255  1.00  0.00     0.010 A 
ATOM     35  C   UNL     1       2.970  13.148   4.225  1.00  0.00     0.010 A 
ATOM     36  C   UNL     1       2.357  14.408   4.232  1.00  0.00    -0.014 A 
BRANCH  36  37
ATOM     37  C   UNL     1       2.776  15.430   5.220  1.00  0.00     0.031 A 
ATOM     38  C   UNL     1       4.188  15.955   5.199  1.00  0.00     0.074 A 
ATOM     39  C   UNL     1       1.891  15.883   6.130  1.00  0.00     0.049 A 
ATOM     40  N   UNL     1       4.730  16.889   5.936  1.00  0.00    -0.248 NA
ATOM     41  C   UNL     1       5.119  15.335   4.241  1.00  0.00     0.031 C 
ATOM     42  C   UNL     1       0.511  15.412   6.277  1.00  0.00     0.029 A 
ATOM     43  N   UNL     1       2.016  16.853   7.091  1.00  0.00    -0.354 N 
ATOM     44  C   UNL     1       6.060  16.961   5.535  1.00  0.00     0.074 A 
ATOM     45  C   UNL     1       6.262  15.930   4.544  1.00  0.00     0.031 C 
ATOM     46  C   UNL     1      -0.096  16.128   7.237  1.00  0.00     0.029 A 
ATOM     47  C   UNL     1       0.857  17.083   7.795  1.00  0.00     0.049 A 
ATOM     48  H   UNL     1       2.855  17.338   7.262  1.00  0.00     0.167 HD
ATOM     49  C   UNL     1       7.021  17.828   5.934  1.00  0.00     0.031 A 
ATOM     50  C   UNL     1       0.591  17.973   8.770  1.00  0.00     0.031 A 
ATOM     51  C   UNL     1       6.810  18.856   6.917  1.00  0.00     0.049 A 
ATOM     52  C   UNL     1       1.673  18.929   9.193  1.00  0.00     0.074 A 
ATOM     53  C   UNL     1       7.699  19.817   7.363  1.00  0.00     0.029 A 
ATOM     54  N   UNL     1       5.623  19.055   7.607  1.00  0.00    -0.354 N 
ATOM     55  N   UNL     1       2.906  19.028   8.754  1.00  0.00    -0.248 NA
ATOM     56  C   UNL     1       1.319  19.910  10.226  1.00  0.00     0.031 C 
ATOM     57  C   UNL     1       7.068  20.561   8.366  1.00  0.00     0.029 A 
ATOM     58  C   UNL     1       5.762  20.112   8.491  1.00  0.00     0.049 A 
ATOM     59  H   UNL     1       4.803  18.524   7.487  1.00  0.00     0.167 HD
ATOM     60  C   UNL     1       3.464  20.107   9.432  1.00  0.00     0.074 A 
ATOM     61  C   UNL     1       2.426  20.636  10.294  1.00  0.00     0.031 C 
ATOM     62  C   UNL     1       4.718  20.619   9.346  1.00  0.00     0.031 A 
BRANCH  49  63
ATOM     63  C   UNL     1       8.385  17.692   5.305  1.00  0.00    -0.014 A 
ATOM     64  C   UNL     1       8.593  17.979   3.943  1.00  0.00     0.010 A 
ATOM     65  C   UNL     1       9.481  17.297   6.093  1.00  0.00     0.010 A 
ATOM     66  C   UNL     1       9.859  17.831   3.371  1.00  0.00     0.020 A 
ATOM     67  C   UNL     1      10.757  17.180   5.533  1.00  0.00     0.020 A 
ATOM     68  C   UNL     1      10.934  17.431   4.170  1.00  0.00     0.054 A 
BRANCH  68  69
ATOM     69  S   UNL     1      12.571  17.272   3.407  1.00  0.00     0.124 S 
ATOM     70  O   UNL     1      12.405  16.077   2.583  1.00  0.00    -0.237 OA
ATOM     71  O   UNL     1      12.704  18.528   2.673  1.00  0.00    -0.237 OA
ATOM     72  O   UNL     1      13.473  17.121   4.547  1.00  0.00    -0.744 OA
ENDBRANCH  68  69
ENDBRANCH  49  63
BRANCH  50  73
ATOM     73  C   UNL     1      -0.766  18.025   9.383  1.00  0.00    -0.014 A 
ATOM     74  C   UNL     1      -1.613  19.126   9.167  1.00  0.00     0.010 A 
ATOM     75  C   UNL     1      -1.221  16.964  10.188  1.00  0.00     0.010 A 
ATOM     76  C   UNL     1      -2.877  19.178   9.764  1.00  0.00     0.020 A 
ATOM     77  C   UNL     1      -2.495  16.997  10.759  1.00  0.00     0.020 A 
ATOM     78  C   UNL     1      -3.311  18.111  10.555  1.00  0.00     0.054 A 
BRANCH  78  79
ATOM     79  S   UNL     1      -4.970  18.180  11.285  1.00  0.00     0.124 S 
ATOM     80  O   UNL     1      -4.805  19.197  12.319  1.00  0.00    -0.237 OA
ATOM     81  O   UNL     1      -5.799  18.564  10.145  1.00  0.00    -0.237 OA
ATOM     82  O   UNL     1      -5.186  16.820  11.774  1.00  0.00    -0.744 OA
ENDBRANCH  78  79
ENDBRANCH  50  73
BRANCH  62  83
ATOM     83  C   UNL     1       5.019  21.843  10.172  1.00  0.00    -0.014 A 
ATOM     84  C   UNL     1       5.084  21.789  11.576  1.00  0.00     0.010 A 
ATOM     85  C   UNL     1       5.257  23.068   9.522  1.00  0.00     0.010 A 
ATOM     86  C   UNL     1       5.318  22.951  12.316  1.00  0.00     0.020 A 
ATOM     87  C   UNL     1       5.529  24.224  10.256  1.00  0.00     0.020 A 
ATOM     88  C   UNL     1       5.532  24.163  11.650  1.00  0.00     0.054 A 
BRANCH  88  89
ATOM     89  S   UNL     1       5.832  25.657  12.632  1.00  0.00     0.124 S 
ATOM     90  O   UNL     1       4.504  25.937  13.170  1.00  0.00    -0.237 OA
ATOM     91  O   UNL     1       6.823  25.207  13.606  1.00  0.00    -0.237 OA
ATOM     92  O   UNL     1       6.324  26.623  11.652  1.00  0.00    -0.744 OA
ENDBRANCH  88  89
ENDBRANCH  62  83
ENDBRANCH  36  37
ENDBRANCH  28  31
ENDBRANCH  26  27
ENDBRANCH  25  26
ENDBRANCH  24  25
ENDBRANCH   1  24
TORSDOF 20
