REMARK SMILES Cc1ccc(NC(=O)c2cccnc2C(=O)NCCCCCCNC(=O)c2ccc(-c3c4nc(c(-c5ccc(S(=O)(=O)[O-])cc5)c5ccc([nH]5)c(-c5ccc(S(=O)(=O)[O-])cc5)c5nc(c(-c6ccc(S(=O)(=O)[O-])cc6)c6ccc3[nH]6)C=C5)C=C4)cc2)nc1
REMARK SMILES IDX 21 1 20 2 19 3 18 4 17 5 15 6 16 7 14 9 9 10 10 11 11 12
REMARK SMILES IDX 13 13 12 14 7 15 6 16 8 18 5 19 1 20 2 21 3 22 88 23 4 24
REMARK SMILES IDX 87 25 22 26 23 27 24 28 25 29 26 31 27 32 28 33 86 34 29 35
REMARK SMILES IDX 85 36 30 37 31 38 32 39 79 40 33 41 84 42 78 43 80 44 34 45
REMARK SMILES IDX 83 46 77 47 76 48 35 50 65 51 46 52 64 53 47 54 50 55 63 56
REMARK SMILES IDX 81 57 48 58 49 59 62 61 82 62 51 63 36 64 37 65 45 66 38 67
REMARK SMILES IDX 44 68 39 69 40 70 41 71 42 72 43 73 66 74 67 75 75 76 68 77
REMARK SMILES IDX 74 78 69 79 70 80 71 81 72 82 73 83 52 84 53 85 61 86 54 87
REMARK SMILES IDX 60 88 55 89 56 90 57 91 58 92 59 93
REMARK H PARENT 17 8 6 17 24 30 80 49 50 60
REMARK Flexibility Score: inf
ROOT
ATOM      1  C   UNL     1      -7.032   0.586  -3.187  1.00  0.00     0.002 C 
ENDROOT
BRANCH   1   2
ATOM      2  C   UNL     1      -6.268  -0.731  -3.346  1.00  0.00     0.002 C 
BRANCH   2   3
ATOM      3  C   UNL     1      -5.245  -1.018  -2.243  1.00  0.00     0.021 C 
BRANCH   3   4
ATOM      4  C   UNL     1      -5.865  -1.335  -0.877  1.00  0.00     0.116 C 
BRANCH   4   5
ATOM      5  N   UNL     1      -6.045  -2.765  -0.740  1.00  0.00    -0.351 N 
ATOM      6  C   UNL     1      -5.400  -3.745  -0.024  1.00  0.00     0.270 C 
ATOM      7  O   UNL     1      -5.787  -4.901  -0.235  1.00  0.00    -0.267 OA
ATOM      8  H   UNL     1      -6.793  -3.112  -1.278  1.00  0.00     0.163 HD
BRANCH   6   9
ATOM      9  C   UNL     1      -4.387  -3.507   1.064  1.00  0.00     0.140 A 
ATOM     10  C   UNL     1      -3.349  -2.585   1.066  1.00  0.00     0.071 A 
ATOM     11  C   UNL     1      -2.496  -2.535   2.188  1.00  0.00     0.018 A 
ATOM     12  C   UNL     1      -2.652  -3.439   3.230  1.00  0.00     0.021 A 
ATOM     13  N   UNL     1      -4.560  -4.376   2.115  1.00  0.00    -0.250 NA
ATOM     14  C   UNL     1      -3.678  -4.352   3.135  1.00  0.00     0.112 A 
BRANCH  10  15
ATOM     15  C   UNL     1      -2.868  -1.885  -0.131  1.00  0.00     0.259 C 
ATOM     16  N   UNL     1      -2.440  -0.587   0.067  1.00  0.00    -0.306 N 
ATOM     17  H   UNL     1      -3.078   0.107   0.350  1.00  0.00     0.171 HD
ATOM     18  O   UNL     1      -2.789  -2.506  -1.187  1.00  0.00    -0.269 OA
BRANCH  16  19
ATOM     19  C   UNL     1      -1.090  -0.262  -0.138  1.00  0.00     0.132 A 
ATOM     20  C   UNL     1       3.088   0.466  -0.070  1.00  0.00     0.046 C 
ATOM     21  C   UNL     1       1.608   0.267  -0.127  1.00  0.00    -0.033 A 
ATOM     22  C   UNL     1       0.701   1.316   0.024  1.00  0.00     0.009 A 
ATOM     23  C   UNL     1       1.089  -1.007  -0.293  1.00  0.00     0.117 A 
ATOM     24  C   UNL     1      -0.671   1.050   0.029  1.00  0.00     0.047 A 
ATOM     25  N   UNL     1      -0.228  -1.284  -0.299  1.00  0.00    -0.239 NA
ENDBRANCH  16  19
ENDBRANCH  10  15
ENDBRANCH   6   9
ENDBRANCH   4   5
ENDBRANCH   3   4
ENDBRANCH   2   3
ENDBRANCH   1   2
BRANCH   1  26
ATOM     26  C   UNL     1      -6.157   1.836  -3.052  1.00  0.00     0.021 C 
BRANCH  26  27
ATOM     27  C   UNL     1      -5.179   2.061  -4.204  1.00  0.00     0.116 C 
BRANCH  27  28
ATOM     28  N   UNL     1      -5.874   2.254  -5.467  1.00  0.00    -0.352 N 
ATOM     29  C   UNL     1      -5.943   3.369  -6.263  1.00  0.00     0.251 C 
ATOM     30  H   UNL     1      -6.368   1.470  -5.799  1.00  0.00     0.163 HD
ATOM     31  O   UNL     1      -6.788   3.437  -7.151  1.00  0.00    -0.269 OA
BRANCH  29  32
ATOM     32  C   UNL     1      -5.002   4.490  -6.051  1.00  0.00     0.039 A 
ATOM     33  C   UNL     1      -5.483   5.801  -6.096  1.00  0.00     0.014 A 
ATOM     34  C   UNL     1      -3.640   4.249  -5.847  1.00  0.00     0.014 A 
ATOM     35  C   UNL     1      -4.607   6.869  -5.888  1.00  0.00     0.010 A 
ATOM     36  C   UNL     1      -2.781   5.310  -5.572  1.00  0.00     0.010 A 
ATOM     37  C   UNL     1      -3.253   6.631  -5.600  1.00  0.00    -0.014 A 
BRANCH  37  38
ATOM     38  C   UNL     1      -2.310   7.750  -5.342  1.00  0.00     0.031 A 
ATOM     39  C   UNL     1      -1.163   8.001  -6.285  1.00  0.00     0.074 A 
ATOM     40  C   UNL     1      -2.452   8.501  -4.232  1.00  0.00     0.049 A 
ATOM     41  N   UNL     1      -0.197   8.879  -6.192  1.00  0.00    -0.248 NA
ATOM     42  C   UNL     1      -1.076   7.137  -7.474  1.00  0.00     0.031 C 
ATOM     43  C   UNL     1      -3.503   8.336  -3.224  1.00  0.00     0.029 A 
ATOM     44  N   UNL     1      -1.703   9.550  -3.760  1.00  0.00    -0.354 N 
ATOM     45  C   UNL     1       0.618   8.663  -7.298  1.00  0.00     0.074 A 
ATOM     46  C   UNL     1       0.062   7.541  -8.020  1.00  0.00     0.031 C 
ATOM     47  C   UNL     1      -3.345   9.266  -2.268  1.00  0.00     0.029 A 
ATOM     48  C   UNL     1      -2.162  10.066  -2.570  1.00  0.00     0.049 A 
ATOM     49  H   UNL     1      -0.912   9.901  -4.229  1.00  0.00     0.167 HD
ATOM     50  C   UNL     1       1.718   9.350  -7.688  1.00  0.00     0.031 A 
ATOM     51  C   UNL     1      -1.681  11.065  -1.805  1.00  0.00     0.031 A 
ATOM     52  C   UNL     1       2.260  10.477  -6.975  1.00  0.00     0.049 A 
ATOM     53  C   UNL     1      -0.452  11.806  -2.256  1.00  0.00     0.074 A 
ATOM     54  C   UNL     1       3.343  11.269  -7.314  1.00  0.00     0.029 A 
ATOM     55  N   UNL     1       1.757  10.975  -5.783  1.00  0.00    -0.354 N 
ATOM     56  N   UNL     1       0.275  11.619  -3.331  1.00  0.00    -0.248 NA
ATOM     57  C   UNL     1       0.015  12.902  -1.395  1.00  0.00     0.031 C 
ATOM     58  C   UNL     1       3.523  12.217  -6.302  1.00  0.00     0.029 A 
ATOM     59  C   UNL     1       2.518  12.052  -5.363  1.00  0.00     0.049 A 
ATOM     60  H   UNL     1       0.974  10.616  -5.306  1.00  0.00     0.167 HD
ATOM     61  C   UNL     1       1.266  12.593  -3.292  1.00  0.00     0.074 A 
ATOM     62  C   UNL     1       1.038  13.374  -2.094  1.00  0.00     0.031 C 
ATOM     63  C   UNL     1       2.274  12.821  -4.169  1.00  0.00     0.031 A 
BRANCH  50  64
ATOM     64  C   UNL     1       2.412   8.901  -8.947  1.00  0.00    -0.014 A 
ATOM     65  C   UNL     1       1.820   9.094 -10.209  1.00  0.00     0.010 A 
ATOM     66  C   UNL     1       3.693   8.325  -8.874  1.00  0.00     0.010 A 
ATOM     67  C   UNL     1       2.480   8.686 -11.371  1.00  0.00     0.020 A 
ATOM     68  C   UNL     1       4.369   7.941 -10.036  1.00  0.00     0.020 A 
ATOM     69  C   UNL     1       3.751   8.111 -11.277  1.00  0.00     0.054 A 
BRANCH  69  70
ATOM     70  S   UNL     1       4.599   7.622 -12.804  1.00  0.00     0.124 S 
ATOM     71  O   UNL     1       3.847   6.432 -13.197  1.00  0.00    -0.237 OA
ATOM     72  O   UNL     1       4.416   8.791 -13.660  1.00  0.00    -0.237 OA
ATOM     73  O   UNL     1       5.973   7.376 -12.375  1.00  0.00    -0.744 OA
ENDBRANCH  69  70
ENDBRANCH  50  64
BRANCH  51  74
ATOM     74  C   UNL     1      -2.368  11.430  -0.535  1.00  0.00    -0.014 A 
ATOM     75  C   UNL     1      -3.062  12.647  -0.423  1.00  0.00     0.010 A 
ATOM     76  C   UNL     1      -2.327  10.561   0.570  1.00  0.00     0.010 A 
ATOM     77  C   UNL     1      -3.680  13.001   0.780  1.00  0.00     0.020 A 
ATOM     78  C   UNL     1      -2.968  10.899   1.765  1.00  0.00     0.020 A 
ATOM     79  C   UNL     1      -3.628  12.124   1.867  1.00  0.00     0.054 A 
BRANCH  79  80
ATOM     80  S   UNL     1      -4.467  12.586   3.408  1.00  0.00     0.124 S 
ATOM     81  O   UNL     1      -3.566  13.597   3.952  1.00  0.00    -0.237 OA
ATOM     82  O   UNL     1      -5.758  13.076   2.932  1.00  0.00    -0.237 OA
ATOM     83  O   UNL     1      -4.524  11.330   4.154  1.00  0.00    -0.744 OA
ENDBRANCH  79  80
ENDBRANCH  51  74
BRANCH  63  84
ATOM     84  C   UNL     1       3.185  13.986  -3.890  1.00  0.00    -0.014 A 
ATOM     85  C   UNL     1       4.132  13.940  -2.852  1.00  0.00     0.010 A 
ATOM     86  C   UNL     1       3.129  15.122  -4.718  1.00  0.00     0.010 A 
ATOM     87  C   UNL     1       4.985  15.023  -2.627  1.00  0.00     0.020 A 
ATOM     88  C   UNL     1       3.999  16.196  -4.514  1.00  0.00     0.020 A 
ATOM     89  C   UNL     1       4.913  16.145  -3.459  1.00  0.00     0.054 A 
BRANCH  89  90
ATOM     90  S   UNL     1       6.062  17.519  -3.175  1.00  0.00     0.124 S 
ATOM     91  O   UNL     1       5.503  18.138  -1.976  1.00  0.00    -0.237 OA
ATOM     92  O   UNL     1       7.340  16.835  -2.991  1.00  0.00    -0.237 OA
ATOM     93  O   UNL     1       5.958  18.316  -4.395  1.00  0.00    -0.744 OA
ENDBRANCH  89  90
ENDBRANCH  63  84
ENDBRANCH  37  38
ENDBRANCH  29  32
ENDBRANCH  27  28
ENDBRANCH  26  27
ENDBRANCH   1  26
TORSDOF 18
