REMARK SMILES CN1C(=O)C[C@@H](C(=O)NCCCCCCNC(=O)c2ccc(-c3c4nc(c(-c5ccc(S(=O)(=O)[O-])cc5)c5ccc([nH]5)c(-c5ccc(S(=O)(=O)[O-])cc5)c5nc(c(-c6ccc(S(=O)(=O)[O-])cc6)c6ccc3[nH]6)C=C5)C=C4)cc2)C12CCN(C(=O)c1ccccc1-n1cccn1)CC2
REMARK SMILES IDX 13 1 12 2 11 3 10 4 9 5 7 6 8 7 6 9 1 10 2 11 3 12 79 13
REMARK SMILES IDX 4 14 5 15 80 16 97 17 81 18 96 19 82 20 83 21 84 22 85 23
REMARK SMILES IDX 86 24 90 25 87 26 89 27 88 28 91 29 92 30 95 31 93 32 94 33
REMARK SMILES IDX 14 34 15 35 16 36 17 37 18 39 19 40 20 41 78 42 21 43 77 44
REMARK SMILES IDX 22 45 23 46 24 47 71 48 25 49 76 50 70 51 72 52 26 53 75 54
REMARK SMILES IDX 69 55 68 56 27 58 57 59 38 60 56 61 39 62 42 63 55 64 73 65
REMARK SMILES IDX 40 66 41 67 54 69 74 70 43 71 28 72 29 73 37 74 30 75 36 76
REMARK SMILES IDX 31 77 32 78 33 79 34 80 35 81 58 82 59 83 67 84 60 85 66 86
REMARK SMILES IDX 61 87 62 88 63 89 64 90 65 91 44 92 45 93 53 94 46 95 52 96
REMARK SMILES IDX 47 97 48 98 49 99 50 100 51 101
REMARK H PARENT 9 8 16 38 72 57 42 68
REMARK Flexibility Score: inf
ROOT
ATOM      1  C   UNL     1      -3.714  -2.680   1.748  1.00  0.00     0.002 C 
ENDROOT
BRANCH   1   2
ATOM      2  C   UNL     1      -2.830  -1.849   2.676  1.00  0.00     0.002 C 
BRANCH   2   3
ATOM      3  C   UNL     1      -1.765  -1.024   1.957  1.00  0.00     0.021 C 
BRANCH   3   4
ATOM      4  C   UNL     1      -2.318   0.032   0.990  1.00  0.00     0.116 C 
BRANCH   4   5
ATOM      5  N   UNL     1      -2.843   1.218   1.652  1.00  0.00    -0.356 N 
ATOM      6  C   UNL     1      -2.489   2.529   1.654  1.00  0.00     0.226 C 
ATOM      7  O   UNL     1      -3.199   3.279   2.337  1.00  0.00    -0.275 OA
ATOM      8  H   UNL     1      -3.624   1.028   2.221  1.00  0.00     0.163 HD
BRANCH   6   9
ATOM      9  C   UNL     1      -1.286   3.142   0.919  1.00  0.00     0.113 C 
ATOM     10  C   UNL     1       1.362   0.649   0.086  1.00  0.00     0.147 C 
ATOM     11  N   UNL     1       0.357   1.696   0.117  1.00  0.00    -0.339 N 
ATOM     12  C   UNL     1      -0.435   1.984  -0.989  1.00  0.00     0.223 C 
ATOM     13  C   UNL     1       0.123   2.603   1.254  1.00  0.00     0.058 C 
ATOM     14  O   UNL     1      -0.381   1.455  -2.083  1.00  0.00    -0.275 OA
ATOM     15  C   UNL     1      -1.424   3.046  -0.600  1.00  0.00     0.116 C 
ATOM     16  C   UNL     1       0.183   1.935   2.635  1.00  0.00     0.051 C 
ATOM     17  C   UNL     1       1.220   3.711   1.209  1.00  0.00     0.051 C 
ATOM     18  C   UNL     1       0.122   2.924   3.790  1.00  0.00     0.122 C 
ATOM     19  C   UNL     1       1.269   4.610   2.450  1.00  0.00     0.122 C 
ATOM     20  N   UNL     1       1.254   3.826   3.684  1.00  0.00    -0.338 N 
ATOM     21  C   UNL     1       2.248   4.006   4.645  1.00  0.00     0.256 C 
ATOM     22  O   UNL     1       3.161   4.821   4.523  1.00  0.00    -0.269 OA
BRANCH  21  23
ATOM     23  C   UNL     1       2.207   3.240   5.919  1.00  0.00     0.065 A 
ATOM     24  C   UNL     1       1.986   4.011   7.076  1.00  0.00     0.016 A 
ATOM     25  C   UNL     1       2.320   1.846   6.040  1.00  0.00     0.077 A 
ATOM     26  C   UNL     1       1.850   3.402   8.326  1.00  0.00     0.001 A 
ATOM     27  C   UNL     1       2.121   1.239   7.296  1.00  0.00     0.029 A 
ATOM     28  C   UNL     1       1.905   2.016   8.434  1.00  0.00     0.002 A 
BRANCH  25  29
ATOM     29  N   UNL     1       2.653   0.996   4.959  1.00  0.00    -0.240 N 
ATOM     30  C   UNL     1       3.470   1.250   3.881  1.00  0.00     0.115 A 
ATOM     31  N   UNL     1       2.155  -0.270   4.913  1.00  0.00    -0.177 NA
ATOM     32  C   UNL     1       3.473   0.116   3.102  1.00  0.00     0.042 A 
ATOM     33  C   UNL     1       2.626  -0.778   3.773  1.00  0.00     0.135 A 
ENDBRANCH  25  29
ENDBRANCH  21  23
ENDBRANCH   6   9
ENDBRANCH   4   5
ENDBRANCH   3   4
ENDBRANCH   2   3
ENDBRANCH   1   2
BRANCH   1  34
ATOM     34  C   UNL     1      -2.951  -3.556   0.750  1.00  0.00     0.021 C 
BRANCH  34  35
ATOM     35  C   UNL     1      -1.946  -4.513   1.386  1.00  0.00     0.116 C 
BRANCH  35  36
ATOM     36  N   UNL     1      -2.593  -5.441   2.299  1.00  0.00    -0.352 N 
ATOM     37  C   UNL     1      -2.713  -6.805   2.204  1.00  0.00     0.251 C 
ATOM     38  H   UNL     1      -3.003  -5.034   3.097  1.00  0.00     0.163 HD
ATOM     39  O   UNL     1      -3.507  -7.407   2.918  1.00  0.00    -0.269 OA
BRANCH  37  40
ATOM     40  C   UNL     1      -1.883  -7.535   1.226  1.00  0.00     0.039 A 
ATOM     41  C   UNL     1      -2.486  -8.477   0.390  1.00  0.00     0.014 A 
ATOM     42  C   UNL     1      -0.513  -7.273   1.127  1.00  0.00     0.014 A 
ATOM     43  C   UNL     1      -1.724  -9.108  -0.595  1.00  0.00     0.010 A 
ATOM     44  C   UNL     1       0.227  -7.849   0.100  1.00  0.00     0.010 A 
ATOM     45  C   UNL     1      -0.373  -8.768  -0.775  1.00  0.00    -0.014 A 
BRANCH  45  46
ATOM     46  C   UNL     1       0.424  -9.334  -1.892  1.00  0.00     0.031 A 
ATOM     47  C   UNL     1       1.617 -10.204  -1.612  1.00  0.00     0.074 A 
ATOM     48  C   UNL     1       0.113  -9.000  -3.160  1.00  0.00     0.049 A 
ATOM     49  N   UNL     1       2.466 -10.734  -2.454  1.00  0.00    -0.248 NA
ATOM     50  C   UNL     1       1.904 -10.500  -0.199  1.00  0.00     0.031 C 
ATOM     51  C   UNL     1      -1.005  -8.141  -3.559  1.00  0.00     0.029 A 
ATOM     52  N   UNL     1       0.711  -9.338  -4.348  1.00  0.00    -0.354 N 
ATOM     53  C   UNL     1       3.393 -11.418  -1.676  1.00  0.00     0.074 A 
ATOM     54  C   UNL     1       3.033 -11.188  -0.293  1.00  0.00     0.031 C 
ATOM     55  C   UNL     1      -1.032  -8.048  -4.898  1.00  0.00     0.029 A 
ATOM     56  C   UNL     1       0.094  -8.794  -5.450  1.00  0.00     0.049 A 
ATOM     57  H   UNL     1       1.506  -9.916  -4.406  1.00  0.00     0.167 HD
ATOM     58  C   UNL     1       4.438 -12.183  -2.076  1.00  0.00     0.031 A 
ATOM     59  C   UNL     1       0.405  -8.876  -6.758  1.00  0.00     0.031 A 
ATOM     60  C   UNL     1       4.799 -12.393  -3.454  1.00  0.00     0.049 A 
ATOM     61  C   UNL     1       1.603  -9.681  -7.177  1.00  0.00     0.074 A 
ATOM     62  C   UNL     1       5.815 -13.181  -3.966  1.00  0.00     0.029 A 
ATOM     63  N   UNL     1       4.166 -11.803  -4.538  1.00  0.00    -0.354 N 
ATOM     64  N   UNL     1       2.431 -10.374  -6.431  1.00  0.00    -0.248 NA
ATOM     65  C   UNL     1       1.908  -9.719  -8.613  1.00  0.00     0.031 C 
ATOM     66  C   UNL     1       5.838 -13.014  -5.355  1.00  0.00     0.029 A 
ATOM     67  C   UNL     1       4.792 -12.179  -5.715  1.00  0.00     0.049 A 
ATOM     68  H   UNL     1       3.386 -11.205  -4.480  1.00  0.00     0.167 HD
ATOM     69  C   UNL     1       3.341 -10.950  -7.310  1.00  0.00     0.074 A 
ATOM     70  C   UNL     1       2.952 -10.536  -8.644  1.00  0.00     0.031 C 
ATOM     71  C   UNL     1       4.401 -11.751  -7.037  1.00  0.00     0.031 A 
BRANCH  58  72
ATOM     72  C   UNL     1       5.275 -12.827  -1.000  1.00  0.00    -0.014 A 
ATOM     73  C   UNL     1       4.748 -13.838  -0.173  1.00  0.00     0.010 A 
ATOM     74  C   UNL     1       6.611 -12.426  -0.816  1.00  0.00     0.010 A 
ATOM     75  C   UNL     1       5.519 -14.388   0.854  1.00  0.00     0.020 A 
ATOM     76  C   UNL     1       7.397 -12.998   0.188  1.00  0.00     0.020 A 
ATOM     77  C   UNL     1       6.837 -13.958   1.033  1.00  0.00     0.054 A 
BRANCH  77  78
ATOM     78  S   UNL     1       7.809 -14.680   2.384  1.00  0.00     0.124 S 
ATOM     79  O   UNL     1       7.184 -14.077   3.559  1.00  0.00    -0.237 OA
ATOM     80  O   UNL     1       7.577 -16.112   2.215  1.00  0.00    -0.237 OA
ATOM     81  O   UNL     1       9.172 -14.234   2.108  1.00  0.00    -0.744 OA
ENDBRANCH  77  78
ENDBRANCH  58  72
BRANCH  59  82
ATOM     82  C   UNL     1      -0.451  -8.190  -7.765  1.00  0.00    -0.014 A 
ATOM     83  C   UNL     1      -1.263  -8.940  -8.634  1.00  0.00     0.010 A 
ATOM     84  C   UNL     1      -0.490  -6.785  -7.836  1.00  0.00     0.010 A 
ATOM     85  C   UNL     1      -2.093  -8.299  -9.557  1.00  0.00     0.020 A 
ATOM     86  C   UNL     1      -1.340  -6.140  -8.738  1.00  0.00     0.020 A 
ATOM     87  C   UNL     1      -2.133  -6.902  -9.598  1.00  0.00     0.054 A 
BRANCH  87  88
ATOM     88  S   UNL     1      -3.273  -6.096 -10.756  1.00  0.00     0.124 S 
ATOM     89  O   UNL     1      -2.648  -6.377 -12.044  1.00  0.00    -0.237 OA
ATOM     90  O   UNL     1      -4.529  -6.796 -10.496  1.00  0.00    -0.237 OA
ATOM     91  O   UNL     1      -3.251  -4.696 -10.340  1.00  0.00    -0.744 OA
ENDBRANCH  87  88
ENDBRANCH  59  82
BRANCH  71  92
ATOM     92  C   UNL     1       5.210 -12.255  -8.203  1.00  0.00    -0.014 A 
ATOM     93  C   UNL     1       6.052 -11.397  -8.932  1.00  0.00     0.010 A 
ATOM     94  C   UNL     1       5.179 -13.624  -8.531  1.00  0.00     0.010 A 
ATOM     95  C   UNL     1       6.832 -11.894  -9.980  1.00  0.00     0.020 A 
ATOM     96  C   UNL     1       5.980 -14.130  -9.557  1.00  0.00     0.020 A 
ATOM     97  C   UNL     1       6.796 -13.259 -10.281  1.00  0.00     0.054 A 
BRANCH  97  98
ATOM     98  S   UNL     1       7.868 -13.888 -11.602  1.00  0.00     0.124 S 
ATOM     99  O   UNL     1       7.228 -13.348 -12.798  1.00  0.00    -0.237 OA
ATOM    100  O   UNL     1       9.164 -13.304 -11.265  1.00  0.00    -0.237 OA
ATOM    101  O   UNL     1       7.788 -15.339 -11.454  1.00  0.00    -0.744 OA
ENDBRANCH  97  98
ENDBRANCH  71  92
ENDBRANCH  45  46
ENDBRANCH  37  40
ENDBRANCH  35  36
ENDBRANCH  34  35
ENDBRANCH   1  34
TORSDOF 18
