REMARK SMILES C[C@@](NC(=O)CCOC1CC[NH2+]CC1)(C(=O)NCCCCCCNC(=O)c1ccc(-c2c3nc(c(-c4ccc(S(=O)(=O)[O-])cc4)c4ccc([nH]4)c(-c4ccc(S(=O)(=O)[O-])cc4)c4nc(c(-c5ccc(S(=O)(=O)[O-])cc5)c5ccc2[nH]5)C=C4)C=C3)cc1)C(F)(F)F
REMARK SMILES IDX 19 1 18 2 17 3 15 4 16 5 2 7 1 8 3 9 4 10 5 12 6 13 7 14
REMARK SMILES IDX 8 15 9 16 10 17 14 18 11 19 13 20 12 21 87 24 88 25 89 26
REMARK SMILES IDX 90 27 20 28 21 29 22 30 23 31 24 32 25 33 26 35 27 36 28 37
REMARK SMILES IDX 86 38 29 39 85 40 30 41 31 42 32 43 79 44 33 45 84 46 78 47
REMARK SMILES IDX 80 48 34 49 83 50 77 51 76 52 35 54 65 55 46 56 64 57 47 58
REMARK SMILES IDX 50 59 63 60 81 61 48 62 49 63 62 65 82 66 51 67 36 68 37 69
REMARK SMILES IDX 45 70 38 71 44 72 39 73 40 74 41 75 42 76 43 77 66 78 67 79
REMARK SMILES IDX 75 80 68 81 74 82 69 83 70 84 71 85 72 86 73 87 52 88 53 89
REMARK SMILES IDX 61 90 54 91 60 92 55 93 56 94 57 95 58 96 59 97
REMARK H PARENT 17 6 3 11 12 22 12 23 24 34 80 53 50 64
REMARK Flexibility Score: inf
ROOT
ATOM      1  C   UNL     1      -2.099  -1.737   2.488  1.00  0.00     0.021 C 
ENDROOT
BRANCH   1   2
ATOM      2  C   UNL     1      -1.162  -1.254   1.386  1.00  0.00     0.116 C 
BRANCH   2   3
ATOM      3  N   UNL     1      -1.081   0.131   0.996  1.00  0.00    -0.354 N 
ATOM      4  C   UNL     1      -0.325   0.719  -0.005  1.00  0.00     0.254 C 
ATOM      5  O   UNL     1      -0.654   1.891  -0.240  1.00  0.00    -0.272 OA
ATOM      6  H   UNL     1      -1.643   0.749   1.516  1.00  0.00     0.163 HD
BRANCH   4   7
ATOM      7  C   UNL     1       0.890   0.001  -0.895  1.00  0.00     0.212 C 
ATOM      8  C   UNL     1       1.956  -0.337   0.201  1.00  0.00     0.056 C 
BRANCH   7   9
ATOM      9  N   UNL     1       0.875  -1.505  -1.928  1.00  0.00    -0.334 N 
ATOM     10  C   UNL     1       0.060  -2.693  -3.148  1.00  0.00     0.223 C 
ATOM     11  H   UNL     1       1.755  -1.911  -1.760  1.00  0.00     0.164 HD
ATOM     12  O   UNL     1       0.611  -3.677  -3.704  1.00  0.00    -0.275 OA
BRANCH  10  13
ATOM     13  C   UNL     1      -1.513  -2.691  -3.787  1.00  0.00     0.128 C 
BRANCH  13  14
ATOM     14  C   UNL     1      -2.666  -2.687  -2.843  1.00  0.00     0.170 C 
BRANCH  14  15
ATOM     15  O   UNL     1      -2.502  -1.493  -2.149  1.00  0.00    -0.377 OA
BRANCH  15  16
ATOM     16  C   UNL     1      -1.106  -1.332  -1.958  1.00  0.00     0.129 C 
ATOM     17  C   UNL     1      -0.066  -0.585  -3.479  1.00  0.00     0.093 C 
ATOM     18  C   UNL     1      -0.306  -2.883  -1.021  1.00  0.00     0.093 C 
ATOM     19  C   UNL     1       1.660  -1.400  -3.878  1.00  0.00     0.263 C 
ATOM     20  C   UNL     1       1.415  -3.533  -1.528  1.00  0.00     0.263 C 
ATOM     21  N   UNL     1       2.450  -2.662  -2.774  1.00  0.00    -0.346 N 
ATOM     22  H   UNL     1       3.196  -2.187  -2.264  1.00  0.00     0.346 HD
ATOM     23  H   UNL     1       2.735  -3.402  -3.415  1.00  0.00     0.346 HD
ENDBRANCH  15  16
ENDBRANCH  14  15
ENDBRANCH  13  14
ENDBRANCH  10  13
ENDBRANCH   7   9
BRANCH   7  24
ATOM     24  C   UNL     1       1.577   1.288  -1.576  1.00  0.00     0.420 C 
ATOM     25  F   UNL     1       2.016   2.175  -0.641  1.00  0.00    -0.168 F 
ATOM     26  F   UNL     1       2.681   0.929  -2.279  1.00  0.00    -0.168 F 
ATOM     27  F   UNL     1       0.799   2.005  -2.416  1.00  0.00    -0.168 F 
ENDBRANCH   7  24
ENDBRANCH   4   7
ENDBRANCH   2   3
ENDBRANCH   1   2
BRANCH   1  28
ATOM     28  C   UNL     1      -3.448  -2.317   2.004  1.00  0.00     0.002 C 
BRANCH  28  29
ATOM     29  C   UNL     1      -3.458  -3.467   0.976  1.00  0.00     0.002 C 
BRANCH  29  30
ATOM     30  C   UNL     1      -2.641  -4.730   1.260  1.00  0.00     0.021 C 
BRANCH  30  31
ATOM     31  C   UNL     1      -2.862  -5.385   2.615  1.00  0.00     0.116 C 
BRANCH  31  32
ATOM     32  N   UNL     1      -4.254  -5.706   2.876  1.00  0.00    -0.352 N 
ATOM     33  C   UNL     1      -4.799  -6.829   3.449  1.00  0.00     0.251 C 
ATOM     34  H   UNL     1      -4.902  -5.017   2.602  1.00  0.00     0.163 HD
ATOM     35  O   UNL     1      -6.019  -6.969   3.469  1.00  0.00    -0.269 OA
BRANCH  33  36
ATOM     36  C   UNL     1      -3.922  -7.881   4.011  1.00  0.00     0.039 A 
ATOM     37  C   UNL     1      -4.251  -9.220   3.785  1.00  0.00     0.014 A 
ATOM     38  C   UNL     1      -2.783  -7.558   4.753  1.00  0.00     0.014 A 
ATOM     39  C   UNL     1      -3.406 -10.227   4.253  1.00  0.00     0.010 A 
ATOM     40  C   UNL     1      -1.893  -8.558   5.133  1.00  0.00     0.010 A 
ATOM     41  C   UNL     1      -2.199  -9.904   4.895  1.00  0.00    -0.014 A 
BRANCH  41  42
ATOM     42  C   UNL     1      -1.247 -10.968   5.302  1.00  0.00     0.031 A 
ATOM     43  C   UNL     1      -0.897 -11.170   6.751  1.00  0.00     0.074 A 
ATOM     44  C   UNL     1      -0.670 -11.732   4.353  1.00  0.00     0.049 A 
ATOM     45  N   UNL     1      -0.107 -12.063   7.290  1.00  0.00    -0.248 NA
ATOM     46  C   UNL     1      -1.491 -10.234   7.720  1.00  0.00     0.031 C 
ATOM     47  C   UNL     1      -0.895 -11.600   2.911  1.00  0.00     0.029 A 
ATOM     48  N   UNL     1       0.214 -12.776   4.455  1.00  0.00    -0.354 N 
ATOM     49  C   UNL     1      -0.102 -11.792   8.654  1.00  0.00     0.074 A 
ATOM     50  C   UNL     1      -0.917 -10.613   8.851  1.00  0.00     0.031 C 
ATOM     51  C   UNL     1      -0.215 -12.562   2.270  1.00  0.00     0.029 A 
ATOM     52  C   UNL     1       0.538 -13.343   3.245  1.00  0.00     0.049 A 
ATOM     53  H   UNL     1       0.582 -13.089   5.313  1.00  0.00     0.167 HD
ATOM     54  C   UNL     1       0.509 -12.473   9.653  1.00  0.00     0.031 A 
ATOM     55  C   UNL     1       1.350 -14.376   2.950  1.00  0.00     0.031 A 
ATOM     56  C   UNL     1       1.329 -13.638   9.442  1.00  0.00     0.049 A 
ATOM     57  C   UNL     1       2.043 -15.097   4.072  1.00  0.00     0.074 A 
ATOM     58  C   UNL     1       1.952 -14.434  10.387  1.00  0.00     0.029 A 
ATOM     59  N   UNL     1       1.656 -14.164   8.200  1.00  0.00    -0.354 N 
ATOM     60  N   UNL     1       1.968 -14.878   5.363  1.00  0.00    -0.248 NA
ATOM     61  C   UNL     1       2.922 -16.211   3.696  1.00  0.00     0.031 C 
ATOM     62  C   UNL     1       2.721 -15.389   9.714  1.00  0.00     0.029 A 
ATOM     63  C   UNL     1       2.508 -15.246   8.352  1.00  0.00     0.049 A 
ATOM     64  H   UNL     1       1.331 -13.819   7.337  1.00  0.00     0.167 HD
ATOM     65  C   UNL     1       2.771 -15.845   5.957  1.00  0.00     0.074 A 
ATOM     66  C   UNL     1       3.301 -16.663   4.884  1.00  0.00     0.031 C 
ATOM     67  C   UNL     1       3.045 -16.039   7.272  1.00  0.00     0.031 A 
BRANCH  54  68
ATOM     68  C   UNL     1       0.335 -11.954  11.060  1.00  0.00    -0.014 A 
ATOM     69  C   UNL     1      -0.921 -11.958  11.697  1.00  0.00     0.010 A 
ATOM     70  C   UNL     1       1.452 -11.472  11.766  1.00  0.00     0.010 A 
ATOM     71  C   UNL     1      -1.065 -11.437  12.986  1.00  0.00     0.020 A 
ATOM     72  C   UNL     1       1.319 -10.986  13.071  1.00  0.00     0.020 A 
ATOM     73  C   UNL     1       0.057 -10.952  13.664  1.00  0.00     0.054 A 
BRANCH  73  74
ATOM     74  S   UNL     1      -0.161 -10.285  15.336  1.00  0.00     0.124 S 
ATOM     75  O   UNL     1      -0.908  -9.057  15.076  1.00  0.00    -0.237 OA
ATOM     76  O   UNL     1      -0.910 -11.345  16.006  1.00  0.00    -0.237 OA
ATOM     77  O   UNL     1       1.206 -10.092  15.815  1.00  0.00    -0.744 OA
ENDBRANCH  73  74
ENDBRANCH  54  68
BRANCH  55  78
ATOM     78  C   UNL     1       1.527 -14.798   1.533  1.00  0.00    -0.014 A 
ATOM     79  C   UNL     1       1.023 -16.032   1.084  1.00  0.00     0.010 A 
ATOM     80  C   UNL     1       2.174 -13.951   0.614  1.00  0.00     0.010 A 
ATOM     81  C   UNL     1       1.169 -16.413  -0.253  1.00  0.00     0.020 A 
ATOM     82  C   UNL     1       2.291 -14.313  -0.731  1.00  0.00     0.020 A 
ATOM     83  C   UNL     1       1.794 -15.546  -1.154  1.00  0.00     0.054 A 
BRANCH  83  84
ATOM     84  S   UNL     1       1.906 -16.033  -2.898  1.00  0.00     0.124 S 
ATOM     85  O   UNL     1       2.856 -17.139  -2.845  1.00  0.00    -0.237 OA
ATOM     86  O   UNL     1       0.525 -16.396  -3.209  1.00  0.00    -0.237 OA
ATOM     87  O   UNL     1       2.389 -14.823  -3.561  1.00  0.00    -0.744 OA
ENDBRANCH  83  84
ENDBRANCH  55  78
BRANCH  67  88
ATOM     88  C   UNL     1       3.943 -17.198   7.626  1.00  0.00    -0.014 A 
ATOM     89  C   UNL     1       5.306 -17.203   7.278  1.00  0.00     0.010 A 
ATOM     90  C   UNL     1       3.420 -18.285   8.351  1.00  0.00     0.010 A 
ATOM     91  C   UNL     1       6.117 -18.292   7.607  1.00  0.00     0.020 A 
ATOM     92  C   UNL     1       4.236 -19.357   8.717  1.00  0.00     0.020 A 
ATOM     93  C   UNL     1       5.576 -19.362   8.327  1.00  0.00     0.054 A 
BRANCH  93  94
ATOM     94  S   UNL     1       6.658 -20.749   8.768  1.00  0.00     0.124 S 
ATOM     95  O   UNL     1       6.897 -21.373   7.469  1.00  0.00    -0.237 OA
ATOM     96  O   UNL     1       7.809 -20.076   9.364  1.00  0.00    -0.237 OA
ATOM     97  O   UNL     1       5.852 -21.537   9.698  1.00  0.00    -0.744 OA
ENDBRANCH  93  94
ENDBRANCH  67  88
ENDBRANCH  41  42
ENDBRANCH  33  36
ENDBRANCH  31  32
ENDBRANCH  30  31
ENDBRANCH  29  30
ENDBRANCH  28  29
ENDBRANCH   1  28
TORSDOF 22
