REMARK SMILES COCC[C@@H](C)NC(=O)N1Cc2nc[nH]c2C[C@@H]1C(=O)NCCCCCCNC(=O)c1ccc(-c2c3nc(c(-c4ccc(S(=O)(=O)[O-])cc4)c4ccc([nH]4)c(-c4ccc(S(=O)(=O)[O-])cc4)c4nc(c(-c5ccc(S(=O)(=O)[O-])cc5)c5ccc2[nH]5)C=C4)C=C3)cc1
REMARK SMILES IDX 23 1 22 2 21 3 19 4 20 5 18 7 10 8 11 9 12 10 17 11 13 12
REMARK SMILES IDX 16 13 14 14 15 15 8 17 7 18 9 20 5 21 6 22 4 23 3 24 2 25
REMARK SMILES IDX 1 26 24 27 25 28 26 29 27 30 28 31 29 32 30 34 31 35 32 36
REMARK SMILES IDX 90 37 33 38 89 39 34 40 35 41 36 42 83 43 37 44 88 45 82 46
REMARK SMILES IDX 84 47 38 48 87 49 81 50 80 51 39 53 69 54 50 55 68 56 51 57
REMARK SMILES IDX 54 58 67 59 85 60 52 61 53 62 66 64 86 65 55 66 40 67 41 68
REMARK SMILES IDX 49 69 42 70 48 71 43 72 44 73 45 74 46 75 47 76 70 77 71 78
REMARK SMILES IDX 79 79 72 80 78 81 73 82 74 83 75 84 76 85 77 86 56 87 57 88
REMARK SMILES IDX 65 89 58 90 64 91 59 92 60 93 61 94 62 95 63 96
REMARK H PARENT 21 6 15 16 7 19 28 33 84 52 54 63
REMARK Flexibility Score: inf
ROOT
ATOM      1  C   UNL     1       4.293  -0.607  -5.352  1.00  0.00     0.021 C 
ENDROOT
BRANCH   1   2
ATOM      2  C   UNL     1       3.149  -1.593  -5.225  1.00  0.00     0.116 C 
BRANCH   2   3
ATOM      3  N   UNL     1       2.804  -1.860  -3.852  1.00  0.00    -0.354 N 
ATOM      4  C   UNL     1       1.486  -2.203  -3.628  1.00  0.00     0.243 C 
ATOM      5  O   UNL     1       1.146  -3.365  -3.827  1.00  0.00    -0.273 OA
ATOM      6  H   UNL     1       3.464  -1.803  -3.123  1.00  0.00     0.163 HD
BRANCH   4   7
ATOM      7  C   UNL     1       0.581  -1.035  -3.138  1.00  0.00     0.182 C 
ATOM      8  N   UNL     1      -0.776  -1.531  -2.736  1.00  0.00    -0.306 N 
ATOM      9  C   UNL     1      -2.007  -0.747  -3.000  1.00  0.00     0.180 C 
ATOM     10  C   UNL     1      -1.764   0.517  -3.735  1.00  0.00     0.081 A 
ATOM     11  C   UNL     1       0.636   0.059  -4.240  1.00  0.00     0.091 C 
ATOM     12  N   UNL     1      -2.724   1.432  -4.087  1.00  0.00    -0.240 NA
ATOM     13  C   UNL     1      -0.557   0.895  -4.246  1.00  0.00     0.042 A 
ATOM     14  C   UNL     1      -2.091   2.348  -4.793  1.00  0.00     0.197 A 
ATOM     15  N   UNL     1      -0.751   2.080  -4.888  1.00  0.00    -0.348 N 
ATOM     16  H   UNL     1      -0.067   2.632  -5.332  1.00  0.00     0.167 HD
BRANCH   8  17
ATOM     17  C   UNL     1      -0.994  -2.688  -2.018  1.00  0.00     0.318 C 
ATOM     18  N   UNL     1      -0.011  -3.206  -1.234  1.00  0.00    -0.335 N 
ATOM     19  H   UNL     1       0.149  -4.174  -1.318  1.00  0.00     0.165 HD
ATOM     20  O   UNL     1      -2.061  -3.302  -2.066  1.00  0.00    -0.249 OA
BRANCH  18  21
ATOM     21  C   UNL     1       0.832  -2.491  -0.285  1.00  0.00     0.083 C 
ATOM     22  C   UNL     1       2.263  -3.021  -0.314  1.00  0.00     0.031 C 
BRANCH  21  23
ATOM     23  C   UNL     1       0.219  -2.563   1.122  1.00  0.00     0.053 C 
BRANCH  23  24
ATOM     24  C   UNL     1       0.783  -1.525   2.096  1.00  0.00     0.162 C 
BRANCH  24  25
ATOM     25  O   UNL     1       0.213  -0.227   1.941  1.00  0.00    -0.385 OA
ATOM     26  C   UNL     1       0.752   0.560   0.888  1.00  0.00     0.194 C 
ENDBRANCH  24  25
ENDBRANCH  23  24
ENDBRANCH  21  23
ENDBRANCH  18  21
ENDBRANCH   8  17
ENDBRANCH   4   7
ENDBRANCH   2   3
ENDBRANCH   1   2
BRANCH   1  27
ATOM     27  C   UNL     1       5.651  -1.299  -5.402  1.00  0.00     0.002 C 
BRANCH  27  28
ATOM     28  C   UNL     1       5.763  -2.453  -6.412  1.00  0.00     0.002 C 
BRANCH  28  29
ATOM     29  C   UNL     1       5.122  -2.235  -7.795  1.00  0.00     0.021 C 
BRANCH  29  30
ATOM     30  C   UNL     1       5.737  -1.099  -8.593  1.00  0.00     0.116 C 
BRANCH  30  31
ATOM     31  N   UNL     1       7.149  -1.340  -8.838  1.00  0.00    -0.352 N 
ATOM     32  C   UNL     1       8.125  -0.460  -9.244  1.00  0.00     0.251 C 
ATOM     33  H   UNL     1       7.449  -2.266  -8.692  1.00  0.00     0.163 HD
ATOM     34  O   UNL     1       9.165  -0.877  -9.726  1.00  0.00    -0.269 OA
BRANCH  32  35
ATOM     35  C   UNL     1       7.886   0.987  -9.102  1.00  0.00     0.039 A 
ATOM     36  C   UNL     1       8.236   1.853 -10.135  1.00  0.00     0.014 A 
ATOM     37  C   UNL     1       7.295   1.473  -7.935  1.00  0.00     0.014 A 
ATOM     38  C   UNL     1       7.916   3.201 -10.014  1.00  0.00     0.010 A 
ATOM     39  C   UNL     1       6.869   2.781  -7.867  1.00  0.00     0.010 A 
ATOM     40  C   UNL     1       7.205   3.659  -8.889  1.00  0.00    -0.014 A 
BRANCH  40  41
ATOM     41  C   UNL     1       6.706   5.033  -8.864  1.00  0.00     0.031 A 
ATOM     42  C   UNL     1       5.989   5.443 -10.102  1.00  0.00     0.074 A 
ATOM     43  C   UNL     1       6.730   5.852  -7.792  1.00  0.00     0.049 A 
ATOM     44  N   UNL     1       6.421   6.236 -11.025  1.00  0.00    -0.248 NA
ATOM     45  C   UNL     1       4.719   4.777 -10.431  1.00  0.00     0.031 C 
ATOM     46  C   UNL     1       7.124   5.554  -6.411  1.00  0.00     0.029 A 
ATOM     47  N   UNL     1       6.313   7.146  -7.709  1.00  0.00    -0.354 N 
ATOM     48  C   UNL     1       5.391   6.346 -11.950  1.00  0.00     0.074 A 
ATOM     49  C   UNL     1       4.450   5.301 -11.629  1.00  0.00     0.031 C 
ATOM     50  C   UNL     1       6.716   6.553  -5.595  1.00  0.00     0.029 A 
ATOM     51  C   UNL     1       6.208   7.639  -6.414  1.00  0.00     0.049 A 
ATOM     52  H   UNL     1       6.102   7.688  -8.502  1.00  0.00     0.167 HD
ATOM     53  C   UNL     1       5.276   7.437 -12.759  1.00  0.00     0.031 A 
ATOM     54  C   UNL     1       5.741   8.856  -6.040  1.00  0.00     0.031 A 
ATOM     55  C   UNL     1       6.485   8.220 -12.773  1.00  0.00     0.049 A 
ATOM     56  C   UNL     1       5.869   9.747  -7.217  1.00  0.00     0.074 A 
ATOM     57  C   UNL     1       7.799   7.973 -13.120  1.00  0.00     0.029 A 
ATOM     58  N   UNL     1       6.508   9.346 -11.984  1.00  0.00    -0.354 N 
ATOM     59  N   UNL     1       7.016  10.107  -7.717  1.00  0.00    -0.248 NA
ATOM     60  C   UNL     1       4.728   9.890  -8.104  1.00  0.00     0.031 C 
ATOM     61  C   UNL     1       8.573   8.658 -12.137  1.00  0.00     0.029 A 
ATOM     62  C   UNL     1       7.696   9.347 -11.296  1.00  0.00     0.049 A 
ATOM     63  H   UNL     1       5.801  10.028 -11.923  1.00  0.00     0.167 HD
ATOM     64  C   UNL     1       6.822  10.102  -9.090  1.00  0.00     0.074 A 
ATOM     65  C   UNL     1       5.371  10.066  -9.262  1.00  0.00     0.031 C 
ATOM     66  C   UNL     1       7.856   9.856  -9.949  1.00  0.00     0.031 A 
BRANCH  53  67
ATOM     67  C   UNL     1       3.949   8.000 -13.205  1.00  0.00    -0.014 A 
ATOM     68  C   UNL     1       3.930   9.093 -14.095  1.00  0.00     0.010 A 
ATOM     69  C   UNL     1       2.733   7.671 -12.571  1.00  0.00     0.010 A 
ATOM     70  C   UNL     1       2.766   9.850 -14.292  1.00  0.00     0.020 A 
ATOM     71  C   UNL     1       1.558   8.390 -12.793  1.00  0.00     0.020 A 
ATOM     72  C   UNL     1       1.590   9.496 -13.630  1.00  0.00     0.054 A 
BRANCH  72  73
ATOM     73  S   UNL     1       0.116  10.528 -13.818  1.00  0.00     0.124 S 
ATOM     74  O   UNL     1       0.536  11.770 -13.175  1.00  0.00    -0.237 OA
ATOM     75  O   UNL     1      -0.037  10.584 -15.269  1.00  0.00    -0.237 OA
ATOM     76  O   UNL     1      -0.919   9.775 -13.114  1.00  0.00    -0.744 OA
ENDBRANCH  72  73
ENDBRANCH  53  67
BRANCH  54  77
ATOM     77  C   UNL     1       4.940   9.221  -4.848  1.00  0.00    -0.014 A 
ATOM     78  C   UNL     1       4.742  10.571  -4.500  1.00  0.00     0.010 A 
ATOM     79  C   UNL     1       4.111   8.257  -4.241  1.00  0.00     0.010 A 
ATOM     80  C   UNL     1       3.698  10.951  -3.640  1.00  0.00     0.020 A 
ATOM     81  C   UNL     1       3.072   8.628  -3.378  1.00  0.00     0.020 A 
ATOM     82  C   UNL     1       2.852   9.977  -3.106  1.00  0.00     0.054 A 
BRANCH  82  83
ATOM     83  S   UNL     1       1.380  10.488  -2.168  1.00  0.00     0.124 S 
ATOM     84  O   UNL     1       1.962  10.986  -0.925  1.00  0.00    -0.237 OA
ATOM     85  O   UNL     1       0.784  11.498  -3.039  1.00  0.00    -0.237 OA
ATOM     86  O   UNL     1       0.610   9.251  -2.042  1.00  0.00    -0.744 OA
ENDBRANCH  82  83
ENDBRANCH  54  77
BRANCH  66  87
ATOM     87  C   UNL     1       9.269   9.906  -9.406  1.00  0.00    -0.014 A 
ATOM     88  C   UNL     1       9.752   9.083  -8.368  1.00  0.00     0.010 A 
ATOM     89  C   UNL     1      10.182  10.746 -10.068  1.00  0.00     0.010 A 
ATOM     90  C   UNL     1      11.103   9.128  -7.985  1.00  0.00     0.020 A 
ATOM     91  C   UNL     1      11.531  10.781  -9.706  1.00  0.00     0.020 A 
ATOM     92  C   UNL     1      11.984   9.981  -8.657  1.00  0.00     0.054 A 
BRANCH  92  93
ATOM     93  S   UNL     1      13.736  10.019  -8.181  1.00  0.00     0.124 S 
ATOM     94  O   UNL     1      13.691  10.627  -6.854  1.00  0.00    -0.237 OA
ATOM     95  O   UNL     1      14.112   8.607  -8.213  1.00  0.00    -0.237 OA
ATOM     96  O   UNL     1      14.361  10.841  -9.216  1.00  0.00    -0.744 OA
ENDBRANCH  92  93
ENDBRANCH  66  87
ENDBRANCH  40  41
ENDBRANCH  32  35
ENDBRANCH  30  31
ENDBRANCH  29  30
ENDBRANCH  28  29
ENDBRANCH  27  28
ENDBRANCH   1  27
TORSDOF 21
