REMARK SMILES O=C1CCCC2=C1[C@H](c1ccc([N+](=O)[O-])cc1)CC(=O)N2c1ccccc1C(=O)NCCCCCCNC(=O)c1ccc(-c2c3nc(c(-c4ccc(S(=O)(=O)[O-])cc4)c4ccc([nH]4)c(-c4ccc(S(=O)(=O)[O-])cc4)c4nc(c(-c5ccc(S(=O)(=O)[O-])cc5)c5ccc2[nH]5)C=C4)C=C3)cc1
REMARK SMILES IDX 33 1 32 2 31 3 30 4 28 5 29 6 27 8 22 9 23 10 24 11 26 12
REMARK SMILES IDX 25 13 21 14 1 15 2 16 3 17 7 18 4 19 6 20 8 21 5 22 18 23
REMARK SMILES IDX 19 24 20 25 9 26 10 27 17 28 11 29 16 30 12 31 13 32 14 33
REMARK SMILES IDX 15 34 34 35 35 36 36 37 37 38 38 39 39 41 40 42 41 43 99 44
REMARK SMILES IDX 42 45 98 46 43 47 44 48 45 49 92 50 46 51 97 52 91 53 93 54
REMARK SMILES IDX 47 55 96 56 90 57 89 58 48 60 78 61 59 62 77 63 60 64 63 65
REMARK SMILES IDX 76 66 94 67 61 68 62 69 75 71 95 72 64 73 49 74 50 75 58 76
REMARK SMILES IDX 51 77 57 78 52 79 53 80 54 81 55 82 56 83 79 84 80 85 88 86
REMARK SMILES IDX 81 87 87 88 82 89 83 90 84 91 85 92 86 93 65 94 66 95 74 96
REMARK SMILES IDX 67 97 73 98 68 99 69 100 70 101 71 102 72 103
REMARK H PARENT 30 7 37 40 93 59 63 70
REMARK Flexibility Score: inf
ROOT
ATOM      1  C   UNL     1       2.629  -0.093   3.348  1.00  0.00     0.002 C 
ENDROOT
BRANCH   1   2
ATOM      2  C   UNL     1       3.942  -0.919   3.064  1.00  0.00     0.021 C 
BRANCH   2   3
ATOM      3  C   UNL     1       4.763  -0.938   1.763  1.00  0.00     0.116 C 
BRANCH   3   4
ATOM      4  N   UNL     1       6.211  -0.782   1.895  1.00  0.00    -0.352 N 
ATOM      5  C   UNL     1       7.335  -1.040   1.132  1.00  0.00     0.253 C 
ATOM      6  O   UNL     1       8.339  -0.483   1.611  1.00  0.00    -0.269 OA
ATOM      7  H   UNL     1       6.450  -0.385   2.763  1.00  0.00     0.163 HD
BRANCH   5   8
ATOM      8  C   UNL     1       7.560  -1.842  -0.152  1.00  0.00     0.063 A 
ATOM      9  C   UNL     1       6.710  -2.610  -0.976  1.00  0.00     0.061 A 
ATOM     10  C   UNL     1       7.221  -3.260  -2.142  1.00  0.00     0.027 A 
ATOM     11  C   UNL     1       8.554  -3.194  -2.513  1.00  0.00     0.002 A 
ATOM     12  C   UNL     1       8.929  -1.823  -0.571  1.00  0.00     0.016 A 
ATOM     13  C   UNL     1       9.418  -2.477  -1.715  1.00  0.00     0.001 A 
BRANCH   9  14
ATOM     14  N   UNL     1       5.300  -2.763  -0.844  1.00  0.00    -0.284 N 
ATOM     15  O   UNL     1       1.106  -0.977  -1.583  1.00  0.00    -0.294 OA
ATOM     16  C   UNL     1       2.253  -0.761  -1.205  1.00  0.00     0.161 C 
ATOM     17  C   UNL     1       2.823   0.645  -1.117  1.00  0.00     0.081 C 
ATOM     18  C   UNL     1       3.119  -1.882  -0.741  1.00  0.00     0.023 C 
ATOM     19  C   UNL     1       4.066   0.734  -1.962  1.00  0.00     0.015 C 
ATOM     20  C   UNL     1       4.420  -1.703  -1.074  1.00  0.00     0.033 C 
ATOM     21  C   UNL     1       2.539  -3.232  -0.249  1.00  0.00     0.064 C 
ATOM     22  C   UNL     1       5.016  -0.427  -1.687  1.00  0.00     0.055 C 
ATOM     23  C   UNL     1       3.347  -4.284  -0.995  1.00  0.00     0.114 C 
ATOM     24  C   UNL     1       4.827  -4.091  -0.726  1.00  0.00     0.232 C 
ATOM     25  O   UNL     1       5.542  -5.066  -0.487  1.00  0.00    -0.274 OA
BRANCH  21  26
ATOM     26  C   UNL     1       2.425  -3.583   1.282  1.00  0.00    -0.039 A 
ATOM     27  C   UNL     1       3.213  -4.527   1.976  1.00  0.00     0.011 A 
ATOM     28  C   UNL     1       1.365  -3.068   2.038  1.00  0.00     0.011 A 
ATOM     29  C   UNL     1       3.016  -4.832   3.348  1.00  0.00     0.086 A 
ATOM     30  C   UNL     1       1.176  -3.301   3.415  1.00  0.00     0.086 A 
ATOM     31  C   UNL     1       2.025  -4.176   4.077  1.00  0.00     0.269 A 
BRANCH  31  32
ATOM     32  N   UNL     1       1.886  -4.382   5.524  1.00  0.00     0.062 N 
ATOM     33  O   UNL     1       2.474  -5.348   6.030  1.00  0.00    -0.258 OA
ATOM     34  O   UNL     1       1.219  -3.553   6.162  1.00  0.00    -0.258 OA
ENDBRANCH  31  32
ENDBRANCH  21  26
ENDBRANCH   9  14
ENDBRANCH   5   8
ENDBRANCH   3   4
ENDBRANCH   2   3
ENDBRANCH   1   2
BRANCH   1  35
ATOM     35  C   UNL     1       1.537   0.615   2.470  1.00  0.00     0.002 C 
BRANCH  35  36
ATOM     36  C   UNL     1       0.678   0.010   1.344  1.00  0.00     0.021 C 
BRANCH  36  37
ATOM     37  C   UNL     1      -0.789  -0.529   1.364  1.00  0.00     0.116 C 
BRANCH  37  38
ATOM     38  N   UNL     1      -1.382  -0.942   2.613  1.00  0.00    -0.352 N 
ATOM     39  C   UNL     1      -2.520  -1.729   2.771  1.00  0.00     0.251 C 
ATOM     40  H   UNL     1      -0.938  -0.637   3.436  1.00  0.00     0.163 HD
ATOM     41  O   UNL     1      -3.103  -1.744   3.843  1.00  0.00    -0.269 OA
BRANCH  39  42
ATOM     42  C   UNL     1      -3.050  -2.557   1.650  1.00  0.00     0.039 A 
ATOM     43  C   UNL     1      -4.262  -2.216   1.039  1.00  0.00     0.014 A 
ATOM     44  C   UNL     1      -2.413  -3.747   1.285  1.00  0.00     0.014 A 
ATOM     45  C   UNL     1      -4.799  -3.030   0.024  1.00  0.00     0.010 A 
ATOM     46  C   UNL     1      -2.940  -4.546   0.255  1.00  0.00     0.010 A 
ATOM     47  C   UNL     1      -4.135  -4.195  -0.397  1.00  0.00    -0.014 A 
BRANCH  47  48
ATOM     48  C   UNL     1      -4.665  -5.028  -1.522  1.00  0.00     0.031 A 
ATOM     49  C   UNL     1      -5.199  -6.418  -1.279  1.00  0.00     0.074 A 
ATOM     50  C   UNL     1      -4.621  -4.558  -2.786  1.00  0.00     0.049 A 
ATOM     51  N   UNL     1      -5.650  -7.297  -2.142  1.00  0.00    -0.248 NA
ATOM     52  C   UNL     1      -5.212  -6.885   0.114  1.00  0.00     0.031 C 
ATOM     53  C   UNL     1      -4.109  -3.243  -3.174  1.00  0.00     0.029 A 
ATOM     54  N   UNL     1      -4.995  -5.133  -3.979  1.00  0.00    -0.354 N 
ATOM     55  C   UNL     1      -5.985  -8.426  -1.400  1.00  0.00     0.074 A 
ATOM     56  C   UNL     1      -5.649  -8.130  -0.022  1.00  0.00     0.031 C 
ATOM     57  C   UNL     1      -4.203  -3.110  -4.506  1.00  0.00     0.029 A 
ATOM     58  C   UNL     1      -4.747  -4.341  -5.077  1.00  0.00     0.049 A 
ATOM     59  H   UNL     1      -5.403  -6.027  -4.042  1.00  0.00     0.167 HD
ATOM     60  C   UNL     1      -6.527  -9.598  -1.821  1.00  0.00     0.031 A 
ATOM     61  C   UNL     1      -4.915  -4.573  -6.396  1.00  0.00     0.031 A 
ATOM     62  C   UNL     1      -6.848  -9.898  -3.193  1.00  0.00     0.049 A 
ATOM     63  C   UNL     1      -5.503  -5.881  -6.851  1.00  0.00     0.074 A 
ATOM     64  C   UNL     1      -7.436 -11.040  -3.712  1.00  0.00     0.029 A 
ATOM     65  N   UNL     1      -6.597  -9.057  -4.268  1.00  0.00    -0.354 N 
ATOM     66  N   UNL     1      -5.871  -6.910  -6.125  1.00  0.00    -0.248 NA
ATOM     67  C   UNL     1      -5.712  -6.059  -8.295  1.00  0.00     0.031 C 
ATOM     68  C   UNL     1      -7.489 -10.912  -5.104  1.00  0.00     0.029 A 
ATOM     69  C   UNL     1      -6.995  -9.663  -5.449  1.00  0.00     0.049 A 
ATOM     70  H   UNL     1      -6.196  -8.161  -4.202  1.00  0.00     0.167 HD
ATOM     71  C   UNL     1      -6.380  -7.846  -7.020  1.00  0.00     0.074 A 
ATOM     72  C   UNL     1      -6.275  -7.261  -8.341  1.00  0.00     0.031 C 
ATOM     73  C   UNL     1      -6.894  -9.073  -6.762  1.00  0.00     0.031 A 
BRANCH  60  74
ATOM     74  C   UNL     1      -6.771 -10.662  -0.776  1.00  0.00    -0.014 A 
ATOM     75  C   UNL     1      -7.744 -10.494   0.227  1.00  0.00     0.010 A 
ATOM     76  C   UNL     1      -6.011 -11.846  -0.793  1.00  0.00     0.010 A 
ATOM     77  C   UNL     1      -7.893 -11.448   1.238  1.00  0.00     0.020 A 
ATOM     78  C   UNL     1      -6.179 -12.819   0.197  1.00  0.00     0.020 A 
ATOM     79  C   UNL     1      -7.097 -12.598   1.226  1.00  0.00     0.054 A 
BRANCH  79  80
ATOM     80  S   UNL     1      -7.273 -13.795   2.578  1.00  0.00     0.124 S 
ATOM     81  O   UNL     1      -6.612 -13.101   3.680  1.00  0.00    -0.237 OA
ATOM     82  O   UNL     1      -8.722 -13.931   2.701  1.00  0.00    -0.237 OA
ATOM     83  O   UNL     1      -6.578 -14.981   2.083  1.00  0.00    -0.744 OA
ENDBRANCH  79  80
ENDBRANCH  60  74
BRANCH  61  84
ATOM     84  C   UNL     1      -4.512  -3.524  -7.377  1.00  0.00    -0.014 A 
ATOM     85  C   UNL     1      -5.477  -2.763  -8.059  1.00  0.00     0.010 A 
ATOM     86  C   UNL     1      -3.149  -3.234  -7.578  1.00  0.00     0.010 A 
ATOM     87  C   UNL     1      -5.088  -1.724  -8.911  1.00  0.00     0.020 A 
ATOM     88  C   UNL     1      -2.757  -2.181  -8.409  1.00  0.00     0.020 A 
ATOM     89  C   UNL     1      -3.730  -1.431  -9.071  1.00  0.00     0.054 A 
BRANCH  89  90
ATOM     90  S   UNL     1      -3.253  -0.009 -10.095  1.00  0.00     0.124 S 
ATOM     91  O   UNL     1      -3.527  -0.497 -11.443  1.00  0.00    -0.237 OA
ATOM     92  O   UNL     1      -4.143   1.042  -9.608  1.00  0.00    -0.237 OA
ATOM     93  O   UNL     1      -1.840   0.185  -9.774  1.00  0.00    -0.744 OA
ENDBRANCH  89  90
ENDBRANCH  61  84
BRANCH  73  94
ATOM     94  C   UNL     1      -7.428  -9.877  -7.920  1.00  0.00    -0.014 A 
ATOM     95  C   UNL     1      -6.567 -10.522  -8.823  1.00  0.00     0.010 A 
ATOM     96  C   UNL     1      -8.816 -10.085  -8.028  1.00  0.00     0.010 A 
ATOM     97  C   UNL     1      -7.084 -11.364  -9.813  1.00  0.00     0.020 A 
ATOM     98  C   UNL     1      -9.335 -10.944  -9.001  1.00  0.00     0.020 A 
ATOM     99  C   UNL     1      -8.465 -11.578  -9.889  1.00  0.00     0.054 A 
BRANCH  99 100
ATOM    100  S   UNL     1      -9.101 -12.756 -11.115  1.00  0.00     0.124 S 
ATOM    101  O   UNL     1      -8.931 -12.018 -12.363  1.00  0.00    -0.237 OA
ATOM    102  O   UNL     1      -8.219 -13.907 -10.940  1.00  0.00    -0.237 OA
ATOM    103  O   UNL     1     -10.486 -12.971 -10.702  1.00  0.00    -0.744 OA
ENDBRANCH  99 100
ENDBRANCH  73  94
ENDBRANCH  47  48
ENDBRANCH  39  42
ENDBRANCH  37  38
ENDBRANCH  36  37
ENDBRANCH  35  36
ENDBRANCH   1  35
TORSDOF 19
