REMARK SMILES C[C@]12CC[C@@H]3[C@@H](CCC4=C/C(=N\OCC(=O)N5CCC[C@@H]5C(=O)NCCCCCCNC(=O)c5ccc(-c6c7nc(c(-c8ccc(S(=O)(=O)[O-])cc8)c8ccc([nH]8)c(-c8ccc(S(=O)(=O)[O-])cc8)c8nc(c(-c9ccc(S(=O)(=O)[O-])cc9)c9ccc6[nH]9)C=C8)C=C7)cc5)CC[C@@]43C)[C@@H]1CC[C@@H]2O
REMARK SMILES IDX 26 1 25 2 24 3 22 4 23 5 21 7 17 8 18 9 19 10 20 11 15 12
REMARK SMILES IDX 16 13 14 14 13 15 12 16 1 17 2 18 3 19 98 20 101 21 4 22
REMARK SMILES IDX 6 23 99 24 100 25 5 26 7 27 96 28 8 29 9 30 95 31 97 32
REMARK SMILES IDX 10 33 94 34 11 35 102 36 27 38 28 39 29 40 30 41 31 42 32 43
REMARK SMILES IDX 33 45 34 46 35 47 93 48 36 49 92 50 37 51 38 52 39 53 86 54
REMARK SMILES IDX 40 55 91 56 85 57 87 58 41 59 90 60 84 61 83 62 42 64 72 65
REMARK SMILES IDX 53 66 71 67 54 68 57 69 70 70 88 71 55 72 56 73 69 75 89 76
REMARK SMILES IDX 58 77 43 78 44 79 52 80 45 81 51 82 46 83 47 84 48 85 49 86
REMARK SMILES IDX 50 87 73 88 74 89 82 90 75 91 81 92 76 93 77 94 78 95 79 96
REMARK SMILES IDX 80 97 59 98 60 99 68 100 61 101 67 102 62 103 63 104 64 105
REMARK SMILES IDX 65 106 66 107
REMARK H PARENT 24 6 102 37 31 44 87 63 57 74
REMARK Flexibility Score: inf
ROOT
ATOM      1  C   UNL     1      -6.465  -7.618  -1.297  1.00  0.00     0.021 C 
ENDROOT
BRANCH   1   2
ATOM      2  C   UNL     1      -5.086  -7.854  -0.701  1.00  0.00     0.116 C 
BRANCH   2   3
ATOM      3  N   UNL     1      -5.000  -7.848   0.737  1.00  0.00    -0.354 N 
ATOM      4  C   UNL     1      -3.944  -8.288   1.485  1.00  0.00     0.242 C 
ATOM      5  O   UNL     1      -3.727  -7.668   2.535  1.00  0.00    -0.273 OA
ATOM      6  H   UNL     1      -5.775  -7.492   1.228  1.00  0.00     0.163 HD
BRANCH   4   7
ATOM      7  C   UNL     1      -3.019  -9.485   1.076  1.00  0.00     0.174 C 
ATOM      8  N   UNL     1      -3.468 -10.444   0.062  1.00  0.00    -0.328 N 
ATOM      9  C   UNL     1      -4.252 -11.510   0.680  1.00  0.00     0.120 C 
ATOM     10  C   UNL     1      -4.185 -11.248   2.178  1.00  0.00     0.024 C 
ATOM     11  C   UNL     1      -2.923 -10.402   2.313  1.00  0.00     0.037 C 
BRANCH   8  12
ATOM     12  C   UNL     1      -3.130 -10.558  -1.269  1.00  0.00     0.264 C 
ATOM     13  O   UNL     1      -3.636 -11.466  -1.946  1.00  0.00    -0.271 OA
BRANCH  12  14
ATOM     14  C   UNL     1      -2.167  -9.578  -1.982  1.00  0.00     0.363 C 
BRANCH  14  15
ATOM     15  O   UNL     1      -1.434  -8.557  -1.325  1.00  0.00    -0.385 OA
BRANCH  15  16
ATOM     16  N   UNL     1      -2.177  -7.383  -1.417  1.00  0.00    -0.091 NA
ATOM     17  C   UNL     1       0.130   0.918   0.032  1.00  0.00     0.014 C 
ATOM     18  C   UNL     1      -0.251  -0.402  -0.698  1.00  0.00    -0.003 C 
ATOM     19  C   UNL     1      -1.604  -0.806  -0.125  1.00  0.00     0.010 C 
ATOM     20  C   UNL     1       0.820  -1.529  -0.632  1.00  0.00     0.001 C 
ATOM     21  C   UNL     1      -0.217  -0.237  -2.230  1.00  0.00     0.120 C 
ATOM     22  C   UNL     1      -1.453  -1.512   1.235  1.00  0.00     0.005 C 
ATOM     23  C   UNL     1       0.978  -2.152   0.752  1.00  0.00    -0.003 C 
ATOM     24  C   UNL     1       1.993  -0.886  -1.397  1.00  0.00     0.007 C 
ATOM     25  C   UNL     1       1.285  -0.031  -2.489  1.00  0.00     0.032 C 
ATOM     26  C   UNL     1      -0.397  -2.649   1.274  1.00  0.00     0.002 C 
ATOM     27  C   UNL     1       1.983  -3.307   0.873  1.00  0.00     0.008 C 
ATOM     28  C   UNL     1      -0.929  -4.020   0.680  1.00  0.00    -0.008 C 
ATOM     29  C   UNL     1       1.594  -4.612   0.180  1.00  0.00     0.032 C 
ATOM     30  C   UNL     1       0.136  -4.993   0.158  1.00  0.00    -0.062 C 
ATOM     31  C   UNL     1      -1.883  -3.816  -0.509  1.00  0.00     0.018 C 
ATOM     32  C   UNL     1      -1.725  -4.697   1.838  1.00  0.00     0.016 C 
ATOM     33  C   UNL     1      -0.202  -6.116  -0.522  1.00  0.00     0.027 C 
ATOM     34  C   UNL     1      -2.481  -5.082  -1.058  1.00  0.00     0.061 C 
ATOM     35  C   UNL     1      -1.600  -6.309  -0.989  1.00  0.00     0.080 C 
BRANCH  21  36
ATOM     36  O   UNL     1      -1.033   0.795  -2.727  1.00  0.00    -0.393 OA
ATOM     37  H   UNL     1      -0.765   1.638  -2.330  1.00  0.00     0.210 HD
ENDBRANCH  21  36
ENDBRANCH  15  16
ENDBRANCH  14  15
ENDBRANCH  12  14
ENDBRANCH   8  12
ENDBRANCH   4   7
ENDBRANCH   2   3
ENDBRANCH   1   2
BRANCH   1  38
ATOM     38  C   UNL     1      -6.670  -6.205  -1.860  1.00  0.00     0.002 C 
BRANCH  38  39
ATOM     39  C   UNL     1      -5.605  -5.690  -2.840  1.00  0.00     0.002 C 
BRANCH  39  40
ATOM     40  C   UNL     1      -5.326  -6.540  -4.075  1.00  0.00     0.021 C 
BRANCH  40  41
ATOM     41  C   UNL     1      -6.545  -6.778  -4.949  1.00  0.00     0.116 C 
BRANCH  41  42
ATOM     42  N   UNL     1      -7.247  -5.540  -5.263  1.00  0.00    -0.352 N 
ATOM     43  C   UNL     1      -7.684  -5.060  -6.466  1.00  0.00     0.251 C 
ATOM     44  H   UNL     1      -7.435  -4.960  -4.490  1.00  0.00     0.163 HD
ATOM     45  O   UNL     1      -8.095  -3.900  -6.551  1.00  0.00    -0.269 OA
BRANCH  43  46
ATOM     46  C   UNL     1      -7.648  -5.927  -7.657  1.00  0.00     0.039 A 
ATOM     47  C   UNL     1      -7.261  -5.383  -8.883  1.00  0.00     0.014 A 
ATOM     48  C   UNL     1      -7.994  -7.277  -7.561  1.00  0.00     0.014 A 
ATOM     49  C   UNL     1      -7.176  -6.208 -10.004  1.00  0.00     0.010 A 
ATOM     50  C   UNL     1      -7.808  -8.116  -8.650  1.00  0.00     0.010 A 
ATOM     51  C   UNL     1      -7.422  -7.586  -9.888  1.00  0.00    -0.014 A 
BRANCH  51  52
ATOM     52  C   UNL     1      -7.325  -8.491 -11.057  1.00  0.00     0.031 A 
ATOM     53  C   UNL     1      -8.548  -9.235 -11.524  1.00  0.00     0.074 A 
ATOM     54  C   UNL     1      -6.133  -8.687 -11.653  1.00  0.00     0.049 A 
ATOM     55  N   UNL     1      -8.658 -10.121 -12.478  1.00  0.00    -0.248 NA
ATOM     56  C   UNL     1      -9.806  -8.974 -10.802  1.00  0.00     0.031 C 
ATOM     57  C   UNL     1      -4.871  -8.053 -11.258  1.00  0.00     0.029 A 
ATOM     58  N   UNL     1      -5.785  -9.480 -12.716  1.00  0.00    -0.354 N 
ATOM     59  C   UNL     1      -9.985 -10.536 -12.455  1.00  0.00     0.074 A 
ATOM     60  C   UNL     1     -10.626  -9.852 -11.356  1.00  0.00     0.031 C 
ATOM     61  C   UNL     1      -3.897  -8.457 -12.089  1.00  0.00     0.029 A 
ATOM     62  C   UNL     1      -4.452  -9.412 -13.043  1.00  0.00     0.049 A 
ATOM     63  H   UNL     1      -6.430 -10.046 -13.199  1.00  0.00     0.167 HD
ATOM     64  C   UNL     1     -10.619 -11.391 -13.291  1.00  0.00     0.031 A 
ATOM     65  C   UNL     1      -3.754 -10.052 -14.001  1.00  0.00     0.031 A 
ATOM     66  C   UNL     1      -9.976 -12.050 -14.395  1.00  0.00     0.049 A 
ATOM     67  C   UNL     1      -4.481 -11.001 -14.915  1.00  0.00     0.074 A 
ATOM     68  C   UNL     1     -10.537 -12.891 -15.339  1.00  0.00     0.029 A 
ATOM     69  N   UNL     1      -8.628 -11.942 -14.703  1.00  0.00    -0.354 N 
ATOM     70  N   UNL     1      -5.752 -11.330 -14.920  1.00  0.00    -0.248 NA
ATOM     71  C   UNL     1      -3.684 -11.653 -15.963  1.00  0.00     0.031 C 
ATOM     72  C   UNL     1      -9.517 -13.336 -16.185  1.00  0.00     0.029 A 
ATOM     73  C   UNL     1      -8.334 -12.719 -15.810  1.00  0.00     0.049 A 
ATOM     74  H   UNL     1      -7.977 -11.395 -14.208  1.00  0.00     0.167 HD
ATOM     75  C   UNL     1      -5.912 -12.202 -15.992  1.00  0.00     0.074 A 
ATOM     76  C   UNL     1      -4.613 -12.336 -16.618  1.00  0.00     0.031 C 
ATOM     77  C   UNL     1      -7.033 -12.833 -16.421  1.00  0.00     0.031 A 
BRANCH  64  78
ATOM     78  C   UNL     1     -12.080 -11.659 -13.043  1.00  0.00    -0.014 A 
ATOM     79  C   UNL     1     -13.050 -10.659 -13.246  1.00  0.00     0.010 A 
ATOM     80  C   UNL     1     -12.496 -12.941 -12.641  1.00  0.00     0.010 A 
ATOM     81  C   UNL     1     -14.402 -10.926 -13.017  1.00  0.00     0.020 A 
ATOM     82  C   UNL     1     -13.851 -13.221 -12.441  1.00  0.00     0.020 A 
ATOM     83  C   UNL     1     -14.794 -12.206 -12.616  1.00  0.00     0.054 A 
BRANCH  83  84
ATOM     84  S   UNL     1     -16.560 -12.533 -12.363  1.00  0.00     0.124 S 
ATOM     85  O   UNL     1     -16.831 -11.788 -11.136  1.00  0.00    -0.237 OA
ATOM     86  O   UNL     1     -17.163 -11.985 -13.576  1.00  0.00    -0.237 OA
ATOM     87  O   UNL     1     -16.631 -13.986 -12.237  1.00  0.00    -0.744 OA
ENDBRANCH  83  84
ENDBRANCH  64  78
BRANCH  65  88
ATOM     88  C   UNL     1      -2.294  -9.805 -14.154  1.00  0.00    -0.014 A 
ATOM     89  C   UNL     1      -1.797  -9.126 -15.280  1.00  0.00     0.010 A 
ATOM     90  C   UNL     1      -1.390 -10.243 -13.168  1.00  0.00     0.010 A 
ATOM     91  C   UNL     1      -0.423  -8.915 -15.432  1.00  0.00     0.020 A 
ATOM     92  C   UNL     1      -0.019 -10.005 -13.301  1.00  0.00     0.020 A 
ATOM     93  C   UNL     1       0.457  -9.355 -14.440  1.00  0.00     0.054 A 
BRANCH  93  94
ATOM     94  S   UNL     1       2.232  -9.037 -14.642  1.00  0.00     0.124 S 
ATOM     95  O   UNL     1       2.589  -9.970 -15.705  1.00  0.00    -0.237 OA
ATOM     96  O   UNL     1       2.259  -7.622 -15.005  1.00  0.00    -0.237 OA
ATOM     97  O   UNL     1       2.787  -9.345 -13.325  1.00  0.00    -0.744 OA
ENDBRANCH  93  94
ENDBRANCH  65  88
BRANCH  77  98
ATOM     98  C   UNL     1      -6.919 -13.688 -17.655  1.00  0.00    -0.014 A 
ATOM     99  C   UNL     1      -6.236 -14.916 -17.636  1.00  0.00     0.010 A 
ATOM    100  C   UNL     1      -7.561 -13.278 -18.838  1.00  0.00     0.010 A 
ATOM    101  C   UNL     1      -6.168 -15.703 -18.789  1.00  0.00     0.020 A 
ATOM    102  C   UNL     1      -7.524 -14.076 -19.983  1.00  0.00     0.020 A 
ATOM    103  C   UNL     1      -6.814 -15.278 -19.954  1.00  0.00     0.054 A 
BRANCH 103 104
ATOM    104  S   UNL     1      -6.748 -16.338 -21.424  1.00  0.00     0.124 S 
ATOM    105  O   UNL     1      -5.364 -16.172 -21.857  1.00  0.00    -0.237 OA
ATOM    106  O   UNL     1      -7.085 -17.654 -20.884  1.00  0.00    -0.237 OA
ATOM    107  O   UNL     1      -7.753 -15.761 -22.314  1.00  0.00    -0.744 OA
ENDBRANCH 103 104
ENDBRANCH  77  98
ENDBRANCH  51  52
ENDBRANCH  43  46
ENDBRANCH  41  42
ENDBRANCH  40  41
ENDBRANCH  39  40
ENDBRANCH  38  39
ENDBRANCH   1  38
TORSDOF 21
