REMARK SMILES C[NH2+][C@@]1(C(=O)NCCCCCCNC(=O)c2ccc(-c3c4nc(c(-c5ccc(S(=O)(=O)[O-])cc5)c5ccc([nH]5)c(-c5ccc(S(=O)(=O)[O-])cc5)c5nc(c(-c6ccc(S(=O)(=O)[O-])cc6)c6ccc3[nH]6)C=C5)C=C4)cc2)CCC[C@H](Oc2cccc(OC)c2)C1
REMARK SMILES IDX 9 1 8 2 7 3 6 4 4 5 5 6 3 8 76 9 89 10 77 11 79 12 78 13
REMARK SMILES IDX 2 14 1 15 80 18 81 19 82 20 88 21 83 22 85 23 84 24 86 25
REMARK SMILES IDX 87 26 10 27 11 28 12 29 13 30 14 31 15 33 16 34 17 35 75 36
REMARK SMILES IDX 18 37 74 38 19 39 20 40 21 41 68 42 22 43 73 44 67 45 69 46
REMARK SMILES IDX 23 47 72 48 66 49 65 50 24 52 54 53 35 54 53 55 36 56 39 57
REMARK SMILES IDX 52 58 70 59 37 60 38 61 51 63 71 64 40 65 25 66 26 67 34 68
REMARK SMILES IDX 27 69 33 70 28 71 29 72 30 73 31 74 32 75 55 76 56 77 64 78
REMARK SMILES IDX 57 79 63 80 58 81 59 82 60 83 61 84 62 85 41 86 42 87 50 88
REMARK SMILES IDX 43 89 49 90 44 91 45 92 46 93 47 94 48 95
REMARK H PARENT 6 7 2 16 2 17 13 32 69 51 39 62
REMARK Flexibility Score: inf
ROOT
ATOM      1  C   UNL     1      -5.876  -1.736  -3.401  1.00  0.00     0.002 C 
ENDROOT
BRANCH   1   2
ATOM      2  C   UNL     1      -4.752  -1.362  -2.437  1.00  0.00     0.021 C 
BRANCH   2   3
ATOM      3  C   UNL     1      -3.550  -2.302  -2.277  1.00  0.00     0.116 C 
BRANCH   3   4
ATOM      4  N   UNL     1      -2.306  -1.604  -2.631  1.00  0.00    -0.351 N 
ATOM      5  C   UNL     1      -1.281  -0.985  -1.992  1.00  0.00     0.281 C 
ATOM      6  O   UNL     1      -0.536  -0.345  -2.758  1.00  0.00    -0.268 OA
ATOM      7  H   UNL     1      -2.181  -1.579  -3.607  1.00  0.00     0.163 HD
BRANCH   5   8
ATOM      8  C   UNL     1      -0.891  -1.073  -0.453  1.00  0.00     0.178 C 
ATOM      9  C   UNL     1      -1.393  -2.332   0.269  1.00  0.00     0.079 C 
ATOM     10  C   UNL     1      -1.285   0.201   0.330  1.00  0.00     0.124 C 
ATOM     11  C   UNL     1      -2.587  -2.143   1.204  1.00  0.00     0.011 C 
ATOM     12  C   UNL     1      -2.788   0.382   0.531  1.00  0.00     0.180 C 
ATOM     13  C   UNL     1      -3.460  -0.905   1.026  1.00  0.00     0.046 C 
BRANCH   8  14
ATOM     14  N   UNL     1       0.618  -1.285  -0.450  1.00  0.00    -0.336 N 
ATOM     15  C   UNL     1       1.446  -0.099  -0.262  1.00  0.00     0.331 C 
ATOM     16  H   UNL     1       0.837  -1.937   0.303  1.00  0.00     0.346 HD
ATOM     17  H   UNL     1       0.843  -1.624  -1.386  1.00  0.00     0.346 HD
ENDBRANCH   8  14
BRANCH  12  18
ATOM     18  O   UNL     1      -3.292   0.862  -0.723  1.00  0.00    -0.490 OA
BRANCH  18  19
ATOM     19  C   UNL     1      -4.528   1.436  -0.823  1.00  0.00     0.123 A 
ATOM     20  C   UNL     1      -5.546   1.358   0.123  1.00  0.00     0.047 A 
ATOM     21  C   UNL     1      -4.792   2.021  -2.071  1.00  0.00     0.092 A 
ATOM     22  C   UNL     1      -6.834   1.793  -0.201  1.00  0.00     0.008 A 
ATOM     23  C   UNL     1      -6.082   2.430  -2.400  1.00  0.00     0.122 A 
ATOM     24  C   UNL     1      -7.105   2.321  -1.465  1.00  0.00     0.046 A 
BRANCH  23  25
ATOM     25  O   UNL     1      -6.381   3.004  -3.605  1.00  0.00    -0.497 OA
ATOM     26  C   UNL     1      -6.252   2.083  -4.686  1.00  0.00     0.278 C 
ENDBRANCH  23  25
ENDBRANCH  18  19
ENDBRANCH  12  18
ENDBRANCH   5   8
ENDBRANCH   3   4
ENDBRANCH   2   3
ENDBRANCH   1   2
BRANCH   1  27
ATOM     27  C   UNL     1      -6.870  -2.801  -2.949  1.00  0.00     0.002 C 
BRANCH  27  28
ATOM     28  C   UNL     1      -7.655  -2.560  -1.653  1.00  0.00     0.021 C 
BRANCH  28  29
ATOM     29  C   UNL     1      -8.686  -1.425  -1.539  1.00  0.00     0.116 C 
BRANCH  29  30
ATOM     30  N   UNL     1      -9.293  -0.921  -2.754  1.00  0.00    -0.352 N 
ATOM     31  C   UNL     1     -10.480  -0.215  -2.864  1.00  0.00     0.251 C 
ATOM     32  H   UNL     1      -8.810  -1.100  -3.593  1.00  0.00     0.163 HD
ATOM     33  O   UNL     1     -10.866   0.195  -3.946  1.00  0.00    -0.269 OA
BRANCH  31  34
ATOM     34  C   UNL     1     -11.307   0.005  -1.649  1.00  0.00     0.039 A 
ATOM     35  C   UNL     1     -12.571  -0.584  -1.573  1.00  0.00     0.014 A 
ATOM     36  C   UNL     1     -10.825   0.762  -0.578  1.00  0.00     0.014 A 
ATOM     37  C   UNL     1     -13.312  -0.489  -0.387  1.00  0.00     0.010 A 
ATOM     38  C   UNL     1     -11.550   0.828   0.616  1.00  0.00     0.010 A 
ATOM     39  C   UNL     1     -12.790   0.180   0.735  1.00  0.00    -0.014 A 
BRANCH  39  40
ATOM     40  C   UNL     1     -13.489   0.127   2.051  1.00  0.00     0.031 A 
ATOM     41  C   UNL     1     -14.086   1.360   2.674  1.00  0.00     0.074 A 
ATOM     42  C   UNL     1     -13.527  -1.040   2.727  1.00  0.00     0.049 A 
ATOM     43  N   UNL     1     -14.722   1.479   3.814  1.00  0.00    -0.248 NA
ATOM     44  C   UNL     1     -13.935   2.622   1.936  1.00  0.00     0.031 C 
ATOM     45  C   UNL     1     -12.937  -2.300   2.271  1.00  0.00     0.029 A 
ATOM     46  N   UNL     1     -14.080  -1.357   3.945  1.00  0.00    -0.354 N 
ATOM     47  C   UNL     1     -15.042   2.827   3.935  1.00  0.00     0.074 A 
ATOM     48  C   UNL     1     -14.494   3.490   2.769  1.00  0.00     0.031 C 
ATOM     49  C   UNL     1     -13.178  -3.256   3.182  1.00  0.00     0.029 A 
ATOM     50  C   UNL     1     -13.916  -2.675   4.301  1.00  0.00     0.049 A 
ATOM     51  H   UNL     1     -14.550  -0.701   4.509  1.00  0.00     0.167 HD
ATOM     52  C   UNL     1     -15.738   3.454   4.915  1.00  0.00     0.031 A 
ATOM     53  C   UNL     1     -14.312  -3.349   5.398  1.00  0.00     0.031 A 
ATOM     54  C   UNL     1     -16.286   2.799   6.076  1.00  0.00     0.049 A 
ATOM     55  C   UNL     1     -15.095  -2.637   6.466  1.00  0.00     0.074 A 
ATOM     56  C   UNL     1     -17.059   3.345   7.087  1.00  0.00     0.029 A 
ATOM     57  N   UNL     1     -16.115   1.459   6.387  1.00  0.00    -0.354 N 
ATOM     58  N   UNL     1     -15.460  -1.379   6.516  1.00  0.00    -0.248 NA
ATOM     59  C   UNL     1     -15.532  -3.439   7.618  1.00  0.00     0.031 C 
ATOM     60  C   UNL     1     -17.317   2.346   8.033  1.00  0.00     0.029 A 
ATOM     61  C   UNL     1     -16.748   1.165   7.585  1.00  0.00     0.049 A 
ATOM     62  H   UNL     1     -15.618   0.811   5.838  1.00  0.00     0.167 HD
ATOM     63  C   UNL     1     -16.189  -1.244   7.692  1.00  0.00     0.074 A 
ATOM     64  C   UNL     1     -16.226  -2.550   8.317  1.00  0.00     0.031 C 
ATOM     65  C   UNL     1     -16.778  -0.135   8.205  1.00  0.00     0.031 A 
BRANCH  52  66
ATOM     66  C   UNL     1     -15.948   4.940   4.778  1.00  0.00    -0.014 A 
ATOM     67  C   UNL     1     -16.830   5.459   3.813  1.00  0.00     0.010 A 
ATOM     68  C   UNL     1     -15.295   5.825   5.655  1.00  0.00     0.010 A 
ATOM     69  C   UNL     1     -17.020   6.839   3.697  1.00  0.00     0.020 A 
ATOM     70  C   UNL     1     -15.502   7.205   5.559  1.00  0.00     0.020 A 
ATOM     71  C   UNL     1     -16.349   7.704   4.567  1.00  0.00     0.054 A 
BRANCH  71  72
ATOM     72  S   UNL     1     -16.623   9.490   4.402  1.00  0.00     0.124 S 
ATOM     73  O   UNL     1     -15.850   9.802   3.202  1.00  0.00    -0.237 OA
ATOM     74  O   UNL     1     -18.074   9.581   4.255  1.00  0.00    -0.237 OA
ATOM     75  O   UNL     1     -16.091  10.039   5.646  1.00  0.00    -0.744 OA
ENDBRANCH  71  72
ENDBRANCH  52  66
BRANCH  53  76
ATOM     76  C   UNL     1     -13.996  -4.798   5.528  1.00  0.00    -0.014 A 
ATOM     77  C   UNL     1     -15.006  -5.764   5.374  1.00  0.00     0.010 A 
ATOM     78  C   UNL     1     -12.679  -5.218   5.785  1.00  0.00     0.010 A 
ATOM     79  C   UNL     1     -14.706  -7.125   5.485  1.00  0.00     0.020 A 
ATOM     80  C   UNL     1     -12.371  -6.579   5.872  1.00  0.00     0.020 A 
ATOM     81  C   UNL     1     -13.389  -7.524   5.730  1.00  0.00     0.054 A 
BRANCH  81  82
ATOM     82  S   UNL     1     -13.009  -9.296   5.802  1.00  0.00     0.124 S 
ATOM     83  O   UNL     1     -13.519  -9.663   7.119  1.00  0.00    -0.237 OA
ATOM     84  O   UNL     1     -13.754  -9.827   4.662  1.00  0.00    -0.237 OA
ATOM     85  O   UNL     1     -11.555  -9.338   5.657  1.00  0.00    -0.744 OA
ENDBRANCH  81  82
ENDBRANCH  53  76
BRANCH  65  86
ATOM     86  C   UNL     1     -17.537  -0.285   9.496  1.00  0.00    -0.014 A 
ATOM     87  C   UNL     1     -16.865  -0.448  10.721  1.00  0.00     0.010 A 
ATOM     88  C   UNL     1     -18.942  -0.209   9.491  1.00  0.00     0.010 A 
ATOM     89  C   UNL     1     -17.586  -0.560  11.914  1.00  0.00     0.020 A 
ATOM     90  C   UNL     1     -19.665  -0.297  10.684  1.00  0.00     0.020 A 
ATOM     91  C   UNL     1     -18.982  -0.485  11.887  1.00  0.00     0.054 A 
BRANCH  91  92
ATOM     92  S   UNL     1     -19.895  -0.586  13.452  1.00  0.00     0.124 S 
ATOM     93  O   UNL     1     -19.823  -2.013  13.754  1.00  0.00    -0.237 OA
ATOM     94  O   UNL     1     -19.119   0.282  14.334  1.00  0.00    -0.237 OA
ATOM     95  O   UNL     1     -21.225  -0.087  13.110  1.00  0.00    -0.744 OA
ENDBRANCH  91  92
ENDBRANCH  65  86
ENDBRANCH  39  40
ENDBRANCH  31  34
ENDBRANCH  29  30
ENDBRANCH  28  29
ENDBRANCH  27  28
ENDBRANCH   1  27
TORSDOF 20
