REMARK SMILES CNC(=O)[C@H](C)Nc1ccc(C(F)(F)F)cc1C(=O)NCCCCCCNC(=O)c1ccc(-c2c3nc(c(-c4ccc(S(=O)(=O)[O-])cc4)c4ccc([nH]4)c(-c4ccc(S(=O)(=O)[O-])cc4)c4nc(c(-c5ccc(S(=O)(=O)[O-])cc5)c5ccc2[nH]5)C=C4)C=C3)cc1
REMARK SMILES IDX 23 1 22 2 21 3 20 4 18 5 19 6 17 8 8 9 9 10 10 11 16 12
REMARK SMILES IDX 11 13 7 14 5 16 6 17 3 18 1 19 2 20 4 22 12 23 13 24 14 25
REMARK SMILES IDX 15 26 24 27 25 28 26 29 27 30 28 31 29 33 30 34 31 35 89 36
REMARK SMILES IDX 32 37 88 38 33 39 34 40 35 41 82 42 36 43 87 44 81 45 83 46
REMARK SMILES IDX 37 47 86 48 80 49 79 50 38 52 68 53 49 54 67 55 50 56 53 57
REMARK SMILES IDX 66 58 84 59 51 60 52 61 65 63 85 64 54 65 39 66 40 67 48 68
REMARK SMILES IDX 41 69 47 70 42 71 43 72 44 73 45 74 46 75 69 76 70 77 78 78
REMARK SMILES IDX 71 79 77 80 72 81 73 82 74 83 75 84 76 85 55 86 56 87 64 88
REMARK SMILES IDX 57 89 63 90 58 91 59 92 60 93 61 94 62 95
REMARK H PARENT 20 7 7 15 2 21 27 32 83 51 53 62
REMARK Flexibility Score: inf
ROOT
ATOM      1  C   UNL     1       2.393  -2.999   0.652  1.00  0.00     0.002 C 
ENDROOT
BRANCH   1   2
ATOM      2  C   UNL     1       1.472  -2.311   1.673  1.00  0.00     0.021 C 
BRANCH   2   3
ATOM      3  C   UNL     1      -0.026  -2.364   1.369  1.00  0.00     0.116 C 
BRANCH   3   4
ATOM      4  N   UNL     1      -0.569  -3.714   1.336  1.00  0.00    -0.352 N 
ATOM      5  C   UNL     1      -1.850  -4.173   1.117  1.00  0.00     0.253 C 
ATOM      6  O   UNL     1      -2.089  -5.357   1.374  1.00  0.00    -0.269 OA
ATOM      7  H   UNL     1       0.095  -4.423   1.499  1.00  0.00     0.163 HD
BRANCH   5   8
ATOM      8  C   UNL     1      -2.965  -3.326   0.620  1.00  0.00     0.063 A 
ATOM      9  C   UNL     1      -2.829  -2.311  -0.338  1.00  0.00     0.048 A 
ATOM     10  C   UNL     1      -3.922  -1.434  -0.501  1.00  0.00     0.027 A 
ATOM     11  C   UNL     1      -5.159  -1.662   0.130  1.00  0.00     0.015 A 
ATOM     12  C   UNL     1      -4.240  -3.616   1.163  1.00  0.00     0.029 A 
ATOM     13  C   UNL     1      -5.356  -2.809   0.902  1.00  0.00     0.056 A 
BRANCH   9  14
ATOM     14  N   UNL     1      -1.670  -2.144  -1.104  1.00  0.00    -0.373 N 
ATOM     15  H   UNL     1      -0.903  -1.670  -0.707  1.00  0.00     0.161 HD
BRANCH  14  16
ATOM     16  C   UNL     1      -1.555  -2.654  -2.492  1.00  0.00     0.165 C 
ATOM     17  C   UNL     1      -1.421  -1.370  -3.357  1.00  0.00     0.041 C 
BRANCH  16  18
ATOM     18  C   UNL     1      -0.276  -3.498  -2.857  1.00  0.00     0.241 C 
ATOM     19  C   UNL     1      -0.267  -5.635  -1.375  1.00  0.00     0.142 C 
ATOM     20  N   UNL     1       0.127  -4.701  -2.394  1.00  0.00    -0.357 N 
ATOM     21  H   UNL     1       0.909  -5.030  -2.894  1.00  0.00     0.163 HD
ATOM     22  O   UNL     1       0.485  -3.100  -3.758  1.00  0.00    -0.273 OA
ENDBRANCH  16  18
ENDBRANCH  14  16
ENDBRANCH   9  14
BRANCH  13  23
ATOM     23  C   UNL     1      -6.710  -3.173   1.468  1.00  0.00     0.416 C 
ATOM     24  F   UNL     1      -6.823  -2.890   2.794  1.00  0.00    -0.166 F 
ATOM     25  F   UNL     1      -7.745  -2.528   0.859  1.00  0.00    -0.166 F 
ATOM     26  F   UNL     1      -6.990  -4.503   1.347  1.00  0.00    -0.166 F 
ENDBRANCH  13  23
ENDBRANCH   5   8
ENDBRANCH   3   4
ENDBRANCH   2   3
ENDBRANCH   1   2
BRANCH   1  27
ATOM     27  C   UNL     1       2.369  -2.485  -0.791  1.00  0.00     0.002 C 
BRANCH  27  28
ATOM     28  C   UNL     1       2.692  -1.017  -1.050  1.00  0.00     0.021 C 
BRANCH  28  29
ATOM     29  C   UNL     1       3.982  -0.492  -0.440  1.00  0.00     0.116 C 
BRANCH  29  30
ATOM     30  N   UNL     1       5.188  -1.121  -0.948  1.00  0.00    -0.352 N 
ATOM     31  C   UNL     1       6.428  -0.553  -1.196  1.00  0.00     0.251 C 
ATOM     32  H   UNL     1       5.114  -2.083  -1.145  1.00  0.00     0.163 HD
ATOM     33  O   UNL     1       7.319  -1.214  -1.676  1.00  0.00    -0.269 OA
BRANCH  31  34
ATOM     34  C   UNL     1       6.637   0.893  -0.906  1.00  0.00     0.039 A 
ATOM     35  C   UNL     1       7.301   1.679  -1.854  1.00  0.00     0.014 A 
ATOM     36  C   UNL     1       6.163   1.477   0.270  1.00  0.00     0.014 A 
ATOM     37  C   UNL     1       7.416   3.060  -1.655  1.00  0.00     0.010 A 
ATOM     38  C   UNL     1       6.201   2.859   0.425  1.00  0.00     0.010 A 
ATOM     39  C   UNL     1       6.832   3.667  -0.532  1.00  0.00    -0.014 A 
BRANCH  39  40
ATOM     40  C   UNL     1       6.882   5.137  -0.322  1.00  0.00     0.031 A 
ATOM     41  C   UNL     1       7.595   5.699   0.880  1.00  0.00     0.074 A 
ATOM     42  C   UNL     1       6.220   5.962  -1.159  1.00  0.00     0.049 A 
ATOM     43  N   UNL     1       7.673   6.938   1.291  1.00  0.00    -0.248 NA
ATOM     44  C   UNL     1       8.280   4.733   1.755  1.00  0.00     0.031 C 
ATOM     45  C   UNL     1       5.445   5.542  -2.329  1.00  0.00     0.029 A 
ATOM     46  N   UNL     1       6.087   7.328  -1.147  1.00  0.00    -0.354 N 
ATOM     47  C   UNL     1       8.386   6.897   2.484  1.00  0.00     0.074 A 
ATOM     48  C   UNL     1       8.675   5.506   2.756  1.00  0.00     0.031 C 
ATOM     49  C   UNL     1       4.942   6.630  -2.937  1.00  0.00     0.029 A 
ATOM     50  C   UNL     1       5.329   7.819  -2.185  1.00  0.00     0.049 A 
ATOM     51  H   UNL     1       6.495   7.903  -0.460  1.00  0.00     0.167 HD
ATOM     52  C   UNL     1       8.785   7.923   3.273  1.00  0.00     0.031 A 
ATOM     53  C   UNL     1       4.986   9.084  -2.497  1.00  0.00     0.031 A 
ATOM     54  C   UNL     1       8.528   9.307   2.984  1.00  0.00     0.049 A 
ATOM     55  C   UNL     1       5.475  10.211  -1.631  1.00  0.00     0.074 A 
ATOM     56  C   UNL     1       8.944  10.426   3.684  1.00  0.00     0.029 A 
ATOM     57  N   UNL     1       7.793   9.763   1.900  1.00  0.00    -0.354 N 
ATOM     58  N   UNL     1       6.196  10.155  -0.536  1.00  0.00    -0.248 NA
ATOM     59  C   UNL     1       5.115  11.573  -2.049  1.00  0.00     0.031 C 
ATOM     60  C   UNL     1       8.434  11.559   3.038  1.00  0.00     0.029 A 
ATOM     61  C   UNL     1       7.736  11.146   1.915  1.00  0.00     0.049 A 
ATOM     62  H   UNL     1       7.375   9.188   1.219  1.00  0.00     0.167 HD
ATOM     63  C   UNL     1       6.395  11.474  -0.147  1.00  0.00     0.074 A 
ATOM     64  C   UNL     1       5.730  12.306  -1.130  1.00  0.00     0.031 C 
ATOM     65  C   UNL     1       7.068  11.955   0.928  1.00  0.00     0.031 A 
BRANCH  52  66
ATOM     66  C   UNL     1       9.545   7.573   4.525  1.00  0.00    -0.014 A 
ATOM     67  C   UNL     1      10.859   7.073   4.460  1.00  0.00     0.010 A 
ATOM     68  C   UNL     1       8.943   7.750   5.783  1.00  0.00     0.010 A 
ATOM     69  C   UNL     1      11.535   6.703   5.625  1.00  0.00     0.020 A 
ATOM     70  C   UNL     1       9.626   7.407   6.954  1.00  0.00     0.020 A 
ATOM     71  C   UNL     1      10.909   6.863   6.865  1.00  0.00     0.054 A 
BRANCH  71  72
ATOM     72  S   UNL     1      11.806   6.372   8.363  1.00  0.00     0.124 S 
ATOM     73  O   UNL     1      11.673   4.917   8.328  1.00  0.00    -0.237 OA
ATOM     74  O   UNL     1      13.151   6.885   8.119  1.00  0.00    -0.237 OA
ATOM     75  O   UNL     1      11.074   7.038   9.438  1.00  0.00    -0.744 OA
ENDBRANCH  71  72
ENDBRANCH  52  66
BRANCH  53  76
ATOM     76  C   UNL     1       4.165   9.352  -3.709  1.00  0.00    -0.014 A 
ATOM     77  C   UNL     1       4.759   9.902  -4.859  1.00  0.00     0.010 A 
ATOM     78  C   UNL     1       2.795   9.036  -3.730  1.00  0.00     0.010 A 
ATOM     79  C   UNL     1       3.996  10.141  -6.005  1.00  0.00     0.020 A 
ATOM     80  C   UNL     1       2.033   9.253  -4.883  1.00  0.00     0.020 A 
ATOM     81  C   UNL     1       2.637   9.813  -6.011  1.00  0.00     0.054 A 
BRANCH  81  82
ATOM     82  S   UNL     1       1.679  10.069  -7.531  1.00  0.00     0.124 S 
ATOM     83  O   UNL     1       1.463  11.512  -7.514  1.00  0.00    -0.237 OA
ATOM     84  O   UNL     1       2.585   9.576  -8.565  1.00  0.00    -0.237 OA
ATOM     85  O   UNL     1       0.485   9.253  -7.321  1.00  0.00    -0.744 OA
ENDBRANCH  81  82
ENDBRANCH  53  76
BRANCH  65  86
ATOM     86  C   UNL     1       7.140  13.448   1.083  1.00  0.00    -0.014 A 
ATOM     87  C   UNL     1       6.027  14.186   1.521  1.00  0.00     0.010 A 
ATOM     88  C   UNL     1       8.354  14.114   0.835  1.00  0.00     0.010 A 
ATOM     89  C   UNL     1       6.118  15.571   1.680  1.00  0.00     0.020 A 
ATOM     90  C   UNL     1       8.455  15.496   1.015  1.00  0.00     0.020 A 
ATOM     91  C   UNL     1       7.331  16.217   1.423  1.00  0.00     0.054 A 
BRANCH  91  92
ATOM     92  S   UNL     1       7.439  18.010   1.676  1.00  0.00     0.124 S 
ATOM     93  O   UNL     1       6.772  18.525   0.483  1.00  0.00    -0.237 OA
ATOM     94  O   UNL     1       6.718  18.203   2.932  1.00  0.00    -0.237 OA
ATOM     95  O   UNL     1       8.877  18.263   1.746  1.00  0.00    -0.744 OA
ENDBRANCH  91  92
ENDBRANCH  65  86
ENDBRANCH  39  40
ENDBRANCH  31  34
ENDBRANCH  29  30
ENDBRANCH  28  29
ENDBRANCH  27  28
ENDBRANCH   1  27
TORSDOF 20
