REMARK SMILES CS(=O)(=O)c1ccc(/C=C(/C(=O)NCCCCCCNC(=O)c2ccc(-c3c4nc(c(-c5ccc(S(=O)(=O)[O-])cc5)c5ccc([nH]5)c(-c5ccc(S(=O)(=O)[O-])cc5)c5nc(c(-c6ccc(S(=O)(=O)[O-])cc6)c6ccc3[nH]6)C=C5)C=C4)cc2)c2ccc(O)cc2)cc1
REMARK SMILES IDX 17 1 16 2 15 3 14 4 13 5 11 6 12 7 10 9 9 10 8 11 5 12 6 13
REMARK SMILES IDX 91 14 7 15 90 16 2 17 1 18 3 19 4 20 83 21 84 22 89 23 85 24
REMARK SMILES IDX 88 25 86 26 87 27 18 29 19 30 20 31 21 32 22 34 23 35 24 36
REMARK SMILES IDX 82 37 25 38 81 39 26 40 27 41 28 42 75 43 29 44 80 45 74 46
REMARK SMILES IDX 76 47 30 48 79 49 73 50 72 51 31 53 61 54 42 55 60 56 43 57
REMARK SMILES IDX 46 58 59 59 77 60 44 61 45 62 58 64 78 65 47 66 32 67 33 68
REMARK SMILES IDX 41 69 34 70 40 71 35 72 36 73 37 74 38 75 39 76 62 77 63 78
REMARK SMILES IDX 71 79 64 80 70 81 65 82 66 83 67 84 68 85 69 86 48 87 49 88
REMARK SMILES IDX 57 89 50 90 56 91 51 92 52 93 53 94 54 95 55 96
REMARK H PARENT 13 8 87 28 20 33 76 52 46 63
REMARK Flexibility Score: inf
ROOT
ATOM      1  C   UNL     1       1.005  11.964  -2.789  1.00  0.00     0.002 C 
ENDROOT
BRANCH   1   2
ATOM      2  C   UNL     1       1.645  11.198  -1.624  1.00  0.00     0.002 C 
BRANCH   2   3
ATOM      3  C   UNL     1       1.376   9.684  -1.614  1.00  0.00     0.021 C 
BRANCH   3   4
ATOM      4  C   UNL     1       1.928   8.957  -2.844  1.00  0.00     0.116 C 
BRANCH   4   5
ATOM      5  N   UNL     1       3.375   8.902  -2.768  1.00  0.00    -0.352 N 
ATOM      6  C   UNL     1       4.274   7.938  -2.443  1.00  0.00     0.251 C 
ATOM      7  O   UNL     1       5.455   8.296  -2.397  1.00  0.00    -0.269 OA
ATOM      8  H   UNL     1       3.802   9.757  -3.007  1.00  0.00     0.163 HD
BRANCH   6   9
ATOM      9  C   UNL     1       3.911   6.485  -2.240  1.00  0.00     0.047 C 
ATOM     10  C   UNL     1       2.740   6.095  -1.684  1.00  0.00     0.022 C 
BRANCH  10  11
ATOM     11  C   UNL     1       2.177   4.731  -1.544  1.00  0.00    -0.025 A 
ATOM     12  C   UNL     1       1.026   2.167  -1.528  1.00  0.00     0.067 A 
ATOM     13  C   UNL     1       2.359   2.334  -1.155  1.00  0.00     0.021 A 
ATOM     14  C   UNL     1       0.245   3.271  -1.868  1.00  0.00     0.021 A 
ATOM     15  C   UNL     1       2.915   3.616  -1.127  1.00  0.00     0.009 A 
ATOM     16  C   UNL     1       0.825   4.545  -1.880  1.00  0.00     0.009 A 
BRANCH  12  17
ATOM     17  S   UNL     1       0.331   0.534  -1.584  1.00  0.00     0.175 S 
ATOM     18  C   UNL     1       0.718  -0.171  -0.004  1.00  0.00     0.163 C 
ATOM     19  O   UNL     1       1.067  -0.197  -2.599  1.00  0.00    -0.224 OA
ATOM     20  O   UNL     1      -1.110   0.670  -1.652  1.00  0.00    -0.224 OA
ENDBRANCH  12  17
ENDBRANCH  10  11
BRANCH   9  21
ATOM     21  C   UNL     1       4.985   5.494  -2.509  1.00  0.00    -0.013 A 
ATOM     22  C   UNL     1       6.090   5.457  -1.639  1.00  0.00     0.013 A 
ATOM     23  C   UNL     1       4.887   4.533  -3.524  1.00  0.00     0.013 A 
ATOM     24  C   UNL     1       7.047   4.450  -1.743  1.00  0.00     0.047 A 
ATOM     25  C   UNL     1       5.841   3.512  -3.619  1.00  0.00     0.047 A 
ATOM     26  C   UNL     1       6.902   3.472  -2.716  1.00  0.00     0.115 A 
BRANCH  26  27
ATOM     27  O   UNL     1       7.820   2.464  -2.739  1.00  0.00    -0.508 OA
ATOM     28  H   UNL     1       8.525   2.458  -2.121  1.00  0.00     0.293 HD
ENDBRANCH  26  27
ENDBRANCH   9  21
ENDBRANCH   6   9
ENDBRANCH   4   5
ENDBRANCH   3   4
ENDBRANCH   2   3
ENDBRANCH   1   2
BRANCH   1  29
ATOM     29  C   UNL     1      -0.505  11.765  -2.940  1.00  0.00     0.021 C 
BRANCH  29  30
ATOM     30  C   UNL     1      -1.325  12.205  -1.731  1.00  0.00     0.116 C 
BRANCH  30  31
ATOM     31  N   UNL     1      -1.258  13.642  -1.525  1.00  0.00    -0.352 N 
ATOM     32  C   UNL     1      -2.283  14.546  -1.398  1.00  0.00     0.251 C 
ATOM     33  H   UNL     1      -0.350  14.020  -1.469  1.00  0.00     0.163 HD
ATOM     34  O   UNL     1      -2.049  15.750  -1.442  1.00  0.00    -0.269 OA
BRANCH  32  35
ATOM     35  C   UNL     1      -3.670  14.065  -1.224  1.00  0.00     0.039 A 
ATOM     36  C   UNL     1      -4.692  14.654  -1.973  1.00  0.00     0.014 A 
ATOM     37  C   UNL     1      -3.963  13.043  -0.315  1.00  0.00     0.014 A 
ATOM     38  C   UNL     1      -6.002  14.185  -1.847  1.00  0.00     0.010 A 
ATOM     39  C   UNL     1      -5.257  12.535  -0.237  1.00  0.00     0.010 A 
ATOM     40  C   UNL     1      -6.290  13.104  -0.997  1.00  0.00    -0.014 A 
BRANCH  40  41
ATOM     41  C   UNL     1      -7.667  12.558  -0.886  1.00  0.00     0.031 A 
ATOM     42  C   UNL     1      -8.418  12.662   0.414  1.00  0.00     0.074 A 
ATOM     43  C   UNL     1      -8.216  11.913  -1.934  1.00  0.00     0.049 A 
ATOM     44  N   UNL     1      -9.602  12.196   0.721  1.00  0.00    -0.248 NA
ATOM     45  C   UNL     1      -7.741  13.358   1.520  1.00  0.00     0.031 C 
ATOM     46  C   UNL     1      -7.575  11.713  -3.236  1.00  0.00     0.029 A 
ATOM     47  N   UNL     1      -9.436  11.299  -2.067  1.00  0.00    -0.354 N 
ATOM     48  C   UNL     1      -9.801  12.522   2.058  1.00  0.00     0.074 A 
ATOM     49  C   UNL     1      -8.600  13.187   2.514  1.00  0.00     0.031 C 
ATOM     50  C   UNL     1      -8.418  11.048  -4.043  1.00  0.00     0.029 A 
ATOM     51  C   UNL     1      -9.641  10.742  -3.307  1.00  0.00     0.049 A 
ATOM     52  H   UNL     1     -10.102  11.262  -1.343  1.00  0.00     0.167 HD
ATOM     53  C   UNL     1     -10.891  12.301   2.832  1.00  0.00     0.031 A 
ATOM     54  C   UNL     1     -10.693  10.057  -3.797  1.00  0.00     0.031 A 
ATOM     55  C   UNL     1     -12.091  11.655   2.370  1.00  0.00     0.049 A 
ATOM     56  C   UNL     1     -11.892   9.826  -2.920  1.00  0.00     0.074 A 
ATOM     57  C   UNL     1     -13.273  11.443   3.058  1.00  0.00     0.029 A 
ATOM     58  N   UNL     1     -12.262  11.115   1.105  1.00  0.00    -0.354 N 
ATOM     59  N   UNL     1     -12.087  10.199  -1.678  1.00  0.00    -0.248 NA
ATOM     60  C   UNL     1     -13.016   9.090  -3.514  1.00  0.00     0.031 C 
ATOM     61  C   UNL     1     -14.143  10.733   2.223  1.00  0.00     0.029 A 
ATOM     62  C   UNL     1     -13.521  10.549   0.998  1.00  0.00     0.049 A 
ATOM     63  H   UNL     1     -11.588  11.131   0.387  1.00  0.00     0.167 HD
ATOM     64  C   UNL     1     -13.367   9.767  -1.350  1.00  0.00     0.074 A 
ATOM     65  C   UNL     1     -13.902   9.114  -2.528  1.00  0.00     0.031 C 
ATOM     66  C   UNL     1     -14.039   9.902  -0.181  1.00  0.00     0.031 A 
BRANCH  53  67
ATOM     67  C   UNL     1     -10.827  12.754   4.266  1.00  0.00    -0.014 A 
ATOM     68  C   UNL     1     -10.843  14.121   4.599  1.00  0.00     0.010 A 
ATOM     69  C   UNL     1     -10.777  11.800   5.298  1.00  0.00     0.010 A 
ATOM     70  C   UNL     1     -10.761  14.525   5.935  1.00  0.00     0.020 A 
ATOM     71  C   UNL     1     -10.723  12.200   6.637  1.00  0.00     0.020 A 
ATOM     72  C   UNL     1     -10.694  13.561   6.945  1.00  0.00     0.054 A 
BRANCH  72  73
ATOM     73  S   UNL     1     -10.597  14.112   8.670  1.00  0.00     0.124 S 
ATOM     74  O   UNL     1      -9.211  14.568   8.761  1.00  0.00    -0.237 OA
ATOM     75  O   UNL     1     -11.608  15.164   8.730  1.00  0.00    -0.237 OA
ATOM     76  O   UNL     1     -10.908  12.908   9.437  1.00  0.00    -0.744 OA
ENDBRANCH  72  73
ENDBRANCH  53  67
BRANCH  54  77
ATOM     77  C   UNL     1     -10.666   9.564  -5.200  1.00  0.00    -0.014 A 
ATOM     78  C   UNL     1     -11.462  10.179  -6.183  1.00  0.00     0.010 A 
ATOM     79  C   UNL     1      -9.831   8.494  -5.567  1.00  0.00     0.010 A 
ATOM     80  C   UNL     1     -11.433   9.725  -7.504  1.00  0.00     0.020 A 
ATOM     81  C   UNL     1      -9.781   8.052  -6.892  1.00  0.00     0.020 A 
ATOM     82  C   UNL     1     -10.590   8.665  -7.851  1.00  0.00     0.054 A 
BRANCH  82  83
ATOM     83  S   UNL     1     -10.521   8.132  -9.584  1.00  0.00     0.124 S 
ATOM     84  O   UNL     1     -11.774   7.397  -9.725  1.00  0.00    -0.237 OA
ATOM     85  O   UNL     1     -10.447   9.402 -10.303  1.00  0.00    -0.237 OA
ATOM     86  O   UNL     1      -9.307   7.321  -9.643  1.00  0.00    -0.744 OA
ENDBRANCH  82  83
ENDBRANCH  54  77
BRANCH  66  87
ATOM     87  C   UNL     1     -15.442   9.360  -0.123  1.00  0.00    -0.014 A 
ATOM     88  C   UNL     1     -15.687   7.977  -0.061  1.00  0.00     0.010 A 
ATOM     89  C   UNL     1     -16.528  10.253  -0.076  1.00  0.00     0.010 A 
ATOM     90  C   UNL     1     -16.996   7.496   0.019  1.00  0.00     0.020 A 
ATOM     91  C   UNL     1     -17.837   9.776   0.030  1.00  0.00     0.020 A 
ATOM     92  C   UNL     1     -18.063   8.399   0.063  1.00  0.00     0.054 A 
BRANCH  92  93
ATOM     93  S   UNL     1     -19.751   7.752   0.214  1.00  0.00     0.124 S 
ATOM     94  O   UNL     1     -20.011   7.263  -1.137  1.00  0.00    -0.237 OA
ATOM     95  O   UNL     1     -19.610   6.721   1.240  1.00  0.00    -0.237 OA
ATOM     96  O   UNL     1     -20.534   8.918   0.617  1.00  0.00    -0.744 OA
ENDBRANCH  92  93
ENDBRANCH  66  87
ENDBRANCH  40  41
ENDBRANCH  32  35
ENDBRANCH  30  31
ENDBRANCH  29  30
ENDBRANCH   1  29
TORSDOF 20
