REMARK SMILES Cc1c(CC(=O)NCCCCCCNC(=O)c2ccc(-c3c4nc(c(-c5ccc(S(=O)(=O)[O-])cc5)c5ccc([nH]5)c(-c5ccc(S(=O)(=O)[O-])cc5)c5nc(c(-c6ccc(S(=O)(=O)[O-])cc6)c6ccc3[nH]6)C=C5)C=C4)cc2)cc(-c2ccc(S(C)(=O)=O)cc2)n1-c1ccccc1
REMARK SMILES IDX 10 1 9 2 8 3 7 4 5 5 6 6 4 8 3 9 1 10 2 11 89 12 77 13 78 14
REMARK SMILES IDX 90 15 91 16 95 17 92 18 94 19 93 20 79 21 80 22 88 23 81 24
REMARK SMILES IDX 87 25 82 26 83 27 84 28 85 29 86 30 11 31 12 32 13 33 14 34
REMARK SMILES IDX 15 35 16 37 17 38 18 39 76 40 19 41 75 42 20 43 21 44 22 45
REMARK SMILES IDX 69 46 23 47 74 48 68 49 70 50 24 51 73 52 67 53 66 54 25 56
REMARK SMILES IDX 55 57 36 58 54 59 37 60 40 61 53 62 71 63 38 64 39 65 52 67
REMARK SMILES IDX 72 68 41 69 26 70 27 71 35 72 28 73 34 74 29 75 30 76 31 77
REMARK SMILES IDX 32 78 33 79 56 80 57 81 65 82 58 83 64 84 59 85 60 86 61 87
REMARK SMILES IDX 62 88 63 89 42 90 43 91 51 92 44 93 50 94 45 95 46 96 47 97
REMARK SMILES IDX 48 98 49 99
REMARK H PARENT 7 7 14 36 70 55 40 66
REMARK Flexibility Score: inf
ROOT
ATOM      1  C   UNL     1       4.629  -1.135  -3.865  1.00  0.00     0.002 C 
ENDROOT
BRANCH   1   2
ATOM      2  C   UNL     1       3.113  -0.907  -3.835  1.00  0.00     0.021 C 
BRANCH   2   3
ATOM      3  C   UNL     1       2.281  -2.189  -3.873  1.00  0.00     0.116 C 
BRANCH   3   4
ATOM      4  N   UNL     1       2.278  -2.866  -2.588  1.00  0.00    -0.356 N 
ATOM      5  C   UNL     1       1.298  -2.909  -1.636  1.00  0.00     0.224 C 
ATOM      6  O   UNL     1       1.530  -3.515  -0.586  1.00  0.00    -0.275 OA
ATOM      7  H   UNL     1       3.099  -3.366  -2.372  1.00  0.00     0.163 HD
BRANCH   5   8
ATOM      8  C   UNL     1      -0.062  -2.285  -1.897  1.00  0.00     0.137 C 
BRANCH   8   9
ATOM      9  C   UNL     1      -0.019  -0.798  -2.040  1.00  0.00    -0.017 A 
ATOM     10  C   UNL     1       0.976  -0.060   0.237  1.00  0.00     0.065 C 
ATOM     11  C   UNL     1       0.470   0.152  -1.150  1.00  0.00     0.024 A 
ATOM     12  N   UNL     1       0.365   1.409  -1.743  1.00  0.00    -0.314 N 
ATOM     13  C   UNL     1      -0.507  -0.096  -3.162  1.00  0.00     0.033 A 
ATOM     14  C   UNL     1      -0.218   1.240  -2.995  1.00  0.00     0.053 A 
BRANCH  12  15
ATOM     15  C   UNL     1       0.800   2.654  -1.199  1.00  0.00     0.046 A 
ATOM     16  C   UNL     1      -0.033   3.780  -1.273  1.00  0.00     0.026 A 
ATOM     17  C   UNL     1       2.095   2.777  -0.686  1.00  0.00     0.026 A 
ATOM     18  C   UNL     1       0.434   5.025  -0.848  1.00  0.00     0.002 A 
ATOM     19  C   UNL     1       2.559   4.029  -0.273  1.00  0.00     0.002 A 
ATOM     20  C   UNL     1       1.731   5.149  -0.355  1.00  0.00     0.000 A 
ENDBRANCH  12  15
BRANCH  14  21
ATOM     21  C   UNL     1      -0.406   2.282  -3.989  1.00  0.00    -0.001 A 
ATOM     22  C   UNL     1       0.678   3.048  -4.439  1.00  0.00     0.011 A 
ATOM     23  C   UNL     1      -1.694   2.502  -4.489  1.00  0.00     0.011 A 
ATOM     24  C   UNL     1       0.457   4.082  -5.335  1.00  0.00     0.021 A 
ATOM     25  C   UNL     1      -1.921   3.528  -5.385  1.00  0.00     0.021 A 
ATOM     26  C   UNL     1      -0.850   4.322  -5.772  1.00  0.00     0.067 A 
BRANCH  26  27
ATOM     27  S   UNL     1      -1.180   5.694  -6.820  1.00  0.00     0.175 S 
ATOM     28  C   UNL     1      -0.452   7.034  -5.888  1.00  0.00     0.163 C 
ATOM     29  O   UNL     1      -0.450   5.382  -8.033  1.00  0.00    -0.224 OA
ATOM     30  O   UNL     1      -2.610   5.898  -6.847  1.00  0.00    -0.224 OA
ENDBRANCH  26  27
ENDBRANCH  14  21
ENDBRANCH   8   9
ENDBRANCH   5   8
ENDBRANCH   3   4
ENDBRANCH   2   3
ENDBRANCH   1   2
BRANCH   1  31
ATOM     31  C   UNL     1       5.192  -1.719  -5.168  1.00  0.00     0.002 C 
BRANCH  31  32
ATOM     32  C   UNL     1       4.708  -1.088  -6.491  1.00  0.00     0.021 C 
BRANCH  32  33
ATOM     33  C   UNL     1       4.623   0.455  -6.577  1.00  0.00     0.116 C 
BRANCH  33  34
ATOM     34  N   UNL     1       5.697   1.072  -7.323  1.00  0.00    -0.352 N 
ATOM     35  C   UNL     1       5.738   2.301  -7.967  1.00  0.00     0.251 C 
ATOM     36  H   UNL     1       6.524   0.541  -7.383  1.00  0.00     0.163 HD
ATOM     37  O   UNL     1       6.791   2.585  -8.537  1.00  0.00    -0.269 OA
BRANCH  35  38
ATOM     38  C   UNL     1       4.537   3.214  -8.110  1.00  0.00     0.039 A 
ATOM     39  C   UNL     1       3.768   3.081  -9.252  1.00  0.00     0.014 A 
ATOM     40  C   UNL     1       4.279   4.367  -7.339  1.00  0.00     0.014 A 
ATOM     41  C   UNL     1       2.740   4.026  -9.559  1.00  0.00     0.010 A 
ATOM     42  C   UNL     1       3.276   5.384  -7.712  1.00  0.00     0.010 A 
ATOM     43  C   UNL     1       2.463   5.263  -8.855  1.00  0.00    -0.014 A 
BRANCH  43  44
ATOM     44  C   UNL     1       1.625   6.405  -9.726  1.00  0.00     0.031 A 
ATOM     45  C   UNL     1       2.310   6.304 -11.034  1.00  0.00     0.074 A 
ATOM     46  C   UNL     1       0.751   7.506  -9.695  1.00  0.00     0.049 A 
ATOM     47  N   UNL     1       3.597   6.493 -11.018  1.00  0.00    -0.248 NA
ATOM     48  C   UNL     1       1.803   5.627 -12.221  1.00  0.00     0.031 C 
ATOM     49  C   UNL     1       0.291   8.273  -8.535  1.00  0.00     0.029 A 
ATOM     50  N   UNL     1       0.015   8.221 -10.704  1.00  0.00    -0.354 N 
ATOM     51  C   UNL     1       4.054   6.245 -12.279  1.00  0.00     0.074 A 
ATOM     52  C   UNL     1       2.953   5.507 -12.901  1.00  0.00     0.031 C 
ATOM     53  C   UNL     1      -0.781   9.077  -8.806  1.00  0.00     0.029 A 
ATOM     54  C   UNL     1      -1.070   9.076 -10.236  1.00  0.00     0.049 A 
ATOM     55  H   UNL     1       0.234   8.138 -11.660  1.00  0.00     0.167 HD
ATOM     56  C   UNL     1       4.807   7.264 -12.787  1.00  0.00     0.031 A 
ATOM     57  C   UNL     1      -2.006   9.861 -10.923  1.00  0.00     0.031 A 
ATOM     58  C   UNL     1       3.993   8.140 -13.593  1.00  0.00     0.049 A 
ATOM     59  C   UNL     1      -1.211  10.368 -12.046  1.00  0.00     0.074 A 
ATOM     60  C   UNL     1       3.049   7.889 -14.570  1.00  0.00     0.029 A 
ATOM     61  N   UNL     1       3.724   9.397 -13.089  1.00  0.00    -0.354 N 
ATOM     62  N   UNL     1      -0.301  11.280 -11.882  1.00  0.00    -0.248 NA
ATOM     63  C   UNL     1      -1.439   9.932 -13.414  1.00  0.00     0.031 C 
ATOM     64  C   UNL     1       1.979   8.755 -14.263  1.00  0.00     0.029 A 
ATOM     65  C   UNL     1       2.436   9.766 -13.428  1.00  0.00     0.049 A 
ATOM     66  H   UNL     1       4.354   9.947 -12.568  1.00  0.00     0.167 HD
ATOM     67  C   UNL     1       0.498  11.089 -12.968  1.00  0.00     0.074 A 
ATOM     68  C   UNL     1      -0.366  10.492 -13.973  1.00  0.00     0.031 C 
ATOM     69  C   UNL     1       1.821  10.880 -12.740  1.00  0.00     0.031 A 
BRANCH  56  70
ATOM     70  C   UNL     1       5.889   7.751 -11.838  1.00  0.00    -0.014 A 
ATOM     71  C   UNL     1       7.231   7.487 -12.139  1.00  0.00     0.010 A 
ATOM     72  C   UNL     1       5.595   8.353 -10.588  1.00  0.00     0.010 A 
ATOM     73  C   UNL     1       8.239   7.778 -11.207  1.00  0.00     0.020 A 
ATOM     74  C   UNL     1       6.589   8.612  -9.641  1.00  0.00     0.020 A 
ATOM     75  C   UNL     1       7.911   8.322  -9.958  1.00  0.00     0.054 A 
BRANCH  75  76
ATOM     76  S   UNL     1       9.231   8.591  -8.742  1.00  0.00     0.124 S 
ATOM     77  O   UNL     1       9.951   7.318  -8.762  1.00  0.00    -0.237 OA
ATOM     78  O   UNL     1       9.956   9.718  -9.322  1.00  0.00    -0.237 OA
ATOM     79  O   UNL     1       8.518   8.865  -7.497  1.00  0.00    -0.744 OA
ENDBRANCH  75  76
ENDBRANCH  56  70
BRANCH  57  80
ATOM     80  C   UNL     1      -3.353  10.677 -10.877  1.00  0.00    -0.014 A 
ATOM     81  C   UNL     1      -3.493  11.884 -11.652  1.00  0.00     0.010 A 
ATOM     82  C   UNL     1      -4.585  10.101 -10.510  1.00  0.00     0.010 A 
ATOM     83  C   UNL     1      -4.726  12.381 -12.153  1.00  0.00     0.020 A 
ATOM     84  C   UNL     1      -5.842  10.614 -10.983  1.00  0.00     0.020 A 
ATOM     85  C   UNL     1      -5.903  11.716 -11.846  1.00  0.00     0.054 A 
BRANCH  85  86
ATOM     86  S   UNL     1      -7.457  12.204 -12.703  1.00  0.00     0.124 S 
ATOM     87  O   UNL     1      -7.722  13.539 -12.175  1.00  0.00    -0.237 OA
ATOM     88  O   UNL     1      -7.076  12.155 -14.114  1.00  0.00    -0.237 OA
ATOM     89  O   UNL     1      -8.414  11.176 -12.296  1.00  0.00    -0.744 OA
ENDBRANCH  85  86
ENDBRANCH  57  80
BRANCH  69  90
ATOM     90  C   UNL     1       2.505  11.727 -11.675  1.00  0.00    -0.014 A 
ATOM     91  C   UNL     1       1.991  12.009 -10.387  1.00  0.00     0.010 A 
ATOM     92  C   UNL     1       3.720  12.343 -12.024  1.00  0.00     0.010 A 
ATOM     93  C   UNL     1       2.616  12.929  -9.528  1.00  0.00     0.020 A 
ATOM     94  C   UNL     1       4.375  13.226 -11.156  1.00  0.00     0.020 A 
ATOM     95  C   UNL     1       3.799  13.546  -9.929  1.00  0.00     0.054 A 
BRANCH  95  96
ATOM     96  S   UNL     1       4.543  14.811  -8.862  1.00  0.00     0.124 S 
ATOM     97  O   UNL     1       3.545  15.879  -8.906  1.00  0.00    -0.237 OA
ATOM     98  O   UNL     1       4.662  14.126  -7.579  1.00  0.00    -0.237 OA
ATOM     99  O   UNL     1       5.804  15.129  -9.528  1.00  0.00    -0.744 OA
ENDBRANCH  95  96
ENDBRANCH  69  90
ENDBRANCH  43  44
ENDBRANCH  35  38
ENDBRANCH  33  34
ENDBRANCH  32  33
ENDBRANCH  31  32
ENDBRANCH   1  31
TORSDOF 20
