REMARK SMILES O=C(NCCCCCCNC(=O)[C@]12C[NH2+]C[C@H]1CN(C(=O)c1ccccc1-n1cncn1)C2)c1ccc(-c2c3nc(c(-c4ccc(S(=O)(=O)[O-])cc4)c4ccc([nH]4)c(-c4ccc(S(=O)(=O)[O-])cc4)c4nc(c(-c5ccc(S(=O)(=O)[O-])cc5)c5ccc2[nH]5)C=C4)C=C3)cc1
REMARK SMILES IDX 6 1 5 2 4 3 3 4 1 5 2 6 34 8 35 9 93 10 36 11 92 12 37 13
REMARK SMILES IDX 38 14 39 15 86 16 40 17 91 18 85 19 87 20 41 21 90 22 84 23
REMARK SMILES IDX 83 24 42 26 72 27 53 28 71 29 54 30 57 31 70 32 88 33 55 34
REMARK SMILES IDX 56 35 69 37 89 38 58 39 43 40 44 41 52 42 45 43 51 44 46 45
REMARK SMILES IDX 47 46 48 47 49 48 50 49 73 50 74 51 82 52 75 53 81 54 76 55
REMARK SMILES IDX 77 56 78 57 79 58 80 59 59 60 60 61 68 62 61 63 67 64 62 65
REMARK SMILES IDX 63 66 64 67 65 68 66 69 7 70 8 71 9 72 10 73 11 74 12 76
REMARK SMILES IDX 13 77 14 78 17 79 33 80 15 81 16 82 18 83 19 84 20 87 21 88
REMARK SMILES IDX 22 89 23 90 27 91 24 92 26 93 25 94 28 95 29 96 32 97 30 98
REMARK SMILES IDX 31 99
REMARK H PARENT 3 7 87 25 57 36 10 75 15 85 15 86
REMARK Flexibility Score: inf
ROOT
ATOM      1  C   UNL     1       3.926  -0.917  -3.334  1.00  0.00     0.002 C 
ENDROOT
BRANCH   1   2
ATOM      2  C   UNL     1       4.493  -1.033  -1.916  1.00  0.00     0.021 C 
BRANCH   2   3
ATOM      3  C   UNL     1       4.567   0.305  -1.179  1.00  0.00     0.116 C 
BRANCH   3   4
ATOM      4  N   UNL     1       3.281   0.935  -0.970  1.00  0.00    -0.352 N 
ATOM      5  O   UNL     1       1.251   1.395  -0.191  1.00  0.00    -0.269 OA
ATOM      6  C   UNL     1       2.238   0.662  -0.130  1.00  0.00     0.251 C 
ATOM      7  H   UNL     1       3.127   1.717  -1.549  1.00  0.00     0.163 HD
BRANCH   6   8
ATOM      8  C   UNL     1       2.219  -0.516   0.769  1.00  0.00     0.039 A 
ATOM      9  C   UNL     1       3.359  -1.136   1.287  1.00  0.00     0.014 A 
ATOM     10  C   UNL     1       0.955  -1.028   1.091  1.00  0.00     0.014 A 
ATOM     11  C   UNL     1       3.259  -2.334   1.975  1.00  0.00     0.010 A 
ATOM     12  C   UNL     1       0.844  -2.189   1.840  1.00  0.00     0.010 A 
ATOM     13  C   UNL     1       2.001  -2.871   2.227  1.00  0.00    -0.014 A 
BRANCH  13  14
ATOM     14  C   UNL     1       1.927  -4.099   3.012  1.00  0.00     0.031 A 
ATOM     15  C   UNL     1       2.385  -3.998   4.433  1.00  0.00     0.074 A 
ATOM     16  C   UNL     1       1.286  -5.182   2.533  1.00  0.00     0.049 A 
ATOM     17  N   UNL     1       3.167  -4.785   5.103  1.00  0.00    -0.248 NA
ATOM     18  C   UNL     1       1.954  -2.807   5.189  1.00  0.00     0.031 C 
ATOM     19  C   UNL     1       0.537  -5.285   1.275  1.00  0.00     0.029 A 
ATOM     20  N   UNL     1       1.013  -6.361   3.155  1.00  0.00    -0.354 N 
ATOM     21  C   UNL     1       3.192  -4.287   6.407  1.00  0.00     0.074 A 
ATOM     22  C   UNL     1       2.526  -3.011   6.374  1.00  0.00     0.031 C 
ATOM     23  C   UNL     1      -0.324  -6.321   1.363  1.00  0.00     0.029 A 
ATOM     24  C   UNL     1      -0.088  -7.016   2.617  1.00  0.00     0.049 A 
ATOM     25  H   UNL     1       1.540  -6.713   3.909  1.00  0.00     0.167 HD
ATOM     26  C   UNL     1       3.589  -5.018   7.486  1.00  0.00     0.031 A 
ATOM     27  C   UNL     1      -0.838  -7.969   3.223  1.00  0.00     0.031 A 
ATOM     28  C   UNL     1       4.368  -6.166   7.127  1.00  0.00     0.049 A 
ATOM     29  C   UNL     1      -0.042  -8.524   4.343  1.00  0.00     0.074 A 
ATOM     30  C   UNL     1       5.586  -6.363   6.509  1.00  0.00     0.029 A 
ATOM     31  N   UNL     1       3.744  -7.390   7.119  1.00  0.00    -0.354 N 
ATOM     32  N   UNL     1       1.068  -9.189   4.182  1.00  0.00    -0.248 NA
ATOM     33  C   UNL     1      -0.249  -7.980   5.676  1.00  0.00     0.031 C 
ATOM     34  C   UNL     1       5.420  -7.549   5.737  1.00  0.00     0.029 A 
ATOM     35  C   UNL     1       4.122  -8.015   5.958  1.00  0.00     0.049 A 
ATOM     36  H   UNL     1       3.143  -7.748   7.812  1.00  0.00     0.167 HD
ATOM     37  C   UNL     1       1.875  -8.810   5.245  1.00  0.00     0.074 A 
ATOM     38  C   UNL     1       0.974  -8.151   6.186  1.00  0.00     0.031 C 
ATOM     39  C   UNL     1       3.238  -8.820   5.141  1.00  0.00     0.031 A 
BRANCH  26  40
ATOM     40  C   UNL     1       2.970  -4.860   8.853  1.00  0.00    -0.014 A 
ATOM     41  C   UNL     1       3.537  -5.524   9.959  1.00  0.00     0.010 A 
ATOM     42  C   UNL     1       1.684  -4.304   9.027  1.00  0.00     0.010 A 
ATOM     43  C   UNL     1       2.823  -5.675  11.158  1.00  0.00     0.020 A 
ATOM     44  C   UNL     1       0.984  -4.411  10.229  1.00  0.00     0.020 A 
ATOM     45  C   UNL     1       1.542  -5.131  11.275  1.00  0.00     0.054 A 
BRANCH  45  46
ATOM     46  S   UNL     1       0.570  -5.454  12.768  1.00  0.00     0.124 S 
ATOM     47  O   UNL     1       0.330  -6.890  12.664  1.00  0.00    -0.237 OA
ATOM     48  O   UNL     1       1.482  -5.038  13.830  1.00  0.00    -0.237 OA
ATOM     49  O   UNL     1      -0.609  -4.607  12.599  1.00  0.00    -0.744 OA
ENDBRANCH  45  46
ENDBRANCH  26  40
BRANCH  27  50
ATOM     50  C   UNL     1      -2.312  -8.109   3.115  1.00  0.00    -0.014 A 
ATOM     51  C   UNL     1      -2.967  -9.288   3.506  1.00  0.00     0.010 A 
ATOM     52  C   UNL     1      -3.108  -6.975   2.842  1.00  0.00     0.010 A 
ATOM     53  C   UNL     1      -4.366  -9.320   3.648  1.00  0.00     0.020 A 
ATOM     54  C   UNL     1      -4.499  -7.002   2.969  1.00  0.00     0.020 A 
ATOM     55  C   UNL     1      -5.122  -8.171   3.389  1.00  0.00     0.054 A 
BRANCH  55  56
ATOM     56  S   UNL     1      -6.909  -8.178   3.713  1.00  0.00     0.124 S 
ATOM     57  O   UNL     1      -7.411  -9.053   2.657  1.00  0.00    -0.237 OA
ATOM     58  O   UNL     1      -6.983  -8.714   5.069  1.00  0.00    -0.237 OA
ATOM     59  O   UNL     1      -7.288  -6.772   3.584  1.00  0.00    -0.744 OA
ENDBRANCH  55  56
ENDBRANCH  27  50
BRANCH  39  60
ATOM     60  C   UNL     1       3.859  -9.457   3.917  1.00  0.00    -0.014 A 
ATOM     61  C   UNL     1       3.657  -8.953   2.616  1.00  0.00     0.010 A 
ATOM     62  C   UNL     1       4.815 -10.470   4.100  1.00  0.00     0.010 A 
ATOM     63  C   UNL     1       4.377  -9.460   1.527  1.00  0.00     0.020 A 
ATOM     64  C   UNL     1       5.549 -10.971   3.019  1.00  0.00     0.020 A 
ATOM     65  C   UNL     1       5.323 -10.466   1.737  1.00  0.00     0.054 A 
BRANCH  65  66
ATOM     66  S   UNL     1       6.307 -11.059   0.331  1.00  0.00     0.124 S 
ATOM     67  O   UNL     1       5.325 -11.800  -0.455  1.00  0.00    -0.237 OA
ATOM     68  O   UNL     1       6.788  -9.819  -0.275  1.00  0.00    -0.237 OA
ATOM     69  O   UNL     1       7.346 -11.877   0.955  1.00  0.00    -0.744 OA
ENDBRANCH  65  66
ENDBRANCH  39  60
ENDBRANCH  13  14
ENDBRANCH   6   8
ENDBRANCH   3   4
ENDBRANCH   2   3
ENDBRANCH   1   2
BRANCH   1  70
ATOM     70  C   UNL     1       4.570   0.190  -4.176  1.00  0.00     0.002 C 
BRANCH  70  71
ATOM     71  C   UNL     1       6.103   0.136  -4.216  1.00  0.00     0.021 C 
BRANCH  71  72
ATOM     72  C   UNL     1       6.621  -1.144  -4.849  1.00  0.00     0.116 C 
BRANCH  72  73
ATOM     73  N   UNL     1       6.326  -1.115  -6.264  1.00  0.00    -0.355 N 
ATOM     74  C   UNL     1       7.238  -0.925  -7.267  1.00  0.00     0.234 C 
ATOM     75  H   UNL     1       5.386  -1.243  -6.530  1.00  0.00     0.163 HD
ATOM     76  O   UNL     1       6.849  -0.757  -8.422  1.00  0.00    -0.274 OA
BRANCH  74  77
ATOM     77  C   UNL     1       8.702  -1.033  -6.816  1.00  0.00     0.125 C 
ATOM     78  C   UNL     1       8.907   0.453  -7.335  1.00  0.00     0.280 C 
ATOM     79  C   UNL     1      10.249  -1.183  -6.836  1.00  0.00     0.087 C 
ATOM     80  C   UNL     1       8.616  -2.509  -7.462  1.00  0.00     0.143 C 
ATOM     81  N   UNL     1       9.923   1.077  -6.452  1.00  0.00    -0.345 N 
ATOM     82  C   UNL     1      10.863   0.010  -6.149  1.00  0.00     0.267 C 
ATOM     83  C   UNL     1      10.573  -2.495  -6.156  1.00  0.00     0.130 C 
ATOM     84  N   UNL     1       9.514  -3.327  -6.641  1.00  0.00    -0.337 N 
ATOM     85  H   UNL     1       9.490   1.426  -5.597  1.00  0.00     0.346 HD
ATOM     86  H   UNL     1      10.379   1.875  -6.895  1.00  0.00     0.346 HD
BRANCH  84  87
ATOM     87  C   UNL     1       9.368  -4.624  -6.188  1.00  0.00     0.256 C 
ATOM     88  O   UNL     1      10.147  -5.130  -5.375  1.00  0.00    -0.269 OA
BRANCH  87  89
ATOM     89  C   UNL     1       8.253  -5.455  -6.696  1.00  0.00     0.065 A 
ATOM     90  C   UNL     1       7.354  -5.956  -5.742  1.00  0.00     0.016 A 
ATOM     91  C   UNL     1       8.020  -5.689  -8.061  1.00  0.00     0.079 A 
ATOM     92  C   UNL     1       6.208  -6.644  -6.147  1.00  0.00     0.001 A 
ATOM     93  C   UNL     1       6.835  -6.328  -8.462  1.00  0.00     0.029 A 
ATOM     94  C   UNL     1       5.941  -6.814  -7.504  1.00  0.00     0.002 A 
BRANCH  91  95
ATOM     95  N   UNL     1       8.945  -5.297  -9.054  1.00  0.00    -0.220 N 
ATOM     96  C   UNL     1      10.313  -5.174  -8.979  1.00  0.00     0.225 A 
ATOM     97  N   UNL     1       8.534  -4.908 -10.288  1.00  0.00    -0.155 NA
ATOM     98  N   UNL     1      10.779  -4.578 -10.053  1.00  0.00    -0.223 NA
ATOM     99  C   UNL     1       9.659  -4.415 -10.809  1.00  0.00     0.246 A 
ENDBRANCH  91  95
ENDBRANCH  87  89
ENDBRANCH  84  87
ENDBRANCH  74  77
ENDBRANCH  72  73
ENDBRANCH  71  72
ENDBRANCH  70  71
ENDBRANCH   1  70
TORSDOF 19
