REMARK SMILES CC(C)C[C@H](NC(=O)[C@H](Cc1ccccc1)NC(=O)CNC(=O)CNC(=O)OCc1ccccc1)C(=O)NCCCCCCNC(=O)c1ccc(-c2c3nc(c(-c4ccc(S(=O)(=O)[O-])cc4)c4ccc([nH]4)c(-c4ccc(S(=O)(=O)[O-])cc4)c4nc(c(-c5ccc(S(=O)(=O)[O-])cc5)c5ccc2[nH]5)C=C4)C=C3)cc1
REMARK SMILES IDX 36 1 37 2 38 3 5 5 4 6 2 7 1 8 3 9 6 10 7 11 8 13 9 14 17 15
REMARK SMILES IDX 18 16 19 18 20 19 21 20 22 21 23 23 24 24 25 25 26 26 27 28
REMARK SMILES IDX 28 29 29 30 30 31 31 32 35 33 32 34 34 35 33 36 10 37 11 38
REMARK SMILES IDX 12 39 16 40 13 41 15 42 14 43 39 44 40 45 41 46 42 47 43 48
REMARK SMILES IDX 44 49 45 50 46 51 47 53 48 54 49 55 107 56 50 57 106 58
REMARK SMILES IDX 51 59 52 60 53 61 100 62 54 63 105 64 99 65 101 66 55 67
REMARK SMILES IDX 104 68 98 69 97 70 56 72 86 73 67 74 85 75 68 76 71 77 84 78
REMARK SMILES IDX 102 79 69 80 70 81 83 83 103 84 72 85 57 86 58 87 66 88
REMARK SMILES IDX 59 89 65 90 60 91 61 92 62 93 63 94 64 95 87 96 88 97 96 98
REMARK SMILES IDX 89 99 95 100 90 101 91 102 92 103 93 104 94 105 73 106
REMARK SMILES IDX 74 107 82 108 75 109 81 110 76 111 77 112 78 113 79 114
REMARK SMILES IDX 80 115
REMARK H PARENT 38 4 6 12 17 17 21 22 25 27 45 52 101 71 71 82
REMARK Flexibility Score: inf
ROOT
ATOM      1  C   UNL     1       0.320   6.213   0.653  1.00  0.00     0.242 C 
ATOM      2  O   UNL     1       0.696   6.733   1.725  1.00  0.00    -0.273 OA
ATOM      3  N   UNL     1       0.339   7.126  -0.379  1.00  0.00    -0.354 N 
ATOM      4  H   UNL     1       0.102   8.023  -0.050  1.00  0.00     0.163 HD
ENDROOT
BRANCH   1   5
ATOM      5  C   UNL     1      -0.212   4.666   0.784  1.00  0.00     0.171 C 
BRANCH   5   6
ATOM      6  C   UNL     1       0.737   3.431   1.348  1.00  0.00     0.038 C 
BRANCH   6   7
ATOM      7  C   UNL     1       0.970   2.007   0.623  1.00  0.00    -0.015 C 
ATOM      8  C   UNL     1       2.203   1.872  -0.314  1.00  0.00     0.007 C 
ATOM      9  C   UNL     1       1.170   0.854   1.623  1.00  0.00     0.007 C 
ENDBRANCH   6   7
ENDBRANCH   5   6
BRANCH   5  10
ATOM     10  N   UNL     1      -1.461   4.257   0.130  1.00  0.00    -0.343 N 
ATOM     11  C   UNL     1      -1.805   3.596  -1.000  1.00  0.00     0.243 C 
ATOM     12  H   UNL     1      -2.252   4.537   0.645  1.00  0.00     0.164 HD
ATOM     13  O   UNL     1      -2.995   3.286  -1.084  1.00  0.00    -0.273 OA
BRANCH  11  14
ATOM     14  C   UNL     1      -0.794   3.235  -2.104  1.00  0.00     0.175 C 
BRANCH  14  15
ATOM     15  N   UNL     1       0.515   3.732  -1.728  1.00  0.00    -0.342 N 
ATOM     16  C   UNL     1       1.612   4.310  -2.215  1.00  0.00     0.240 C 
ATOM     17  H   UNL     1       0.638   3.591  -0.761  1.00  0.00     0.164 HD
ATOM     18  O   UNL     1       2.432   4.697  -1.372  1.00  0.00    -0.273 OA
BRANCH  16  19
ATOM     19  C   UNL     1       1.812   4.639  -3.655  1.00  0.00     0.216 C 
BRANCH  19  20
ATOM     20  N   UNL     1       0.943   4.021  -4.627  1.00  0.00    -0.346 N 
ATOM     21  C   UNL     1      -0.235   4.391  -5.207  1.00  0.00     0.239 C 
ATOM     22  H   UNL     1       1.271   3.146  -4.938  1.00  0.00     0.164 HD
ATOM     23  O   UNL     1      -0.542   3.778  -6.231  1.00  0.00    -0.273 OA
BRANCH  21  24
ATOM     24  C   UNL     1      -1.176   5.516  -4.670  1.00  0.00     0.219 C 
BRANCH  24  25
ATOM     25  N   UNL     1      -2.410   5.256  -3.906  1.00  0.00    -0.312 N 
ATOM     26  C   UNL     1      -3.029   5.949  -2.880  1.00  0.00     0.407 C 
ATOM     27  H   UNL     1      -2.882   4.435  -4.176  1.00  0.00     0.167 HD
ATOM     28  O   UNL     1      -4.125   5.639  -2.468  1.00  0.00    -0.225 OA
BRANCH  26  29
ATOM     29  O   UNL     1      -2.287   6.953  -2.356  1.00  0.00    -0.445 OA
BRANCH  29  30
ATOM     30  C   UNL     1      -2.748   7.623  -1.154  1.00  0.00     0.270 C 
BRANCH  30  31
ATOM     31  C   UNL     1      -3.885   8.591  -1.344  1.00  0.00    -0.011 A 
ATOM     32  C   UNL     1      -4.097   9.252  -2.558  1.00  0.00     0.007 A 
ATOM     33  C   UNL     1      -4.738   8.859  -0.262  1.00  0.00     0.007 A 
ATOM     34  C   UNL     1      -5.232  10.043  -2.732  1.00  0.00     0.000 A 
ATOM     35  C   UNL     1      -5.870   9.652  -0.437  1.00  0.00     0.000 A 
ATOM     36  C   UNL     1      -6.134  10.215  -1.683  1.00  0.00     0.000 A 
ENDBRANCH  30  31
ENDBRANCH  29  30
ENDBRANCH  26  29
ENDBRANCH  24  25
ENDBRANCH  21  24
ENDBRANCH  19  20
ENDBRANCH  16  19
ENDBRANCH  14  15
BRANCH  14  37
ATOM     37  C   UNL     1      -0.885   1.724  -2.398  1.00  0.00     0.070 C 
BRANCH  37  38
ATOM     38  C   UNL     1      -1.646   1.450  -3.678  1.00  0.00    -0.045 A 
ATOM     39  C   UNL     1      -0.947   1.085  -4.832  1.00  0.00     0.004 A 
ATOM     40  C   UNL     1      -3.035   1.633  -3.759  1.00  0.00     0.004 A 
ATOM     41  C   UNL     1      -1.610   0.974  -6.055  1.00  0.00     0.000 A 
ATOM     42  C   UNL     1      -3.696   1.527  -4.984  1.00  0.00     0.000 A 
ATOM     43  C   UNL     1      -2.979   1.214  -6.134  1.00  0.00     0.000 A 
ENDBRANCH  37  38
ENDBRANCH  14  37
ENDBRANCH  11  14
ENDBRANCH   5  10
ENDBRANCH   1   5
BRANCH   3  44
ATOM     44  C   UNL     1       0.610   7.163  -1.847  1.00  0.00     0.116 C 
BRANCH  44  45
ATOM     45  C   UNL     1       0.048   8.376  -2.678  1.00  0.00     0.021 C 
BRANCH  45  46
ATOM     46  C   UNL     1       0.843   9.228  -3.690  1.00  0.00     0.002 C 
BRANCH  46  47
ATOM     47  C   UNL     1       1.933   8.668  -4.604  1.00  0.00     0.002 C 
BRANCH  47  48
ATOM     48  C   UNL     1       1.616   7.648  -5.700  1.00  0.00     0.021 C 
BRANCH  48  49
ATOM     49  C   UNL     1       0.358   7.807  -6.536  1.00  0.00     0.116 C 
BRANCH  49  50
ATOM     50  N   UNL     1       0.396   8.957  -7.401  1.00  0.00    -0.352 N 
ATOM     51  C   UNL     1       0.534   9.001  -8.767  1.00  0.00     0.251 C 
ATOM     52  H   UNL     1       0.311   9.830  -6.953  1.00  0.00     0.163 HD
ATOM     53  O   UNL     1       0.741  10.075  -9.324  1.00  0.00    -0.269 OA
BRANCH  51  54
ATOM     54  C   UNL     1       0.456   7.754  -9.561  1.00  0.00     0.039 A 
ATOM     55  C   UNL     1       1.472   7.476 -10.478  1.00  0.00     0.014 A 
ATOM     56  C   UNL     1      -0.625   6.877  -9.422  1.00  0.00     0.014 A 
ATOM     57  C   UNL     1       1.419   6.305 -11.238  1.00  0.00     0.010 A 
ATOM     58  C   UNL     1      -0.641   5.678 -10.133  1.00  0.00     0.010 A 
ATOM     59  C   UNL     1       0.368   5.390 -11.065  1.00  0.00    -0.014 A 
BRANCH  59  60
ATOM     60  C   UNL     1       0.282   4.157 -11.892  1.00  0.00     0.031 A 
ATOM     61  C   UNL     1      -0.855   3.995 -12.868  1.00  0.00     0.074 A 
ATOM     62  C   UNL     1       1.198   3.178 -11.746  1.00  0.00     0.049 A 
ATOM     63  N   UNL     1      -1.136   2.982 -13.646  1.00  0.00    -0.248 NA
ATOM     64  C   UNL     1      -1.814   5.110 -12.971  1.00  0.00     0.031 C 
ATOM     65  C   UNL     1       2.331   3.210 -10.818  1.00  0.00     0.029 A 
ATOM     66  N   UNL     1       1.320   1.962 -12.372  1.00  0.00    -0.354 N 
ATOM     67  C   UNL     1      -2.313   3.324 -14.304  1.00  0.00     0.074 A 
ATOM     68  C   UNL     1      -2.715   4.621 -13.812  1.00  0.00     0.031 C 
ATOM     69  C   UNL     1       3.044   2.078 -10.953  1.00  0.00     0.029 A 
ATOM     70  C   UNL     1       2.396   1.221 -11.941  1.00  0.00     0.049 A 
ATOM     71  H   UNL     1       0.695   1.649 -13.066  1.00  0.00     0.167 HD
ATOM     72  C   UNL     1      -2.991   2.625 -15.244  1.00  0.00     0.031 A 
ATOM     73  C   UNL     1       2.806  -0.015 -12.292  1.00  0.00     0.031 A 
ATOM     74  C   UNL     1      -2.568   1.348 -15.752  1.00  0.00     0.049 A 
ATOM     75  C   UNL     1       2.022  -0.774 -13.333  1.00  0.00     0.074 A 
ATOM     76  C   UNL     1      -3.145   0.592 -16.758  1.00  0.00     0.029 A 
ATOM     77  N   UNL     1      -1.469   0.638 -15.296  1.00  0.00    -0.354 N 
ATOM     78  N   UNL     1       0.956  -0.398 -13.999  1.00  0.00    -0.248 NA
ATOM     79  C   UNL     1       2.501  -2.121 -13.677  1.00  0.00     0.031 C 
ATOM     80  C   UNL     1      -2.434  -0.605 -16.864  1.00  0.00     0.029 A 
ATOM     81  C   UNL     1      -1.369  -0.562 -15.977  1.00  0.00     0.049 A 
ATOM     82  H   UNL     1      -0.851   0.942 -14.592  1.00  0.00     0.167 HD
ATOM     83  C   UNL     1       0.665  -1.444 -14.869  1.00  0.00     0.074 A 
ATOM     84  C   UNL     1       1.671  -2.462 -14.653  1.00  0.00     0.031 C 
ATOM     85  C   UNL     1      -0.345  -1.552 -15.767  1.00  0.00     0.031 A 
BRANCH  72  86
ATOM     86  C   UNL     1      -4.268   3.210 -15.788  1.00  0.00    -0.014 A 
ATOM     87  C   UNL     1      -4.255   4.324 -16.645  1.00  0.00     0.010 A 
ATOM     88  C   UNL     1      -5.492   2.571 -15.515  1.00  0.00     0.010 A 
ATOM     89  C   UNL     1      -5.444   4.797 -17.208  1.00  0.00     0.020 A 
ATOM     90  C   UNL     1      -6.679   3.023 -16.098  1.00  0.00     0.020 A 
ATOM     91  C   UNL     1      -6.647   4.138 -16.937  1.00  0.00     0.054 A 
BRANCH  91  92
ATOM     92  S   UNL     1      -8.160   4.727 -17.745  1.00  0.00     0.124 S 
ATOM     93  O   UNL     1      -8.392   5.998 -17.063  1.00  0.00    -0.237 OA
ATOM     94  O   UNL     1      -7.755   4.830 -19.144  1.00  0.00    -0.237 OA
ATOM     95  O   UNL     1      -9.139   3.681 -17.458  1.00  0.00    -0.744 OA
ENDBRANCH  91  92
ENDBRANCH  72  86
BRANCH  73  96
ATOM     96  C   UNL     1       4.006  -0.629 -11.654  1.00  0.00    -0.014 A 
ATOM     97  C   UNL     1       5.157  -0.914 -12.411  1.00  0.00     0.010 A 
ATOM     98  C   UNL     1       3.986  -0.976 -10.291  1.00  0.00     0.010 A 
ATOM     99  C   UNL     1       6.244  -1.577 -11.830  1.00  0.00     0.020 A 
ATOM    100  C   UNL     1       5.084  -1.606  -9.697  1.00  0.00     0.020 A 
ATOM    101  C   UNL     1       6.197  -1.924 -10.477  1.00  0.00     0.054 A 
BRANCH 101 102
ATOM    102  S   UNL     1       7.614  -2.785  -9.742  1.00  0.00     0.124 S 
ATOM    103  O   UNL     1       7.491  -4.119 -10.321  1.00  0.00    -0.237 OA
ATOM    104  O   UNL     1       8.745  -1.991 -10.213  1.00  0.00    -0.237 OA
ATOM    105  O   UNL     1       7.358  -2.700  -8.306  1.00  0.00    -0.744 OA
ENDBRANCH 101 102
ENDBRANCH  73  96
BRANCH  85 106
ATOM    106  C   UNL     1      -0.383  -2.780 -16.636  1.00  0.00    -0.014 A 
ATOM    107  C   UNL     1      -0.738  -4.037 -16.117  1.00  0.00     0.010 A 
ATOM    108  C   UNL     1      -0.140  -2.651 -18.016  1.00  0.00     0.010 A 
ATOM    109  C   UNL     1      -0.826  -5.148 -16.960  1.00  0.00     0.020 A 
ATOM    110  C   UNL     1      -0.260  -3.751 -18.867  1.00  0.00     0.020 A 
ATOM    111  C   UNL     1      -0.592  -4.996 -18.331  1.00  0.00     0.054 A 
BRANCH 111 112
ATOM    112  S   UNL     1      -0.777  -6.440 -19.412  1.00  0.00     0.124 S 
ATOM    113  O   UNL     1       0.392  -7.239 -19.057  1.00  0.00    -0.237 OA
ATOM    114  O   UNL     1      -2.065  -6.989 -18.993  1.00  0.00    -0.237 OA
ATOM    115  O   UNL     1      -0.757  -5.871 -20.758  1.00  0.00    -0.744 OA
ENDBRANCH 111 112
ENDBRANCH  85 106
ENDBRANCH  59  60
ENDBRANCH  51  54
ENDBRANCH  49  50
ENDBRANCH  48  49
ENDBRANCH  47  48
ENDBRANCH  46  47
ENDBRANCH  45  46
ENDBRANCH  44  45
ENDBRANCH   3  44
TORSDOF 30
