REMARK SMILES COC(=O)c1cc(F)cc(-c2ccccc2C(=O)NCCCCCCNC(=O)c2ccc(-c3c4nc(c(-c5ccc(S(=O)(=O)[O-])cc5)c5ccc([nH]5)c(-c5ccc(S(=O)(=O)[O-])cc5)c5nc(c(-c6ccc(S(=O)(=O)[O-])cc6)c6ccc3[nH]6)C=C5)C=C4)cc2)c1
REMARK SMILES IDX 22 1 21 2 20 3 19 4 17 5 18 6 16 8 11 9 12 10 13 11 15 12
REMARK SMILES IDX 14 13 10 14 5 15 6 16 89 17 7 18 8 19 9 20 3 21 4 22 2 23
REMARK SMILES IDX 1 24 23 25 24 26 25 27 26 28 27 29 28 31 29 32 30 33 88 34
REMARK SMILES IDX 31 35 87 36 32 37 33 38 34 39 81 40 35 41 86 42 80 43 82 44
REMARK SMILES IDX 36 45 85 46 79 47 78 48 37 50 67 51 48 52 66 53 49 54 52 55
REMARK SMILES IDX 65 56 83 57 50 58 51 59 64 61 84 62 53 63 38 64 39 65 47 66
REMARK SMILES IDX 40 67 46 68 41 69 42 70 43 71 44 72 45 73 68 74 69 75 77 76
REMARK SMILES IDX 70 77 76 78 71 79 72 80 73 81 74 82 75 83 54 84 55 85 63 86
REMARK SMILES IDX 56 87 62 88 57 89 58 90 59 91 60 92 61 93
REMARK H PARENT 19 7 26 30 82 49 52 60
REMARK Flexibility Score: inf
ROOT
ATOM      1  C   UNL     1       0.166  -2.913  -3.506  1.00  0.00     0.002 C 
ENDROOT
BRANCH   1   2
ATOM      2  C   UNL     1      -0.110  -2.332  -4.900  1.00  0.00     0.021 C 
BRANCH   2   3
ATOM      3  C   UNL     1       0.630  -1.060  -5.306  1.00  0.00     0.116 C 
BRANCH   3   4
ATOM      4  N   UNL     1       2.063  -1.173  -5.430  1.00  0.00    -0.352 N 
ATOM      5  C   UNL     1       2.962  -0.459  -6.187  1.00  0.00     0.251 C 
ATOM      6  O   UNL     1       4.157  -0.720  -6.019  1.00  0.00    -0.269 OA
ATOM      7  H   UNL     1       2.465  -1.883  -4.878  1.00  0.00     0.163 HD
BRANCH   5   8
ATOM      8  C   UNL     1       2.611   0.538  -7.253  1.00  0.00     0.047 A 
ATOM      9  C   UNL     1       1.704   1.621  -7.171  1.00  0.00    -0.005 A 
ATOM     10  C   UNL     1       1.601   2.493  -8.286  1.00  0.00     0.009 A 
ATOM     11  C   UNL     1       2.374   2.327  -9.434  1.00  0.00     0.001 A 
ATOM     12  C   UNL     1       3.393   0.399  -8.425  1.00  0.00     0.014 A 
ATOM     13  C   UNL     1       3.277   1.280  -9.502  1.00  0.00     0.001 A 
BRANCH   9  14
ATOM     14  C   UNL     1       0.874   1.952  -6.006  1.00  0.00    -0.014 A 
ATOM     15  C   UNL     1       0.624   2.416  -3.631  1.00  0.00     0.063 A 
ATOM     16  C   UNL     1      -0.769   2.417  -3.756  1.00  0.00     0.055 A 
ATOM     17  C   UNL     1       1.442   2.222  -4.754  1.00  0.00     0.024 A 
ATOM     18  C   UNL     1      -1.329   2.200  -5.005  1.00  0.00     0.124 A 
ATOM     19  F   UNL     1      -2.661   2.136  -5.132  1.00  0.00    -0.207 F 
ATOM     20  C   UNL     1      -0.530   1.974  -6.120  1.00  0.00     0.048 A 
BRANCH  15  21
ATOM     21  C   UNL     1       1.284   2.487  -2.312  1.00  0.00     0.337 C 
ATOM     22  O   UNL     1       2.376   2.996  -2.122  1.00  0.00    -0.246 OA
BRANCH  21  23
ATOM     23  O   UNL     1       0.563   1.748  -1.436  1.00  0.00    -0.465 OA
ATOM     24  C   UNL     1       1.216   1.486  -0.193  1.00  0.00     0.282 C 
ENDBRANCH  21  23
ENDBRANCH  15  21
ENDBRANCH   9  14
ENDBRANCH   5   8
ENDBRANCH   3   4
ENDBRANCH   2   3
ENDBRANCH   1   2
BRANCH   1  25
ATOM     25  C   UNL     1       0.092  -1.986  -2.286  1.00  0.00     0.002 C 
BRANCH  25  26
ATOM     26  C   UNL     1      -1.103  -1.037  -2.172  1.00  0.00     0.021 C 
BRANCH  26  27
ATOM     27  C   UNL     1      -2.496  -1.656  -2.171  1.00  0.00     0.116 C 
BRANCH  27  28
ATOM     28  N   UNL     1      -2.798  -2.354  -0.935  1.00  0.00    -0.352 N 
ATOM     29  C   UNL     1      -3.687  -2.079   0.077  1.00  0.00     0.251 C 
ATOM     30  H   UNL     1      -2.271  -3.174  -0.796  1.00  0.00     0.163 HD
ATOM     31  O   UNL     1      -3.614  -2.752   1.107  1.00  0.00    -0.269 OA
BRANCH  29  32
ATOM     32  C   UNL     1      -4.716  -1.006  -0.012  1.00  0.00     0.039 A 
ATOM     33  C   UNL     1      -5.082  -0.343   1.168  1.00  0.00     0.014 A 
ATOM     34  C   UNL     1      -5.402  -0.705  -1.191  1.00  0.00     0.014 A 
ATOM     35  C   UNL     1      -6.093   0.628   1.161  1.00  0.00     0.010 A 
ATOM     36  C   UNL     1      -6.362   0.315  -1.213  1.00  0.00     0.010 A 
ATOM     37  C   UNL     1      -6.735   0.981  -0.035  1.00  0.00    -0.014 A 
BRANCH  37  38
ATOM     38  C   UNL     1      -7.821   2.002  -0.064  1.00  0.00     0.031 A 
ATOM     39  C   UNL     1      -9.226   1.609  -0.447  1.00  0.00     0.074 A 
ATOM     40  C   UNL     1      -7.547   3.296   0.204  1.00  0.00     0.049 A 
ATOM     41  N   UNL     1     -10.283   2.366  -0.609  1.00  0.00    -0.248 NA
ATOM     42  C   UNL     1      -9.471   0.180  -0.702  1.00  0.00     0.031 C 
ATOM     43  C   UNL     1      -6.231   3.828   0.562  1.00  0.00     0.029 A 
ATOM     44  N   UNL     1      -8.363   4.402   0.203  1.00  0.00    -0.354 N 
ATOM     45  C   UNL     1     -11.305   1.514  -1.016  1.00  0.00     0.074 A 
ATOM     46  C   UNL     1     -10.734   0.187  -1.103  1.00  0.00     0.031 C 
ATOM     47  C   UNL     1      -6.332   5.154   0.757  1.00  0.00     0.029 A 
ATOM     48  C   UNL     1      -7.708   5.573   0.505  1.00  0.00     0.049 A 
ATOM     49  H   UNL     1      -9.326   4.360   0.005  1.00  0.00     0.167 HD
ATOM     50  C   UNL     1     -12.602   1.803  -1.281  1.00  0.00     0.031 A 
ATOM     51  C   UNL     1      -8.155   6.843   0.564  1.00  0.00     0.031 A 
ATOM     52  C   UNL     1     -13.187   3.112  -1.162  1.00  0.00     0.049 A 
ATOM     53  C   UNL     1      -9.604   7.137   0.286  1.00  0.00     0.074 A 
ATOM     54  C   UNL     1     -14.508   3.484  -1.349  1.00  0.00     0.029 A 
ATOM     55  N   UNL     1     -12.492   4.262  -0.822  1.00  0.00    -0.354 N 
ATOM     56  N   UNL     1     -10.562   6.307  -0.049  1.00  0.00    -0.248 NA
ATOM     57  C   UNL     1     -10.034   8.538   0.406  1.00  0.00     0.031 C 
ATOM     58  C   UNL     1     -14.605   4.867  -1.156  1.00  0.00     0.029 A 
ATOM     59  C   UNL     1     -13.353   5.347  -0.808  1.00  0.00     0.049 A 
ATOM     60  H   UNL     1     -11.530   4.302  -0.621  1.00  0.00     0.167 HD
ATOM     61  C   UNL     1     -11.712   7.082  -0.158  1.00  0.00     0.074 A 
ATOM     62  C   UNL     1     -11.333   8.444   0.158  1.00  0.00     0.031 C 
ATOM     63  C   UNL     1     -12.968   6.698  -0.490  1.00  0.00     0.031 A 
BRANCH  50  64
ATOM     64  C   UNL     1     -13.486   0.672  -1.738  1.00  0.00    -0.014 A 
ATOM     65  C   UNL     1     -13.913  -0.325  -0.844  1.00  0.00     0.010 A 
ATOM     66  C   UNL     1     -13.929   0.630  -3.073  1.00  0.00     0.010 A 
ATOM     67  C   UNL     1     -14.731  -1.369  -1.286  1.00  0.00     0.020 A 
ATOM     68  C   UNL     1     -14.767  -0.399  -3.513  1.00  0.00     0.020 A 
ATOM     69  C   UNL     1     -15.147  -1.403  -2.620  1.00  0.00     0.054 A 
BRANCH  69  70
ATOM     70  S   UNL     1     -16.219  -2.760  -3.167  1.00  0.00     0.124 S 
ATOM     71  O   UNL     1     -15.269  -3.863  -3.285  1.00  0.00    -0.237 OA
ATOM     72  O   UNL     1     -17.180  -2.874  -2.073  1.00  0.00    -0.237 OA
ATOM     73  O   UNL     1     -16.773  -2.276  -4.430  1.00  0.00    -0.744 OA
ENDBRANCH  69  70
ENDBRANCH  50  64
BRANCH  51  74
ATOM     74  C   UNL     1      -7.214   7.943   0.909  1.00  0.00    -0.014 A 
ATOM     75  C   UNL     1      -7.269   8.558   2.171  1.00  0.00     0.010 A 
ATOM     76  C   UNL     1      -6.251   8.371  -0.022  1.00  0.00     0.010 A 
ATOM     77  C   UNL     1      -6.384   9.591   2.494  1.00  0.00     0.020 A 
ATOM     78  C   UNL     1      -5.350   9.389   0.305  1.00  0.00     0.020 A 
ATOM     79  C   UNL     1      -5.430  10.000   1.558  1.00  0.00     0.054 A 
BRANCH  79  80
ATOM     80  S   UNL     1      -4.250  11.301   2.016  1.00  0.00     0.124 S 
ATOM     81  O   UNL     1      -5.059  12.507   1.872  1.00  0.00    -0.237 OA
ATOM     82  O   UNL     1      -3.892  10.938   3.385  1.00  0.00    -0.237 OA
ATOM     83  O   UNL     1      -3.176  11.144   1.038  1.00  0.00    -0.744 OA
ENDBRANCH  79  80
ENDBRANCH  51  74
BRANCH  63  84
ATOM     84  C   UNL     1     -14.039   7.755  -0.500  1.00  0.00    -0.014 A 
ATOM     85  C   UNL     1     -14.122   8.694  -1.543  1.00  0.00     0.010 A 
ATOM     86  C   UNL     1     -15.007   7.773   0.520  1.00  0.00     0.010 A 
ATOM     87  C   UNL     1     -15.141   9.650  -1.552  1.00  0.00     0.020 A 
ATOM     88  C   UNL     1     -16.040   8.714   0.503  1.00  0.00     0.020 A 
ATOM     89  C   UNL     1     -16.093   9.656  -0.527  1.00  0.00     0.054 A 
BRANCH  89  90
ATOM     90  S   UNL     1     -17.434  10.877  -0.582  1.00  0.00     0.124 S 
ATOM     91  O   UNL     1     -16.761  12.089  -0.125  1.00  0.00    -0.237 OA
ATOM     92  O   UNL     1     -17.823  10.867  -1.990  1.00  0.00    -0.237 OA
ATOM     93  O   UNL     1     -18.433  10.333   0.336  1.00  0.00    -0.744 OA
ENDBRANCH  89  90
ENDBRANCH  63  84
ENDBRANCH  37  38
ENDBRANCH  29  32
ENDBRANCH  27  28
ENDBRANCH  26  27
ENDBRANCH  25  26
ENDBRANCH   1  25
TORSDOF 19
