REMARK SMILES Cn1cc([C@@H]2CC(NCCCCCCNC(=O)c3ccc(-c4c5nc(c(-c6ccc(S(=O)(=O)[O-])cc6)c6ccc([nH]6)c(-c6ccc(S(=O)(=O)[O-])cc6)c6nc(c(-c7ccc(S(=O)(=O)[O-])cc7)c7ccc4[nH]7)C=C6)C=C5)cc3)=[NH+]c3c2sc(C(=O)[O-])c3-c2ccc(Cl)cc2)cn1
REMARK SMILES IDX 13 1 12 2 11 3 10 4 9 5 8 6 5 7 6 8 80 9 7 10 79 11 81 12
REMARK SMILES IDX 78 13 86 14 82 15 4 18 1 19 2 20 3 21 95 22 94 23 87 24
REMARK SMILES IDX 88 25 93 26 89 27 92 28 90 29 91 30 83 31 84 32 85 33 14 34
REMARK SMILES IDX 15 35 16 36 17 38 18 39 19 40 77 41 20 42 76 43 21 44 22 45
REMARK SMILES IDX 23 46 70 47 24 48 75 49 69 50 71 51 25 52 74 53 68 54 67 55
REMARK SMILES IDX 26 57 56 58 37 59 55 60 38 61 41 62 54 63 72 64 39 65 40 66
REMARK SMILES IDX 53 68 73 69 42 70 27 71 28 72 36 73 29 74 35 75 30 76 31 77
REMARK SMILES IDX 32 78 33 79 34 80 57 81 58 82 66 83 59 84 65 85 60 86 61 87
REMARK SMILES IDX 62 88 63 89 64 90 43 91 44 92 52 93 45 94 51 95 46 96 47 97
REMARK SMILES IDX 48 98 49 99 50 100
REMARK H PARENT 8 16 78 17 15 37 71 56 41 67
REMARK Flexibility Score: inf
ROOT
ATOM      1  C   UNL     1       4.769  -8.087  -4.290  1.00  0.00     0.021 C 
ENDROOT
BRANCH   1   2
ATOM      2  C   UNL     1       4.161  -6.704  -4.563  1.00  0.00     0.002 C 
BRANCH   2   3
ATOM      3  C   UNL     1       2.744  -6.452  -4.027  1.00  0.00     0.004 C 
BRANCH   3   4
ATOM      4  C   UNL     1       2.529  -6.715  -2.533  1.00  0.00     0.046 C 
BRANCH   4   5
ATOM      5  C   UNL     1       3.521  -6.018  -1.604  1.00  0.00     0.233 C 
BRANCH   5   6
ATOM      6  N   UNL     1       3.395  -4.576  -1.709  1.00  0.00    -0.278 N 
ATOM      7  C   UNL     1       2.653  -1.327   0.198  1.00  0.00     0.079 C 
ATOM      8  C   UNL     1       2.962  -2.271  -0.973  1.00  0.00     0.142 C 
ATOM      9  C   UNL     1       2.669  -2.064   1.493  1.00  0.00     0.061 A 
ATOM     10  C   UNL     1       3.152  -3.750  -0.633  1.00  0.00     0.248 C 
ATOM     11  C   UNL     1       2.871  -3.404   1.628  1.00  0.00     0.147 A 
ATOM     12  S   UNL     1       2.452  -1.321   3.005  1.00  0.00    -0.133 S 
ATOM     13  N   UNL     1       3.120  -4.261   0.562  1.00  0.00    -0.243 N 
ATOM     14  C   UNL     1       2.799  -3.878   2.975  1.00  0.00     0.049 A 
ATOM     15  C   UNL     1       2.567  -2.825   3.857  1.00  0.00     0.062 A 
ATOM     16  H   UNL     1       3.487  -4.165  -2.599  1.00  0.00     0.304 HD
ATOM     17  H   UNL     1       3.266  -5.223   0.707  1.00  0.00     0.312 HD
BRANCH   7  18
ATOM     18  C   UNL     1       1.363  -0.582  -0.005  1.00  0.00    -0.001 A 
ATOM     19  C   UNL     1      -2.195  -0.013  -0.129  1.00  0.00     0.173 C 
ATOM     20  N   UNL     1      -0.753  -0.002  -0.155  1.00  0.00    -0.276 N 
ATOM     21  C   UNL     1       0.075  -1.081  -0.053  1.00  0.00     0.112 A 
ATOM     22  N   UNL     1      -0.094   1.169  -0.251  1.00  0.00    -0.182 NA
ATOM     23  C   UNL     1       1.188   0.816  -0.136  1.00  0.00     0.139 A 
ENDBRANCH   7  18
BRANCH  14  24
ATOM     24  C   UNL     1       2.995  -5.268   3.384  1.00  0.00    -0.012 A 
ATOM     25  C   UNL     1       1.972  -6.000   4.001  1.00  0.00     0.010 A 
ATOM     26  C   UNL     1       4.224  -5.893   3.124  1.00  0.00     0.010 A 
ATOM     27  C   UNL     1       2.200  -7.316   4.415  1.00  0.00     0.021 A 
ATOM     28  C   UNL     1       4.447  -7.211   3.525  1.00  0.00     0.021 A 
ATOM     29  C   UNL     1       3.439  -7.911   4.185  1.00  0.00     0.041 A 
ATOM     30  Cl  UNL     1       3.738  -9.517   4.725  1.00  0.00    -0.084 Cl
ENDBRANCH  14  24
BRANCH  15  31
ATOM     31  C   UNL     1       2.429  -2.747   5.301  1.00  0.00     0.082 C 
ATOM     32  O   UNL     1       2.115  -1.789   5.980  1.00  0.00    -0.544 OA
ATOM     33  O   UNL     1       2.725  -3.912   5.921  1.00  0.00    -0.544 OA
ENDBRANCH  15  31
ENDBRANCH   5   6
ENDBRANCH   4   5
ENDBRANCH   3   4
ENDBRANCH   2   3
ENDBRANCH   1   2
BRANCH   1  34
ATOM     34  C   UNL     1       4.010  -9.247  -4.916  1.00  0.00     0.116 C 
BRANCH  34  35
ATOM     35  N   UNL     1       4.041  -9.225  -6.381  1.00  0.00    -0.352 N 
ATOM     36  C   UNL     1       3.376 -10.060  -7.263  1.00  0.00     0.251 C 
ATOM     37  H   UNL     1       4.604  -8.528  -6.789  1.00  0.00     0.163 HD
ATOM     38  O   UNL     1       3.778 -10.205  -8.412  1.00  0.00    -0.269 OA
BRANCH  36  39
ATOM     39  C   UNL     1       2.168 -10.762  -6.794  1.00  0.00     0.039 A 
ATOM     40  C   UNL     1       1.875 -12.079  -7.155  1.00  0.00     0.014 A 
ATOM     41  C   UNL     1       1.335 -10.064  -5.928  1.00  0.00     0.014 A 
ATOM     42  C   UNL     1       0.778 -12.707  -6.564  1.00  0.00     0.010 A 
ATOM     43  C   UNL     1       0.397 -10.740  -5.199  1.00  0.00     0.010 A 
ATOM     44  C   UNL     1       0.054 -12.032  -5.567  1.00  0.00    -0.014 A 
BRANCH  44  45
ATOM     45  C   UNL     1      -0.999 -12.685  -4.796  1.00  0.00     0.031 A 
ATOM     46  C   UNL     1      -0.546 -13.913  -4.099  1.00  0.00     0.074 A 
ATOM     47  C   UNL     1      -2.183 -12.091  -4.516  1.00  0.00     0.049 A 
ATOM     48  N   UNL     1      -0.762 -15.139  -4.444  1.00  0.00    -0.248 NA
ATOM     49  C   UNL     1       0.425 -13.769  -2.998  1.00  0.00     0.031 C 
ATOM     50  C   UNL     1      -2.592 -10.716  -4.850  1.00  0.00     0.029 A 
ATOM     51  N   UNL     1      -3.230 -12.531  -3.763  1.00  0.00    -0.354 N 
ATOM     52  C   UNL     1      -0.223 -15.902  -3.414  1.00  0.00     0.074 A 
ATOM     53  C   UNL     1       0.713 -15.046  -2.734  1.00  0.00     0.031 C 
ATOM     54  C   UNL     1      -3.655 -10.359  -4.098  1.00  0.00     0.029 A 
ATOM     55  C   UNL     1      -4.131 -11.533  -3.395  1.00  0.00     0.049 A 
ATOM     56  H   UNL     1      -3.341 -13.473  -3.502  1.00  0.00     0.167 HD
ATOM     57  C   UNL     1      -0.877 -17.012  -2.965  1.00  0.00     0.031 A 
ATOM     58  C   UNL     1      -5.206 -11.659  -2.579  1.00  0.00     0.031 A 
ATOM     59  C   UNL     1      -1.968 -17.351  -3.845  1.00  0.00     0.049 A 
ATOM     60  C   UNL     1      -5.590 -13.087  -2.590  1.00  0.00     0.074 A 
ATOM     61  C   UNL     1      -2.130 -17.908  -5.093  1.00  0.00     0.029 A 
ATOM     62  N   UNL     1      -3.132 -16.697  -3.532  1.00  0.00    -0.354 N 
ATOM     63  N   UNL     1      -6.002 -13.703  -3.665  1.00  0.00    -0.248 NA
ATOM     64  C   UNL     1      -5.173 -13.951  -1.493  1.00  0.00     0.031 C 
ATOM     65  C   UNL     1      -3.381 -17.425  -5.584  1.00  0.00     0.029 A 
ATOM     66  C   UNL     1      -3.976 -16.630  -4.606  1.00  0.00     0.049 A 
ATOM     67  H   UNL     1      -3.335 -16.322  -2.644  1.00  0.00     0.167 HD
ATOM     68  C   UNL     1      -5.486 -14.977  -3.542  1.00  0.00     0.074 A 
ATOM     69  C   UNL     1      -5.147 -15.124  -2.132  1.00  0.00     0.031 C 
ATOM     70  C   UNL     1      -5.066 -15.675  -4.636  1.00  0.00     0.031 A 
BRANCH  57  71
ATOM     71  C   UNL     1      -0.925 -17.450  -1.511  1.00  0.00    -0.014 A 
ATOM     72  C   UNL     1      -1.680 -18.598  -1.186  1.00  0.00     0.010 A 
ATOM     73  C   UNL     1      -0.521 -16.636  -0.433  1.00  0.00     0.010 A 
ATOM     74  C   UNL     1      -2.066 -18.875   0.133  1.00  0.00     0.020 A 
ATOM     75  C   UNL     1      -0.870 -16.921   0.890  1.00  0.00     0.020 A 
ATOM     76  C   UNL     1      -1.666 -18.024   1.162  1.00  0.00     0.054 A 
BRANCH  76  77
ATOM     77  S   UNL     1      -2.243 -18.334   2.848  1.00  0.00     0.124 S 
ATOM     78  O   UNL     1      -3.682 -18.128   2.716  1.00  0.00    -0.237 OA
ATOM     79  O   UNL     1      -1.815 -19.712   3.070  1.00  0.00    -0.237 OA
ATOM     80  O   UNL     1      -1.534 -17.331   3.640  1.00  0.00    -0.744 OA
ENDBRANCH  76  77
ENDBRANCH  57  71
BRANCH  58  81
ATOM     81  C   UNL     1      -5.774 -10.689  -1.611  1.00  0.00    -0.014 A 
ATOM     82  C   UNL     1      -7.064 -10.872  -1.077  1.00  0.00     0.010 A 
ATOM     83  C   UNL     1      -4.924  -9.762  -0.975  1.00  0.00     0.010 A 
ATOM     84  C   UNL     1      -7.459 -10.216   0.101  1.00  0.00     0.020 A 
ATOM     85  C   UNL     1      -5.314  -9.102   0.199  1.00  0.00     0.020 A 
ATOM     86  C   UNL     1      -6.570  -9.354   0.748  1.00  0.00     0.054 A 
BRANCH  86  87
ATOM     87  S   UNL     1      -7.012  -8.670   2.375  1.00  0.00     0.124 S 
ATOM     88  O   UNL     1      -8.060  -7.712   2.035  1.00  0.00    -0.237 OA
ATOM     89  O   UNL     1      -7.451  -9.852   3.110  1.00  0.00    -0.237 OA
ATOM     90  O   UNL     1      -5.762  -8.076   2.849  1.00  0.00    -0.744 OA
ENDBRANCH  86  87
ENDBRANCH  58  81
BRANCH  70  91
ATOM     91  C   UNL     1      -5.681 -15.348  -5.967  1.00  0.00    -0.014 A 
ATOM     92  C   UNL     1      -5.502 -14.139  -6.663  1.00  0.00     0.010 A 
ATOM     93  C   UNL     1      -6.428 -16.373  -6.573  1.00  0.00     0.010 A 
ATOM     94  C   UNL     1      -6.073 -13.962  -7.935  1.00  0.00     0.020 A 
ATOM     95  C   UNL     1      -6.983 -16.209  -7.840  1.00  0.00     0.020 A 
ATOM     96  C   UNL     1      -6.811 -15.001  -8.514  1.00  0.00     0.054 A 
BRANCH  96  97
ATOM     97  S   UNL     1      -7.526 -14.787 -10.168  1.00  0.00     0.124 S 
ATOM     98  O   UNL     1      -8.554 -13.774  -9.941  1.00  0.00    -0.237 OA
ATOM     99  O   UNL     1      -6.380 -14.354 -10.963  1.00  0.00    -0.237 OA
ATOM    100  O   UNL     1      -8.034 -16.117 -10.503  1.00  0.00    -0.744 OA
ENDBRANCH  96  97
ENDBRANCH  70  91
ENDBRANCH  44  45
ENDBRANCH  36  39
ENDBRANCH  34  35
ENDBRANCH   1  34
TORSDOF 18
