REMARK SMILES O=C(NCCCCCCNC(=O)c1cc(F)ccc1NS(=O)(=O)c1ccc(Cl)s1)c1ccc(-c2c3nc(c(-c4ccc(S(=O)(=O)[O-])cc4)c4ccc([nH]4)c(-c4ccc(S(=O)(=O)[O-])cc4)c4nc(c(-c5ccc(S(=O)(=O)[O-])cc5)c5ccc2[nH]5)C=C4)C=C3)cc1
REMARK SMILES IDX 6 1 5 2 4 3 3 4 1 5 2 6 30 8 31 9 89 10 32 11 88 12 33 13
REMARK SMILES IDX 34 14 35 15 82 16 36 17 87 18 81 19 83 20 37 21 86 22 80 23
REMARK SMILES IDX 79 24 38 26 68 27 49 28 67 29 50 30 53 31 66 32 84 33 51 34
REMARK SMILES IDX 52 35 65 37 85 38 54 39 39 40 40 41 48 42 41 43 47 44 42 45
REMARK SMILES IDX 43 46 44 47 45 48 46 49 69 50 70 51 78 52 71 53 77 54 72 55
REMARK SMILES IDX 73 56 74 57 75 58 76 59 55 60 56 61 64 62 57 63 63 64 58 65
REMARK SMILES IDX 59 66 60 67 61 68 62 69 7 70 8 71 9 72 10 73 11 74 12 76
REMARK SMILES IDX 13 77 14 78 19 79 15 80 18 81 16 82 17 83 20 84 21 86 22 87
REMARK SMILES IDX 23 88 24 89 25 90 29 91 26 92 27 93 28 94
REMARK H PARENT 3 7 83 25 53 36 10 75 20 85
REMARK Flexibility Score: inf
ROOT
ATOM      1  C   UNL     1       4.143  -2.521   2.826  1.00  0.00     0.002 C 
ENDROOT
BRANCH   1   2
ATOM      2  C   UNL     1       4.586  -1.142   2.332  1.00  0.00     0.021 C 
BRANCH   2   3
ATOM      3  C   UNL     1       4.367  -0.876   0.846  1.00  0.00     0.116 C 
BRANCH   3   4
ATOM      4  N   UNL     1       2.967  -0.946   0.467  1.00  0.00    -0.352 N 
ATOM      5  O   UNL     1       1.004  -0.210  -0.353  1.00  0.00    -0.269 OA
ATOM      6  C   UNL     1       2.216  -0.049  -0.252  1.00  0.00     0.251 C 
ATOM      7  H   UNL     1       2.488  -1.751   0.768  1.00  0.00     0.163 HD
BRANCH   6   8
ATOM      8  C   UNL     1       2.863   1.124  -0.881  1.00  0.00     0.039 A 
ATOM      9  C   UNL     1       4.031   0.989  -1.639  1.00  0.00     0.014 A 
ATOM     10  C   UNL     1       2.267   2.379  -0.726  1.00  0.00     0.014 A 
ATOM     11  C   UNL     1       4.657   2.122  -2.157  1.00  0.00     0.010 A 
ATOM     12  C   UNL     1       2.869   3.506  -1.288  1.00  0.00     0.010 A 
ATOM     13  C   UNL     1       4.080   3.390  -1.988  1.00  0.00    -0.014 A 
BRANCH  13  14
ATOM     14  C   UNL     1       4.720   4.590  -2.578  1.00  0.00     0.031 A 
ATOM     15  C   UNL     1       5.331   5.645  -1.700  1.00  0.00     0.074 A 
ATOM     16  C   UNL     1       4.728   4.740  -3.916  1.00  0.00     0.049 A 
ATOM     17  N   UNL     1       5.881   6.782  -2.042  1.00  0.00    -0.248 NA
ATOM     18  C   UNL     1       5.317   5.393  -0.251  1.00  0.00     0.031 C 
ATOM     19  C   UNL     1       4.164   3.787  -4.874  1.00  0.00     0.029 A 
ATOM     20  N   UNL     1       5.221   5.751  -4.700  1.00  0.00    -0.354 N 
ATOM     21  C   UNL     1       6.256   7.394  -0.852  1.00  0.00     0.074 A 
ATOM     22  C   UNL     1       5.862   6.506   0.221  1.00  0.00     0.031 C 
ATOM     23  C   UNL     1       4.354   4.253  -6.118  1.00  0.00     0.029 A 
ATOM     24  C   UNL     1       5.010   5.555  -6.043  1.00  0.00     0.049 A 
ATOM     25  H   UNL     1       5.681   6.541  -4.335  1.00  0.00     0.167 HD
ATOM     26  C   UNL     1       6.871   8.588  -0.670  1.00  0.00     0.031 A 
ATOM     27  C   UNL     1       5.292   6.341  -7.099  1.00  0.00     0.031 A 
ATOM     28  C   UNL     1       7.260   9.472  -1.737  1.00  0.00     0.049 A 
ATOM     29  C   UNL     1       5.960   7.665  -6.875  1.00  0.00     0.074 A 
ATOM     30  C   UNL     1       7.909  10.692  -1.652  1.00  0.00     0.029 A 
ATOM     31  N   UNL     1       7.031   9.234  -3.083  1.00  0.00    -0.354 N 
ATOM     32  N   UNL     1       6.329   8.216  -5.744  1.00  0.00    -0.248 NA
ATOM     33  C   UNL     1       6.252   8.472  -8.067  1.00  0.00     0.031 C 
ATOM     34  C   UNL     1       8.044  11.206  -2.947  1.00  0.00     0.029 A 
ATOM     35  C   UNL     1       7.513  10.290  -3.840  1.00  0.00     0.049 A 
ATOM     36  H   UNL     1       6.591   8.433  -3.448  1.00  0.00     0.167 HD
ATOM     37  C   UNL     1       6.910   9.430  -6.088  1.00  0.00     0.074 A 
ATOM     38  C   UNL     1       6.852   9.529  -7.532  1.00  0.00     0.031 C 
ATOM     39  C   UNL     1       7.446  10.374  -5.277  1.00  0.00     0.031 A 
BRANCH  26  40
ATOM     40  C   UNL     1       7.129   9.016   0.748  1.00  0.00    -0.014 A 
ATOM     41  C   UNL     1       8.159   8.432   1.506  1.00  0.00     0.010 A 
ATOM     42  C   UNL     1       6.330  10.017   1.329  1.00  0.00     0.010 A 
ATOM     43  C   UNL     1       8.352   8.805   2.839  1.00  0.00     0.020 A 
ATOM     44  C   UNL     1       6.533  10.406   2.656  1.00  0.00     0.020 A 
ATOM     45  C   UNL     1       7.528   9.779   3.410  1.00  0.00     0.054 A 
BRANCH  45  46
ATOM     46  S   UNL     1       7.779  10.233   5.149  1.00  0.00     0.124 S 
ATOM     47  O   UNL     1       7.104   9.139   5.842  1.00  0.00    -0.237 OA
ATOM     48  O   UNL     1       9.234  10.250   5.274  1.00  0.00    -0.237 OA
ATOM     49  O   UNL     1       7.132  11.538   5.261  1.00  0.00    -0.744 OA
ENDBRANCH  45  46
ENDBRANCH  26  40
BRANCH  27  50
ATOM     50  C   UNL     1       4.929   5.874  -8.461  1.00  0.00    -0.014 A 
ATOM     51  C   UNL     1       5.912   5.358  -9.320  1.00  0.00     0.010 A 
ATOM     52  C   UNL     1       3.582   5.866  -8.870  1.00  0.00     0.010 A 
ATOM     53  C   UNL     1       5.554   4.828 -10.563  1.00  0.00     0.020 A 
ATOM     54  C   UNL     1       3.219   5.320 -10.103  1.00  0.00     0.020 A 
ATOM     55  C   UNL     1       4.209   4.806 -10.943  1.00  0.00     0.054 A 
BRANCH  55  56
ATOM     56  S   UNL     1       3.750   4.014 -12.511  1.00  0.00     0.124 S 
ATOM     57  O   UNL     1       4.065   5.057 -13.480  1.00  0.00    -0.237 OA
ATOM     58  O   UNL     1       4.618   2.838 -12.541  1.00  0.00    -0.237 OA
ATOM     59  O   UNL     1       2.329   3.721 -12.339  1.00  0.00    -0.744 OA
ENDBRANCH  55  56
ENDBRANCH  27  50
BRANCH  39  60
ATOM     60  C   UNL     1       8.036  11.591  -5.932  1.00  0.00    -0.014 A 
ATOM     61  C   UNL     1       7.214  12.631  -6.397  1.00  0.00     0.010 A 
ATOM     62  C   UNL     1       9.433  11.722  -6.020  1.00  0.00     0.010 A 
ATOM     63  C   UNL     1       7.781  13.780  -6.956  1.00  0.00     0.020 A 
ATOM     64  C   UNL     1      10.004  12.875  -6.564  1.00  0.00     0.020 A 
ATOM     65  C   UNL     1       9.173  13.894  -7.037  1.00  0.00     0.054 A 
BRANCH  65  66
ATOM     66  S   UNL     1       9.893  15.418  -7.708  1.00  0.00     0.124 S 
ATOM     67  O   UNL     1       9.752  15.211  -9.147  1.00  0.00    -0.237 OA
ATOM     68  O   UNL     1       9.042  16.459  -7.136  1.00  0.00    -0.237 OA
ATOM     69  O   UNL     1      11.265  15.400  -7.206  1.00  0.00    -0.744 OA
ENDBRANCH  65  66
ENDBRANCH  39  60
ENDBRANCH  13  14
ENDBRANCH   6   8
ENDBRANCH   3   4
ENDBRANCH   2   3
ENDBRANCH   1   2
BRANCH   1  70
ATOM     70  C   UNL     1       4.720  -3.712   2.058  1.00  0.00     0.002 C 
BRANCH  70  71
ATOM     71  C   UNL     1       6.250  -3.755   1.950  1.00  0.00     0.021 C 
BRANCH  71  72
ATOM     72  C   UNL     1       6.999  -3.725   3.283  1.00  0.00     0.116 C 
BRANCH  72  73
ATOM     73  N   UNL     1       6.678  -4.889   4.089  1.00  0.00    -0.352 N 
ATOM     74  C   UNL     1       7.522  -5.778   4.693  1.00  0.00     0.253 C 
ATOM     75  H   UNL     1       5.718  -5.062   4.218  1.00  0.00     0.163 HD
ATOM     76  O   UNL     1       7.104  -6.884   5.031  1.00  0.00    -0.269 OA
BRANCH  74  77
ATOM     77  C   UNL     1       8.940  -5.446   4.948  1.00  0.00     0.066 A 
ATOM     78  C   UNL     1       9.259  -4.208   5.523  1.00  0.00     0.055 A 
ATOM     79  C   UNL     1       9.932  -6.433   4.743  1.00  0.00     0.062 A 
ATOM     80  C   UNL     1      10.576  -3.935   5.858  1.00  0.00     0.124 A 
ATOM     81  C   UNL     1      11.247  -6.126   5.117  1.00  0.00     0.030 A 
ATOM     82  F   UNL     1      10.893  -2.745   6.382  1.00  0.00    -0.207 F 
ATOM     83  C   UNL     1      11.569  -4.884   5.671  1.00  0.00     0.041 A 
BRANCH  79  84
ATOM     84  N   UNL     1       9.595  -7.595   3.949  1.00  0.00    -0.278 N 
ATOM     85  H   UNL     1       8.796  -7.555   3.375  1.00  0.00     0.180 HD
BRANCH  84  86
ATOM     86  S   UNL     1      10.504  -9.011   3.962  1.00  0.00     0.271 S 
ATOM     87  O   UNL     1      10.776  -9.362   5.340  1.00  0.00    -0.200 OA
ATOM     88  O   UNL     1       9.867  -9.929   3.047  1.00  0.00    -0.200 OA
BRANCH  86  89
ATOM     89  C   UNL     1      12.080  -8.655   3.208  1.00  0.00     0.141 A 
ATOM     90  C   UNL     1      12.483  -7.687   2.302  1.00  0.00     0.036 A 
ATOM     91  S   UNL     1      13.396  -9.632   3.710  1.00  0.00    -0.110 S 
ATOM     92  C   UNL     1      13.899  -7.679   2.120  1.00  0.00     0.034 A 
ATOM     93  C   UNL     1      14.492  -8.678   2.846  1.00  0.00     0.094 A 
ATOM     94  Cl  UNL     1      16.173  -9.010   2.951  1.00  0.00    -0.072 Cl
ENDBRANCH  86  89
ENDBRANCH  84  86
ENDBRANCH  79  84
ENDBRANCH  74  77
ENDBRANCH  72  73
ENDBRANCH  71  72
ENDBRANCH  70  71
ENDBRANCH   1  70
TORSDOF 19
