REMARK SMILES O=C(NCCCCCCNC(=O)c1cccnc1-c1ccccn1)c1ccc(-c2c3nc(c(-c4ccc(S(=O)(=O)[O-])cc4)c4ccc([nH]4)c(-c4ccc(S(=O)(=O)[O-])cc4)c4nc(c(-c5ccc(S(=O)(=O)[O-])cc5)c5ccc2[nH]5)C=C4)C=C3)cc1
REMARK SMILES IDX 5 1 4 2 3 3 1 4 2 5 25 7 26 8 84 9 27 10 83 11 28 12 29 13
REMARK SMILES IDX 30 14 77 15 31 16 82 17 76 18 78 19 32 20 81 21 75 22 74 23
REMARK SMILES IDX 33 25 63 26 44 27 62 28 45 29 48 30 61 31 79 32 46 33 47 34
REMARK SMILES IDX 60 36 80 37 49 38 34 39 35 40 43 41 36 42 42 43 37 44 38 45
REMARK SMILES IDX 39 46 40 47 41 48 64 49 65 50 73 51 66 52 72 53 67 54 68 55
REMARK SMILES IDX 69 56 70 57 71 58 50 59 51 60 59 61 52 62 58 63 53 64 54 65
REMARK SMILES IDX 55 66 56 67 57 68 6 69 7 70 8 71 9 72 10 73 11 74 12 76
REMARK SMILES IDX 13 77 14 78 18 79 15 80 17 81 16 82 19 83 20 84 24 85 21 86
REMARK SMILES IDX 23 87 22 88
REMARK H PARENT 3 6 78 24 48 35 10 75
REMARK Flexibility Score: inf
ROOT
ATOM      1  C   UNL     1       4.762   1.692   2.139  1.00  0.00     0.021 C 
ENDROOT
BRANCH   1   2
ATOM      2  C   UNL     1       4.509   0.468   1.268  1.00  0.00     0.116 C 
BRANCH   2   3
ATOM      3  N   UNL     1       3.094   0.190   1.088  1.00  0.00    -0.352 N 
ATOM      4  O   UNL     1       1.160  -0.057  -0.043  1.00  0.00    -0.269 OA
ATOM      5  C   UNL     1       2.386   0.017  -0.076  1.00  0.00     0.251 C 
ATOM      6  H   UNL     1       2.570   0.114   1.918  1.00  0.00     0.163 HD
BRANCH   5   7
ATOM      7  C   UNL     1       3.099  -0.053  -1.371  1.00  0.00     0.039 A 
ATOM      8  C   UNL     1       4.249  -0.835  -1.513  1.00  0.00     0.014 A 
ATOM      9  C   UNL     1       2.601   0.663  -2.464  1.00  0.00     0.014 A 
ATOM     10  C   UNL     1       4.968  -0.798  -2.703  1.00  0.00     0.010 A 
ATOM     11  C   UNL     1       3.284   0.636  -3.684  1.00  0.00     0.010 A 
ATOM     12  C   UNL     1       4.487  -0.076  -3.807  1.00  0.00    -0.014 A 
BRANCH  12  13
ATOM     13  C   UNL     1       5.219  -0.140  -5.098  1.00  0.00     0.031 A 
ATOM     14  C   UNL     1       5.878   1.077  -5.686  1.00  0.00     0.074 A 
ATOM     15  C   UNL     1       5.306  -1.328  -5.730  1.00  0.00     0.049 A 
ATOM     16  N   UNL     1       6.573   1.181  -6.790  1.00  0.00    -0.248 NA
ATOM     17  C   UNL     1       5.739   2.341  -4.944  1.00  0.00     0.031 C 
ATOM     18  C   UNL     1       4.706  -2.579  -5.258  1.00  0.00     0.029 A 
ATOM     19  N   UNL     1       5.946  -1.685  -6.888  1.00  0.00    -0.354 N 
ATOM     20  C   UNL     1       6.943   2.518  -6.886  1.00  0.00     0.074 A 
ATOM     21  C   UNL     1       6.374   3.193  -5.739  1.00  0.00     0.031 C 
ATOM     22  C   UNL     1       5.048  -3.573  -6.090  1.00  0.00     0.029 A 
ATOM     23  C   UNL     1       5.836  -3.022  -7.186  1.00  0.00     0.049 A 
ATOM     24  H   UNL     1       6.437  -1.045  -7.453  1.00  0.00     0.167 HD
ATOM     25  C   UNL     1       7.691   3.124  -7.841  1.00  0.00     0.031 A 
ATOM     26  C   UNL     1       6.303  -3.730  -8.232  1.00  0.00     0.031 A 
ATOM     27  C   UNL     1       8.248   2.447  -8.984  1.00  0.00     0.049 A 
ATOM     28  C   UNL     1       7.094  -3.026  -9.294  1.00  0.00     0.074 A 
ATOM     29  C   UNL     1       9.034   2.973  -9.996  1.00  0.00     0.029 A 
ATOM     30  N   UNL     1       8.076   1.102  -9.273  1.00  0.00    -0.354 N 
ATOM     31  N   UNL     1       7.450  -1.765  -9.353  1.00  0.00    -0.248 NA
ATOM     32  C   UNL     1       7.547  -3.839 -10.430  1.00  0.00     0.031 C 
ATOM     33  C   UNL     1       9.298   1.955 -10.920  1.00  0.00     0.029 A 
ATOM     34  C   UNL     1       8.722   0.784 -10.456  1.00  0.00     0.049 A 
ATOM     35  H   UNL     1       7.569   0.466  -8.718  1.00  0.00     0.167 HD
ATOM     36  C   UNL     1       8.182  -1.636 -10.527  1.00  0.00     0.074 A 
ATOM     37  C   UNL     1       8.234  -2.951 -11.135  1.00  0.00     0.031 C 
ATOM     38  C   UNL     1       8.758  -0.527 -11.053  1.00  0.00     0.031 A 
BRANCH  25  39
ATOM     39  C   UNL     1       7.934   4.604  -7.703  1.00  0.00    -0.014 A 
ATOM     40  C   UNL     1       8.812   5.109  -6.727  1.00  0.00     0.010 A 
ATOM     41  C   UNL     1       7.317   5.500  -8.597  1.00  0.00     0.010 A 
ATOM     42  C   UNL     1       9.040   6.485  -6.624  1.00  0.00     0.020 A 
ATOM     43  C   UNL     1       7.562   6.874  -8.512  1.00  0.00     0.020 A 
ATOM     44  C   UNL     1       8.410   7.359  -7.515  1.00  0.00     0.054 A 
BRANCH  44  45
ATOM     45  S   UNL     1       8.739   9.138  -7.369  1.00  0.00     0.124 S 
ATOM     46  O   UNL     1       7.983   9.485  -6.168  1.00  0.00    -0.237 OA
ATOM     47  O   UNL     1      10.192   9.185  -7.229  1.00  0.00    -0.237 OA
ATOM     48  O   UNL     1       8.217   9.691  -8.616  1.00  0.00    -0.744 OA
ENDBRANCH  44  45
ENDBRANCH  25  39
BRANCH  26  49
ATOM     49  C   UNL     1       6.020  -5.188  -8.318  1.00  0.00    -0.014 A 
ATOM     50  C   UNL     1       7.047  -6.127  -8.130  1.00  0.00     0.010 A 
ATOM     51  C   UNL     1       4.709  -5.642  -8.555  1.00  0.00     0.010 A 
ATOM     52  C   UNL     1       6.771  -7.496  -8.185  1.00  0.00     0.020 A 
ATOM     53  C   UNL     1       4.424  -7.009  -8.583  1.00  0.00     0.020 A 
ATOM     54  C   UNL     1       5.460  -7.928  -8.408  1.00  0.00     0.054 A 
BRANCH  54  55
ATOM     55  S   UNL     1       5.112  -9.708  -8.412  1.00  0.00     0.124 S 
ATOM     56  O   UNL     1       5.632 -10.115  -9.714  1.00  0.00    -0.237 OA
ATOM     57  O   UNL     1       5.864 -10.181  -7.253  1.00  0.00    -0.237 OA
ATOM     58  O   UNL     1       3.659  -9.772  -8.269  1.00  0.00    -0.744 OA
ENDBRANCH  54  55
ENDBRANCH  26  49
BRANCH  38  59
ATOM     59  C   UNL     1       9.516  -0.696 -12.342  1.00  0.00    -0.014 A 
ATOM     60  C   UNL     1       8.843  -0.892 -13.561  1.00  0.00     0.010 A 
ATOM     61  C   UNL     1      10.920  -0.619 -12.336  1.00  0.00     0.010 A 
ATOM     62  C   UNL     1       9.564  -1.040 -14.748  1.00  0.00     0.020 A 
ATOM     63  C   UNL     1      11.643  -0.741 -13.525  1.00  0.00     0.020 A 
ATOM     64  C   UNL     1      10.960  -0.966 -14.722  1.00  0.00     0.054 A 
BRANCH  64  65
ATOM     65  S   UNL     1      11.874  -1.123 -16.281  1.00  0.00     0.124 S 
ATOM     66  O   UNL     1      11.790  -2.558 -16.538  1.00  0.00    -0.237 OA
ATOM     67  O   UNL     1      11.106  -0.275 -17.191  1.00  0.00    -0.237 OA
ATOM     68  O   UNL     1      13.207  -0.625 -15.952  1.00  0.00    -0.744 OA
ENDBRANCH  64  65
ENDBRANCH  38  59
ENDBRANCH  12  13
ENDBRANCH   5   7
ENDBRANCH   2   3
ENDBRANCH   1   2
BRANCH   1  69
ATOM     69  C   UNL     1       4.304   1.563   3.593  1.00  0.00     0.002 C 
BRANCH  69  70
ATOM     70  C   UNL     1       4.869   0.367   4.364  1.00  0.00     0.002 C 
BRANCH  70  71
ATOM     71  C   UNL     1       6.395   0.221   4.353  1.00  0.00     0.021 C 
BRANCH  71  72
ATOM     72  C   UNL     1       7.176   1.450   4.813  1.00  0.00     0.116 C 
BRANCH  72  73
ATOM     73  N   UNL     1       6.851   1.830   6.177  1.00  0.00    -0.352 N 
ATOM     74  C   UNL     1       7.682   2.019   7.252  1.00  0.00     0.253 C 
ATOM     75  H   UNL     1       5.893   1.974   6.356  1.00  0.00     0.163 HD
ATOM     76  O   UNL     1       7.215   2.296   8.352  1.00  0.00    -0.269 OA
BRANCH  74  77
ATOM     77  C   UNL     1       9.138   1.902   7.068  1.00  0.00     0.067 A 
ATOM     78  C   UNL     1       9.786   2.794   6.204  1.00  0.00     0.018 A 
ATOM     79  C   UNL     1       9.889   0.948   7.757  1.00  0.00     0.101 A 
ATOM     80  C   UNL     1      11.156   2.680   6.008  1.00  0.00     0.021 A 
ATOM     81  N   UNL     1      11.237   0.829   7.552  1.00  0.00    -0.254 NA
ATOM     82  C   UNL     1      11.831   1.688   6.695  1.00  0.00     0.112 A 
BRANCH  79  83
ATOM     83  C   UNL     1       9.314  -0.018   8.711  1.00  0.00     0.089 A 
ATOM     84  C   UNL     1       8.363  -0.966   8.325  1.00  0.00     0.031 A 
ATOM     85  N   UNL     1       9.778   0.052   9.988  1.00  0.00    -0.255 NA
ATOM     86  C   UNL     1       7.861  -1.850   9.278  1.00  0.00     0.004 A 
ATOM     87  C   UNL     1       9.271  -0.817  10.888  1.00  0.00     0.112 A 
ATOM     88  C   UNL     1       8.320  -1.775  10.586  1.00  0.00     0.020 A 
ENDBRANCH  79  83
ENDBRANCH  74  77
ENDBRANCH  72  73
ENDBRANCH  71  72
ENDBRANCH  70  71
ENDBRANCH  69  70
ENDBRANCH   1  69
TORSDOF 17
