REMARK SMILES Cc1nc2nc(CNC(=O)OC(C)(C)C)nn2c(C)c1CCC(=O)NCCCCCCNC(=O)c1ccc(-c2c3nc(c(-c4ccc(S(=O)(=O)[O-])cc4)c4ccc([nH]4)c(-c4ccc(S(=O)(=O)[O-])cc4)c4nc(c(-c5ccc(S(=O)(=O)[O-])cc5)c5ccc2[nH]5)C=C4)C=C3)cc1
REMARK SMILES IDX 27 1 26 2 25 3 23 4 24 5 22 7 21 8 20 9 1 10 2 11 3 12 4 13
REMARK SMILES IDX 18 14 5 15 17 16 19 17 6 18 16 19 7 20 8 21 9 22 10 24 11 25
REMARK SMILES IDX 12 26 13 27 14 28 15 29 28 30 29 31 30 32 31 33 32 34 33 35
REMARK SMILES IDX 34 37 35 38 36 39 94 40 37 41 93 42 38 43 39 44 40 45 87 46
REMARK SMILES IDX 41 47 92 48 86 49 88 50 42 51 91 52 85 53 84 54 43 56 73 57
REMARK SMILES IDX 54 58 72 59 55 60 58 61 71 62 89 63 56 64 57 65 70 67 90 68
REMARK SMILES IDX 59 69 44 70 45 71 53 72 46 73 52 74 47 75 48 76 49 77 50 78
REMARK SMILES IDX 51 79 74 80 75 81 83 82 76 83 82 84 77 85 78 86 79 87 80 88
REMARK SMILES IDX 81 89 60 90 61 91 69 92 62 93 68 94 63 95 64 96 65 97 66 98
REMARK SMILES IDX 67 99
REMARK H PARENT 25 6 8 23 32 36 88 55 58 66
REMARK Flexibility Score: inf
ROOT
ATOM      1  C   UNL     1      -0.138   4.042   3.003  1.00  0.00     0.021 C 
ENDROOT
BRANCH   1   2
ATOM      2  C   UNL     1      -0.293   2.980   4.084  1.00  0.00     0.116 C 
BRANCH   2   3
ATOM      3  N   UNL     1      -1.656   2.444   4.091  1.00  0.00    -0.356 N 
ATOM      4  C   UNL     1      -2.249   1.493   3.309  1.00  0.00     0.220 C 
ATOM      5  O   UNL     1      -3.466   1.328   3.413  1.00  0.00    -0.275 OA
ATOM      6  H   UNL     1      -2.245   2.836   4.776  1.00  0.00     0.163 HD
BRANCH   4   7
ATOM      7  C   UNL     1      -1.434   0.639   2.354  1.00  0.00     0.105 C 
BRANCH   7   8
ATOM      8  C   UNL     1      -1.869   0.797   0.881  1.00  0.00     0.049 C 
BRANCH   8   9
ATOM      9  C   UNL     1      -1.502   2.154   0.315  1.00  0.00    -0.005 A 
ATOM     10  C   UNL     1       0.877   1.216  -0.237  1.00  0.00     0.067 C 
ATOM     11  C   UNL     1      -0.045   2.408  -0.009  1.00  0.00     0.046 A 
ATOM     12  N   UNL     1       0.472   3.593  -0.129  1.00  0.00    -0.216 NA
ATOM     13  C   UNL     1      -0.376   4.662   0.003  1.00  0.00     0.252 A 
ATOM     14  C   UNL     1      -2.325   3.230   0.158  1.00  0.00     0.048 A 
ATOM     15  N   UNL     1      -0.077   5.923   0.230  1.00  0.00    -0.192 NA
ATOM     16  N   UNL     1      -1.757   4.524   0.004  1.00  0.00    -0.201 N 
ATOM     17  C   UNL     1      -3.812   3.174   0.313  1.00  0.00     0.067 C 
ATOM     18  C   UNL     1      -1.256   6.612   0.166  1.00  0.00     0.172 A 
ATOM     19  N   UNL     1      -2.324   5.787   0.045  1.00  0.00    -0.148 NA
BRANCH  18  20
ATOM     20  C   UNL     1      -1.322   8.171   0.203  1.00  0.00     0.199 C 
BRANCH  20  21
ATOM     21  N   UNL     1      -0.479   8.829   1.240  1.00  0.00    -0.314 N 
ATOM     22  C   UNL     1       0.368   9.933   1.200  1.00  0.00     0.408 C 
ATOM     23  H   UNL     1      -0.531   8.401   2.125  1.00  0.00     0.167 HD
ATOM     24  O   UNL     1       1.035  10.188   2.207  1.00  0.00    -0.225 OA
BRANCH  22  25
ATOM     25  O   UNL     1       0.468  10.638   0.038  1.00  0.00    -0.444 OA
BRANCH  25  26
ATOM     26  C   UNL     1       1.649  11.477  -0.298  1.00  0.00     0.106 C 
ATOM     27  C   UNL     1       1.613  12.814   0.446  1.00  0.00     0.056 C 
ATOM     28  C   UNL     1       3.043  10.848  -0.053  1.00  0.00     0.056 C 
ATOM     29  C   UNL     1       1.550  11.754  -1.815  1.00  0.00     0.056 C 
ENDBRANCH  25  26
ENDBRANCH  22  25
ENDBRANCH  20  21
ENDBRANCH  18  20
ENDBRANCH   8   9
ENDBRANCH   7   8
ENDBRANCH   4   7
ENDBRANCH   2   3
ENDBRANCH   1   2
BRANCH   1  30
ATOM     30  C   UNL     1      -0.036   5.510   3.411  1.00  0.00     0.002 C 
BRANCH  30  31
ATOM     31  C   UNL     1       1.345   6.196   3.422  1.00  0.00     0.002 C 
BRANCH  31  32
ATOM     32  C   UNL     1       2.554   5.693   2.604  1.00  0.00     0.021 C 
BRANCH  32  33
ATOM     33  C   UNL     1       2.836   6.096   1.145  1.00  0.00     0.116 C 
BRANCH  33  34
ATOM     34  N   UNL     1       2.305   7.352   0.705  1.00  0.00    -0.352 N 
ATOM     35  C   UNL     1       2.070   7.707  -0.591  1.00  0.00     0.251 C 
ATOM     36  H   UNL     1       2.092   8.017   1.399  1.00  0.00     0.163 HD
ATOM     37  O   UNL     1       1.331   8.630  -0.909  1.00  0.00    -0.269 OA
BRANCH  35  38
ATOM     38  C   UNL     1       2.576   7.024  -1.756  1.00  0.00     0.039 A 
ATOM     39  C   UNL     1       3.209   7.859  -2.676  1.00  0.00     0.014 A 
ATOM     40  C   UNL     1       1.797   5.951  -2.170  1.00  0.00     0.014 A 
ATOM     41  C   UNL     1       2.911   7.694  -4.006  1.00  0.00     0.010 A 
ATOM     42  C   UNL     1       1.522   5.751  -3.489  1.00  0.00     0.010 A 
ATOM     43  C   UNL     1       2.043   6.660  -4.391  1.00  0.00    -0.014 A 
BRANCH  43  44
ATOM     44  C   UNL     1       1.999   6.319  -5.790  1.00  0.00     0.031 A 
ATOM     45  C   UNL     1       3.376   6.054  -6.284  1.00  0.00     0.074 A 
ATOM     46  C   UNL     1       0.880   6.005  -6.457  1.00  0.00     0.049 A 
ATOM     47  N   UNL     1       4.057   6.750  -7.128  1.00  0.00    -0.248 NA
ATOM     48  C   UNL     1       4.180   5.082  -5.508  1.00  0.00     0.031 C 
ATOM     49  C   UNL     1      -0.482   5.833  -5.950  1.00  0.00     0.029 A 
ATOM     50  N   UNL     1       0.794   5.577  -7.733  1.00  0.00    -0.354 N 
ATOM     51  C   UNL     1       5.323   6.181  -7.126  1.00  0.00     0.074 A 
ATOM     52  C   UNL     1       5.404   5.363  -5.947  1.00  0.00     0.031 C 
ATOM     53  C   UNL     1      -1.173   5.068  -6.827  1.00  0.00     0.029 A 
ATOM     54  C   UNL     1      -0.344   4.839  -8.000  1.00  0.00     0.049 A 
ATOM     55  H   UNL     1       1.478   5.773  -8.413  1.00  0.00     0.167 HD
ATOM     56  C   UNL     1       6.112   6.192  -8.232  1.00  0.00     0.031 A 
ATOM     57  C   UNL     1      -0.489   4.002  -9.055  1.00  0.00     0.031 A 
ATOM     58  C   UNL     1       5.656   7.163  -9.194  1.00  0.00     0.049 A 
ATOM     59  C   UNL     1       0.566   4.365 -10.049  1.00  0.00     0.074 A 
ATOM     60  C   UNL     1       5.483   8.534  -9.154  1.00  0.00     0.029 A 
ATOM     61  N   UNL     1       4.853   6.707 -10.217  1.00  0.00    -0.354 N 
ATOM     62  N   UNL     1       0.632   5.529 -10.639  1.00  0.00    -0.248 NA
ATOM     63  C   UNL     1       1.816   3.615 -10.041  1.00  0.00     0.031 C 
ATOM     64  C   UNL     1       4.250   8.771  -9.831  1.00  0.00     0.029 A 
ATOM     65  C   UNL     1       3.768   7.548 -10.306  1.00  0.00     0.049 A 
ATOM     66  H   UNL     1       5.025   5.920 -10.784  1.00  0.00     0.167 HD
ATOM     67  C   UNL     1       1.988   5.835 -10.704  1.00  0.00     0.074 A 
ATOM     68  C   UNL     1       2.668   4.572 -10.426  1.00  0.00     0.031 C 
ATOM     69  C   UNL     1       2.429   7.131 -10.687  1.00  0.00     0.031 A 
BRANCH  56  70
ATOM     70  C   UNL     1       7.001   5.024  -8.580  1.00  0.00    -0.014 A 
ATOM     71  C   UNL     1       7.811   5.100  -9.725  1.00  0.00     0.010 A 
ATOM     72  C   UNL     1       6.867   3.753  -7.976  1.00  0.00     0.010 A 
ATOM     73  C   UNL     1       8.379   3.944 -10.282  1.00  0.00     0.020 A 
ATOM     74  C   UNL     1       7.463   2.608  -8.491  1.00  0.00     0.020 A 
ATOM     75  C   UNL     1       8.179   2.704  -9.671  1.00  0.00     0.054 A 
BRANCH  75  76
ATOM     76  S   UNL     1       8.763   1.198 -10.479  1.00  0.00     0.124 S 
ATOM     77  O   UNL     1       7.938   1.169 -11.682  1.00  0.00    -0.237 OA
ATOM     78  O   UNL     1      10.179   1.488 -10.684  1.00  0.00    -0.237 OA
ATOM     79  O   UNL     1       8.481   0.151  -9.500  1.00  0.00    -0.744 OA
ENDBRANCH  75  76
ENDBRANCH  56  70
BRANCH  57  80
ATOM     80  C   UNL     1      -1.190   2.695  -9.040  1.00  0.00    -0.014 A 
ATOM     81  C   UNL     1      -1.485   2.027 -10.240  1.00  0.00     0.010 A 
ATOM     82  C   UNL     1      -1.349   1.978  -7.833  1.00  0.00     0.010 A 
ATOM     83  C   UNL     1      -1.868   0.675 -10.236  1.00  0.00     0.020 A 
ATOM     84  C   UNL     1      -1.742   0.636  -7.820  1.00  0.00     0.020 A 
ATOM     85  C   UNL     1      -1.974  -0.017  -9.026  1.00  0.00     0.054 A 
BRANCH  85  86
ATOM     86  S   UNL     1      -2.296  -1.804  -9.046  1.00  0.00     0.124 S 
ATOM     87  O   UNL     1      -3.665  -1.869  -9.547  1.00  0.00    -0.237 OA
ATOM     88  O   UNL     1      -1.265  -2.299  -9.953  1.00  0.00    -0.237 OA
ATOM     89  O   UNL     1      -2.128  -2.200  -7.648  1.00  0.00    -0.744 OA
ENDBRANCH  85  86
ENDBRANCH  57  80
BRANCH  69  90
ATOM     90  C   UNL     1       1.400   8.238 -10.827  1.00  0.00    -0.014 A 
ATOM     91  C   UNL     1       0.362   8.456  -9.896  1.00  0.00     0.010 A 
ATOM     92  C   UNL     1       1.583   9.189 -11.845  1.00  0.00     0.010 A 
ATOM     93  C   UNL     1      -0.485   9.570 -10.001  1.00  0.00     0.020 A 
ATOM     94  C   UNL     1       0.753  10.311 -11.946  1.00  0.00     0.020 A 
ATOM     95  C   UNL     1      -0.284  10.492 -11.030  1.00  0.00     0.054 A 
BRANCH  95  96
ATOM     96  S   UNL     1      -1.361  11.949 -11.141  1.00  0.00     0.124 S 
ATOM     97  O   UNL     1      -2.655  11.365 -11.482  1.00  0.00    -0.237 OA
ATOM     98  O   UNL     1      -1.266  12.529  -9.803  1.00  0.00    -0.237 OA
ATOM     99  O   UNL     1      -0.751  12.754 -12.199  1.00  0.00    -0.744 OA
ENDBRANCH  95  96
ENDBRANCH  69  90
ENDBRANCH  43  44
ENDBRANCH  35  38
ENDBRANCH  33  34
ENDBRANCH  32  33
ENDBRANCH  31  32
ENDBRANCH  30  31
ENDBRANCH   1  30
TORSDOF 22
