REMARK SMILES CCc1ccc(N(C)C(=O)N2CC[C@@H](C(=O)NCCCCCCNC(=O)c3ccc(-c4c5nc(c(-c6ccc(S(=O)(=O)[O-])cc6)c6ccc([nH]6)c(-c6ccc(S(=O)(=O)[O-])cc6)c6nc(c(-c7ccc(S(=O)(=O)[O-])cc7)c7ccc4[nH]7)C=C6)C=C5)cc3)[C@@H]2C)cc1
REMARK SMILES IDX 20 1 19 2 18 3 17 4 15 5 16 6 14 8 11 9 12 10 87 11 13 12
REMARK SMILES IDX 88 13 9 14 10 15 7 16 8 17 6 18 3 19 4 20 90 21 5 22 89 23
REMARK SMILES IDX 2 24 1 25 21 26 22 27 23 28 24 29 25 30 26 32 27 33 28 34
REMARK SMILES IDX 86 35 29 36 85 37 30 38 31 39 32 40 79 41 33 42 84 43 78 44
REMARK SMILES IDX 80 45 34 46 83 47 77 48 76 49 35 51 65 52 46 53 64 54 47 55
REMARK SMILES IDX 50 56 63 57 81 58 48 59 49 60 62 62 82 63 51 64 36 65 37 66
REMARK SMILES IDX 45 67 38 68 44 69 39 70 40 71 41 72 42 73 43 74 66 75 67 76
REMARK SMILES IDX 75 77 68 78 74 79 69 80 70 81 71 82 72 83 73 84 52 85 53 86
REMARK SMILES IDX 61 87 54 88 60 89 55 90 56 91 57 92 58 93 59 94
REMARK H PARENT 17 7 24 31 80 50 50 61
REMARK Flexibility Score: inf
ROOT
ATOM      1  C   UNL     1       5.167  -4.248  -8.426  1.00  0.00     0.002 C 
ENDROOT
BRANCH   1   2
ATOM      2  C   UNL     1       4.533  -2.866  -8.285  1.00  0.00     0.021 C 
BRANCH   2   3
ATOM      3  C   UNL     1       5.181  -1.750  -9.108  1.00  0.00     0.116 C 
BRANCH   3   4
ATOM      4  N   UNL     1       4.685  -1.740 -10.473  1.00  0.00    -0.356 N 
ATOM      5  C   UNL     1       4.019  -0.796 -11.189  1.00  0.00     0.225 C 
ATOM      6  O   UNL     1       3.702  -1.094 -12.345  1.00  0.00    -0.275 OA
ATOM      7  H   UNL     1       4.864  -2.570 -10.971  1.00  0.00     0.163 HD
BRANCH   5   8
ATOM      8  C   UNL     1       3.651   0.580 -10.642  1.00  0.00     0.102 C 
ATOM      9  N   UNL     1       3.324   1.307  -8.382  1.00  0.00    -0.321 N 
ATOM     10  C   UNL     1       4.343   2.164  -8.970  1.00  0.00     0.122 C 
ATOM     11  C   UNL     1       2.663   0.539  -9.456  1.00  0.00     0.096 C 
ATOM     12  C   UNL     1       4.850   1.411 -10.184  1.00  0.00     0.037 C 
ATOM     13  C   UNL     1       1.326   1.183  -9.833  1.00  0.00     0.032 C 
BRANCH   9  14
ATOM     14  C   UNL     1       2.982   1.548  -7.050  1.00  0.00     0.324 C 
ATOM     15  O   UNL     1       3.387   2.605  -6.557  1.00  0.00    -0.248 OA
BRANCH  14  16
ATOM     16  N   UNL     1       2.269   0.579  -6.325  1.00  0.00    -0.297 N 
ATOM     17  C   UNL     1       2.255  -0.806  -6.758  1.00  0.00     0.155 C 
BRANCH  16  18
ATOM     18  C   UNL     1       1.741   0.814  -4.981  1.00  0.00     0.045 A 
ATOM     19  C   UNL     1       0.910   1.124  -2.248  1.00  0.00    -0.048 A 
ATOM     20  C   UNL     1       0.732  -0.084  -2.915  1.00  0.00     0.006 A 
ATOM     21  C   UNL     1       1.427   2.197  -2.977  1.00  0.00     0.006 A 
ATOM     22  C   UNL     1       1.125  -0.227  -4.253  1.00  0.00     0.027 A 
ATOM     23  C   UNL     1       1.827   2.045  -4.318  1.00  0.00     0.027 A 
BRANCH  19  24
ATOM     24  C   UNL     1       0.507   1.296  -0.804  1.00  0.00     0.032 C 
ATOM     25  C   UNL     1       1.066   0.226   0.129  1.00  0.00     0.009 C 
ENDBRANCH  19  24
ENDBRANCH  16  18
ENDBRANCH  14  16
ENDBRANCH   9  14
ENDBRANCH   5   8
ENDBRANCH   3   4
ENDBRANCH   2   3
ENDBRANCH   1   2
BRANCH   1  26
ATOM     26  C   UNL     1       6.615  -4.357  -7.937  1.00  0.00     0.002 C 
BRANCH  26  27
ATOM     27  C   UNL     1       6.902  -3.803  -6.536  1.00  0.00     0.021 C 
BRANCH  27  28
ATOM     28  C   UNL     1       6.038  -4.357  -5.404  1.00  0.00     0.116 C 
BRANCH  28  29
ATOM     29  N   UNL     1       6.155  -5.798  -5.273  1.00  0.00    -0.352 N 
ATOM     30  C   UNL     1       6.535  -6.561  -4.201  1.00  0.00     0.251 C 
ATOM     31  H   UNL     1       5.924  -6.308  -6.083  1.00  0.00     0.163 HD
ATOM     32  O   UNL     1       6.741  -7.766  -4.368  1.00  0.00    -0.269 OA
BRANCH  30  33
ATOM     33  C   UNL     1       6.714  -5.969  -2.856  1.00  0.00     0.039 A 
ATOM     34  C   UNL     1       7.794  -6.397  -2.078  1.00  0.00     0.014 A 
ATOM     35  C   UNL     1       5.801  -5.051  -2.327  1.00  0.00     0.014 A 
ATOM     36  C   UNL     1       7.979  -5.883  -0.792  1.00  0.00     0.010 A 
ATOM     37  C   UNL     1       6.020  -4.492  -1.066  1.00  0.00     0.010 A 
ATOM     38  C   UNL     1       7.103  -4.912  -0.280  1.00  0.00    -0.014 A 
BRANCH  38  39
ATOM     39  C   UNL     1       7.311  -4.347   1.080  1.00  0.00     0.031 A 
ATOM     40  C   UNL     1       6.320  -4.619   2.181  1.00  0.00     0.074 A 
ATOM     41  C   UNL     1       8.379  -3.561   1.319  1.00  0.00     0.049 A 
ATOM     42  N   UNL     1       6.341  -4.216   3.427  1.00  0.00    -0.248 NA
ATOM     43  C   UNL     1       5.144  -5.432   1.834  1.00  0.00     0.031 C 
ATOM     44  C   UNL     1       9.390  -3.183   0.328  1.00  0.00     0.029 A 
ATOM     45  N   UNL     1       8.794  -2.939   2.470  1.00  0.00    -0.354 N 
ATOM     46  C   UNL     1       5.178  -4.712   4.007  1.00  0.00     0.074 A 
ATOM     47  C   UNL     1       4.454  -5.408   2.965  1.00  0.00     0.031 C 
ATOM     48  C   UNL     1      10.320  -2.417   0.921  1.00  0.00     0.029 A 
ATOM     49  C   UNL     1       9.960  -2.227   2.323  1.00  0.00     0.049 A 
ATOM     50  H   UNL     1       8.302  -2.998   3.321  1.00  0.00     0.167 HD
ATOM     51  C   UNL     1       4.758  -4.614   5.292  1.00  0.00     0.031 A 
ATOM     52  C   UNL     1      10.665  -1.504   3.215  1.00  0.00     0.031 A 
ATOM     53  C   UNL     1       5.484  -3.932   6.331  1.00  0.00     0.049 A 
ATOM     54  C   UNL     1      10.192  -1.427   4.639  1.00  0.00     0.074 A 
ATOM     55  C   UNL     1       5.169  -3.826   7.675  1.00  0.00     0.029 A 
ATOM     56  N   UNL     1       6.671  -3.240   6.145  1.00  0.00    -0.354 N 
ATOM     57  N   UNL     1       9.123  -1.961   5.183  1.00  0.00    -0.248 NA
ATOM     58  C   UNL     1      11.030  -0.666   5.575  1.00  0.00     0.031 C 
ATOM     59  C   UNL     1       6.144  -3.035   8.293  1.00  0.00     0.029 A 
ATOM     60  C   UNL     1       7.093  -2.690   7.344  1.00  0.00     0.049 A 
ATOM     61  H   UNL     1       7.144  -3.152   5.286  1.00  0.00     0.167 HD
ATOM     62  C   UNL     1       9.174  -1.619   6.529  1.00  0.00     0.074 A 
ATOM     63  C   UNL     1      10.387  -0.849   6.720  1.00  0.00     0.031 C 
ATOM     64  C   UNL     1       8.296  -1.918   7.519  1.00  0.00     0.031 A 
BRANCH  51  65
ATOM     65  C   UNL     1       3.442  -5.258   5.641  1.00  0.00    -0.014 A 
ATOM     66  C   UNL     1       3.308  -6.657   5.688  1.00  0.00     0.010 A 
ATOM     67  C   UNL     1       2.331  -4.454   5.956  1.00  0.00     0.010 A 
ATOM     68  C   UNL     1       2.076  -7.241   5.995  1.00  0.00     0.020 A 
ATOM     69  C   UNL     1       1.103  -5.034   6.289  1.00  0.00     0.020 A 
ATOM     70  C   UNL     1       0.979  -6.425   6.286  1.00  0.00     0.054 A 
BRANCH  70  71
ATOM     71  S   UNL     1      -0.608  -7.207   6.688  1.00  0.00     0.124 S 
ATOM     72  O   UNL     1      -1.065  -7.650   5.373  1.00  0.00    -0.237 OA
ATOM     73  O   UNL     1      -0.219  -8.273   7.608  1.00  0.00    -0.237 OA
ATOM     74  O   UNL     1      -1.386  -6.125   7.286  1.00  0.00    -0.744 OA
ENDBRANCH  70  71
ENDBRANCH  51  65
BRANCH  52  75
ATOM     75  C   UNL     1      11.915  -0.820   2.788  1.00  0.00    -0.014 A 
ATOM     76  C   UNL     1      13.170  -1.310   3.191  1.00  0.00     0.010 A 
ATOM     77  C   UNL     1      11.857   0.314   1.957  1.00  0.00     0.010 A 
ATOM     78  C   UNL     1      14.344  -0.670   2.783  1.00  0.00     0.020 A 
ATOM     79  C   UNL     1      13.030   0.941   1.527  1.00  0.00     0.020 A 
ATOM     80  C   UNL     1      14.266   0.450   1.951  1.00  0.00     0.054 A 
BRANCH  80  81
ATOM     81  S   UNL     1      15.804   1.228   1.382  1.00  0.00     0.124 S 
ATOM     82  O   UNL     1      16.232   1.960   2.570  1.00  0.00    -0.237 OA
ATOM     83  O   UNL     1      16.625   0.076   1.017  1.00  0.00    -0.237 OA
ATOM     84  O   UNL     1      15.371   2.054   0.257  1.00  0.00    -0.744 OA
ENDBRANCH  80  81
ENDBRANCH  52  75
BRANCH  64  85
ATOM     85  C   UNL     1       8.632  -1.432   8.904  1.00  0.00    -0.014 A 
ATOM     86  C   UNL     1       8.533  -0.071   9.243  1.00  0.00     0.010 A 
ATOM     87  C   UNL     1       9.029  -2.357   9.886  1.00  0.00     0.010 A 
ATOM     88  C   UNL     1       8.868   0.362  10.529  1.00  0.00     0.020 A 
ATOM     89  C   UNL     1       9.340  -1.931  11.180  1.00  0.00     0.020 A 
ATOM     90  C   UNL     1       9.277  -0.570  11.488  1.00  0.00     0.054 A 
BRANCH  90  91
ATOM     91  S   UNL     1       9.691   0.011  13.155  1.00  0.00     0.124 S 
ATOM     92  O   UNL     1      11.019   0.584  12.955  1.00  0.00    -0.237 OA
ATOM     93  O   UNL     1       8.627   0.972  13.437  1.00  0.00    -0.237 OA
ATOM     94  O   UNL     1       9.652  -1.205  13.964  1.00  0.00    -0.744 OA
ENDBRANCH  90  91
ENDBRANCH  64  85
ENDBRANCH  38  39
ENDBRANCH  30  33
ENDBRANCH  28  29
ENDBRANCH  27  28
ENDBRANCH  26  27
ENDBRANCH   1  26
TORSDOF 20
