REMARK SMILES CCCC[C@H](C(=O)NCCCCCCNC(=O)c1ccc(-c2c3nc(c(-c4ccc(S(=O)(=O)[O-])cc4)c4ccc([nH]4)c(-c4ccc(S(=O)(=O)[O-])cc4)c4nc(c(-c5ccc(S(=O)(=O)[O-])cc5)c5ccc2[nH]5)C=C4)C=C3)cc1)[C@H](O)c1ccc(C(F)(F)F)cc1
REMARK SMILES IDX 11 1 10 2 9 3 8 4 6 5 7 6 5 8 4 9 3 10 2 11 1 12 78 13 80 14
REMARK SMILES IDX 81 15 89 16 82 17 88 18 83 19 84 20 85 21 86 22 87 23 79 24
REMARK SMILES IDX 12 26 13 27 14 28 15 29 16 30 17 32 18 33 19 34 77 35 20 36
REMARK SMILES IDX 76 37 21 38 22 39 23 40 70 41 24 42 75 43 69 44 71 45 25 46
REMARK SMILES IDX 74 47 68 48 67 49 26 51 56 52 37 53 55 54 38 55 41 56 54 57
REMARK SMILES IDX 72 58 39 59 40 60 53 62 73 63 42 64 27 65 28 66 36 67 29 68
REMARK SMILES IDX 35 69 30 70 31 71 32 72 33 73 34 74 57 75 58 76 66 77 59 78
REMARK SMILES IDX 65 79 60 80 61 81 62 82 63 83 64 84 43 85 44 86 52 87 45 88
REMARK SMILES IDX 51 89 46 90 47 91 48 92 49 93 50 94
REMARK H PARENT 8 7 79 25 15 31 71 50 41 61
REMARK Flexibility Score: inf
ROOT
ATOM      1  C   UNL     1      -3.739   3.360  -0.595  1.00  0.00     0.002 C 
ENDROOT
BRANCH   1   2
ATOM      2  C   UNL     1      -2.584   2.417  -0.234  1.00  0.00     0.021 C 
BRANCH   2   3
ATOM      3  C   UNL     1      -1.425   3.069   0.512  1.00  0.00     0.116 C 
BRANCH   3   4
ATOM      4  N   UNL     1      -1.821   3.639   1.788  1.00  0.00    -0.356 N 
ATOM      5  C   UNL     1      -1.501   3.261   3.056  1.00  0.00     0.226 C 
ATOM      6  O   UNL     1      -1.788   4.033   3.975  1.00  0.00    -0.275 OA
ATOM      7  H   UNL     1      -2.415   4.421   1.725  1.00  0.00     0.163 HD
BRANCH   5   8
ATOM      8  C   UNL     1      -0.805   1.938   3.317  1.00  0.00     0.111 C 
BRANCH   8   9
ATOM      9  C   UNL     1       0.272   2.188   4.410  1.00  0.00     0.016 C 
BRANCH   9  10
ATOM     10  C   UNL     1       1.335   1.090   4.561  1.00  0.00     0.001 C 
BRANCH  10  11
ATOM     11  C   UNL     1       2.137   0.748   3.301  1.00  0.00    -0.003 C 
ATOM     12  C   UNL     1       2.875   1.933   2.700  1.00  0.00     0.004 C 
ENDBRANCH  10  11
ENDBRANCH   9  10
ENDBRANCH   8   9
BRANCH   8  13
ATOM     13  C   UNL     1      -1.706   0.720   3.673  1.00  0.00     0.157 C 
BRANCH  13  14
ATOM     14  C   UNL     1      -3.232   0.675   3.686  1.00  0.00    -0.019 A 
ATOM     15  C   UNL     1      -4.079   1.775   3.842  1.00  0.00     0.007 A 
ATOM     16  C   UNL     1      -3.853  -0.596   3.670  1.00  0.00     0.007 A 
ATOM     17  C   UNL     1      -5.473   1.627   3.913  1.00  0.00     0.013 A 
ATOM     18  C   UNL     1      -5.241  -0.754   3.759  1.00  0.00     0.013 A 
ATOM     19  C   UNL     1      -6.069   0.362   3.874  1.00  0.00     0.056 A 
BRANCH  19  20
ATOM     20  C   UNL     1      -7.566   0.227   3.973  1.00  0.00     0.416 C 
ATOM     21  F   UNL     1      -8.064   0.777   5.117  1.00  0.00    -0.166 F 
ATOM     22  F   UNL     1      -8.218   0.847   2.950  1.00  0.00    -0.166 F 
ATOM     23  F   UNL     1      -8.003  -1.064   3.966  1.00  0.00    -0.166 F 
ENDBRANCH  19  20
ENDBRANCH  13  14
BRANCH  13  24
ATOM     24  O   UNL     1      -1.293  -0.339   2.777  1.00  0.00    -0.388 OA
ATOM     25  H   UNL     1      -1.545  -0.110   1.868  1.00  0.00     0.211 HD
ENDBRANCH  13  24
ENDBRANCH   8  13
ENDBRANCH   5   8
ENDBRANCH   3   4
ENDBRANCH   2   3
ENDBRANCH   1   2
BRANCH   1  26
ATOM     26  C   UNL     1      -3.351   4.644  -1.337  1.00  0.00     0.002 C 
BRANCH  26  27
ATOM     27  C   UNL     1      -2.526   4.452  -2.611  1.00  0.00     0.021 C 
BRANCH  27  28
ATOM     28  C   UNL     1      -3.188   3.603  -3.690  1.00  0.00     0.116 C 
BRANCH  28  29
ATOM     29  N   UNL     1      -4.383   4.228  -4.234  1.00  0.00    -0.352 N 
ATOM     30  C   UNL     1      -4.697   4.521  -5.540  1.00  0.00     0.251 C 
ATOM     31  H   UNL     1      -5.066   4.478  -3.570  1.00  0.00     0.163 HD
ATOM     32  O   UNL     1      -5.677   5.212  -5.795  1.00  0.00    -0.269 OA
BRANCH  30  33
ATOM     33  C   UNL     1      -3.834   4.022  -6.636  1.00  0.00     0.039 A 
ATOM     34  C   UNL     1      -3.475   4.894  -7.667  1.00  0.00     0.014 A 
ATOM     35  C   UNL     1      -3.378   2.702  -6.644  1.00  0.00     0.014 A 
ATOM     36  C   UNL     1      -2.601   4.461  -8.668  1.00  0.00     0.010 A 
ATOM     37  C   UNL     1      -2.448   2.297  -7.598  1.00  0.00     0.010 A 
ATOM     38  C   UNL     1      -2.048   3.171  -8.620  1.00  0.00    -0.014 A 
BRANCH  38  39
ATOM     39  C   UNL     1      -1.048   2.714  -9.621  1.00  0.00     0.031 A 
ATOM     40  C   UNL     1      -1.362   1.553 -10.527  1.00  0.00     0.074 A 
ATOM     41  C   UNL     1       0.168   3.294  -9.666  1.00  0.00     0.049 A 
ATOM     42  N   UNL     1      -0.591   0.954 -11.398  1.00  0.00    -0.248 NA
ATOM     43  C   UNL     1      -2.711   0.974 -10.421  1.00  0.00     0.031 C 
ATOM     44  C   UNL     1       0.608   4.410  -8.825  1.00  0.00     0.029 A 
ATOM     45  N   UNL     1       1.264   3.017 -10.446  1.00  0.00    -0.354 N 
ATOM     46  C   UNL     1      -1.353  -0.079 -11.931  1.00  0.00     0.074 A 
ATOM     47  C   UNL     1      -2.628  -0.058 -11.248  1.00  0.00     0.031 C 
ATOM     48  C   UNL     1       1.868   4.738  -9.152  1.00  0.00     0.029 A 
ATOM     49  C   UNL     1       2.346   3.827 -10.187  1.00  0.00     0.049 A 
ATOM     50  H   UNL     1       1.275   2.307 -11.127  1.00  0.00     0.167 HD
ATOM     51  C   UNL     1      -1.029  -0.955 -12.912  1.00  0.00     0.031 A 
ATOM     52  C   UNL     1       3.588   3.829 -10.711  1.00  0.00     0.031 A 
ATOM     53  C   UNL     1       0.241  -0.972 -13.590  1.00  0.00     0.049 A 
ATOM     54  C   UNL     1       3.938   2.822 -11.773  1.00  0.00     0.074 A 
ATOM     55  C   UNL     1       0.650  -1.790 -14.629  1.00  0.00     0.029 A 
ATOM     56  N   UNL     1       1.308  -0.137 -13.295  1.00  0.00    -0.354 N 
ATOM     57  N   UNL     1       3.185   1.889 -12.304  1.00  0.00    -0.248 NA
ATOM     58  C   UNL     1       5.304   2.873 -12.313  1.00  0.00     0.031 C 
ATOM     59  C   UNL     1       1.984  -1.491 -14.920  1.00  0.00     0.029 A 
ATOM     60  C   UNL     1       2.385  -0.439 -14.112  1.00  0.00     0.049 A 
ATOM     61  H   UNL     1       1.302   0.567 -12.606  1.00  0.00     0.167 HD
ATOM     62  C   UNL     1       3.974   1.265 -13.264  1.00  0.00     0.074 A 
ATOM     63  C   UNL     1       5.260   1.932 -13.247  1.00  0.00     0.031 C 
ATOM     64  C   UNL     1       3.659   0.236 -14.089  1.00  0.00     0.031 A 
BRANCH  51  65
ATOM     65  C   UNL     1      -2.064  -1.980 -13.302  1.00  0.00    -0.014 A 
ATOM     66  C   UNL     1      -3.254  -1.603 -13.952  1.00  0.00     0.010 A 
ATOM     67  C   UNL     1      -1.829  -3.343 -13.045  1.00  0.00     0.010 A 
ATOM     68  C   UNL     1      -4.210  -2.564 -14.292  1.00  0.00     0.020 A 
ATOM     69  C   UNL     1      -2.768  -4.311 -13.414  1.00  0.00     0.020 A 
ATOM     70  C   UNL     1      -3.962  -3.912 -14.017  1.00  0.00     0.054 A 
BRANCH  70  71
ATOM     71  S   UNL     1      -5.217  -5.137 -14.481  1.00  0.00     0.124 S 
ATOM     72  O   UNL     1      -6.273  -4.868 -13.509  1.00  0.00    -0.237 OA
ATOM     73  O   UNL     1      -5.526  -4.771 -15.861  1.00  0.00    -0.237 OA
ATOM     74  O   UNL     1      -4.531  -6.416 -14.317  1.00  0.00    -0.744 OA
ENDBRANCH  70  71
ENDBRANCH  51  65
BRANCH  52  75
ATOM     75  C   UNL     1       4.590   4.827 -10.244  1.00  0.00    -0.014 A 
ATOM     76  C   UNL     1       5.015   5.864 -11.094  1.00  0.00     0.010 A 
ATOM     77  C   UNL     1       5.114   4.757  -8.940  1.00  0.00     0.010 A 
ATOM     78  C   UNL     1       5.955   6.801 -10.655  1.00  0.00     0.020 A 
ATOM     79  C   UNL     1       6.031   5.710  -8.487  1.00  0.00     0.020 A 
ATOM     80  C   UNL     1       6.454   6.720  -9.352  1.00  0.00     0.054 A 
BRANCH  80  81
ATOM     81  S   UNL     1       7.632   7.980  -8.787  1.00  0.00     0.124 S 
ATOM     82  O   UNL     1       8.836   7.626  -9.532  1.00  0.00    -0.237 OA
ATOM     83  O   UNL     1       6.979   9.223  -9.191  1.00  0.00    -0.237 OA
ATOM     84  O   UNL     1       7.700   7.761  -7.344  1.00  0.00    -0.744 OA
ENDBRANCH  80  81
ENDBRANCH  52  75
BRANCH  64  85
ATOM     85  C   UNL     1       4.702  -0.214 -15.079  1.00  0.00    -0.014 A 
ATOM     86  C   UNL     1       5.847  -0.918 -14.669  1.00  0.00     0.010 A 
ATOM     87  C   UNL     1       4.489   0.008 -16.453  1.00  0.00     0.010 A 
ATOM     88  C   UNL     1       6.771  -1.376 -15.614  1.00  0.00     0.020 A 
ATOM     89  C   UNL     1       5.394  -0.474 -17.402  1.00  0.00     0.020 A 
ATOM     90  C   UNL     1       6.535  -1.156 -16.975  1.00  0.00     0.054 A 
BRANCH  90  91
ATOM     91  S   UNL     1       7.714  -1.819 -18.183  1.00  0.00     0.124 S 
ATOM     92  O   UNL     1       8.868  -0.945 -17.993  1.00  0.00    -0.237 OA
ATOM     93  O   UNL     1       7.889  -3.198 -17.734  1.00  0.00    -0.237 OA
ATOM     94  O   UNL     1       7.023  -1.669 -19.462  1.00  0.00    -0.744 OA
ENDBRANCH  90  91
ENDBRANCH  64  85
ENDBRANCH  38  39
ENDBRANCH  30  33
ENDBRANCH  28  29
ENDBRANCH  27  28
ENDBRANCH  26  27
ENDBRANCH   1  26
TORSDOF 23
