REMARK SMILES NS(=O)(=O)c1ccc(-n2nc(C(F)F)cc2-c2ccc(C(=O)NCCCCCCNC(=O)c3ccc(-c4c5nc(c(-c6ccc(S(=O)(=O)[O-])cc6)c6ccc([nH]6)c(-c6ccc(S(=O)(=O)[O-])cc6)c6nc(c(-c7ccc(S(=O)(=O)[O-])cc7)c7ccc4[nH]7)C=C6)C=C5)cc3)cc2)cc1
REMARK SMILES IDX 26 1 25 2 24 3 23 4 21 5 22 6 20 8 17 9 18 10 94 11 19 12
REMARK SMILES IDX 93 13 16 14 9 15 10 16 11 17 15 18 8 19 5 20 6 21 96 22 7 23
REMARK SMILES IDX 95 24 2 25 3 26 4 27 1 28 12 31 13 32 14 33 27 34 28 35
REMARK SMILES IDX 29 36 30 37 31 38 32 40 33 41 34 42 92 43 35 44 91 45 36 46
REMARK SMILES IDX 37 47 38 48 85 49 39 50 90 51 84 52 86 53 40 54 89 55 83 56
REMARK SMILES IDX 82 57 41 59 71 60 52 61 70 62 53 63 56 64 69 65 87 66 54 67
REMARK SMILES IDX 55 68 68 70 88 71 57 72 42 73 43 74 51 75 44 76 50 77 45 78
REMARK SMILES IDX 46 79 47 80 48 81 49 82 72 83 73 84 81 85 74 86 80 87 75 88
REMARK SMILES IDX 76 89 77 90 78 91 79 92 58 93 59 94 67 95 60 96 66 97 61 98
REMARK SMILES IDX 62 99 63 100 64 101 65 102
REMARK H PARENT 23 7 1 29 1 30 30 39 86 58 56 69
REMARK Flexibility Score: inf
ROOT
ATOM      1  C   UNL     1      -7.076  -8.375  -2.807  1.00  0.00     0.002 C 
ENDROOT
BRANCH   1   2
ATOM      2  C   UNL     1      -5.558  -8.300  -3.011  1.00  0.00     0.021 C 
BRANCH   2   3
ATOM      3  C   UNL     1      -5.166  -7.570  -4.296  1.00  0.00     0.116 C 
BRANCH   3   4
ATOM      4  N   UNL     1      -5.261  -6.137  -4.099  1.00  0.00    -0.352 N 
ATOM      5  C   UNL     1      -4.306  -5.170  -3.922  1.00  0.00     0.251 C 
ATOM      6  O   UNL     1      -4.682  -4.005  -3.797  1.00  0.00    -0.269 OA
ATOM      7  H   UNL     1      -6.184  -5.794  -4.091  1.00  0.00     0.163 HD
BRANCH   5   8
ATOM      8  C   UNL     1      -2.850  -5.470  -3.976  1.00  0.00     0.039 A 
ATOM      9  C   UNL     1      -0.106  -5.943  -4.320  1.00  0.00     0.000 A 
ATOM     10  C   UNL     1      -0.647  -4.687  -4.621  1.00  0.00     0.011 A 
ATOM     11  C   UNL     1      -0.929  -6.944  -3.807  1.00  0.00     0.011 A 
ATOM     12  C   UNL     1      -2.012  -4.454  -4.454  1.00  0.00     0.014 A 
ATOM     13  C   UNL     1      -2.282  -6.686  -3.585  1.00  0.00     0.014 A 
BRANCH   9  14
ATOM     14  C   UNL     1       1.325  -6.178  -4.434  1.00  0.00     0.075 A 
ATOM     15  N   UNL     1       2.282  -5.522  -3.671  1.00  0.00    -0.233 N 
ATOM     16  N   UNL     1       3.532  -5.724  -4.157  1.00  0.00    -0.166 NA
ATOM     17  C   UNL     1       3.391  -6.734  -5.038  1.00  0.00     0.129 A 
ATOM     18  C   UNL     1       2.024  -7.006  -5.284  1.00  0.00     0.060 A 
BRANCH  15  19
ATOM     19  C   UNL     1       2.030  -4.653  -2.581  1.00  0.00     0.065 A 
ATOM     20  C   UNL     1       1.244  -2.811  -0.653  1.00  0.00     0.082 A 
ATOM     21  C   UNL     1       0.695  -4.095  -0.637  1.00  0.00     0.024 A 
ATOM     22  C   UNL     1       2.214  -2.458  -1.601  1.00  0.00     0.024 A 
ATOM     23  C   UNL     1       1.087  -5.016  -1.605  1.00  0.00     0.030 A 
ATOM     24  C   UNL     1       2.631  -3.393  -2.554  1.00  0.00     0.030 A 
BRANCH  20  25
ATOM     25  S   UNL     1       0.650  -1.655   0.542  1.00  0.00     0.238 S 
ATOM     26  O   UNL     1       1.259  -1.930   1.810  1.00  0.00    -0.207 OA
ATOM     27  O   UNL     1      -0.781  -1.497   0.356  1.00  0.00    -0.207 OA
BRANCH  25  28
ATOM     28  N   UNL     1       1.295  -0.172   0.061  1.00  0.00    -0.225 NA
ATOM     29  H   UNL     1       0.994   0.556   0.709  1.00  0.00     0.137 HD
ATOM     30  H   UNL     1       0.967   0.052  -0.879  1.00  0.00     0.137 HD
ENDBRANCH  25  28
ENDBRANCH  20  25
ENDBRANCH  15  19
BRANCH  17  31
ATOM     31  C   UNL     1       4.555  -7.434  -5.675  1.00  0.00     0.393 C 
ATOM     32  F   UNL     1       5.486  -6.569  -6.163  1.00  0.00    -0.203 F 
ATOM     33  F   UNL     1       5.198  -8.249  -4.796  1.00  0.00    -0.203 F 
ENDBRANCH  17  31
ENDBRANCH   9  14
ENDBRANCH   5   8
ENDBRANCH   3   4
ENDBRANCH   2   3
ENDBRANCH   1   2
BRANCH   1  34
ATOM     34  C   UNL     1      -7.855  -9.040  -3.954  1.00  0.00     0.002 C 
BRANCH  34  35
ATOM     35  C   UNL     1      -7.336 -10.414  -4.405  1.00  0.00     0.021 C 
BRANCH  35  36
ATOM     36  C   UNL     1      -7.543 -11.502  -3.363  1.00  0.00     0.116 C 
BRANCH  36  37
ATOM     37  N   UNL     1      -8.963 -11.792  -3.166  1.00  0.00    -0.352 N 
ATOM     38  C   UNL     1      -9.551 -12.644  -2.255  1.00  0.00     0.251 C 
ATOM     39  H   UNL     1      -9.583 -11.314  -3.764  1.00  0.00     0.163 HD
ATOM     40  O   UNL     1     -10.682 -13.075  -2.446  1.00  0.00    -0.269 OA
BRANCH  38  41
ATOM     41  C   UNL     1      -8.796 -13.020  -1.049  1.00  0.00     0.039 A 
ATOM     42  C   UNL     1      -8.839 -14.320  -0.539  1.00  0.00     0.014 A 
ATOM     43  C   UNL     1      -8.019 -12.039  -0.438  1.00  0.00     0.014 A 
ATOM     44  C   UNL     1      -8.029 -14.640   0.548  1.00  0.00     0.010 A 
ATOM     45  C   UNL     1      -7.109 -12.392   0.523  1.00  0.00     0.010 A 
ATOM     46  C   UNL     1      -7.152 -13.672   1.062  1.00  0.00    -0.014 A 
BRANCH  46  47
ATOM     47  C   UNL     1      -6.177 -14.007   2.093  1.00  0.00     0.031 A 
ATOM     48  C   UNL     1      -5.264 -15.122   1.732  1.00  0.00     0.074 A 
ATOM     49  C   UNL     1      -5.956 -13.225   3.173  1.00  0.00     0.049 A 
ATOM     50  N   UNL     1      -5.254 -16.317   2.218  1.00  0.00    -0.248 NA
ATOM     51  C   UNL     1      -4.360 -14.940   0.583  1.00  0.00     0.031 C 
ATOM     52  C   UNL     1      -6.560 -11.924   3.492  1.00  0.00     0.029 A 
ATOM     53  N   UNL     1      -5.035 -13.371   4.162  1.00  0.00    -0.354 N 
ATOM     54  C   UNL     1      -4.179 -16.962   1.616  1.00  0.00     0.074 A 
ATOM     55  C   UNL     1      -3.815 -16.154   0.480  1.00  0.00     0.031 C 
ATOM     56  C   UNL     1      -5.822 -11.300   4.437  1.00  0.00     0.029 A 
ATOM     57  C   UNL     1      -4.811 -12.223   4.917  1.00  0.00     0.049 A 
ATOM     58  H   UNL     1      -4.564 -14.219   4.330  1.00  0.00     0.167 HD
ATOM     59  C   UNL     1      -3.498 -17.953   2.259  1.00  0.00     0.031 A 
ATOM     60  C   UNL     1      -3.847 -12.039   5.854  1.00  0.00     0.031 A 
ATOM     61  C   UNL     1      -4.208 -18.404   3.431  1.00  0.00     0.049 A 
ATOM     62  C   UNL     1      -3.411 -13.387   6.290  1.00  0.00     0.074 A 
ATOM     63  C   UNL     1      -5.454 -18.949   3.667  1.00  0.00     0.029 A 
ATOM     64  N   UNL     1      -3.767 -17.920   4.642  1.00  0.00    -0.354 N 
ATOM     65  N   UNL     1      -4.191 -14.218   6.925  1.00  0.00    -0.248 NA
ATOM     66  C   UNL     1      -2.272 -13.992   5.619  1.00  0.00     0.031 C 
ATOM     67  C   UNL     1      -5.894 -18.343   4.881  1.00  0.00     0.029 A 
ATOM     68  C   UNL     1      -4.865 -17.531   5.363  1.00  0.00     0.049 A 
ATOM     69  H   UNL     1      -2.829 -17.864   4.937  1.00  0.00     0.167 HD
ATOM     70  C   UNL     1      -3.912 -15.458   6.370  1.00  0.00     0.074 A 
ATOM     71  C   UNL     1      -2.651 -15.273   5.652  1.00  0.00     0.031 C 
ATOM     72  C   UNL     1      -4.868 -16.432   6.308  1.00  0.00     0.031 A 
BRANCH  59  73
ATOM     73  C   UNL     1      -2.017 -18.204   2.092  1.00  0.00    -0.014 A 
ATOM     74  C   UNL     1      -1.429 -19.274   2.799  1.00  0.00     0.010 A 
ATOM     75  C   UNL     1      -1.138 -17.272   1.502  1.00  0.00     0.010 A 
ATOM     76  C   UNL     1      -0.042 -19.358   2.974  1.00  0.00     0.020 A 
ATOM     77  C   UNL     1       0.248 -17.372   1.631  1.00  0.00     0.020 A 
ATOM     78  C   UNL     1       0.786 -18.395   2.398  1.00  0.00     0.054 A 
BRANCH  78  79
ATOM     79  S   UNL     1       2.567 -18.452   2.712  1.00  0.00     0.124 S 
ATOM     80  O   UNL     1       2.626 -18.174   4.144  1.00  0.00    -0.237 OA
ATOM     81  O   UNL     1       2.905 -19.816   2.314  1.00  0.00    -0.237 OA
ATOM     82  O   UNL     1       3.099 -17.404   1.844  1.00  0.00    -0.744 OA
ENDBRANCH  78  79
ENDBRANCH  59  73
BRANCH  60  83
ATOM     83  C   UNL     1      -3.080 -10.807   6.170  1.00  0.00    -0.014 A 
ATOM     84  C   UNL     1      -2.281 -10.729   7.327  1.00  0.00     0.010 A 
ATOM     85  C   UNL     1      -2.897  -9.819   5.181  1.00  0.00     0.010 A 
ATOM     86  C   UNL     1      -1.282  -9.747   7.454  1.00  0.00     0.020 A 
ATOM     87  C   UNL     1      -1.908  -8.835   5.303  1.00  0.00     0.020 A 
ATOM     88  C   UNL     1      -1.085  -8.821   6.428  1.00  0.00     0.054 A 
BRANCH  88  89
ATOM     89  S   UNL     1       0.338  -7.690   6.501  1.00  0.00     0.124 S 
ATOM     90  O   UNL     1      -0.061  -6.759   7.552  1.00  0.00    -0.237 OA
ATOM     91  O   UNL     1       1.440  -8.588   6.835  1.00  0.00    -0.237 OA
ATOM     92  O   UNL     1       0.392  -7.124   5.154  1.00  0.00    -0.744 OA
ENDBRANCH  88  89
ENDBRANCH  60  83
BRANCH  72  93
ATOM     93  C   UNL     1      -6.129 -16.258   7.126  1.00  0.00    -0.014 A 
ATOM     94  C   UNL     1      -7.046 -15.201   6.956  1.00  0.00     0.010 A 
ATOM     95  C   UNL     1      -6.466 -17.299   8.008  1.00  0.00     0.010 A 
ATOM     96  C   UNL     1      -8.254 -15.178   7.674  1.00  0.00     0.020 A 
ATOM     97  C   UNL     1      -7.672 -17.292   8.710  1.00  0.00     0.020 A 
ATOM     98  C   UNL     1      -8.557 -16.226   8.549  1.00  0.00     0.054 A 
BRANCH  98  99
ATOM     99  S   UNL     1     -10.132 -16.216   9.451  1.00  0.00     0.124 S 
ATOM    100  O   UNL     1      -9.960 -15.102  10.379  1.00  0.00    -0.237 OA
ATOM    101  O   UNL     1     -11.115 -16.006   8.390  1.00  0.00    -0.237 OA
ATOM    102  O   UNL     1     -10.184 -17.538  10.076  1.00  0.00    -0.744 OA
ENDBRANCH  98  99
ENDBRANCH  72  93
ENDBRANCH  46  47
ENDBRANCH  38  41
ENDBRANCH  36  37
ENDBRANCH  35  36
ENDBRANCH  34  35
ENDBRANCH   1  34
TORSDOF 21
