REMARK SMILES CCCCCCNC(=O)Nc1cccc(-c2ccc([C@@H](C)C(=O)NCCCCCCNC(=O)c3ccc(-c4c5nc(c(-c6ccc(S(=O)(=O)[O-])cc6)c6ccc([nH]6)c(-c6ccc(S(=O)(=O)[O-])cc6)c6nc(c(-c7ccc(S(=O)(=O)[O-])cc7)c7ccc4[nH]7)C=C6)C=C5)cc3)cc2F)c1
REMARK SMILES IDX 25 1 24 2 22 3 23 4 20 6 21 7 19 8 16 9 17 10 95 11 18 12
REMARK SMILES IDX 94 13 96 14 15 15 11 16 12 17 97 18 13 19 14 20 10 21 7 22
REMARK SMILES IDX 8 23 9 25 6 27 5 28 4 29 3 30 2 31 1 32 26 33 27 34 28 35
REMARK SMILES IDX 29 36 30 37 31 38 32 39 33 41 34 42 35 43 93 44 36 45 92 46
REMARK SMILES IDX 37 47 38 48 39 49 86 50 40 51 91 52 85 53 87 54 41 55 90 56
REMARK SMILES IDX 84 57 83 58 42 60 72 61 53 62 71 63 54 64 57 65 70 66 88 67
REMARK SMILES IDX 55 68 56 69 69 71 89 72 58 73 43 74 44 75 52 76 45 77 51 78
REMARK SMILES IDX 46 79 47 80 48 81 49 82 50 83 73 84 74 85 82 86 75 87 81 88
REMARK SMILES IDX 76 89 77 90 78 91 79 92 80 93 59 94 60 95 68 96 61 97 67 98
REMARK SMILES IDX 62 99 63 100 64 101 65 102 66 103
REMARK H PARENT 24 5 7 24 10 26 31 40 87 59 57 70
REMARK Flexibility Score: inf
ROOT
ATOM      1  C   UNL     1      -0.082  -4.690   1.464  1.00  0.00     0.116 C 
ENDROOT
BRANCH   1   2
ATOM      2  N   UNL     1       0.464  -4.765   2.804  1.00  0.00    -0.356 N 
ATOM      3  C   UNL     1      -0.121  -4.699   4.030  1.00  0.00     0.227 C 
ATOM      4  O   UNL     1       0.648  -4.629   4.997  1.00  0.00    -0.274 OA
ATOM      5  H   UNL     1       1.441  -4.886   2.833  1.00  0.00     0.163 HD
BRANCH   3   6
ATOM      6  C   UNL     1      -1.638  -4.731   4.263  1.00  0.00     0.105 C 
ATOM      7  C   UNL     1      -2.358  -5.920   3.629  1.00  0.00     0.023 C 
BRANCH   6   8
ATOM      8  C   UNL     1      -2.340  -3.392   4.087  1.00  0.00    -0.033 A 
ATOM      9  C   UNL     1      -3.659  -0.860   3.836  1.00  0.00     0.018 A 
ATOM     10  C   UNL     1      -3.340  -1.642   2.714  1.00  0.00     0.012 A 
ATOM     11  C   UNL     1      -3.305  -1.385   5.086  1.00  0.00     0.131 A 
ATOM     12  C   UNL     1      -2.719  -2.890   2.840  1.00  0.00     0.005 A 
ATOM     13  C   UNL     1      -2.647  -2.614   5.214  1.00  0.00     0.044 A 
ATOM     14  F   UNL     1      -3.592  -0.712   6.211  1.00  0.00    -0.206 F 
BRANCH   9  15
ATOM     15  C   UNL     1      -4.283   0.468   3.664  1.00  0.00    -0.013 A 
ATOM     16  C   UNL     1      -4.232   2.880   4.053  1.00  0.00     0.043 A 
ATOM     17  C   UNL     1      -5.272   3.072   3.147  1.00  0.00     0.026 A 
ATOM     18  C   UNL     1      -3.803   1.583   4.368  1.00  0.00     0.035 A 
ATOM     19  C   UNL     1      -5.785   1.978   2.457  1.00  0.00     0.003 A 
ATOM     20  C   UNL     1      -5.285   0.694   2.702  1.00  0.00     0.009 A 
BRANCH  16  21
ATOM     21  N   UNL     1      -3.558   4.012   4.533  1.00  0.00    -0.308 N 
ATOM     22  N   UNL     1      -1.287   3.469   4.142  1.00  0.00    -0.338 N 
ATOM     23  C   UNL     1      -2.237   4.179   4.800  1.00  0.00     0.319 C 
ATOM     24  H   UNL     1      -0.387   3.520   4.538  1.00  0.00     0.165 HD
ATOM     25  O   UNL     1      -1.876   5.060   5.582  1.00  0.00    -0.249 OA
ATOM     26  H   UNL     1      -4.124   4.799   4.700  1.00  0.00     0.171 HD
BRANCH  22  27
ATOM     27  C   UNL     1      -1.381   2.643   2.947  1.00  0.00     0.117 C 
BRANCH  27  28
ATOM     28  C   UNL     1      -0.476   3.100   1.813  1.00  0.00     0.021 C 
BRANCH  28  29
ATOM     29  C   UNL     1       1.021   2.913   2.051  1.00  0.00     0.002 C 
BRANCH  29  30
ATOM     30  C   UNL     1       1.470   1.492   2.401  1.00  0.00    -0.000 C 
BRANCH  30  31
ATOM     31  C   UNL     1       0.927   0.379   1.504  1.00  0.00    -0.003 C 
ATOM     32  C   UNL     1       1.197   0.585   0.023  1.00  0.00     0.004 C 
ENDBRANCH  30  31
ENDBRANCH  29  30
ENDBRANCH  28  29
ENDBRANCH  27  28
ENDBRANCH  22  27
ENDBRANCH  16  21
ENDBRANCH   9  15
ENDBRANCH   6   8
ENDBRANCH   3   6
ENDBRANCH   1   2
BRANCH   1  33
ATOM     33  C   UNL     1       0.159  -3.309   0.855  1.00  0.00     0.021 C 
BRANCH  33  34
ATOM     34  C   UNL     1       1.516  -3.184   0.155  1.00  0.00     0.002 C 
BRANCH  34  35
ATOM     35  C   UNL     1       1.675  -4.032  -1.111  1.00  0.00     0.002 C 
BRANCH  35  36
ATOM     36  C   UNL     1       0.598  -3.841  -2.184  1.00  0.00     0.021 C 
BRANCH  36  37
ATOM     37  C   UNL     1       0.414  -2.413  -2.693  1.00  0.00     0.116 C 
BRANCH  37  38
ATOM     38  N   UNL     1       1.647  -1.841  -3.208  1.00  0.00    -0.352 N 
ATOM     39  C   UNL     1       1.888  -1.260  -4.431  1.00  0.00     0.251 C 
ATOM     40  H   UNL     1       2.417  -1.874  -2.596  1.00  0.00     0.163 HD
ATOM     41  O   UNL     1       3.031  -1.002  -4.779  1.00  0.00    -0.269 OA
BRANCH  39  42
ATOM     42  C   UNL     1       0.750  -0.963  -5.325  1.00  0.00     0.039 A 
ATOM     43  C   UNL     1       0.798  -1.396  -6.652  1.00  0.00     0.014 A 
ATOM     44  C   UNL     1      -0.363  -0.266  -4.847  1.00  0.00     0.014 A 
ATOM     45  C   UNL     1      -0.302  -1.182  -7.486  1.00  0.00     0.010 A 
ATOM     46  C   UNL     1      -1.480  -0.104  -5.663  1.00  0.00     0.010 A 
ATOM     47  C   UNL     1      -1.463  -0.564  -6.989  1.00  0.00    -0.014 A 
BRANCH  47  48
ATOM     48  C   UNL     1      -2.673  -0.409  -7.838  1.00  0.00     0.031 A 
ATOM     49  C   UNL     1      -3.164   0.960  -8.220  1.00  0.00     0.074 A 
ATOM     50  C   UNL     1      -3.360  -1.504  -8.221  1.00  0.00     0.049 A 
ATOM     51  N   UNL     1      -4.223   1.291  -8.913  1.00  0.00    -0.248 NA
ATOM     52  C   UNL     1      -2.373   2.108  -7.747  1.00  0.00     0.031 C 
ATOM     53  C   UNL     1      -3.003  -2.887  -7.893  1.00  0.00     0.029 A 
ATOM     54  N   UNL     1      -4.505  -1.627  -8.969  1.00  0.00    -0.354 N 
ATOM     55  C   UNL     1      -4.230   2.680  -8.954  1.00  0.00     0.074 A 
ATOM     56  C   UNL     1      -3.100   3.131  -8.172  1.00  0.00     0.031 C 
ATOM     57  C   UNL     1      -3.889  -3.717  -8.465  1.00  0.00     0.029 A 
ATOM     58  C   UNL     1      -4.902  -2.930  -9.161  1.00  0.00     0.049 A 
ATOM     59  H   UNL     1      -4.995  -0.856  -9.335  1.00  0.00     0.167 HD
ATOM     60  C   UNL     1      -5.088   3.506  -9.602  1.00  0.00     0.031 A 
ATOM     61  C   UNL     1      -5.964  -3.437  -9.817  1.00  0.00     0.031 A 
ATOM     62  C   UNL     1      -6.211   3.054 -10.380  1.00  0.00     0.049 A 
ATOM     63  C   UNL     1      -6.923  -2.497 -10.497  1.00  0.00     0.074 A 
ATOM     64  C   UNL     1      -7.115   3.812 -11.105  1.00  0.00     0.029 A 
ATOM     65  N   UNL     1      -6.587   1.728 -10.537  1.00  0.00    -0.354 N 
ATOM     66  N   UNL     1      -6.885  -1.188 -10.564  1.00  0.00    -0.248 NA
ATOM     67  C   UNL     1      -8.063  -3.105 -11.196  1.00  0.00     0.031 C 
ATOM     68  C   UNL     1      -8.070   2.950 -11.651  1.00  0.00     0.029 A 
ATOM     69  C   UNL     1      -7.724   1.649 -11.324  1.00  0.00     0.049 A 
ATOM     70  H   UNL     1      -6.116   0.958 -10.145  1.00  0.00     0.167 HD
ATOM     71  C   UNL     1      -7.977  -0.817 -11.341  1.00  0.00     0.074 A 
ATOM     72  C   UNL     1      -8.648  -2.041 -11.730  1.00  0.00     0.031 C 
ATOM     73  C   UNL     1      -8.384   0.425 -11.703  1.00  0.00     0.031 A 
BRANCH  60  74
ATOM     74  C   UNL     1      -4.846   4.989  -9.493  1.00  0.00    -0.014 A 
ATOM     75  C   UNL     1      -3.738   5.591 -10.118  1.00  0.00     0.010 A 
ATOM     76  C   UNL     1      -5.764   5.801  -8.803  1.00  0.00     0.010 A 
ATOM     77  C   UNL     1      -3.534   6.970 -10.024  1.00  0.00     0.020 A 
ATOM     78  C   UNL     1      -5.580   7.185  -8.731  1.00  0.00     0.020 A 
ATOM     79  C   UNL     1      -4.457   7.758  -9.330  1.00  0.00     0.054 A 
BRANCH  79  80
ATOM     80  S   UNL     1      -4.181   9.549  -9.252  1.00  0.00     0.124 S 
ATOM     81  O   UNL     1      -3.037   9.638  -8.348  1.00  0.00    -0.237 OA
ATOM     82  O   UNL     1      -3.909   9.892 -10.645  1.00  0.00    -0.237 OA
ATOM     83  O   UNL     1      -5.437  10.071  -8.718  1.00  0.00    -0.744 OA
ENDBRANCH  79  80
ENDBRANCH  60  74
BRANCH  61  84
ATOM     84  C   UNL     1      -6.167  -4.910  -9.881  1.00  0.00    -0.014 A 
ATOM     85  C   UNL     1      -6.004  -5.601 -11.095  1.00  0.00     0.010 A 
ATOM     86  C   UNL     1      -6.515  -5.634  -8.726  1.00  0.00     0.010 A 
ATOM     87  C   UNL     1      -6.202  -6.983 -11.157  1.00  0.00     0.020 A 
ATOM     88  C   UNL     1      -6.684  -7.021  -8.777  1.00  0.00     0.020 A 
ATOM     89  C   UNL     1      -6.537  -7.685  -9.996  1.00  0.00     0.054 A 
BRANCH  89  90
ATOM     90  S   UNL     1      -6.736  -9.486 -10.090  1.00  0.00     0.124 S 
ATOM     91  O   UNL     1      -7.998  -9.615 -10.812  1.00  0.00    -0.237 OA
ATOM     92  O   UNL     1      -5.541  -9.896 -10.823  1.00  0.00    -0.237 OA
ATOM     93  O   UNL     1      -6.771  -9.899  -8.689  1.00  0.00    -0.744 OA
ENDBRANCH  89  90
ENDBRANCH  61  84
BRANCH  73  94
ATOM     94  C   UNL     1      -9.594   0.528 -12.595  1.00  0.00    -0.014 A 
ATOM     95  C   UNL     1     -10.885   0.247 -12.114  1.00  0.00     0.010 A 
ATOM     96  C   UNL     1      -9.438   0.971 -13.922  1.00  0.00     0.010 A 
ATOM     97  C   UNL     1     -11.995   0.377 -12.954  1.00  0.00     0.020 A 
ATOM     98  C   UNL     1     -10.549   1.132 -14.755  1.00  0.00     0.020 A 
ATOM     99  C   UNL     1     -11.819   0.821 -14.268  1.00  0.00     0.054 A 
BRANCH  99 100
ATOM    100  S   UNL     1     -13.282   1.026 -15.321  1.00  0.00     0.124 S 
ATOM    101  O   UNL     1     -13.658  -0.358 -15.594  1.00  0.00    -0.237 OA
ATOM    102  O   UNL     1     -14.197   1.767 -14.456  1.00  0.00    -0.237 OA
ATOM    103  O   UNL     1     -12.780   1.774 -16.472  1.00  0.00    -0.744 OA
ENDBRANCH  99 100
ENDBRANCH  73  94
ENDBRANCH  47  48
ENDBRANCH  39  42
ENDBRANCH  37  38
ENDBRANCH  36  37
ENDBRANCH  35  36
ENDBRANCH  34  35
ENDBRANCH  33  34
ENDBRANCH   1  33
TORSDOF 24
