REMARK SMILES C[C@@H](C(=O)NCCCCCCNC(=O)c1ccc(-c2c3nc(c(-c4ccc(S(=O)(=O)[O-])cc4)c4ccc([nH]4)c(-c4ccc(S(=O)(=O)[O-])cc4)c4nc(c(-c5ccc(S(=O)(=O)[O-])cc5)c5ccc2[nH]5)C=C4)C=C3)cc1)c1ccc(-c2cccc(OC(=O)NCCCc3ccccc3)c2)c(F)c1
REMARK SMILES IDX 6 1 5 2 3 3 4 4 2 6 1 7 75 8 76 9 100 10 77 11 98 12 78 13
REMARK SMILES IDX 99 14 79 15 80 16 97 17 81 18 83 19 82 20 84 21 85 22 86 23
REMARK SMILES IDX 87 24 88 26 89 27 90 28 91 29 92 30 96 31 93 32 95 33 94 34
REMARK SMILES IDX 7 35 8 36 9 37 10 38 11 39 12 40 13 41 14 43 15 44 16 45
REMARK SMILES IDX 74 46 17 47 73 48 18 49 19 50 20 51 67 52 21 53 72 54 66 55
REMARK SMILES IDX 68 56 22 57 71 58 65 59 64 60 23 62 53 63 34 64 52 65 35 66
REMARK SMILES IDX 38 67 51 68 69 69 36 70 37 71 50 73 70 74 39 75 24 76 25 77
REMARK SMILES IDX 33 78 26 79 32 80 27 81 28 82 29 83 30 84 31 85 54 86 55 87
REMARK SMILES IDX 63 88 56 89 62 90 57 91 58 92 59 93 60 94 61 95 40 96 41 97
REMARK SMILES IDX 49 98 42 99 48 100 43 101 44 102 45 103 46 104 47 105
REMARK H PARENT 5 5 87 25 12 42 68 61 38 72
REMARK Flexibility Score: inf
ROOT
ATOM      1  C   UNL     1       3.559  -0.255  -1.874  1.00  0.00     0.116 C 
ENDROOT
BRANCH   1   2
ATOM      2  N   UNL     1       2.529  -1.014  -2.543  1.00  0.00    -0.356 N 
ATOM      3  C   UNL     1       1.184  -1.025  -2.354  1.00  0.00     0.227 C 
ATOM      4  O   UNL     1       0.559  -1.868  -3.001  1.00  0.00    -0.274 OA
ATOM      5  H   UNL     1       2.853  -1.621  -3.248  1.00  0.00     0.163 HD
BRANCH   3   6
ATOM      6  C   UNL     1       0.527   0.017  -1.429  1.00  0.00     0.105 C 
ATOM      7  C   UNL     1       0.859  -0.171   0.056  1.00  0.00     0.023 C 
BRANCH   6   8
ATOM      8  C   UNL     1      -0.990   0.059  -1.558  1.00  0.00    -0.033 A 
ATOM      9  C   UNL     1      -1.661   1.286  -1.657  1.00  0.00     0.005 A 
ATOM     10  C   UNL     1      -1.746  -1.118  -1.487  1.00  0.00     0.044 A 
ATOM     11  C   UNL     1      -3.060   1.332  -1.668  1.00  0.00     0.012 A 
ATOM     12  C   UNL     1      -3.129  -1.066  -1.527  1.00  0.00     0.131 A 
ATOM     13  C   UNL     1      -3.817   0.154  -1.585  1.00  0.00     0.018 A 
ATOM     14  F   UNL     1      -3.803  -2.226  -1.463  1.00  0.00    -0.206 F 
BRANCH  13  15
ATOM     15  C   UNL     1      -5.274   0.188  -1.433  1.00  0.00    -0.012 A 
ATOM     16  C   UNL     1      -6.117   0.870  -2.320  1.00  0.00     0.009 A 
ATOM     17  C   UNL     1      -5.851  -0.489  -0.346  1.00  0.00     0.056 A 
ATOM     18  C   UNL     1      -7.502   0.864  -2.128  1.00  0.00     0.004 A 
ATOM     19  C   UNL     1      -7.224  -0.491  -0.152  1.00  0.00     0.133 A 
ATOM     20  C   UNL     1      -8.057   0.182  -1.043  1.00  0.00     0.047 A 
BRANCH  19  21
ATOM     21  O   UNL     1      -7.863  -1.183   0.901  1.00  0.00    -0.410 OA
BRANCH  21  22
ATOM     22  C   UNL     1      -7.220  -1.800   1.974  1.00  0.00     0.412 C 
ATOM     23  O   UNL     1      -6.023  -1.788   2.226  1.00  0.00    -0.224 OA
ATOM     24  N   UNL     1      -8.084  -2.455   2.805  1.00  0.00    -0.321 N 
ATOM     25  H   UNL     1      -7.692  -3.005   3.522  1.00  0.00     0.167 HD
BRANCH  24  26
ATOM     26  C   UNL     1      -9.521  -2.406   2.720  1.00  0.00     0.120 C 
BRANCH  26  27
ATOM     27  C   UNL     1     -10.223  -3.655   3.248  1.00  0.00     0.026 C 
BRANCH  27  28
ATOM     28  C   UNL     1      -9.673  -4.320   4.516  1.00  0.00     0.037 C 
BRANCH  28  29
ATOM     29  C   UNL     1      -9.815  -3.651   5.864  1.00  0.00    -0.048 A 
ATOM     30  C   UNL     1     -10.021  -2.282   6.057  1.00  0.00     0.004 A 
ATOM     31  C   UNL     1      -9.662  -4.458   7.006  1.00  0.00     0.004 A 
ATOM     32  C   UNL     1     -10.063  -1.734   7.344  1.00  0.00     0.000 A 
ATOM     33  C   UNL     1      -9.714  -3.915   8.292  1.00  0.00     0.000 A 
ATOM     34  C   UNL     1      -9.909  -2.549   8.460  1.00  0.00     0.000 A 
ENDBRANCH  28  29
ENDBRANCH  27  28
ENDBRANCH  26  27
ENDBRANCH  24  26
ENDBRANCH  21  22
ENDBRANCH  19  21
ENDBRANCH  13  15
ENDBRANCH   6   8
ENDBRANCH   3   6
ENDBRANCH   1   2
BRANCH   1  35
ATOM     35  C   UNL     1       4.319  -1.147  -0.891  1.00  0.00     0.021 C 
BRANCH  35  36
ATOM     36  C   UNL     1       5.030  -2.336  -1.553  1.00  0.00     0.002 C 
BRANCH  36  37
ATOM     37  C   UNL     1       5.958  -1.964  -2.712  1.00  0.00     0.002 C 
BRANCH  37  38
ATOM     38  C   UNL     1       7.003  -0.901  -2.373  1.00  0.00     0.021 C 
BRANCH  38  39
ATOM     39  C   UNL     1       7.926  -1.283  -1.226  1.00  0.00     0.116 C 
BRANCH  39  40
ATOM     40  N   UNL     1       8.746  -2.435  -1.556  1.00  0.00    -0.352 N 
ATOM     41  C   UNL     1      10.108  -2.572  -1.466  1.00  0.00     0.251 C 
ATOM     42  H   UNL     1       8.260  -3.223  -1.890  1.00  0.00     0.163 HD
ATOM     43  O   UNL     1      10.665  -3.529  -1.996  1.00  0.00    -0.269 OA
BRANCH  41  44
ATOM     44  C   UNL     1      10.897  -1.556  -0.738  1.00  0.00     0.039 A 
ATOM     45  C   UNL     1      12.109  -1.123  -1.280  1.00  0.00     0.014 A 
ATOM     46  C   UNL     1      10.449  -1.045   0.484  1.00  0.00     0.014 A 
ATOM     47  C   UNL     1      12.860  -0.158  -0.605  1.00  0.00     0.010 A 
ATOM     48  C   UNL     1      11.153  -0.021   1.107  1.00  0.00     0.010 A 
ATOM     49  C   UNL     1      12.381   0.411   0.587  1.00  0.00    -0.014 A 
BRANCH  49  50
ATOM     50  C   UNL     1      13.181   1.413   1.335  1.00  0.00     0.031 A 
ATOM     51  C   UNL     1      13.683   1.087   2.718  1.00  0.00     0.074 A 
ATOM     52  C   UNL     1      13.423   2.622   0.793  1.00  0.00     0.049 A 
ATOM     53  N   UNL     1      14.380   1.829   3.540  1.00  0.00    -0.248 NA
ATOM     54  C   UNL     1      13.331  -0.236   3.262  1.00  0.00     0.031 C 
ATOM     55  C   UNL     1      12.963   3.070  -0.523  1.00  0.00     0.029 A 
ATOM     56  N   UNL     1      14.123   3.696   1.282  1.00  0.00    -0.354 N 
ATOM     57  C   UNL     1      14.526   1.075   4.699  1.00  0.00     0.074 A 
ATOM     58  C   UNL     1      13.798  -0.157   4.498  1.00  0.00     0.031 C 
ATOM     59  C   UNL     1      13.429   4.308  -0.754  1.00  0.00     0.029 A 
ATOM     60  C   UNL     1      14.184   4.759   0.412  1.00  0.00     0.049 A 
ATOM     61  H   UNL     1      14.542   3.705   2.173  1.00  0.00     0.167 HD
ATOM     62  C   UNL     1      15.222   1.371   5.823  1.00  0.00     0.031 A 
ATOM     63  C   UNL     1      14.786   5.958   0.536  1.00  0.00     0.031 A 
ATOM     64  C   UNL     1      15.961   2.590   6.010  1.00  0.00     0.049 A 
ATOM     65  C   UNL     1      15.553   6.264   1.794  1.00  0.00     0.074 A 
ATOM     66  C   UNL     1      16.752   2.961   7.083  1.00  0.00     0.029 A 
ATOM     67  N   UNL     1      15.999   3.639   5.103  1.00  0.00    -0.354 N 
ATOM     68  N   UNL     1      15.736   5.511   2.853  1.00  0.00    -0.248 NA
ATOM     69  C   UNL     1      16.209   7.576   1.865  1.00  0.00     0.031 C 
ATOM     70  C   UNL     1      17.219   4.259   6.852  1.00  0.00     0.029 A 
ATOM     71  C   UNL     1      16.779   4.667   5.603  1.00  0.00     0.049 A 
ATOM     72  H   UNL     1      15.539   3.650   4.233  1.00  0.00     0.167 HD
ATOM     73  C   UNL     1      16.567   6.242   3.697  1.00  0.00     0.074 A 
ATOM     74  C   UNL     1      16.853   7.491   3.021  1.00  0.00     0.031 C 
ATOM     75  C   UNL     1      17.058   5.904   4.916  1.00  0.00     0.031 A 
BRANCH  62  76
ATOM     76  C   UNL     1      15.198   0.362   6.944  1.00  0.00    -0.014 A 
ATOM     77  C   UNL     1      15.817  -0.895   6.816  1.00  0.00     0.010 A 
ATOM     78  C   UNL     1      14.563   0.688   8.157  1.00  0.00     0.010 A 
ATOM     79  C   UNL     1      15.756  -1.826   7.856  1.00  0.00     0.020 A 
ATOM     80  C   UNL     1      14.530  -0.227   9.213  1.00  0.00     0.020 A 
ATOM     81  C   UNL     1      15.109  -1.486   9.048  1.00  0.00     0.054 A 
BRANCH  81  82
ATOM     82  S   UNL     1      15.054  -2.709  10.386  1.00  0.00     0.124 S 
ATOM     83  O   UNL     1      14.101  -3.685   9.863  1.00  0.00    -0.237 OA
ATOM     84  O   UNL     1      16.440  -3.164  10.461  1.00  0.00    -0.237 OA
ATOM     85  O   UNL     1      14.589  -1.942  11.539  1.00  0.00    -0.744 OA
ENDBRANCH  81  82
ENDBRANCH  62  76
BRANCH  63  86
ATOM     86  C   UNL     1      14.723   6.942  -0.580  1.00  0.00    -0.014 A 
ATOM     87  C   UNL     1      15.875   7.244  -1.328  1.00  0.00     0.010 A 
ATOM     88  C   UNL     1      13.511   7.576  -0.908  1.00  0.00     0.010 A 
ATOM     89  C   UNL     1      15.823   8.177  -2.368  1.00  0.00     0.020 A 
ATOM     90  C   UNL     1      13.447   8.487  -1.967  1.00  0.00     0.020 A 
ATOM     91  C   UNL     1      14.607   8.790  -2.683  1.00  0.00     0.054 A 
BRANCH  91  92
ATOM     92  S   UNL     1      14.553   9.960  -4.068  1.00  0.00     0.124 S 
ATOM     93  O   UNL     1      15.272  11.108  -3.524  1.00  0.00    -0.237 OA
ATOM     94  O   UNL     1      15.240   9.226  -5.127  1.00  0.00    -0.237 OA
ATOM     95  O   UNL     1      13.123  10.163  -4.288  1.00  0.00    -0.744 OA
ENDBRANCH  91  92
ENDBRANCH  63  86
BRANCH  75  96
ATOM     96  C   UNL     1      18.005   6.873   5.576  1.00  0.00    -0.014 A 
ATOM     97  C   UNL     1      17.567   8.110   6.079  1.00  0.00     0.010 A 
ATOM     98  C   UNL     1      19.356   6.510   5.731  1.00  0.00     0.010 A 
ATOM     99  C   UNL     1      18.472   8.986   6.684  1.00  0.00     0.020 A 
ATOM    100  C   UNL     1      20.257   7.368   6.366  1.00  0.00     0.020 A 
ATOM    101  C   UNL     1      19.812   8.610   6.822  1.00  0.00     0.054 A 
BRANCH 101 102
ATOM    102  S   UNL     1      20.962   9.752   7.635  1.00  0.00     0.124 S 
ATOM    103  O   UNL     1      21.130  10.787   6.619  1.00  0.00    -0.237 OA
ATOM    104  O   UNL     1      20.222  10.156   8.828  1.00  0.00    -0.237 OA
ATOM    105  O   UNL     1      22.144   8.932   7.890  1.00  0.00    -0.744 OA
ENDBRANCH 101 102
ENDBRANCH  75  96
ENDBRANCH  49  50
ENDBRANCH  41  44
ENDBRANCH  39  40
ENDBRANCH  38  39
ENDBRANCH  37  38
ENDBRANCH  36  37
ENDBRANCH  35  36
ENDBRANCH   1  35
TORSDOF 24
