REMARK SMILES O=Cc1ccc2c(c1)C=C(C(=O)NCCCCCCNC(=O)c1ccc(-c3c4nc(c(-c5ccc(S(=O)(=O)[O-])cc5)c5ccc([nH]5)c(-c5ccc(S(=O)(=O)[O-])cc5)c5nc(c(-c6ccc(S(=O)(=O)[O-])cc6)c6ccc3[nH]6)C=C5)C=C4)cc1)[C@H](C(F)(F)F)O2
REMARK SMILES IDX 17 1 16 2 15 3 14 4 13 5 11 6 12 7 10 9 3 10 4 11 8 12 5 13
REMARK SMILES IDX 7 14 6 15 9 16 88 17 83 18 2 19 1 20 84 21 85 22 86 23 87 24
REMARK SMILES IDX 18 25 19 26 20 27 21 28 22 30 23 31 24 32 82 33 25 34 81 35
REMARK SMILES IDX 26 36 27 37 28 38 75 39 29 40 80 41 74 42 76 43 30 44 79 45
REMARK SMILES IDX 73 46 72 47 31 49 61 50 42 51 60 52 43 53 46 54 59 55 77 56
REMARK SMILES IDX 44 57 45 58 58 60 78 61 47 62 32 63 33 64 41 65 34 66 40 67
REMARK SMILES IDX 35 68 36 69 37 70 38 71 39 72 62 73 63 74 71 75 64 76 70 77
REMARK SMILES IDX 65 78 66 79 67 80 68 81 69 82 48 83 49 84 57 85 50 86 56 87
REMARK SMILES IDX 51 88 52 89 53 90 54 91 55 92
REMARK H PARENT 13 8 20 29 76 48 46 59
REMARK Flexibility Score: inf
ROOT
ATOM      1  C   UNL     1      10.247   3.589   2.915  1.00  0.00     0.002 C 
ENDROOT
BRANCH   1   2
ATOM      2  C   UNL     1       9.251   3.156   3.998  1.00  0.00     0.002 C 
BRANCH   2   3
ATOM      3  C   UNL     1       8.059   2.342   3.475  1.00  0.00     0.021 C 
BRANCH   3   4
ATOM      4  C   UNL     1       8.479   1.000   2.863  1.00  0.00     0.116 C 
BRANCH   4   5
ATOM      5  N   UNL     1       8.710   0.039   3.929  1.00  0.00    -0.352 N 
ATOM      6  C   UNL     1       7.917  -0.882   4.535  1.00  0.00     0.251 C 
ATOM      7  O   UNL     1       8.322  -1.385   5.580  1.00  0.00    -0.270 OA
ATOM      8  H   UNL     1       9.627   0.062   4.285  1.00  0.00     0.163 HD
BRANCH   6   9
ATOM      9  C   UNL     1       6.640  -1.367   3.945  1.00  0.00     0.067 C 
ATOM     10  C   UNL     1       2.793  -0.967   1.059  1.00  0.00     0.015 A 
ATOM     11  C   UNL     1       2.524  -2.329   1.213  1.00  0.00     0.015 A 
ATOM     12  C   UNL     1       3.857  -0.375   1.744  1.00  0.00     0.023 A 
ATOM     13  C   UNL     1       3.343  -3.107   2.031  1.00  0.00     0.048 A 
ATOM     14  C   UNL     1       4.663  -1.156   2.582  1.00  0.00     0.018 A 
ATOM     15  C   UNL     1       4.414  -2.522   2.707  1.00  0.00     0.128 A 
ATOM     16  C   UNL     1       5.818  -0.574   3.243  1.00  0.00     0.025 C 
ATOM     17  O   UNL     1       5.216  -3.364   3.415  1.00  0.00    -0.475 OA
ATOM     18  C   UNL     1       6.221  -2.793   4.304  1.00  0.00     0.314 C 
BRANCH  10  19
ATOM     19  C   UNL     1       1.972  -0.148   0.146  1.00  0.00     0.260 C 
ATOM     20  O   UNL     1       0.924  -0.570  -0.328  1.00  0.00    -0.298 OA
ENDBRANCH  10  19
BRANCH  18  21
ATOM     21  C   UNL     1       7.341  -3.849   4.458  1.00  0.00     0.429 C 
ATOM     22  F   UNL     1       7.916  -3.834   5.681  1.00  0.00    -0.167 F 
ATOM     23  F   UNL     1       6.839  -5.108   4.320  1.00  0.00    -0.167 F 
ATOM     24  F   UNL     1       8.313  -3.716   3.528  1.00  0.00    -0.167 F 
ENDBRANCH  18  21
ENDBRANCH   6   9
ENDBRANCH   4   5
ENDBRANCH   3   4
ENDBRANCH   2   3
ENDBRANCH   1   2
BRANCH   1  25
ATOM     25  C   UNL     1       9.629   4.381   1.761  1.00  0.00     0.021 C 
BRANCH  25  26
ATOM     26  C   UNL     1       8.992   5.699   2.187  1.00  0.00     0.116 C 
BRANCH  26  27
ATOM     27  N   UNL     1       9.987   6.624   2.711  1.00  0.00    -0.352 N 
ATOM     28  C   UNL     1      10.348   7.863   2.240  1.00  0.00     0.251 C 
ATOM     29  H   UNL     1      10.468   6.319   3.514  1.00  0.00     0.163 HD
ATOM     30  O   UNL     1      11.378   8.397   2.632  1.00  0.00    -0.269 OA
BRANCH  28  31
ATOM     31  C   UNL     1       9.485   8.536   1.247  1.00  0.00     0.039 A 
ATOM     32  C   UNL     1      10.067   9.125   0.123  1.00  0.00     0.014 A 
ATOM     33  C   UNL     1       8.099   8.567   1.426  1.00  0.00     0.014 A 
ATOM     34  C   UNL     1       9.249   9.687  -0.859  1.00  0.00     0.010 A 
ATOM     35  C   UNL     1       7.284   9.058   0.413  1.00  0.00     0.010 A 
ATOM     36  C   UNL     1       7.850   9.621  -0.740  1.00  0.00    -0.014 A 
BRANCH  36  37
ATOM     37  C   UNL     1       6.958  10.112  -1.819  1.00  0.00     0.031 A 
ATOM     38  C   UNL     1       6.019  11.258  -1.565  1.00  0.00     0.074 A 
ATOM     39  C   UNL     1       6.942   9.474  -3.006  1.00  0.00     0.049 A 
ATOM     40  N   UNL     1       5.130  11.788  -2.365  1.00  0.00    -0.248 NA
ATOM     41  C   UNL     1       6.068  11.870  -0.229  1.00  0.00     0.031 C 
ATOM     42  C   UNL     1       7.788   8.334  -3.366  1.00  0.00     0.029 A 
ATOM     43  N   UNL     1       6.186   9.693  -4.129  1.00  0.00    -0.354 N 
ATOM     44  C   UNL     1       4.507  12.788  -1.628  1.00  0.00     0.074 A 
ATOM     45  C   UNL     1       5.078  12.747  -0.299  1.00  0.00     0.031 C 
ATOM     46  C   UNL     1       7.535   7.983  -4.637  1.00  0.00     0.029 A 
ATOM     47  C   UNL     1       6.474   8.835  -5.164  1.00  0.00     0.049 A 
ATOM     48  H   UNL     1       5.501  10.399  -4.189  1.00  0.00     0.167 HD
ATOM     49  C   UNL     1       3.559  13.672  -2.024  1.00  0.00     0.031 A 
ATOM     50  C   UNL     1       5.943   8.742  -6.398  1.00  0.00     0.031 A 
ATOM     51  C   UNL     1       2.983  13.693  -3.343  1.00  0.00     0.049 A 
ATOM     52  C   UNL     1       4.849   9.691  -6.799  1.00  0.00     0.074 A 
ATOM     53  C   UNL     1       2.048  14.572  -3.861  1.00  0.00     0.029 A 
ATOM     54  N   UNL     1       3.275  12.784  -4.350  1.00  0.00    -0.354 N 
ATOM     55  N   UNL     1       4.317  10.673  -6.109  1.00  0.00    -0.248 NA
ATOM     56  C   UNL     1       4.286   9.522  -8.145  1.00  0.00     0.031 C 
ATOM     57  C   UNL     1       1.725  14.153  -5.156  1.00  0.00     0.029 A 
ATOM     58  C   UNL     1       2.511  13.056  -5.473  1.00  0.00     0.049 A 
ATOM     59  H   UNL     1       3.930  12.052  -4.277  1.00  0.00     0.167 HD
ATOM     60  C   UNL     1       3.375  11.257  -6.949  1.00  0.00     0.074 A 
ATOM     61  C   UNL     1       3.419  10.525  -8.199  1.00  0.00     0.031 C 
ATOM     62  C   UNL     1       2.554  12.309  -6.707  1.00  0.00     0.031 A 
BRANCH  49  63
ATOM     63  C   UNL     1       3.071  14.663  -0.997  1.00  0.00    -0.014 A 
ATOM     64  C   UNL     1       3.922  15.658  -0.480  1.00  0.00     0.010 A 
ATOM     65  C   UNL     1       1.746  14.592  -0.531  1.00  0.00     0.010 A 
ATOM     66  C   UNL     1       3.483  16.509   0.538  1.00  0.00     0.020 A 
ATOM     67  C   UNL     1       1.291  15.466   0.461  1.00  0.00     0.020 A 
ATOM     68  C   UNL     1       2.172  16.399   1.011  1.00  0.00     0.054 A 
BRANCH  68  69
ATOM     69  S   UNL     1       1.640  17.490   2.358  1.00  0.00     0.124 S 
ATOM     70  O   UNL     1       2.354  16.924   3.501  1.00  0.00    -0.237 OA
ATOM     71  O   UNL     1       2.106  18.800   1.913  1.00  0.00    -0.237 OA
ATOM     72  O   UNL     1       0.189  17.323   2.387  1.00  0.00    -0.744 OA
ENDBRANCH  68  69
ENDBRANCH  49  63
BRANCH  50  73
ATOM     73  C   UNL     1       6.473   7.731  -7.353  1.00  0.00    -0.014 A 
ATOM     74  C   UNL     1       7.244   8.140  -8.455  1.00  0.00     0.010 A 
ATOM     75  C   UNL     1       6.256   6.356  -7.141  1.00  0.00     0.010 A 
ATOM     76  C   UNL     1       7.790   7.195  -9.328  1.00  0.00     0.020 A 
ATOM     77  C   UNL     1       6.823   5.407  -7.996  1.00  0.00     0.020 A 
ATOM     78  C   UNL     1       7.585   5.833  -9.086  1.00  0.00     0.054 A 
BRANCH  78  79
ATOM     79  S   UNL     1       8.377   4.626 -10.185  1.00  0.00     0.124 S 
ATOM     80  O   UNL     1       7.617   4.793 -11.419  1.00  0.00    -0.237 OA
ATOM     81  O   UNL     1       9.759   5.098 -10.222  1.00  0.00    -0.237 OA
ATOM     82  O   UNL     1       8.179   3.354  -9.493  1.00  0.00    -0.744 OA
ENDBRANCH  78  79
ENDBRANCH  50  73
BRANCH  62  83
ATOM     83  C   UNL     1       1.644  12.750  -7.824  1.00  0.00    -0.014 A 
ATOM     84  C   UNL     1       0.537  11.976  -8.214  1.00  0.00     0.010 A 
ATOM     85  C   UNL     1       1.866  13.991  -8.451  1.00  0.00     0.010 A 
ATOM     86  C   UNL     1      -0.318  12.424  -9.224  1.00  0.00     0.020 A 
ATOM     87  C   UNL     1       0.996  14.457  -9.439  1.00  0.00     0.020 A 
ATOM     88  C   UNL     1      -0.086  13.664  -9.827  1.00  0.00     0.054 A 
BRANCH  88  89
ATOM     89  S   UNL     1      -1.247  14.249 -11.092  1.00  0.00     0.124 S 
ATOM     90  O   UNL     1      -0.943  13.367 -12.216  1.00  0.00    -0.237 OA
ATOM     91  O   UNL     1      -2.545  14.034 -10.457  1.00  0.00    -0.237 OA
ATOM     92  O   UNL     1      -0.877  15.650 -11.282  1.00  0.00    -0.744 OA
ENDBRANCH  88  89
ENDBRANCH  62  83
ENDBRANCH  36  37
ENDBRANCH  28  31
ENDBRANCH  26  27
ENDBRANCH  25  26
ENDBRANCH   1  25
TORSDOF 18
