REMARK SMILES O=C(NCCCCCCNC(=O)c1cccc(OS(=O)(=O)c2cccc([N+](=O)[O-])c2)c1)c1ccc(-c2c3nc(c(-c4ccc(S(=O)(=O)[O-])cc4)c4ccc([nH]4)c(-c4ccc(S(=O)(=O)[O-])cc4)c4nc(c(-c5ccc(S(=O)(=O)[O-])cc5)c5ccc2[nH]5)C=C4)C=C3)cc1
REMARK SMILES IDX 7 1 6 2 5 3 4 4 3 5 1 6 2 7 32 9 33 10 91 11 34 12 90 13
REMARK SMILES IDX 35 14 36 15 37 16 84 17 38 18 89 19 83 20 85 21 39 22 88 23
REMARK SMILES IDX 82 24 81 25 40 27 70 28 51 29 69 30 52 31 55 32 68 33 86 34
REMARK SMILES IDX 53 35 54 36 67 38 87 39 56 40 41 41 42 42 50 43 43 44 49 45
REMARK SMILES IDX 44 46 45 47 46 48 47 49 48 50 71 51 72 52 80 53 73 54 79 55
REMARK SMILES IDX 74 56 75 57 76 58 77 59 78 60 57 61 58 62 66 63 59 64 65 65
REMARK SMILES IDX 60 66 61 67 62 68 63 69 64 70 8 71 9 72 10 73 11 74 12 76
REMARK SMILES IDX 13 77 14 78 31 79 15 80 17 81 16 82 18 83 19 84 20 85 21 86
REMARK SMILES IDX 22 87 23 88 30 89 24 90 26 91 25 92 27 93 28 94 29 95
REMARK H PARENT 3 8 85 26 55 37 10 75
REMARK Flexibility Score: inf
ROOT
ATOM      1  C   UNL     1       4.717   2.671   3.401  1.00  0.00     0.002 C 
ENDROOT
BRANCH   1   2
ATOM      2  C   UNL     1       4.207   3.210   2.062  1.00  0.00     0.002 C 
BRANCH   2   3
ATOM      3  C   UNL     1       4.697   2.452   0.828  1.00  0.00     0.021 C 
BRANCH   3   4
ATOM      4  C   UNL     1       4.412   0.957   0.852  1.00  0.00     0.116 C 
BRANCH   4   5
ATOM      5  N   UNL     1       2.986   0.671   0.848  1.00  0.00    -0.352 N 
ATOM      6  O   UNL     1       1.050  -0.108  -0.009  1.00  0.00    -0.269 OA
ATOM      7  C   UNL     1       2.276  -0.122  -0.019  1.00  0.00     0.251 C 
ATOM      8  H   UNL     1       2.462   1.103   1.560  1.00  0.00     0.163 HD
BRANCH   7   9
ATOM      9  C   UNL     1       3.008  -0.986  -0.969  1.00  0.00     0.039 A 
ATOM     10  C   UNL     1       4.090  -1.756  -0.531  1.00  0.00     0.014 A 
ATOM     11  C   UNL     1       2.598  -1.038  -2.303  1.00  0.00     0.014 A 
ATOM     12  C   UNL     1       4.824  -2.501  -1.444  1.00  0.00     0.010 A 
ATOM     13  C   UNL     1       3.287  -1.854  -3.205  1.00  0.00     0.010 A 
ATOM     14  C   UNL     1       4.405  -2.589  -2.782  1.00  0.00    -0.014 A 
BRANCH  14  15
ATOM     15  C   UNL     1       5.056  -3.574  -3.679  1.00  0.00     0.031 A 
ATOM     16  C   UNL     1       5.830  -3.144  -4.892  1.00  0.00     0.074 A 
ATOM     17  C   UNL     1       4.913  -4.882  -3.384  1.00  0.00     0.049 A 
ATOM     18  N   UNL     1       6.423  -3.890  -5.787  1.00  0.00    -0.248 NA
ATOM     19  C   UNL     1       5.952  -1.698  -5.140  1.00  0.00     0.031 C 
ATOM     20  C   UNL     1       4.165  -5.410  -2.236  1.00  0.00     0.029 A 
ATOM     21  N   UNL     1       5.379  -6.006  -4.015  1.00  0.00    -0.354 N 
ATOM     22  C   UNL     1       6.966  -3.014  -6.718  1.00  0.00     0.074 A 
ATOM     23  C   UNL     1       6.628  -1.675  -6.283  1.00  0.00     0.031 C 
ATOM     24  C   UNL     1       4.244  -6.747  -2.233  1.00  0.00     0.029 A 
ATOM     25  C   UNL     1       4.978  -7.177  -3.415  1.00  0.00     0.049 A 
ATOM     26  H   UNL     1       5.946  -5.978  -4.820  1.00  0.00     0.167 HD
ATOM     27  C   UNL     1       7.674  -3.309  -7.835  1.00  0.00     0.031 A 
ATOM     28  C   UNL     1       5.139  -8.458  -3.794  1.00  0.00     0.031 A 
ATOM     29  C   UNL     1       8.004  -4.649  -8.250  1.00  0.00     0.049 A 
ATOM     30  C   UNL     1       5.890  -8.746  -5.062  1.00  0.00     0.074 A 
ATOM     31  C   UNL     1       8.780  -5.045  -9.326  1.00  0.00     0.029 A 
ATOM     32  N   UNL     1       7.563  -5.808  -7.629  1.00  0.00    -0.354 N 
ATOM     33  N   UNL     1       6.475  -7.902  -5.878  1.00  0.00    -0.248 NA
ATOM     34  C   UNL     1       5.997 -10.153  -5.465  1.00  0.00     0.031 C 
ATOM     35  C   UNL     1       8.745  -6.440  -9.400  1.00  0.00     0.029 A 
ATOM     36  C   UNL     1       8.005  -6.917  -8.331  1.00  0.00     0.049 A 
ATOM     37  H   UNL     1       7.017  -5.837  -6.810  1.00  0.00     0.167 HD
ATOM     38  C   UNL     1       7.027  -8.680  -6.888  1.00  0.00     0.074 A 
ATOM     39  C   UNL     1       6.736 -10.060  -6.562  1.00  0.00     0.031 C 
ATOM     40  C   UNL     1       7.703  -8.284  -7.993  1.00  0.00     0.031 A 
BRANCH  27  41
ATOM     41  C   UNL     1       8.125  -2.178  -8.722  1.00  0.00    -0.014 A 
ATOM     42  C   UNL     1       9.190  -1.339  -8.352  1.00  0.00     0.010 A 
ATOM     43  C   UNL     1       7.555  -2.038 -10.002  1.00  0.00     0.010 A 
ATOM     44  C   UNL     1       9.671  -0.376  -9.245  1.00  0.00     0.020 A 
ATOM     45  C   UNL     1       8.049  -1.092 -10.905  1.00  0.00     0.020 A 
ATOM     46  C   UNL     1       9.102  -0.264 -10.518  1.00  0.00     0.054 A 
BRANCH  46  47
ATOM     47  S   UNL     1       9.801   0.944 -11.679  1.00  0.00     0.124 S 
ATOM     48  O   UNL     1       9.388   2.211 -11.080  1.00  0.00    -0.237 OA
ATOM     49  O   UNL     1      11.232   0.657 -11.612  1.00  0.00    -0.237 OA
ATOM     50  O   UNL     1       9.161   0.618 -12.950  1.00  0.00    -0.744 OA
ENDBRANCH  46  47
ENDBRANCH  27  41
BRANCH  28  51
ATOM     51  C   UNL     1       4.518  -9.554  -3.002  1.00  0.00    -0.014 A 
ATOM     52  C   UNL     1       5.309 -10.504  -2.336  1.00  0.00     0.010 A 
ATOM     53  C   UNL     1       3.115  -9.658  -2.926  1.00  0.00     0.010 A 
ATOM     54  C   UNL     1       4.710 -11.559  -1.641  1.00  0.00     0.020 A 
ATOM     55  C   UNL     1       2.513 -10.688  -2.201  1.00  0.00     0.020 A 
ATOM     56  C   UNL     1       3.316 -11.645  -1.581  1.00  0.00     0.054 A 
BRANCH  56  57
ATOM     57  S   UNL     1       2.561 -13.018  -0.669  1.00  0.00     0.124 S 
ATOM     58  O   UNL     1       2.806 -14.145  -1.564  1.00  0.00    -0.237 OA
ATOM     59  O   UNL     1       3.320 -13.023   0.579  1.00  0.00    -0.237 OA
ATOM     60  O   UNL     1       1.163 -12.614  -0.538  1.00  0.00    -0.744 OA
ENDBRANCH  56  57
ENDBRANCH  28  51
BRANCH  40  61
ATOM     61  C   UNL     1       8.184  -9.360  -8.928  1.00  0.00    -0.014 A 
ATOM     62  C   UNL     1       7.281 -10.067  -9.741  1.00  0.00     0.010 A 
ATOM     63  C   UNL     1       9.562  -9.622  -9.042  1.00  0.00     0.010 A 
ATOM     64  C   UNL     1       7.745 -11.031 -10.639  1.00  0.00     0.020 A 
ATOM     65  C   UNL     1      10.032 -10.562  -9.961  1.00  0.00     0.020 A 
ATOM     66  C   UNL     1       9.119 -11.267 -10.748  1.00  0.00     0.054 A 
BRANCH  66  67
ATOM     67  S   UNL     1       9.698 -12.473 -11.972  1.00  0.00     0.124 S 
ATOM     68  O   UNL     1       9.276 -13.738 -11.376  1.00  0.00    -0.237 OA
ATOM     69  O   UNL     1       8.977 -12.075 -13.178  1.00  0.00    -0.237 OA
ATOM     70  O   UNL     1      11.143 -12.257 -12.015  1.00  0.00    -0.744 OA
ENDBRANCH  66  67
ENDBRANCH  40  61
ENDBRANCH  14  15
ENDBRANCH   7   9
ENDBRANCH   4   5
ENDBRANCH   3   4
ENDBRANCH   2   3
ENDBRANCH   1   2
BRANCH   1  71
ATOM     71  C   UNL     1       6.240   2.554   3.519  1.00  0.00     0.021 C 
BRANCH  71  72
ATOM     72  C   UNL     1       6.995   3.861   3.301  1.00  0.00     0.116 C 
BRANCH  72  73
ATOM     73  N   UNL     1       6.675   4.846   4.327  1.00  0.00    -0.352 N 
ATOM     74  C   UNL     1       7.529   5.567   5.124  1.00  0.00     0.251 C 
ATOM     75  H   UNL     1       5.715   5.017   4.468  1.00  0.00     0.163 HD
ATOM     76  O   UNL     1       7.112   6.206   6.083  1.00  0.00    -0.269 OA
BRANCH  74  77
ATOM     77  C   UNL     1       8.971   5.569   4.806  1.00  0.00     0.043 A 
ATOM     78  C   UNL     1       9.907   5.300   5.803  1.00  0.00     0.014 A 
ATOM     79  C   UNL     1       9.383   5.841   3.498  1.00  0.00     0.062 A 
ATOM     80  C   UNL     1      11.260   5.240   5.468  1.00  0.00     0.005 A 
ATOM     81  C   UNL     1      10.726   5.732   3.150  1.00  0.00     0.143 A 
ATOM     82  C   UNL     1      11.666   5.442   4.143  1.00  0.00     0.048 A 
BRANCH  81  83
ATOM     83  O   UNL     1      11.201   5.891   1.870  1.00  0.00    -0.379 OA
BRANCH  83  84
ATOM     84  S   UNL     1      10.194   5.788   0.584  1.00  0.00     0.339 S 
ATOM     85  O   UNL     1       9.623   4.455   0.539  1.00  0.00    -0.181 OA
ATOM     86  O   UNL     1       9.332   6.957   0.568  1.00  0.00    -0.181 OA
BRANCH  84  87
ATOM     87  C   UNL     1      11.274   5.953  -0.819  1.00  0.00     0.112 A 
ATOM     88  C   UNL     1      11.760   4.812  -1.466  1.00  0.00     0.024 A 
ATOM     89  C   UNL     1      11.541   7.232  -1.319  1.00  0.00     0.109 A 
ATOM     90  C   UNL     1      12.535   4.952  -2.619  1.00  0.00     0.009 A 
ATOM     91  C   UNL     1      12.317   7.359  -2.476  1.00  0.00     0.270 A 
ATOM     92  C   UNL     1      12.817   6.223  -3.128  1.00  0.00     0.086 A 
BRANCH  91  93
ATOM     93  N   UNL     1      12.605   8.696  -3.011  1.00  0.00     0.062 N 
ATOM     94  O   UNL     1      13.344   8.777  -4.000  1.00  0.00    -0.258 OA
ATOM     95  O   UNL     1      12.106   9.668  -2.424  1.00  0.00    -0.258 OA
ENDBRANCH  91  93
ENDBRANCH  84  87
ENDBRANCH  83  84
ENDBRANCH  81  83
ENDBRANCH  74  77
ENDBRANCH  72  73
ENDBRANCH  71  72
ENDBRANCH   1  71
TORSDOF 20
