REMARK SMILES Cc1ccc([C@@]23C[C@@H]4C[C@@H](C[C@@](C(=O)N5CCC(C(=O)NCCCCCCNC(=O)c6ccc(-c7c8nc(c(-c9ccc(S(=O)(=O)[O-])cc9)c9ccc([nH]9)c(-c9ccc(S(=O)(=O)[O-])cc9)c9nc(c(-c%10ccc(S(=O)(=O)[O-])cc%10)c%10ccc7[nH]%10)C=C9)C=C8)cc6)CC5)(C4)C2)C3)cc1
REMARK SMILES IDX 25 1 24 2 23 3 22 4 21 5 19 6 20 7 18 9 13 10 14 11 15 12
REMARK SMILES IDX 16 13 92 14 17 15 91 16 12 17 6 18 7 19 94 20 95 21 8 22
REMARK SMILES IDX 10 23 9 24 93 25 11 26 5 27 1 28 2 29 3 30 97 31 4 32 96 33
REMARK SMILES IDX 26 34 27 35 28 36 29 37 30 39 31 40 32 41 90 42 33 43 89 44
REMARK SMILES IDX 34 45 35 46 36 47 83 48 37 49 88 50 82 51 84 52 38 53 87 54
REMARK SMILES IDX 81 55 80 56 39 58 69 59 50 60 68 61 51 62 54 63 67 64 85 65
REMARK SMILES IDX 52 66 53 67 66 69 86 70 55 71 40 72 41 73 49 74 42 75 48 76
REMARK SMILES IDX 43 77 44 78 45 79 46 80 47 81 70 82 71 83 79 84 72 85 78 86
REMARK SMILES IDX 73 87 74 88 75 89 76 90 77 91 56 92 57 93 65 94 58 95 64 96
REMARK SMILES IDX 59 97 60 98 61 99 62 100 63 101
REMARK H PARENT 21 8 28 38 84 57 54 68
REMARK Flexibility Score: inf
ROOT
ATOM      1  C   UNL     1     -11.941  -3.237  -4.086  1.00  0.00     0.002 C 
ENDROOT
BRANCH   1   2
ATOM      2  C   UNL     1     -10.891  -2.335  -4.753  1.00  0.00     0.002 C 
BRANCH   2   3
ATOM      3  C   UNL     1      -9.594  -2.093  -3.973  1.00  0.00     0.021 C 
BRANCH   3   4
ATOM      4  C   UNL     1      -8.863  -3.349  -3.509  1.00  0.00     0.116 C 
BRANCH   4   5
ATOM      5  N   UNL     1      -8.346  -4.144  -4.613  1.00  0.00    -0.356 N 
ATOM      6  C   UNL     1      -7.152  -4.778  -4.769  1.00  0.00     0.223 C 
ATOM      7  O   UNL     1      -6.992  -5.491  -5.763  1.00  0.00    -0.275 OA
ATOM      8  H   UNL     1      -8.963  -4.238  -5.374  1.00  0.00     0.163 HD
BRANCH   6   9
ATOM      9  C   UNL     1      -6.021  -4.613  -3.764  1.00  0.00     0.082 C 
ATOM     10  C   UNL     1      -5.792  -2.457  -0.394  1.00  0.00     0.228 C 
ATOM     11  O   UNL     1      -6.632  -2.909   0.391  1.00  0.00    -0.274 OA
ATOM     12  N   UNL     1      -5.224  -3.285  -1.362  1.00  0.00    -0.342 N 
ATOM     13  C   UNL     1      -5.455  -4.721  -1.278  1.00  0.00     0.120 C 
ATOM     14  C   UNL     1      -4.558  -2.898  -2.605  1.00  0.00     0.120 C 
ATOM     15  C   UNL     1      -6.394  -5.181  -2.383  1.00  0.00     0.035 C 
ATOM     16  C   UNL     1      -5.484  -3.172  -3.780  1.00  0.00     0.035 C 
BRANCH  10  17
ATOM     17  C   UNL     1      -5.312  -0.993  -0.240  1.00  0.00     0.051 C 
ATOM     18  C   UNL     1      -3.168   0.409   0.055  1.00  0.00    -0.003 C 
ATOM     19  C   UNL     1      -3.663   1.245  -1.164  1.00  0.00     0.015 C 
ATOM     20  C   UNL     1      -3.780  -1.003  -0.089  1.00  0.00     0.028 C 
ATOM     21  C   UNL     1      -3.754   1.024   1.351  1.00  0.00     0.015 C 
ATOM     22  C   UNL     1      -5.202   1.334  -1.206  1.00  0.00    -0.009 C 
ATOM     23  C   UNL     1      -5.294   1.059   1.286  1.00  0.00    -0.009 C 
ATOM     24  C   UNL     1      -5.718   1.943   0.105  1.00  0.00     0.007 C 
ATOM     25  C   UNL     1      -5.799  -0.070  -1.374  1.00  0.00     0.020 C 
ATOM     26  C   UNL     1      -5.854  -0.367   1.084  1.00  0.00     0.020 C 
BRANCH  18  27
ATOM     27  C   UNL     1      -1.629   0.350   0.107  1.00  0.00    -0.042 A 
ATOM     28  C   UNL     1       2.711   0.193   0.021  1.00  0.00     0.044 C 
ATOM     29  C   UNL     1       1.216   0.264   0.080  1.00  0.00    -0.051 A 
ATOM     30  C   UNL     1       0.473  -0.912   0.147  1.00  0.00     0.004 A 
ATOM     31  C   UNL     1       0.537   1.484   0.052  1.00  0.00     0.004 A 
ATOM     32  C   UNL     1      -0.922  -0.868   0.169  1.00  0.00     0.004 A 
ATOM     33  C   UNL     1      -0.864   1.526   0.071  1.00  0.00     0.004 A 
ENDBRANCH  18  27
ENDBRANCH  10  17
ENDBRANCH   6   9
ENDBRANCH   4   5
ENDBRANCH   3   4
ENDBRANCH   2   3
ENDBRANCH   1   2
BRANCH   1  34
ATOM     34  C   UNL     1     -12.294  -2.914  -2.632  1.00  0.00     0.021 C 
BRANCH  34  35
ATOM     35  C   UNL     1     -12.874  -1.519  -2.431  1.00  0.00     0.116 C 
BRANCH  35  36
ATOM     36  N   UNL     1     -14.263  -1.520  -2.001  1.00  0.00    -0.352 N 
ATOM     37  C   UNL     1     -15.006  -0.433  -1.573  1.00  0.00     0.251 C 
ATOM     38  H   UNL     1     -14.726  -2.388  -2.016  1.00  0.00     0.163 HD
ATOM     39  O   UNL     1     -16.069  -0.554  -0.987  1.00  0.00    -0.269 OA
BRANCH  37  40
ATOM     40  C   UNL     1     -14.520   0.903  -1.979  1.00  0.00     0.039 A 
ATOM     41  C   UNL     1     -15.258   1.577  -2.959  1.00  0.00     0.014 A 
ATOM     42  C   UNL     1     -13.250   1.338  -1.609  1.00  0.00     0.014 A 
ATOM     43  C   UNL     1     -14.656   2.600  -3.689  1.00  0.00     0.010 A 
ATOM     44  C   UNL     1     -12.626   2.293  -2.392  1.00  0.00     0.010 A 
ATOM     45  C   UNL     1     -13.312   2.895  -3.458  1.00  0.00    -0.014 A 
BRANCH  45  46
ATOM     46  C   UNL     1     -12.514   3.747  -4.336  1.00  0.00     0.031 A 
ATOM     47  C   UNL     1     -12.111   5.108  -3.908  1.00  0.00     0.074 A 
ATOM     48  C   UNL     1     -12.067   3.283  -5.525  1.00  0.00     0.049 A 
ATOM     49  N   UNL     1     -11.829   6.073  -4.722  1.00  0.00    -0.248 NA
ATOM     50  C   UNL     1     -12.039   5.501  -2.505  1.00  0.00     0.031 C 
ATOM     51  C   UNL     1     -11.011   3.874  -6.344  1.00  0.00     0.029 A 
ATOM     52  N   UNL     1     -12.621   2.303  -6.350  1.00  0.00    -0.354 N 
ATOM     53  C   UNL     1     -11.247   7.077  -3.981  1.00  0.00     0.074 A 
ATOM     54  C   UNL     1     -11.486   6.713  -2.602  1.00  0.00     0.031 C 
ATOM     55  C   UNL     1     -11.185   3.485  -7.615  1.00  0.00     0.029 A 
ATOM     56  C   UNL     1     -12.432   2.742  -7.671  1.00  0.00     0.049 A 
ATOM     57  H   UNL     1     -13.058   1.469  -6.063  1.00  0.00     0.167 HD
ATOM     58  C   UNL     1     -10.484   8.028  -4.590  1.00  0.00     0.031 A 
ATOM     59  C   UNL     1     -13.430   2.938  -8.580  1.00  0.00     0.031 A 
ATOM     60  C   UNL     1     -10.441   7.865  -6.040  1.00  0.00     0.049 A 
ATOM     61  C   UNL     1     -13.432   4.327  -9.181  1.00  0.00     0.074 A 
ATOM     62  C   UNL     1      -9.492   7.333  -6.898  1.00  0.00     0.029 A 
ATOM     63  N   UNL     1     -11.595   8.046  -6.790  1.00  0.00    -0.354 N 
ATOM     64  N   UNL     1     -12.749   5.325  -8.697  1.00  0.00    -0.248 NA
ATOM     65  C   UNL     1     -14.250   4.721 -10.326  1.00  0.00     0.031 C 
ATOM     66  C   UNL     1     -10.094   7.157  -8.167  1.00  0.00     0.029 A 
ATOM     67  C   UNL     1     -11.405   7.592  -8.081  1.00  0.00     0.049 A 
ATOM     68  H   UNL     1     -12.430   8.442  -6.451  1.00  0.00     0.167 HD
ATOM     69  C   UNL     1     -13.032   6.466  -9.402  1.00  0.00     0.074 A 
ATOM     70  C   UNL     1     -13.962   6.032 -10.427  1.00  0.00     0.031 C 
ATOM     71  C   UNL     1     -12.483   7.668  -9.057  1.00  0.00     0.031 A 
BRANCH  58  72
ATOM     72  C   UNL     1      -9.516   8.911  -3.829  1.00  0.00    -0.014 A 
ATOM     73  C   UNL     1      -8.310   9.312  -4.442  1.00  0.00     0.010 A 
ATOM     74  C   UNL     1      -9.705   9.329  -2.499  1.00  0.00     0.010 A 
ATOM     75  C   UNL     1      -7.297   9.972  -3.733  1.00  0.00     0.020 A 
ATOM     76  C   UNL     1      -8.685   9.954  -1.764  1.00  0.00     0.020 A 
ATOM     77  C   UNL     1      -7.477  10.256  -2.383  1.00  0.00     0.054 A 
BRANCH  77  78
ATOM     78  S   UNL     1      -6.110  10.996  -1.454  1.00  0.00     0.124 S 
ATOM     79  O   UNL     1      -5.015  10.060  -1.703  1.00  0.00    -0.237 OA
ATOM     80  O   UNL     1      -5.974  12.306  -2.084  1.00  0.00    -0.237 OA
ATOM     81  O   UNL     1      -6.598  11.016  -0.076  1.00  0.00    -0.744 OA
ENDBRANCH  77  78
ENDBRANCH  58  72
BRANCH  59  82
ATOM     82  C   UNL     1     -14.646   2.117  -8.344  1.00  0.00    -0.014 A 
ATOM     83  C   UNL     1     -14.541   0.727  -8.559  1.00  0.00     0.010 A 
ATOM     84  C   UNL     1     -15.683   2.610  -7.534  1.00  0.00     0.010 A 
ATOM     85  C   UNL     1     -15.343  -0.161  -7.840  1.00  0.00     0.020 A 
ATOM     86  C   UNL     1     -16.493   1.719  -6.816  1.00  0.00     0.020 A 
ATOM     87  C   UNL     1     -16.270   0.343  -6.926  1.00  0.00     0.054 A 
BRANCH  87  88
ATOM     88  S   UNL     1     -17.025  -0.820  -5.751  1.00  0.00     0.124 S 
ATOM     89  O   UNL     1     -17.702  -1.762  -6.637  1.00  0.00    -0.237 OA
ATOM     90  O   UNL     1     -15.852  -1.344  -5.052  1.00  0.00    -0.237 OA
ATOM     91  O   UNL     1     -17.898   0.032  -4.951  1.00  0.00    -0.744 OA
ENDBRANCH  87  88
ENDBRANCH  59  82
BRANCH  71  92
ATOM     92  C   UNL     1     -12.828   9.023  -9.632  1.00  0.00    -0.014 A 
ATOM     93  C   UNL     1     -14.026   9.327 -10.295  1.00  0.00     0.010 A 
ATOM     94  C   UNL     1     -11.942  10.104  -9.392  1.00  0.00     0.010 A 
ATOM     95  C   UNL     1     -14.303  10.629 -10.743  1.00  0.00     0.020 A 
ATOM     96  C   UNL     1     -12.225  11.412  -9.797  1.00  0.00     0.020 A 
ATOM     97  C   UNL     1     -13.399  11.663 -10.493  1.00  0.00     0.054 A 
BRANCH  97  98
ATOM     98  S   UNL     1     -13.796  13.354 -11.009  1.00  0.00     0.124 S 
ATOM     99  O   UNL     1     -13.256  13.389 -12.366  1.00  0.00    -0.237 OA
ATOM    100  O   UNL     1     -15.254  13.394 -10.915  1.00  0.00    -0.237 OA
ATOM    101  O   UNL     1     -13.094  14.182 -10.032  1.00  0.00    -0.744 OA
ENDBRANCH  97  98
ENDBRANCH  71  92
ENDBRANCH  45  46
ENDBRANCH  37  40
ENDBRANCH  35  36
ENDBRANCH  34  35
ENDBRANCH   1  34
TORSDOF 18
