REMARK SMILES O=C(NCCCCCCNC(=O)[C@]12CCC[NH2+][C@@H]1CCN(C(=O)Cc1c(F)cccc1Cl)C2)c1ccc(-c2c3nc(c(-c4ccc(S(=O)(=O)[O-])cc4)c4ccc([nH]4)c(-c4ccc(S(=O)(=O)[O-])cc4)c4nc(c(-c5ccc(S(=O)(=O)[O-])cc5)c5ccc2[nH]5)C=C4)C=C3)cc1
REMARK SMILES IDX 6 1 5 2 4 3 3 4 1 5 2 6 34 8 35 9 93 10 36 11 92 12 37 13
REMARK SMILES IDX 38 14 39 15 86 16 40 17 91 18 85 19 87 20 41 21 90 22 84 23
REMARK SMILES IDX 83 24 42 26 72 27 53 28 71 29 54 30 57 31 70 32 88 33 55 34
REMARK SMILES IDX 56 35 69 37 89 38 58 39 43 40 44 41 52 42 45 43 51 44 46 45
REMARK SMILES IDX 47 46 48 47 49 48 50 49 73 50 74 51 82 52 75 53 81 54 76 55
REMARK SMILES IDX 77 56 78 57 79 58 80 59 59 60 60 61 68 62 61 63 67 64 62 65
REMARK SMILES IDX 63 66 64 67 65 68 66 69 7 70 8 71 9 72 10 73 11 74 12 76
REMARK SMILES IDX 13 77 14 78 18 79 33 80 15 81 17 82 19 83 21 84 16 85 20 88
REMARK SMILES IDX 22 89 23 90 24 91 25 92 26 93 31 94 27 95 28 96 30 97 32 98
REMARK SMILES IDX 29 99
REMARK H PARENT 3 7 87 25 57 36 10 75 17 86 17 87
REMARK Flexibility Score: inf
ROOT
ATOM      1  C   UNL     1       3.421  -3.567  -1.209  1.00  0.00     0.002 C 
ENDROOT
BRANCH   1   2
ATOM      2  C   UNL     1       4.186  -2.622  -0.279  1.00  0.00     0.021 C 
BRANCH   2   3
ATOM      3  C   UNL     1       4.162  -1.152  -0.685  1.00  0.00     0.116 C 
BRANCH   3   4
ATOM      4  N   UNL     1       2.804  -0.646  -0.854  1.00  0.00    -0.352 N 
ATOM      5  O   UNL     1       0.915   0.447  -0.277  1.00  0.00    -0.269 OA
ATOM      6  C   UNL     1       2.130   0.303  -0.132  1.00  0.00     0.251 C 
ATOM      7  H   UNL     1       2.297  -1.046  -1.598  1.00  0.00     0.163 HD
BRANCH   6   8
ATOM      8  C   UNL     1       2.872   1.142   0.826  1.00  0.00     0.039 A 
ATOM      9  C   UNL     1       4.083   1.718   0.441  1.00  0.00     0.014 A 
ATOM     10  C   UNL     1       2.372   1.335   2.115  1.00  0.00     0.014 A 
ATOM     11  C   UNL     1       4.874   2.346   1.392  1.00  0.00     0.010 A 
ATOM     12  C   UNL     1       3.125   2.058   3.043  1.00  0.00     0.010 A 
ATOM     13  C   UNL     1       4.399   2.537   2.700  1.00  0.00    -0.014 A 
BRANCH  13  14
ATOM     14  C   UNL     1       5.243   3.282   3.668  1.00  0.00     0.031 A 
ATOM     15  C   UNL     1       5.765   2.623   4.916  1.00  0.00     0.074 A 
ATOM     16  C   UNL     1       5.574   4.557   3.382  1.00  0.00     0.049 A 
ATOM     17  N   UNL     1       6.552   3.119   5.837  1.00  0.00    -0.248 NA
ATOM     18  C   UNL     1       5.347   1.236   5.172  1.00  0.00     0.031 C 
ATOM     19  C   UNL     1       5.124   5.298   2.198  1.00  0.00     0.029 A 
ATOM     20  N   UNL     1       6.383   5.446   4.039  1.00  0.00    -0.354 N 
ATOM     21  C   UNL     1       6.700   2.121   6.794  1.00  0.00     0.074 A 
ATOM     22  C   UNL     1       5.903   0.997   6.353  1.00  0.00     0.031 C 
ATOM     23  C   UNL     1       5.716   6.500   2.179  1.00  0.00     0.029 A 
ATOM     24  C   UNL     1       6.522   6.647   3.384  1.00  0.00     0.049 A 
ATOM     25  H   UNL     1       6.823   5.244   4.896  1.00  0.00     0.167 HD
ATOM     26  C   UNL     1       7.434   2.141   7.933  1.00  0.00     0.031 A 
ATOM     27  C   UNL     1       7.210   7.754   3.720  1.00  0.00     0.031 A 
ATOM     28  C   UNL     1       8.226   3.268   8.360  1.00  0.00     0.049 A 
ATOM     29  C   UNL     1       7.993   7.756   5.000  1.00  0.00     0.074 A 
ATOM     30  C   UNL     1       9.033   3.377   9.479  1.00  0.00     0.029 A 
ATOM     31  N   UNL     1       8.306   4.481   7.692  1.00  0.00    -0.354 N 
ATOM     32  N   UNL     1       8.145   6.790   5.875  1.00  0.00    -0.248 NA
ATOM     33  C   UNL     1       8.703   8.996   5.335  1.00  0.00     0.031 C 
ATOM     34  C   UNL     1       9.550   4.676   9.521  1.00  0.00     0.029 A 
ATOM     35  C   UNL     1       9.127   5.353   8.389  1.00  0.00     0.049 A 
ATOM     36  H   UNL     1       7.847   4.692   6.847  1.00  0.00     0.167 HD
ATOM     37  C   UNL     1       8.994   7.296   6.851  1.00  0.00     0.074 A 
ATOM     38  C   UNL     1       9.335   8.646   6.447  1.00  0.00     0.031 C 
ATOM     39  C   UNL     1       9.454   6.696   7.976  1.00  0.00     0.031 A 
BRANCH  26  40
ATOM     40  C   UNL     1       7.386   0.924   8.823  1.00  0.00    -0.014 A 
ATOM     41  C   UNL     1       7.978  -0.294   8.441  1.00  0.00     0.010 A 
ATOM     42  C   UNL     1       6.774   1.015  10.088  1.00  0.00     0.010 A 
ATOM     43  C   UNL     1       7.920  -1.406   9.287  1.00  0.00     0.020 A 
ATOM     44  C   UNL     1       6.742  -0.086  10.949  1.00  0.00     0.020 A 
ATOM     45  C   UNL     1       7.300  -1.296  10.535  1.00  0.00     0.054 A 
BRANCH  45  46
ATOM     46  S   UNL     1       7.253  -2.751  11.617  1.00  0.00     0.124 S 
ATOM     47  O   UNL     1       6.289  -3.607  10.929  1.00  0.00    -0.237 OA
ATOM     48  O   UNL     1       8.638  -3.216  11.587  1.00  0.00    -0.237 OA
ATOM     49  O   UNL     1       6.806  -2.217  12.901  1.00  0.00    -0.744 OA
ENDBRANCH  45  46
ENDBRANCH  26  40
BRANCH  27  50
ATOM     50  C   UNL     1       7.179   8.945   2.828  1.00  0.00    -0.014 A 
ATOM     51  C   UNL     1       8.333   9.354   2.138  1.00  0.00     0.010 A 
ATOM     52  C   UNL     1       5.982   9.664   2.647  1.00  0.00     0.010 A 
ATOM     53  C   UNL     1       8.296  10.473   1.301  1.00  0.00     0.020 A 
ATOM     54  C   UNL     1       5.933  10.761   1.784  1.00  0.00     0.020 A 
ATOM     55  C   UNL     1       7.095  11.167   1.127  1.00  0.00     0.054 A 
BRANCH  55  56
ATOM     56  S   UNL     1       7.061  12.588   0.001  1.00  0.00     0.124 S 
ATOM     57  O   UNL     1       7.802  13.591   0.757  1.00  0.00    -0.237 OA
ATOM     58  O   UNL     1       7.732  12.064  -1.186  1.00  0.00    -0.237 OA
ATOM     59  O   UNL     1       5.635  12.857  -0.168  1.00  0.00    -0.744 OA
ENDBRANCH  55  56
ENDBRANCH  27  50
BRANCH  39  60
ATOM     60  C   UNL     1      10.421   7.479   8.824  1.00  0.00    -0.014 A 
ATOM     61  C   UNL     1      10.012   8.606   9.560  1.00  0.00     0.010 A 
ATOM     62  C   UNL     1      11.762   7.061   8.901  1.00  0.00     0.010 A 
ATOM     63  C   UNL     1      10.938   9.328  10.317  1.00  0.00     0.020 A 
ATOM     64  C   UNL     1      12.683   7.759   9.684  1.00  0.00     0.020 A 
ATOM     65  C   UNL     1      12.269   8.900  10.372  1.00  0.00     0.054 A 
BRANCH  65  66
ATOM     66  S   UNL     1      13.448   9.841  11.378  1.00  0.00     0.124 S 
ATOM     67  O   UNL     1      13.641  11.044  10.573  1.00  0.00    -0.237 OA
ATOM     68  O   UNL     1      12.720  10.032  12.630  1.00  0.00    -0.237 OA
ATOM     69  O   UNL     1      14.609   8.958  11.468  1.00  0.00    -0.744 OA
ENDBRANCH  65  66
ENDBRANCH  39  60
ENDBRANCH  13  14
ENDBRANCH   6   8
ENDBRANCH   3   4
ENDBRANCH   2   3
ENDBRANCH   1   2
BRANCH   1  70
ATOM     70  C   UNL     1       3.689  -3.404  -2.712  1.00  0.00     0.002 C 
BRANCH  70  71
ATOM     71  C   UNL     1       5.118  -3.702  -3.166  1.00  0.00     0.021 C 
BRANCH  71  72
ATOM     72  C   UNL     1       5.490  -5.185  -3.042  1.00  0.00     0.116 C 
BRANCH  72  73
ATOM     73  N   UNL     1       6.121  -5.726  -4.271  1.00  0.00    -0.355 N 
ATOM     74  C   UNL     1       7.311  -6.118  -4.808  1.00  0.00     0.234 C 
ATOM     75  H   UNL     1       5.420  -5.847  -4.951  1.00  0.00     0.163 HD
ATOM     76  O   UNL     1       7.191  -6.509  -5.983  1.00  0.00    -0.274 OA
BRANCH  74  77
ATOM     77  C   UNL     1       8.727  -6.214  -4.150  1.00  0.00     0.118 C 
ATOM     78  C   UNL     1       9.270  -7.655  -4.387  1.00  0.00     0.031 C 
ATOM     79  C   UNL     1       8.811  -5.952  -2.651  1.00  0.00     0.201 C 
ATOM     80  C   UNL     1       9.736  -5.300  -4.886  1.00  0.00     0.142 C 
ATOM     81  C   UNL     1       8.445  -8.690  -3.645  1.00  0.00     0.063 C 
ATOM     82  N   UNL     1       7.959  -6.907  -1.904  1.00  0.00    -0.343 N 
ATOM     83  C   UNL     1       8.560  -4.449  -2.401  1.00  0.00     0.087 C 
ATOM     84  N   UNL     1       9.660  -3.885  -4.554  1.00  0.00    -0.341 N 
ATOM     85  C   UNL     1       8.266  -8.322  -2.172  1.00  0.00     0.260 C 
ATOM     86  H   UNL     1       8.084  -6.735  -0.906  1.00  0.00     0.346 HD
ATOM     87  H   UNL     1       6.999  -6.749  -2.212  1.00  0.00     0.346 HD
ATOM     88  C   UNL     1       9.549  -3.546  -3.137  1.00  0.00     0.125 C 
BRANCH  84  89
ATOM     89  C   UNL     1      10.238  -3.016  -5.487  1.00  0.00     0.227 C 
ATOM     90  O   UNL     1      11.044  -3.415  -6.332  1.00  0.00    -0.275 OA
BRANCH  89  91
ATOM     91  C   UNL     1       9.800  -1.566  -5.489  1.00  0.00     0.140 C 
BRANCH  91  92
ATOM     92  C   UNL     1       8.357  -1.286  -5.864  1.00  0.00     0.016 A 
ATOM     93  C   UNL     1       7.842  -0.042  -5.464  1.00  0.00     0.128 A 
ATOM     94  C   UNL     1       7.506  -2.096  -6.634  1.00  0.00     0.047 A 
ATOM     95  F   UNL     1       8.638   0.825  -4.820  1.00  0.00    -0.207 F 
ATOM     96  C   UNL     1       6.530   0.350  -5.728  1.00  0.00     0.039 A 
ATOM     97  C   UNL     1       6.168  -1.733  -6.853  1.00  0.00     0.021 A 
ATOM     98  Cl  UNL     1       8.007  -3.524  -7.460  1.00  0.00    -0.084 Cl
ATOM     99  C   UNL     1       5.676  -0.515  -6.397  1.00  0.00     0.005 A 
ENDBRANCH  91  92
ENDBRANCH  89  91
ENDBRANCH  84  89
ENDBRANCH  74  77
ENDBRANCH  72  73
ENDBRANCH  71  72
ENDBRANCH  70  71
ENDBRANCH   1  70
TORSDOF 19
