REMARK SMILES Cc1oc2cc3c(cc2c1C)[C@H](C)[C@@H](CC(=O)N[C@H](CC1=c2ccccc2=NC1)C(=O)NCCCCCCNC(=O)c1ccc(-c2c4nc(c(-c5ccc(S(=O)(=O)[O-])cc5)c5ccc([nH]5)c(-c5ccc(S(=O)(=O)[O-])cc5)c5nc(c(-c6ccc(S(=O)(=O)[O-])cc6)c6ccc2[nH]6)C=C5)C=C4)cc1)C(=O)O3
REMARK SMILES IDX 35 1 34 2 33 3 32 4 30 5 31 6 19 8 18 9 16 10 17 11 15 13
REMARK SMILES IDX 14 14 1 15 2 16 3 17 10 18 4 19 9 20 11 21 5 22 8 23 6 24
REMARK SMILES IDX 7 25 104 26 12 27 102 28 13 29 103 30 20 31 21 32 22 33
REMARK SMILES IDX 29 34 23 35 27 36 28 37 24 38 26 39 25 40 36 41 37 42 38 43
REMARK SMILES IDX 39 44 40 45 41 47 42 48 43 49 101 50 44 51 100 52 45 53
REMARK SMILES IDX 46 54 47 55 94 56 48 57 99 58 93 59 95 60 49 61 98 62 92 63
REMARK SMILES IDX 91 64 50 66 80 67 61 68 79 69 62 70 65 71 78 72 96 73 63 74
REMARK SMILES IDX 64 75 77 77 97 78 66 79 51 80 52 81 60 82 53 83 59 84 54 85
REMARK SMILES IDX 55 86 56 87 57 88 58 89 81 90 82 91 90 92 83 93 89 94 84 95
REMARK SMILES IDX 85 96 86 97 87 98 88 99 67 100 68 101 76 102 69 103 75 104
REMARK SMILES IDX 70 105 71 106 72 107 73 108 74 109
REMARK H PARENT 32 7 18 12 39 46 95 65 65 76
REMARK Flexibility Score: inf
ROOT
ATOM      1  C   UNL     1      -0.409   7.592  12.961  1.00  0.00     0.002 C 
ENDROOT
BRANCH   1   2
ATOM      2  C   UNL     1      -1.545   7.062  12.083  1.00  0.00     0.021 C 
BRANCH   2   3
ATOM      3  C   UNL     1      -1.009   6.517  10.777  1.00  0.00     0.116 C 
BRANCH   3   4
ATOM      4  N   UNL     1      -0.361   5.224  11.001  1.00  0.00    -0.354 N 
ATOM      5  C   UNL     1      -0.187   4.176  10.132  1.00  0.00     0.242 C 
ATOM      6  O   UNL     1       0.444   3.159  10.407  1.00  0.00    -0.273 OA
ATOM      7  H   UNL     1       0.002   5.086  11.905  1.00  0.00     0.163 HD
BRANCH   5   8
ATOM      8  C   UNL     1      -0.847   4.218   8.825  1.00  0.00     0.175 C 
BRANCH   8   9
ATOM      9  N   UNL     1      -0.311   5.463   8.222  1.00  0.00    -0.344 N 
ATOM     10  C   UNL     1       0.979   5.966   8.126  1.00  0.00     0.221 C 
ATOM     11  O   UNL     1       1.077   7.031   7.504  1.00  0.00    -0.275 OA
ATOM     12  H   UNL     1      -0.998   6.038   7.814  1.00  0.00     0.164 HD
BRANCH  10  13
ATOM     13  C   UNL     1       2.296   5.340   8.726  1.00  0.00     0.116 C 
BRANCH  13  14
ATOM     14  C   UNL     1       2.591   5.478  10.253  1.00  0.00     0.116 C 
ATOM     15  C   UNL     1       3.520   6.155  18.587  1.00  0.00     0.088 C 
ATOM     16  C   UNL     1       3.614   6.163  17.111  1.00  0.00     0.105 A 
ATOM     17  O   UNL     1       2.535   5.636  16.478  1.00  0.00    -0.461 OA
ATOM     18  C   UNL     1       4.588   6.512  16.185  1.00  0.00    -0.002 A 
ATOM     19  C   UNL     1       2.815   5.640  15.154  1.00  0.00     0.138 A 
ATOM     20  C   UNL     1       4.012   6.291  14.886  1.00  0.00     0.024 A 
ATOM     21  C   UNL     1       5.984   6.918  16.472  1.00  0.00     0.049 C 
ATOM     22  C   UNL     1       2.061   4.986  14.207  1.00  0.00     0.095 A 
ATOM     23  C   UNL     1       4.396   6.482  13.522  1.00  0.00     0.020 A 
ATOM     24  C   UNL     1       2.592   5.036  12.920  1.00  0.00     0.138 A 
ATOM     25  C   UNL     1       3.629   5.892  12.501  1.00  0.00    -0.001 A 
ATOM     26  O   UNL     1       2.111   4.029  12.083  1.00  0.00    -0.426 OA
ATOM     27  C   UNL     1       3.869   6.047  10.958  1.00  0.00     0.035 C 
ATOM     28  C   UNL     1       2.689   4.080  10.831  1.00  0.00     0.315 C 
ATOM     29  C   UNL     1       4.187   7.483  10.558  1.00  0.00     0.014 C 
ATOM     30  O   UNL     1       3.266   3.132  10.313  1.00  0.00    -0.251 OA
ENDBRANCH  13  14
ENDBRANCH  10  13
ENDBRANCH   8   9
BRANCH   8  31
ATOM     31  C   UNL     1      -2.379   4.037   9.206  1.00  0.00     0.068 C 
BRANCH  31  32
ATOM     32  C   UNL     1      -2.814   3.086  10.368  1.00  0.00    -0.037 C 
ATOM     33  C   UNL     1      -2.258   2.517  11.455  1.00  0.00     0.001 A 
ATOM     34  C   UNL     1      -4.163   2.415  10.258  1.00  0.00     0.174 C 
ATOM     35  C   UNL     1      -1.218   2.677  12.433  1.00  0.00     0.010 A 
ATOM     36  C   UNL     1      -2.753   1.135  11.209  1.00  0.00     0.065 A 
ATOM     37  N   UNL     1      -3.870   1.001  10.557  1.00  0.00    -0.280 NA
ATOM     38  C   UNL     1      -0.516   1.620  12.874  1.00  0.00     0.001 A 
ATOM     39  C   UNL     1      -1.824   0.032  11.570  1.00  0.00     0.028 A 
ATOM     40  C   UNL     1      -0.741   0.305  12.316  1.00  0.00     0.002 A 
ENDBRANCH  31  32
ENDBRANCH   8  31
ENDBRANCH   5   8
ENDBRANCH   3   4
ENDBRANCH   2   3
ENDBRANCH   1   2
BRANCH   1  41
ATOM     41  C   UNL     1       0.072   9.001  12.603  1.00  0.00     0.002 C 
BRANCH  41  42
ATOM     42  C   UNL     1      -1.029  10.059  12.530  1.00  0.00     0.021 C 
BRANCH  42  43
ATOM     43  C   UNL     1      -2.000  10.022  13.711  1.00  0.00     0.116 C 
BRANCH  43  44
ATOM     44  N   UNL     1      -1.609  10.884  14.810  1.00  0.00    -0.352 N 
ATOM     45  C   UNL     1      -1.798  12.249  14.935  1.00  0.00     0.251 C 
ATOM     46  H   UNL     1      -1.152  10.442  15.562  1.00  0.00     0.163 HD
ATOM     47  O   UNL     1      -1.387  12.862  15.890  1.00  0.00    -0.269 OA
BRANCH  45  48
ATOM     48  C   UNL     1      -2.471  12.934  13.810  1.00  0.00     0.039 A 
ATOM     49  C   UNL     1      -3.761  12.550  13.436  1.00  0.00     0.014 A 
ATOM     50  C   UNL     1      -1.730  13.835  13.044  1.00  0.00     0.014 A 
ATOM     51  C   UNL     1      -4.245  12.931  12.195  1.00  0.00     0.010 A 
ATOM     52  C   UNL     1      -2.245  14.267  11.826  1.00  0.00     0.010 A 
ATOM     53  C   UNL     1      -3.475  13.767  11.379  1.00  0.00    -0.014 A 
BRANCH  53  54
ATOM     54  C   UNL     1      -4.062  14.141  10.090  1.00  0.00     0.031 A 
ATOM     55  C   UNL     1      -4.538  15.550  10.046  1.00  0.00     0.074 A 
ATOM     56  C   UNL     1      -3.722  13.532   8.936  1.00  0.00     0.049 A 
ATOM     57  N   UNL     1      -3.724  16.546   9.854  1.00  0.00    -0.248 NA
ATOM     58  C   UNL     1      -5.871  15.943  10.499  1.00  0.00     0.031 C 
ATOM     59  C   UNL     1      -2.409  12.927   8.669  1.00  0.00     0.029 A 
ATOM     60  N   UNL     1      -4.349  13.524   7.717  1.00  0.00    -0.354 N 
ATOM     61  C   UNL     1      -4.405  17.695  10.200  1.00  0.00     0.074 A 
ATOM     62  C   UNL     1      -5.735  17.275  10.588  1.00  0.00     0.031 C 
ATOM     63  C   UNL     1      -2.254  12.810   7.333  1.00  0.00     0.029 A 
ATOM     64  C   UNL     1      -3.506  13.153   6.673  1.00  0.00     0.049 A 
ATOM     65  H   UNL     1      -5.298  13.757   7.592  1.00  0.00     0.167 HD
ATOM     66  C   UNL     1      -3.843  18.931  10.159  1.00  0.00     0.031 A 
ATOM     67  C   UNL     1      -3.638  13.578   5.386  1.00  0.00     0.031 A 
ATOM     68  C   UNL     1      -2.497  18.986   9.675  1.00  0.00     0.049 A 
ATOM     69  C   UNL     1      -3.229  15.027   5.533  1.00  0.00     0.074 A 
ATOM     70  C   UNL     1      -1.226  19.046  10.204  1.00  0.00     0.029 A 
ATOM     71  N   UNL     1      -2.299  18.907   8.316  1.00  0.00    -0.354 N 
ATOM     72  N   UNL     1      -2.006  15.483   5.612  1.00  0.00    -0.248 NA
ATOM     73  C   UNL     1      -4.257  15.976   5.969  1.00  0.00     0.031 C 
ATOM     74  C   UNL     1      -0.358  18.557   9.177  1.00  0.00     0.029 A 
ATOM     75  C   UNL     1      -1.163  18.168   8.106  1.00  0.00     0.049 A 
ATOM     76  H   UNL     1      -2.870  19.307   7.621  1.00  0.00     0.167 HD
ATOM     77  C   UNL     1      -2.088  16.644   6.386  1.00  0.00     0.074 A 
ATOM     78  C   UNL     1      -3.505  16.896   6.556  1.00  0.00     0.031 C 
ATOM     79  C   UNL     1      -1.021  17.235   7.002  1.00  0.00     0.031 A 
BRANCH  66  80
ATOM     80  C   UNL     1      -4.603  20.169  10.423  1.00  0.00    -0.014 A 
ATOM     81  C   UNL     1      -4.822  20.655  11.720  1.00  0.00     0.010 A 
ATOM     82  C   UNL     1      -5.008  20.935   9.317  1.00  0.00     0.010 A 
ATOM     83  C   UNL     1      -5.417  21.909  11.902  1.00  0.00     0.020 A 
ATOM     84  C   UNL     1      -5.595  22.186   9.494  1.00  0.00     0.020 A 
ATOM     85  C   UNL     1      -5.789  22.670  10.786  1.00  0.00     0.054 A 
BRANCH  85  86
ATOM     86  S   UNL     1      -6.480  24.327  11.037  1.00  0.00     0.124 S 
ATOM     87  O   UNL     1      -7.760  24.030  11.674  1.00  0.00    -0.237 OA
ATOM     88  O   UNL     1      -5.481  24.959  11.894  1.00  0.00    -0.237 OA
ATOM     89  O   UNL     1      -6.570  24.873   9.685  1.00  0.00    -0.744 OA
ENDBRANCH  85  86
ENDBRANCH  66  80
BRANCH  67  90
ATOM     90  C   UNL     1      -4.928  13.139   4.750  1.00  0.00    -0.014 A 
ATOM     91  C   UNL     1      -5.869  13.991   4.152  1.00  0.00     0.010 A 
ATOM     92  C   UNL     1      -5.249  11.763   4.823  1.00  0.00     0.010 A 
ATOM     93  C   UNL     1      -7.158  13.530   3.848  1.00  0.00     0.020 A 
ATOM     94  C   UNL     1      -6.521  11.289   4.495  1.00  0.00     0.020 A 
ATOM     95  C   UNL     1      -7.489  12.192   4.069  1.00  0.00     0.054 A 
BRANCH  95  96
ATOM     96  S   UNL     1      -9.210  11.663   3.864  1.00  0.00     0.124 S 
ATOM     97  O   UNL     1      -9.865  12.351   4.973  1.00  0.00    -0.237 OA
ATOM     98  O   UNL     1      -9.538  12.156   2.530  1.00  0.00    -0.237 OA
ATOM     99  O   UNL     1      -9.142  10.209   3.990  1.00  0.00    -0.744 OA
ENDBRANCH  95  96
ENDBRANCH  67  90
BRANCH  79 100
ATOM    100  C   UNL     1       0.345  16.732   6.643  1.00  0.00    -0.014 A 
ATOM    101  C   UNL     1       1.187  16.166   7.618  1.00  0.00     0.010 A 
ATOM    102  C   UNL     1       0.853  16.944   5.351  1.00  0.00     0.010 A 
ATOM    103  C   UNL     1       2.533  15.918   7.342  1.00  0.00     0.020 A 
ATOM    104  C   UNL     1       2.194  16.675   5.060  1.00  0.00     0.020 A 
ATOM    105  C   UNL     1       3.035  16.202   6.070  1.00  0.00     0.054 A 
BRANCH 105 106
ATOM    106  S   UNL     1       4.811  15.995   5.771  1.00  0.00     0.124 S 
ATOM    107  O   UNL     1       5.389  17.046   6.606  1.00  0.00    -0.237 OA
ATOM    108  O   UNL     1       5.057  14.629   6.227  1.00  0.00    -0.237 OA
ATOM    109  O   UNL     1       4.951  16.201   4.332  1.00  0.00    -0.744 OA
ENDBRANCH 105 106
ENDBRANCH  79 100
ENDBRANCH  53  54
ENDBRANCH  45  48
ENDBRANCH  43  44
ENDBRANCH  42  43
ENDBRANCH  41  42
ENDBRANCH   1  41
TORSDOF 21
