REMARK SMILES COc1ccc(-c2nc(C(C)C)cc3nn(CC(=O)NCCCCCCNC(=O)c4ccc(-c5c6nc(c(-c7ccc(S(=O)(=O)[O-])cc7)c7ccc([nH]7)c(-c7ccc(S(=O)(=O)[O-])cc7)c7nc(c(-c8ccc(S(=O)(=O)[O-])cc8)c8ccc5[nH]8)C=C7)C=C6)cc4)c(=O)n23)cc1
REMARK SMILES IDX 23 1 22 2 21 3 20 4 18 5 19 6 17 8 16 9 7 10 8 11 92 12 9 13
REMARK SMILES IDX 14 14 90 15 13 16 15 17 91 18 6 19 3 20 4 21 94 22 5 23
REMARK SMILES IDX 93 24 2 25 1 26 10 27 11 28 12 29 24 30 25 31 26 32 27 33
REMARK SMILES IDX 28 34 29 36 30 37 31 38 89 39 32 40 88 41 33 42 34 43 35 44
REMARK SMILES IDX 82 45 36 46 87 47 81 48 83 49 37 50 86 51 80 52 79 53 38 55
REMARK SMILES IDX 68 56 49 57 67 58 50 59 53 60 66 61 84 62 51 63 52 64 65 66
REMARK SMILES IDX 85 67 54 68 39 69 40 70 48 71 41 72 47 73 42 74 43 75 44 76
REMARK SMILES IDX 45 77 46 78 69 79 70 80 78 81 71 82 77 83 72 84 73 85 74 86
REMARK SMILES IDX 75 87 76 88 55 89 56 90 64 91 57 92 63 93 58 94 59 95 60 96
REMARK SMILES IDX 61 97 62 98
REMARK H PARENT 20 7 27 35 83 54 53 65
REMARK Flexibility Score: inf
ROOT
ATOM      1  C   UNL     1      -3.539  -9.533   0.246  1.00  0.00     0.002 C 
ENDROOT
BRANCH   1   2
ATOM      2  C   UNL     1      -2.219  -9.531  -0.537  1.00  0.00     0.021 C 
BRANCH   2   3
ATOM      3  C   UNL     1      -2.389  -9.654  -2.051  1.00  0.00     0.116 C 
BRANCH   3   4
ATOM      4  N   UNL     1      -2.996  -8.470  -2.627  1.00  0.00    -0.354 N 
ATOM      5  C   UNL     1      -2.481  -7.576  -3.522  1.00  0.00     0.241 C 
ATOM      6  O   UNL     1      -3.275  -6.787  -4.045  1.00  0.00    -0.273 OA
ATOM      7  H   UNL     1      -3.915  -8.283  -2.329  1.00  0.00     0.163 HD
BRANCH   5   8
ATOM      8  C   UNL     1      -1.030  -7.665  -3.998  1.00  0.00     0.249 C 
BRANCH   8   9
ATOM      9  N   UNL     1      -0.089  -7.695  -2.908  1.00  0.00    -0.203 N 
ATOM     10  C   UNL     1       1.821  -6.555  -0.090  1.00  0.00     0.150 A 
ATOM     11  N   UNL     1       2.701  -7.233   0.586  1.00  0.00    -0.234 NA
ATOM     12  N   UNL     1       1.163  -7.096  -1.187  1.00  0.00    -0.226 N 
ATOM     13  C   UNL     1       2.994  -8.523   0.186  1.00  0.00     0.049 A 
ATOM     14  C   UNL     1       1.407  -8.358  -1.593  1.00  0.00     0.165 A 
ATOM     15  C   UNL     1       0.209  -6.603  -2.078  1.00  0.00     0.352 A 
ATOM     16  C   UNL     1       2.404  -9.127  -0.860  1.00  0.00     0.073 A 
ATOM     17  N   UNL     1       0.713  -8.772  -2.611  1.00  0.00    -0.149 NA
ATOM     18  O   UNL     1      -0.284  -5.498  -2.166  1.00  0.00    -0.245 OA
BRANCH  10  19
ATOM     19  C   UNL     1       1.497  -5.162   0.276  1.00  0.00     0.018 A 
ATOM     20  C   UNL     1       0.848  -2.480   0.702  1.00  0.00     0.118 A 
ATOM     21  C   UNL     1      -0.119  -3.473   0.878  1.00  0.00     0.047 A 
ATOM     22  C   UNL     1       2.160  -2.841   0.386  1.00  0.00     0.047 A 
ATOM     23  C   UNL     1       0.200  -4.815   0.666  1.00  0.00     0.016 A 
ATOM     24  C   UNL     1       2.489  -4.185   0.178  1.00  0.00     0.016 A 
BRANCH  20  25
ATOM     25  O   UNL     1       0.417  -1.197   0.910  1.00  0.00    -0.497 OA
ATOM     26  C   UNL     1       1.021  -0.222   0.067  1.00  0.00     0.278 C 
ENDBRANCH  20  25
ENDBRANCH  10  19
BRANCH  13  27
ATOM     27  C   UNL     1       4.065  -9.239   1.006  1.00  0.00     0.032 C 
ATOM     28  C   UNL     1       3.499 -10.467   1.728  1.00  0.00     0.014 C 
ATOM     29  C   UNL     1       5.270  -9.633   0.144  1.00  0.00     0.014 C 
ENDBRANCH  13  27
ENDBRANCH   8   9
ENDBRANCH   5   8
ENDBRANCH   3   4
ENDBRANCH   2   3
ENDBRANCH   1   2
BRANCH   1  30
ATOM     30  C   UNL     1      -4.469 -10.730  -0.006  1.00  0.00     0.002 C 
BRANCH  30  31
ATOM     31  C   UNL     1      -3.845 -12.123   0.167  1.00  0.00     0.021 C 
BRANCH  31  32
ATOM     32  C   UNL     1      -3.381 -12.425   1.585  1.00  0.00     0.116 C 
BRANCH  32  33
ATOM     33  N   UNL     1      -4.497 -12.540   2.519  1.00  0.00    -0.352 N 
ATOM     34  C   UNL     1      -4.457 -12.792   3.874  1.00  0.00     0.251 C 
ATOM     35  H   UNL     1      -5.394 -12.421   2.131  1.00  0.00     0.163 HD
ATOM     36  O   UNL     1      -5.441 -13.252   4.443  1.00  0.00    -0.269 OA
BRANCH  34  37
ATOM     37  C   UNL     1      -3.221 -12.510   4.630  1.00  0.00     0.039 A 
ATOM     38  C   UNL     1      -2.806 -13.365   5.655  1.00  0.00     0.014 A 
ATOM     39  C   UNL     1      -2.478 -11.372   4.314  1.00  0.00     0.014 A 
ATOM     40  C   UNL     1      -1.596 -13.113   6.297  1.00  0.00     0.010 A 
ATOM     41  C   UNL     1      -1.233 -11.184   4.870  1.00  0.00     0.010 A 
ATOM     42  C   UNL     1      -0.797 -12.035   5.881  1.00  0.00    -0.014 A 
BRANCH  42  43
ATOM     43  C   UNL     1       0.575 -11.903   6.369  1.00  0.00     0.031 A 
ATOM     44  C   UNL     1       1.401 -13.122   6.165  1.00  0.00     0.074 A 
ATOM     45  C   UNL     1       1.133 -10.739   6.766  1.00  0.00     0.049 A 
ATOM     46  N   UNL     1       1.799 -13.950   7.073  1.00  0.00    -0.248 NA
ATOM     47  C   UNL     1       1.667 -13.575   4.789  1.00  0.00     0.031 C 
ATOM     48  C   UNL     1       0.526  -9.405   6.759  1.00  0.00     0.029 A 
ATOM     49  N   UNL     1       2.417 -10.479   7.147  1.00  0.00    -0.354 N 
ATOM     50  C   UNL     1       2.598 -14.875   6.413  1.00  0.00     0.074 A 
ATOM     51  C   UNL     1       2.291 -14.735   5.011  1.00  0.00     0.031 C 
ATOM     52  C   UNL     1       1.492  -8.467   6.874  1.00  0.00     0.029 A 
ATOM     53  C   UNL     1       2.762  -9.128   7.118  1.00  0.00     0.049 A 
ATOM     54  H   UNL     1       3.046 -11.185   7.420  1.00  0.00     0.167 HD
ATOM     55  C   UNL     1       3.659 -15.457   7.040  1.00  0.00     0.031 A 
ATOM     56  C   UNL     1       4.004  -8.591   7.253  1.00  0.00     0.031 A 
ATOM     57  C   UNL     1       3.618 -15.231   8.466  1.00  0.00     0.049 A 
ATOM     58  C   UNL     1       4.838  -9.601   7.947  1.00  0.00     0.074 A 
ATOM     59  C   UNL     1       2.689 -15.457   9.464  1.00  0.00     0.029 A 
ATOM     60  N   UNL     1       4.497 -14.299   8.969  1.00  0.00    -0.354 N 
ATOM     61  N   UNL     1       4.647  -9.945   9.189  1.00  0.00    -0.248 NA
ATOM     62  C   UNL     1       5.588 -10.555   7.146  1.00  0.00     0.031 C 
ATOM     63  C   UNL     1       2.775 -14.313  10.310  1.00  0.00     0.029 A 
ATOM     64  C   UNL     1       3.809 -13.501   9.842  1.00  0.00     0.049 A 
ATOM     65  H   UNL     1       5.452 -14.220   8.742  1.00  0.00     0.167 HD
ATOM     66  C   UNL     1       4.816 -11.321   9.197  1.00  0.00     0.074 A 
ATOM     67  C   UNL     1       5.511 -11.623   7.946  1.00  0.00     0.031 C 
ATOM     68  C   UNL     1       4.119 -12.106  10.071  1.00  0.00     0.031 A 
BRANCH  55  69
ATOM     69  C   UNL     1       4.953 -15.812   6.341  1.00  0.00    -0.014 A 
ATOM     70  C   UNL     1       5.987 -16.400   7.101  1.00  0.00     0.010 A 
ATOM     71  C   UNL     1       5.301 -15.319   5.067  1.00  0.00     0.010 A 
ATOM     72  C   UNL     1       7.312 -16.398   6.651  1.00  0.00     0.020 A 
ATOM     73  C   UNL     1       6.611 -15.358   4.588  1.00  0.00     0.020 A 
ATOM     74  C   UNL     1       7.616 -15.861   5.401  1.00  0.00     0.054 A 
BRANCH  74  75
ATOM     75  S   UNL     1       9.341 -15.770   4.869  1.00  0.00     0.124 S 
ATOM     76  O   UNL     1       9.890 -14.797   5.807  1.00  0.00    -0.237 OA
ATOM     77  O   UNL     1       9.789 -17.149   5.045  1.00  0.00    -0.237 OA
ATOM     78  O   UNL     1       9.245 -15.323   3.482  1.00  0.00    -0.744 OA
ENDBRANCH  74  75
ENDBRANCH  55  69
BRANCH  56  79
ATOM     79  C   UNL     1       4.586  -7.378   6.619  1.00  0.00    -0.014 A 
ATOM     80  C   UNL     1       5.870  -6.923   6.984  1.00  0.00     0.010 A 
ATOM     81  C   UNL     1       4.017  -6.839   5.448  1.00  0.00     0.010 A 
ATOM     82  C   UNL     1       6.596  -6.048   6.156  1.00  0.00     0.020 A 
ATOM     83  C   UNL     1       4.729  -5.957   4.622  1.00  0.00     0.020 A 
ATOM     84  C   UNL     1       6.031  -5.596   4.961  1.00  0.00     0.054 A 
BRANCH  84  85
ATOM     85  S   UNL     1       7.058  -4.665   3.783  1.00  0.00     0.124 S 
ATOM     86  O   UNL     1       7.222  -3.379   4.455  1.00  0.00    -0.237 OA
ATOM     87  O   UNL     1       8.262  -5.487   3.692  1.00  0.00    -0.237 OA
ATOM     88  O   UNL     1       6.249  -4.628   2.565  1.00  0.00    -0.744 OA
ENDBRANCH  84  85
ENDBRANCH  56  79
BRANCH  68  89
ATOM     89  C   UNL     1       3.431 -11.450  11.246  1.00  0.00    -0.014 A 
ATOM     90  C   UNL     1       2.455 -10.439  11.133  1.00  0.00     0.010 A 
ATOM     91  C   UNL     1       3.700 -11.979  12.520  1.00  0.00     0.010 A 
ATOM     92  C   UNL     1       1.802  -9.945  12.273  1.00  0.00     0.020 A 
ATOM     93  C   UNL     1       3.038 -11.509  13.654  1.00  0.00     0.020 A 
ATOM     94  C   UNL     1       2.103 -10.482  13.528  1.00  0.00     0.054 A 
BRANCH  94  95
ATOM     95  S   UNL     1       1.246  -9.856  15.000  1.00  0.00     0.124 S 
ATOM     96  O   UNL     1       1.783  -8.504  15.128  1.00  0.00    -0.237 OA
ATOM     97  O   UNL     1      -0.162  -9.942  14.618  1.00  0.00    -0.237 OA
ATOM     98  O   UNL     1       1.649 -10.783  16.058  1.00  0.00    -0.744 OA
ENDBRANCH  94  95
ENDBRANCH  68  89
ENDBRANCH  42  43
ENDBRANCH  34  37
ENDBRANCH  32  33
ENDBRANCH  31  32
ENDBRANCH  30  31
ENDBRANCH   1  30
TORSDOF 20
