REMARK SMILES C[C@@H](C(=O)NCCCCCCNC(=O)c1ccc(-c2c3nc(c(-c4ccc(S(=O)(=O)[O-])cc4)c4ccc([nH]4)c(-c4ccc(S(=O)(=O)[O-])cc4)c4nc(c(-c5ccc(S(=O)(=O)[O-])cc5)c5ccc2[nH]5)C=C4)C=C3)cc1)c1ccc(Cc2ccsc2)cc1F
REMARK SMILES IDX 8 1 7 2 6 3 5 4 3 5 4 6 2 8 1 9 75 10 76 11 86 12 77 13
REMARK SMILES IDX 85 14 87 15 78 16 79 17 80 18 81 19 84 20 82 21 83 22 9 23
REMARK SMILES IDX 10 24 11 25 12 26 13 27 14 29 15 30 16 31 74 32 17 33 73 34
REMARK SMILES IDX 18 35 19 36 20 37 67 38 21 39 72 40 66 41 68 42 22 43 71 44
REMARK SMILES IDX 65 45 64 46 23 48 53 49 34 50 52 51 35 52 38 53 51 54 69 55
REMARK SMILES IDX 36 56 37 57 50 59 70 60 39 61 24 62 25 63 33 64 26 65 32 66
REMARK SMILES IDX 27 67 28 68 29 69 30 70 31 71 54 72 55 73 63 74 56 75 62 76
REMARK SMILES IDX 57 77 58 78 59 79 60 80 61 81 40 82 41 83 49 84 42 85 48 86
REMARK SMILES IDX 43 87 44 88 45 89 46 90 47 91
REMARK H PARENT 5 7 12 28 68 47 38 58
REMARK Flexibility Score: inf
ROOT
ATOM      1  C   UNL     1       5.023  -1.557   2.313  1.00  0.00     0.002 C 
ENDROOT
BRANCH   1   2
ATOM      2  C   UNL     1       4.280  -0.973   1.103  1.00  0.00     0.021 C 
BRANCH   2   3
ATOM      3  C   UNL     1       3.413  -1.993   0.353  1.00  0.00     0.116 C 
BRANCH   3   4
ATOM      4  N   UNL     1       2.296  -2.395   1.186  1.00  0.00    -0.356 N 
ATOM      5  C   UNL     1       1.012  -1.930   1.207  1.00  0.00     0.227 C 
ATOM      6  O   UNL     1       0.348  -2.171   2.218  1.00  0.00    -0.274 OA
ATOM      7  H   UNL     1       2.493  -3.110   1.834  1.00  0.00     0.163 HD
BRANCH   5   8
ATOM      8  C   UNL     1       0.450  -1.164  -0.007  1.00  0.00     0.108 C 
ATOM      9  C   UNL     1       1.017   0.263  -0.034  1.00  0.00     0.023 C 
BRANCH   8  10
ATOM     10  C   UNL     1      -1.081  -1.201  -0.045  1.00  0.00    -0.000 A 
ATOM     11  C   UNL     1      -1.867  -0.044  -0.148  1.00  0.00     0.008 A 
ATOM     12  C   UNL     1      -1.758  -2.428   0.014  1.00  0.00     0.127 A 
ATOM     13  C   UNL     1      -3.262  -0.116  -0.158  1.00  0.00     0.004 A 
ATOM     14  C   UNL     1      -3.154  -2.503   0.053  1.00  0.00     0.043 A 
ATOM     15  F   UNL     1      -1.060  -3.574   0.025  1.00  0.00    -0.207 F 
ATOM     16  C   UNL     1      -3.929  -1.339  -0.017  1.00  0.00    -0.041 A 
BRANCH  16  17
ATOM     17  C   UNL     1      -5.438  -1.398  -0.007  1.00  0.00     0.072 C 
BRANCH  17  18
ATOM     18  C   UNL     1      -5.923  -0.909   1.333  1.00  0.00    -0.033 A 
ATOM     19  C   UNL     1      -5.865   0.450   1.808  1.00  0.00     0.015 A 
ATOM     20  C   UNL     1      -6.570  -1.704   2.265  1.00  0.00     0.068 A 
ATOM     21  C   UNL     1      -6.417   0.612   3.059  1.00  0.00     0.065 A 
ATOM     22  S   UNL     1      -7.055  -0.848   3.665  1.00  0.00    -0.152 S 
ENDBRANCH  17  18
ENDBRANCH  16  17
ENDBRANCH   8  10
ENDBRANCH   5   8
ENDBRANCH   3   4
ENDBRANCH   2   3
ENDBRANCH   1   2
BRANCH   1  23
ATOM     23  C   UNL     1       6.002  -2.688   1.985  1.00  0.00     0.002 C 
BRANCH  23  24
ATOM     24  C   UNL     1       7.054  -2.339   0.932  1.00  0.00     0.021 C 
BRANCH  24  25
ATOM     25  C   UNL     1       7.952  -1.165   1.306  1.00  0.00     0.116 C 
BRANCH  25  26
ATOM     26  N   UNL     1       8.805  -1.473   2.445  1.00  0.00    -0.352 N 
ATOM     27  C   UNL     1      10.171  -1.370   2.544  1.00  0.00     0.251 C 
ATOM     28  H   UNL     1       8.341  -1.799   3.251  1.00  0.00     0.163 HD
ATOM     29  O   UNL     1      10.766  -1.856   3.501  1.00  0.00    -0.269 OA
BRANCH  27  30
ATOM     30  C   UNL     1      10.918  -0.681   1.472  1.00  0.00     0.039 A 
ATOM     31  C   UNL     1      12.030  -1.305   0.901  1.00  0.00     0.014 A 
ATOM     32  C   UNL     1      10.492   0.569   1.014  1.00  0.00     0.014 A 
ATOM     33  C   UNL     1      12.681  -0.700  -0.177  1.00  0.00     0.010 A 
ATOM     34  C   UNL     1      11.098   1.135  -0.101  1.00  0.00     0.010 A 
ATOM     35  C   UNL     1      12.200   0.508  -0.706  1.00  0.00    -0.014 A 
BRANCH  35  36
ATOM     36  C   UNL     1      12.825   1.152  -1.888  1.00  0.00     0.031 A 
ATOM     37  C   UNL     1      13.451   2.512  -1.749  1.00  0.00     0.074 A 
ATOM     38  C   UNL     1      12.726   0.573  -3.100  1.00  0.00     0.049 A 
ATOM     39  N   UNL     1      13.908   3.310  -2.679  1.00  0.00    -0.248 NA
ATOM     40  C   UNL     1      13.540   3.059  -0.386  1.00  0.00     0.031 C 
ATOM     41  C   UNL     1      12.105  -0.725  -3.372  1.00  0.00     0.029 A 
ATOM     42  N   UNL     1      13.120   1.019  -4.338  1.00  0.00    -0.354 N 
ATOM     43  C   UNL     1      14.305   4.466  -2.019  1.00  0.00     0.074 A 
ATOM     44  C   UNL     1      13.997   4.280  -0.617  1.00  0.00     0.031 C 
ATOM     45  C   UNL     1      12.158  -0.969  -4.691  1.00  0.00     0.029 A 
ATOM     46  C   UNL     1      12.774   0.172  -5.364  1.00  0.00     0.049 A 
ATOM     47  H   UNL     1      13.604   1.865  -4.477  1.00  0.00     0.167 HD
ATOM     48  C   UNL     1      14.882   5.580  -2.531  1.00  0.00     0.031 A 
ATOM     49  C   UNL     1      12.912   0.305  -6.698  1.00  0.00     0.031 A 
ATOM     50  C   UNL     1      15.193   5.753  -3.924  1.00  0.00     0.049 A 
ATOM     51  C   UNL     1      13.563   1.541  -7.251  1.00  0.00     0.074 A 
ATOM     52  C   UNL     1      15.840   6.811  -4.536  1.00  0.00     0.029 A 
ATOM     53  N   UNL     1      14.873   4.846  -4.925  1.00  0.00    -0.354 N 
ATOM     54  N   UNL     1      14.000   2.596  -6.605  1.00  0.00    -0.248 NA
ATOM     55  C   UNL     1      13.752   1.603  -8.706  1.00  0.00     0.031 C 
ATOM     56  C   UNL     1      15.865   6.569  -5.913  1.00  0.00     0.029 A 
ATOM     57  C   UNL     1      15.286   5.332  -6.153  1.00  0.00     0.049 A 
ATOM     58  H   UNL     1      14.418   3.985  -4.782  1.00  0.00     0.167 HD
ATOM     59  C   UNL     1      14.540   3.437  -7.572  1.00  0.00     0.074 A 
ATOM     60  C   UNL     1      14.377   2.767  -8.846  1.00  0.00     0.031 C 
ATOM     61  C   UNL     1      15.123   4.651  -7.414  1.00  0.00     0.031 A 
BRANCH  48  62
ATOM     62  C   UNL     1      15.181   6.703  -1.574  1.00  0.00    -0.014 A 
ATOM     63  C   UNL     1      16.166   6.573  -0.577  1.00  0.00     0.010 A 
ATOM     64  C   UNL     1      14.457   7.906  -1.665  1.00  0.00     0.010 A 
ATOM     65  C   UNL     1      16.368   7.594   0.355  1.00  0.00     0.020 A 
ATOM     66  C   UNL     1      14.680   8.943  -0.755  1.00  0.00     0.020 A 
ATOM     67  C   UNL     1      15.614   8.767   0.268  1.00  0.00     0.054 A 
BRANCH  67  68
ATOM     68  S   UNL     1      15.872  10.064   1.509  1.00  0.00     0.124 S 
ATOM     69  O   UNL     1      15.194   9.501   2.675  1.00  0.00    -0.237 OA
ATOM     70  O   UNL     1      17.327  10.135   1.604  1.00  0.00    -0.237 OA
ATOM     71  O   UNL     1      15.230  11.238   0.922  1.00  0.00    -0.744 OA
ENDBRANCH  67  68
ENDBRANCH  48  62
BRANCH  49  72
ATOM     72  C   UNL     1      12.418  -0.779  -7.589  1.00  0.00    -0.014 A 
ATOM     73  C   UNL     1      13.318  -1.661  -8.210  1.00  0.00     0.010 A 
ATOM     74  C   UNL     1      11.035  -0.981  -7.756  1.00  0.00     0.010 A 
ATOM     75  C   UNL     1      12.845  -2.732  -8.975  1.00  0.00     0.020 A 
ATOM     76  C   UNL     1      10.558  -2.064  -8.501  1.00  0.00     0.020 A 
ATOM     77  C   UNL     1      11.468  -2.933  -9.106  1.00  0.00     0.054 A 
BRANCH  77  78
ATOM     78  S   UNL     1      10.879  -4.389 -10.015  1.00  0.00     0.124 S 
ATOM     79  O   UNL     1      11.149  -4.014 -11.399  1.00  0.00    -0.237 OA
ATOM     80  O   UNL     1      11.715  -5.458  -9.473  1.00  0.00    -0.237 OA
ATOM     81  O   UNL     1       9.466  -4.470  -9.651  1.00  0.00    -0.744 OA
ENDBRANCH  77  78
ENDBRANCH  49  72
BRANCH  61  82
ATOM     82  C   UNL     1      15.670   5.335  -8.637  1.00  0.00    -0.014 A 
ATOM     83  C   UNL     1      14.820   5.963  -9.563  1.00  0.00     0.010 A 
ATOM     84  C   UNL     1      17.064   5.447  -8.796  1.00  0.00     0.010 A 
ATOM     85  C   UNL     1      15.356   6.693 -10.628  1.00  0.00     0.020 A 
ATOM     86  C   UNL     1      17.603   6.196  -9.845  1.00  0.00     0.020 A 
ATOM     87  C   UNL     1      16.744   6.812 -10.757  1.00  0.00     0.054 A 
BRANCH  87  88
ATOM     88  S   UNL     1      17.412   7.846 -12.090  1.00  0.00     0.124 S 
ATOM     89  O   UNL     1      17.175   7.016 -13.267  1.00  0.00    -0.237 OA
ATOM     90  O   UNL     1      16.596   9.054 -11.998  1.00  0.00    -0.237 OA
ATOM     91  O   UNL     1      18.816   8.021 -11.723  1.00  0.00    -0.744 OA
ENDBRANCH  87  88
ENDBRANCH  61  82
ENDBRANCH  35  36
ENDBRANCH  27  30
ENDBRANCH  25  26
ENDBRANCH  24  25
ENDBRANCH  23  24
ENDBRANCH   1  23
TORSDOF 19
