REMARK SMILES O=C(C[C@]12CSc3[nH]c(=O)sc3[C@H]1c1cc(Cl)ccc1OC2=O)NCCCCCCNC(=O)c1ccc(-c2c3nc(c(-c4ccc(S(=O)(=O)[O-])cc4)c4ccc([nH]4)c(-c4ccc(S(=O)(=O)[O-])cc4)c4nc(c(-c5ccc(S(=O)(=O)[O-])cc5)c5ccc2[nH]5)C=C4)C=C3)cc1
REMARK SMILES IDX 28 1 27 2 26 3 25 4 24 5 1 6 2 7 3 9 4 10 5 11 13 12 22 13
REMARK SMILES IDX 6 14 12 15 14 16 21 17 23 18 7 19 11 20 15 21 20 22 8 23
REMARK SMILES IDX 9 24 16 25 19 26 10 28 17 29 18 30 29 31 30 32 31 33 32 34
REMARK SMILES IDX 33 36 34 37 35 38 93 39 36 40 92 41 37 42 38 43 39 44 86 45
REMARK SMILES IDX 40 46 91 47 85 48 87 49 41 50 90 51 84 52 83 53 42 55 72 56
REMARK SMILES IDX 53 57 71 58 54 59 57 60 70 61 88 62 55 63 56 64 69 66 89 67
REMARK SMILES IDX 58 68 43 69 44 70 52 71 45 72 51 73 46 74 47 75 48 76 49 77
REMARK SMILES IDX 50 78 73 79 74 80 82 81 75 82 81 83 76 84 77 85 78 86 79 87
REMARK SMILES IDX 80 88 59 89 60 90 68 91 61 92 67 93 62 94 63 95 64 96 65 97
REMARK SMILES IDX 66 98
REMARK H PARENT 24 8 8 27 31 35 87 54 57 65
REMARK Flexibility Score: inf
ROOT
ATOM      1  C   UNL     1       4.692  -3.106   3.463  1.00  0.00     0.002 C 
ENDROOT
BRANCH   1   2
ATOM      2  C   UNL     1       4.197  -3.426   2.047  1.00  0.00     0.002 C 
BRANCH   2   3
ATOM      3  C   UNL     1       2.666  -3.439   1.899  1.00  0.00     0.021 C 
BRANCH   3   4
ATOM      4  C   UNL     1       1.986  -2.198   2.468  1.00  0.00     0.116 C 
BRANCH   4   5
ATOM      5  N   UNL     1       2.518  -1.052   1.798  1.00  0.00    -0.356 N 
ATOM      6  O   UNL     1       0.496  -0.277   1.027  1.00  0.00    -0.275 OA
ATOM      7  C   UNL     1       1.719  -0.284   1.018  1.00  0.00     0.221 C 
ATOM      8  H   UNL     1       3.469  -0.819   1.905  1.00  0.00     0.163 HD
BRANCH   7   9
ATOM      9  C   UNL     1       2.499   0.399  -0.041  1.00  0.00     0.120 C 
BRANCH   9  10
ATOM     10  C   UNL     1       3.604   1.441   0.314  1.00  0.00     0.098 C 
ATOM     11  C   UNL     1       3.081   2.218   1.538  1.00  0.00     0.097 C 
ATOM     12  C   UNL     1       3.779   2.177  -1.054  1.00  0.00     0.085 C 
ATOM     13  C   UNL     1       5.067   1.052   0.700  1.00  0.00     0.319 C 
ATOM     14  S   UNL     1       3.658   3.901   1.756  1.00  0.00    -0.106 SA
ATOM     15  C   UNL     1       4.234   3.602  -0.933  1.00  0.00     0.049 A 
ATOM     16  C   UNL     1       4.378   1.061  -1.998  1.00  0.00     0.006 A 
ATOM     17  O   UNL     1       5.833   0.358  -0.198  1.00  0.00    -0.426 OA
ATOM     18  O   UNL     1       5.616   1.419   1.735  1.00  0.00    -0.251 OA
ATOM     19  C   UNL     1       4.085   4.348   0.178  1.00  0.00     0.090 A 
ATOM     20  S   UNL     1       4.410   4.666  -2.324  1.00  0.00    -0.077 S 
ATOM     21  C   UNL     1       3.607   0.585  -3.081  1.00  0.00     0.028 A 
ATOM     22  C   UNL     1       5.229   0.101  -1.413  1.00  0.00     0.134 A 
ATOM     23  N   UNL     1       4.086   5.693  -0.026  1.00  0.00    -0.307 N 
ATOM     24  C   UNL     1       4.173   6.106  -1.314  1.00  0.00     0.305 A 
ATOM     25  C   UNL     1       3.576  -0.798  -3.391  1.00  0.00     0.041 A 
ATOM     26  C   UNL     1       5.285  -1.253  -1.783  1.00  0.00     0.049 A 
ATOM     27  H   UNL     1       4.026   6.331   0.721  1.00  0.00     0.171 HD
ATOM     28  O   UNL     1       4.051   7.255  -1.730  1.00  0.00    -0.257 OA
ATOM     29  Cl  UNL     1       2.349  -1.408  -4.439  1.00  0.00    -0.084 Cl
ATOM     30  C   UNL     1       4.397  -1.718  -2.736  1.00  0.00     0.024 A 
ENDBRANCH   9  10
ENDBRANCH   7   9
ENDBRANCH   4   5
ENDBRANCH   3   4
ENDBRANCH   2   3
ENDBRANCH   1   2
BRANCH   1  31
ATOM     31  C   UNL     1       4.042  -3.953   4.565  1.00  0.00     0.021 C 
BRANCH  31  32
ATOM     32  C   UNL     1       4.082  -5.452   4.278  1.00  0.00     0.116 C 
BRANCH  32  33
ATOM     33  N   UNL     1       5.426  -5.959   4.178  1.00  0.00    -0.352 N 
ATOM     34  C   UNL     1       6.316  -6.461   5.078  1.00  0.00     0.251 C 
ATOM     35  H   UNL     1       5.779  -5.938   3.258  1.00  0.00     0.163 HD
ATOM     36  O   UNL     1       7.366  -6.904   4.603  1.00  0.00    -0.269 OA
BRANCH  34  37
ATOM     37  C   UNL     1       6.139  -6.436   6.555  1.00  0.00     0.039 A 
ATOM     38  C   UNL     1       5.000  -6.018   7.248  1.00  0.00     0.014 A 
ATOM     39  C   UNL     1       7.276  -6.808   7.295  1.00  0.00     0.014 A 
ATOM     40  C   UNL     1       5.041  -5.849   8.627  1.00  0.00     0.010 A 
ATOM     41  C   UNL     1       7.315  -6.663   8.672  1.00  0.00     0.010 A 
ATOM     42  C   UNL     1       6.218  -6.121   9.327  1.00  0.00    -0.014 A 
BRANCH  42  43
ATOM     43  C   UNL     1       6.222  -5.943  10.774  1.00  0.00     0.031 A 
ATOM     44  C   UNL     1       5.232  -6.799  11.485  1.00  0.00     0.074 A 
ATOM     45  C   UNL     1       7.105  -5.154  11.422  1.00  0.00     0.049 A 
ATOM     46  N   UNL     1       4.196  -6.415  12.153  1.00  0.00    -0.248 NA
ATOM     47  C   UNL     1       5.314  -8.258  11.299  1.00  0.00     0.031 C 
ATOM     48  C   UNL     1       8.272  -4.453  10.877  1.00  0.00     0.029 A 
ATOM     49  N   UNL     1       7.197  -4.886  12.753  1.00  0.00    -0.354 N 
ATOM     50  C   UNL     1       3.603  -7.574  12.648  1.00  0.00     0.074 A 
ATOM     51  C   UNL     1       4.237  -8.673  11.966  1.00  0.00     0.031 C 
ATOM     52  C   UNL     1       9.080  -4.065  11.892  1.00  0.00     0.029 A 
ATOM     53  C   UNL     1       8.414  -4.340  13.153  1.00  0.00     0.049 A 
ATOM     54  H   UNL     1       6.461  -5.064  13.383  1.00  0.00     0.167 HD
ATOM     55  C   UNL     1       2.782  -7.545  13.734  1.00  0.00     0.031 A 
ATOM     56  C   UNL     1       8.851  -4.160  14.429  1.00  0.00     0.031 A 
ATOM     57  C   UNL     1       2.328  -6.210  14.016  1.00  0.00     0.049 A 
ATOM     58  C   UNL     1       7.646  -4.154  15.294  1.00  0.00     0.074 A 
ATOM     59  C   UNL     1       1.545  -5.290  13.351  1.00  0.00     0.029 A 
ATOM     60  N   UNL     1       3.014  -5.509  14.977  1.00  0.00    -0.354 N 
ATOM     61  N   UNL     1       6.731  -3.227  15.244  1.00  0.00    -0.248 NA
ATOM     62  C   UNL     1       7.232  -5.420  15.875  1.00  0.00     0.031 C 
ATOM     63  C   UNL     1       2.156  -4.032  13.621  1.00  0.00     0.029 A 
ATOM     64  C   UNL     1       3.220  -4.242  14.501  1.00  0.00     0.049 A 
ATOM     65  H   UNL     1       3.306  -5.856  15.851  1.00  0.00     0.167 HD
ATOM     66  C   UNL     1       5.533  -3.914  15.365  1.00  0.00     0.074 A 
ATOM     67  C   UNL     1       5.908  -5.252  15.825  1.00  0.00     0.031 C 
ATOM     68  C   UNL     1       4.378  -3.430  14.821  1.00  0.00     0.031 A 
BRANCH  55  69
ATOM     69  C   UNL     1       2.691  -8.652  14.756  1.00  0.00    -0.014 A 
ATOM     70  C   UNL     1       3.596  -9.729  14.817  1.00  0.00     0.010 A 
ATOM     71  C   UNL     1       1.829  -8.482  15.861  1.00  0.00     0.010 A 
ATOM     72  C   UNL     1       3.648 -10.591  15.915  1.00  0.00     0.020 A 
ATOM     73  C   UNL     1       1.900  -9.315  16.985  1.00  0.00     0.020 A 
ATOM     74  C   UNL     1       2.808 -10.370  17.000  1.00  0.00     0.054 A 
BRANCH  74  75
ATOM     75  S   UNL     1       2.966 -11.454  18.439  1.00  0.00     0.124 S 
ATOM     76  O   UNL     1       2.504 -12.732  17.901  1.00  0.00    -0.237 OA
ATOM     77  O   UNL     1       4.393 -11.374  18.735  1.00  0.00    -0.237 OA
ATOM     78  O   UNL     1       2.087 -10.839  19.430  1.00  0.00    -0.744 OA
ENDBRANCH  74  75
ENDBRANCH  55  69
BRANCH  56  79
ATOM     79  C   UNL     1      10.196  -4.485  14.986  1.00  0.00    -0.014 A 
ATOM     80  C   UNL     1      10.985  -5.478  14.372  1.00  0.00     0.010 A 
ATOM     81  C   UNL     1      10.552  -4.085  16.292  1.00  0.00     0.010 A 
ATOM     82  C   UNL     1      12.027  -6.113  15.062  1.00  0.00     0.020 A 
ATOM     83  C   UNL     1      11.600  -4.716  16.990  1.00  0.00     0.020 A 
ATOM     84  C   UNL     1      12.303  -5.756  16.381  1.00  0.00     0.054 A 
BRANCH  84  85
ATOM     85  S   UNL     1      13.523  -6.742  17.302  1.00  0.00     0.124 S 
ATOM     86  O   UNL     1      12.854  -8.036  17.404  1.00  0.00    -0.237 OA
ATOM     87  O   UNL     1      14.688  -6.708  16.420  1.00  0.00    -0.237 OA
ATOM     88  O   UNL     1      13.679  -6.018  18.561  1.00  0.00    -0.744 OA
ENDBRANCH  84  85
ENDBRANCH  56  79
BRANCH  68  89
ATOM     89  C   UNL     1       4.343  -2.009  14.297  1.00  0.00    -0.014 A 
ATOM     90  C   UNL     1       3.294  -1.192  14.758  1.00  0.00     0.010 A 
ATOM     91  C   UNL     1       5.142  -1.537  13.235  1.00  0.00     0.010 A 
ATOM     92  C   UNL     1       3.007   0.028  14.147  1.00  0.00     0.020 A 
ATOM     93  C   UNL     1       4.876  -0.293  12.635  1.00  0.00     0.020 A 
ATOM     94  C   UNL     1       3.790   0.466  13.079  1.00  0.00     0.054 A 
BRANCH  94  95
ATOM     95  S   UNL     1       3.325   2.023  12.273  1.00  0.00     0.124 S 
ATOM     96  O   UNL     1       2.079   1.663  11.599  1.00  0.00    -0.237 OA
ATOM     97  O   UNL     1       3.178   2.939  13.402  1.00  0.00    -0.237 OA
ATOM     98  O   UNL     1       4.447   2.313  11.384  1.00  0.00    -0.744 OA
ENDBRANCH  94  95
ENDBRANCH  68  89
ENDBRANCH  42  43
ENDBRANCH  34  37
ENDBRANCH  32  33
ENDBRANCH  31  32
ENDBRANCH   1  31
TORSDOF 17
