REMARK SMILES COc1ccccc1[C@@H]1C[N@@H+](Cc2cn3cc(C)ccc3n2)C[C@H]1C(=O)NCCCCCCNC(=O)c1ccc(-c2c3nc(c(-c4ccc(S(=O)(=O)[O-])cc4)c4ccc([nH]4)c(-c4ccc(S(=O)(=O)[O-])cc4)c4nc(c(-c5ccc(S(=O)(=O)[O-])cc5)c5ccc2[nH]5)C=C4)C=C3)cc1
REMARK SMILES IDX 31 1 30 2 29 3 28 4 27 5 25 6 26 7 24 9 9 10 10 11 11 12
REMARK SMILES IDX 23 13 8 15 3 16 4 17 5 18 7 19 6 20 2 21 1 22 12 23 13 24
REMARK SMILES IDX 14 25 22 26 15 27 21 28 16 29 20 30 17 31 19 32 18 33 32 34
REMARK SMILES IDX 33 35 34 36 35 37 36 39 37 40 38 41 96 42 39 43 95 44 40 45
REMARK SMILES IDX 41 46 42 47 89 48 43 49 94 50 88 51 90 52 44 53 93 54 87 55
REMARK SMILES IDX 86 56 45 58 75 59 56 60 74 61 57 62 60 63 73 64 91 65 58 66
REMARK SMILES IDX 59 67 72 69 92 70 61 71 46 72 47 73 55 74 48 75 54 76 49 77
REMARK SMILES IDX 50 78 51 79 52 80 53 81 76 82 77 83 85 84 78 85 84 86 79 87
REMARK SMILES IDX 80 88 81 89 82 90 83 91 62 92 63 93 71 94 64 95 70 96 65 97
REMARK SMILES IDX 66 98 67 99 68 100 69 101
REMARK H PARENT 27 8 11 14 34 38 90 57 60 68
REMARK Flexibility Score: inf
ROOT
ATOM      1  C   UNL     1       8.765   0.078   4.512  1.00  0.00     0.002 C 
ENDROOT
BRANCH   1   2
ATOM      2  C   UNL     1       7.499   0.930   4.550  1.00  0.00     0.002 C 
BRANCH   2   3
ATOM      3  C   UNL     1       6.627   0.908   3.303  1.00  0.00     0.021 C 
BRANCH   3   4
ATOM      4  C   UNL     1       5.615  -0.230   3.071  1.00  0.00     0.116 C 
BRANCH   4   5
ATOM      5  N   UNL     1       4.226   0.188   3.355  1.00  0.00    -0.356 N 
ATOM      6  C   UNL     1       3.118   0.564   2.651  1.00  0.00     0.229 C 
ATOM      7  O   UNL     1       2.276   1.157   3.352  1.00  0.00    -0.275 OA
ATOM      8  H   UNL     1       4.050   0.198   4.324  1.00  0.00     0.163 HD
BRANCH   6   9
ATOM      9  C   UNL     1       2.717   0.254   1.186  1.00  0.00     0.146 C 
ATOM     10  C   UNL     1       2.474   1.468   0.236  1.00  0.00     0.096 C 
ATOM     11  C   UNL     1       2.919   0.979  -1.153  1.00  0.00     0.272 C 
ATOM     12  N   UNL     1       3.993   0.002  -0.899  1.00  0.00    -0.329 N 
ATOM     13  C   UNL     1       3.597  -0.677   0.349  1.00  0.00     0.276 C 
ATOM     14  H   UNL     1       4.076  -0.677  -1.656  1.00  0.00     0.348 HD
BRANCH  10  15
ATOM     15  C   UNL     1       1.315   2.455   0.241  1.00  0.00     0.004 A 
ATOM     16  C   UNL     1       0.033   2.289  -0.292  1.00  0.00     0.122 A 
ATOM     17  C   UNL     1      -0.839   3.395  -0.393  1.00  0.00     0.047 A 
ATOM     18  C   UNL     1      -0.456   4.678   0.003  1.00  0.00     0.004 A 
ATOM     19  C   UNL     1       1.663   3.781   0.636  1.00  0.00     0.008 A 
ATOM     20  C   UNL     1       0.812   4.875   0.510  1.00  0.00     0.001 A 
BRANCH  16  21
ATOM     21  O   UNL     1      -0.438   1.172  -0.926  1.00  0.00    -0.496 OA
ATOM     22  C   UNL     1      -0.412  -0.015  -0.155  1.00  0.00     0.278 C 
ENDBRANCH  16  21
ENDBRANCH  10  15
BRANCH  12  23
ATOM     23  C   UNL     1       5.374   0.565  -0.941  1.00  0.00     0.321 C 
BRANCH  23  24
ATOM     24  C   UNL     1       5.619   1.828  -0.154  1.00  0.00     0.114 A 
ATOM     25  C   UNL     1       6.230   3.035  -0.467  1.00  0.00     0.122 A 
ATOM     26  N   UNL     1       5.177   1.888   1.135  1.00  0.00    -0.228 NA
ATOM     27  N   UNL     1       6.048   3.858   0.635  1.00  0.00    -0.306 N 
ATOM     28  C   UNL     1       5.277   3.136   1.518  1.00  0.00     0.137 A 
ATOM     29  C   UNL     1       6.538   5.123   0.960  1.00  0.00     0.096 A 
ATOM     30  C   UNL     1       4.794   3.777   2.690  1.00  0.00     0.048 A 
ATOM     31  C   UNL     1       6.243   5.657   2.170  1.00  0.00    -0.034 A 
ATOM     32  C   UNL     1       5.276   4.980   3.022  1.00  0.00     0.009 A 
ATOM     33  C   UNL     1       6.868   6.874   2.763  1.00  0.00     0.046 C 
ENDBRANCH  23  24
ENDBRANCH  12  23
ENDBRANCH   6   9
ENDBRANCH   4   5
ENDBRANCH   3   4
ENDBRANCH   2   3
ENDBRANCH   1   2
BRANCH   1  34
ATOM     34  C   UNL     1       9.694   0.255   3.299  1.00  0.00     0.021 C 
BRANCH  34  35
ATOM     35  C   UNL     1      10.100   1.692   2.982  1.00  0.00     0.116 C 
BRANCH  35  36
ATOM     36  N   UNL     1      10.926   2.286   4.022  1.00  0.00    -0.352 N 
ATOM     37  C   UNL     1      11.757   3.386   3.944  1.00  0.00     0.251 C 
ATOM     38  H   UNL     1      10.886   1.845   4.902  1.00  0.00     0.163 HD
ATOM     39  O   UNL     1      12.616   3.559   4.794  1.00  0.00    -0.269 OA
BRANCH  37  40
ATOM     40  C   UNL     1      11.593   4.363   2.843  1.00  0.00     0.039 A 
ATOM     41  C   UNL     1      12.706   5.046   2.337  1.00  0.00     0.014 A 
ATOM     42  C   UNL     1      10.319   4.659   2.362  1.00  0.00     0.014 A 
ATOM     43  C   UNL     1      12.529   5.998   1.332  1.00  0.00     0.010 A 
ATOM     44  C   UNL     1      10.163   5.532   1.308  1.00  0.00     0.010 A 
ATOM     45  C   UNL     1      11.248   6.240   0.821  1.00  0.00    -0.014 A 
BRANCH  45  46
ATOM     46  C   UNL     1      11.044   7.116  -0.328  1.00  0.00     0.031 A 
ATOM     47  C   UNL     1      11.802   6.704  -1.529  1.00  0.00     0.074 A 
ATOM     48  C   UNL     1      10.133   8.108  -0.410  1.00  0.00     0.049 A 
ATOM     49  N   UNL     1      12.895   7.237  -1.955  1.00  0.00    -0.248 NA
ATOM     50  C   UNL     1      11.413   5.477  -2.238  1.00  0.00     0.031 C 
ATOM     51  C   UNL     1       9.113   8.495   0.561  1.00  0.00     0.029 A 
ATOM     52  N   UNL     1       9.875   8.945  -1.451  1.00  0.00    -0.354 N 
ATOM     53  C   UNL     1      13.206   6.575  -3.132  1.00  0.00     0.074 A 
ATOM     54  C   UNL     1      12.390   5.385  -3.145  1.00  0.00     0.031 C 
ATOM     55  C   UNL     1       8.199   9.307  -0.022  1.00  0.00     0.029 A 
ATOM     56  C   UNL     1       8.690   9.666  -1.341  1.00  0.00     0.049 A 
ATOM     57  H   UNL     1      10.480   9.035  -2.222  1.00  0.00     0.167 HD
ATOM     58  C   UNL     1      13.914   7.197  -4.115  1.00  0.00     0.031 A 
ATOM     59  C   UNL     1       8.166  10.518  -2.258  1.00  0.00     0.031 A 
ATOM     60  C   UNL     1      14.487   8.438  -3.649  1.00  0.00     0.049 A 
ATOM     61  C   UNL     1       9.290  10.972  -3.111  1.00  0.00     0.074 A 
ATOM     62  C   UNL     1      15.347   8.792  -2.627  1.00  0.00     0.029 A 
ATOM     63  N   UNL     1      13.835   9.595  -4.011  1.00  0.00    -0.354 N 
ATOM     64  N   UNL     1      10.262  11.718  -2.668  1.00  0.00    -0.248 NA
ATOM     65  C   UNL     1       9.580  10.229  -4.326  1.00  0.00     0.031 C 
ATOM     66  C   UNL     1      14.822  10.014  -2.111  1.00  0.00     0.029 A 
ATOM     67  C   UNL     1      13.727  10.383  -2.895  1.00  0.00     0.049 A 
ATOM     68  H   UNL     1      13.505   9.817  -4.912  1.00  0.00     0.167 HD
ATOM     69  C   UNL     1      11.403  11.199  -3.260  1.00  0.00     0.074 A 
ATOM     70  C   UNL     1      10.910  10.356  -4.348  1.00  0.00     0.031 C 
ATOM     71  C   UNL     1      12.620  11.284  -2.643  1.00  0.00     0.031 A 
BRANCH  58  72
ATOM     72  C   UNL     1      13.735   6.914  -5.585  1.00  0.00    -0.014 A 
ATOM     73  C   UNL     1      14.550   7.604  -6.506  1.00  0.00     0.010 A 
ATOM     74  C   UNL     1      12.624   6.221  -6.108  1.00  0.00     0.010 A 
ATOM     75  C   UNL     1      14.222   7.664  -7.865  1.00  0.00     0.020 A 
ATOM     76  C   UNL     1      12.313   6.237  -7.468  1.00  0.00     0.020 A 
ATOM     77  C   UNL     1      13.095   6.989  -8.333  1.00  0.00     0.054 A 
BRANCH  77  78
ATOM     78  S   UNL     1      12.624   7.155 -10.070  1.00  0.00     0.124 S 
ATOM     79  O   UNL     1      12.259   8.566 -10.147  1.00  0.00    -0.237 OA
ATOM     80  O   UNL     1      13.854   6.777 -10.760  1.00  0.00    -0.237 OA
ATOM     81  O   UNL     1      11.518   6.210 -10.214  1.00  0.00    -0.744 OA
ENDBRANCH  77  78
ENDBRANCH  58  72
BRANCH  59  82
ATOM     82  C   UNL     1       6.746  10.747  -2.623  1.00  0.00    -0.014 A 
ATOM     83  C   UNL     1       6.381  11.826  -3.452  1.00  0.00     0.010 A 
ATOM     84  C   UNL     1       5.799   9.722  -2.424  1.00  0.00     0.010 A 
ATOM     85  C   UNL     1       5.149  11.835  -4.128  1.00  0.00     0.020 A 
ATOM     86  C   UNL     1       4.567   9.727  -3.092  1.00  0.00     0.020 A 
ATOM     87  C   UNL     1       4.261  10.769  -3.966  1.00  0.00     0.054 A 
BRANCH  87  88
ATOM     88  S   UNL     1       2.771  10.681  -5.006  1.00  0.00     0.124 S 
ATOM     89  O   UNL     1       1.940  11.744  -4.450  1.00  0.00    -0.237 OA
ATOM     90  O   UNL     1       3.303  10.927  -6.344  1.00  0.00    -0.237 OA
ATOM     91  O   UNL     1       2.277   9.323  -4.780  1.00  0.00    -0.744 OA
ENDBRANCH  87  88
ENDBRANCH  59  82
BRANCH  71  92
ATOM     92  C   UNL     1      12.775  12.245  -1.484  1.00  0.00    -0.014 A 
ATOM     93  C   UNL     1      11.995  12.219  -0.310  1.00  0.00     0.010 A 
ATOM     94  C   UNL     1      13.840  13.161  -1.554  1.00  0.00     0.010 A 
ATOM     95  C   UNL     1      12.241  13.124   0.735  1.00  0.00     0.020 A 
ATOM     96  C   UNL     1      14.105  14.048  -0.509  1.00  0.00     0.020 A 
ATOM     97  C   UNL     1      13.291  14.040   0.623  1.00  0.00     0.054 A 
BRANCH  97  98
ATOM     98  S   UNL     1      13.600  15.221   1.966  1.00  0.00     0.124 S 
ATOM     99  O   UNL     1      12.419  16.077   1.913  1.00  0.00    -0.237 OA
ATOM    100  O   UNL     1      13.700  14.357   3.141  1.00  0.00    -0.237 OA
ATOM    101  O   UNL     1      14.852  15.871   1.578  1.00  0.00    -0.744 OA
ENDBRANCH  97  98
ENDBRANCH  71  92
ENDBRANCH  45  46
ENDBRANCH  37  40
ENDBRANCH  35  36
ENDBRANCH  34  35
ENDBRANCH   1  34
TORSDOF 20
