REMARK SMILES Cc1nnc(SCC(=O)Nc2cccc(C(=O)NCCCCCCNC(=O)c3ccc(-c4c5nc(c(-c6ccc(S(=O)(=O)[O-])cc6)c6ccc([nH]6)c(-c6ccc(S(=O)(=O)[O-])cc6)c6nc(c(-c7ccc(S(=O)(=O)[O-])cc7)c7ccc4[nH]7)C=C6)C=C5)cc3)c2)n1-c1ccccc1
REMARK SMILES IDX 20 1 19 2 18 3 16 4 17 5 15 7 11 8 12 9 88 10 13 11 14 12
REMARK SMILES IDX 10 13 8 14 9 15 7 17 6 18 5 19 1 20 2 21 3 22 89 23 4 24
REMARK SMILES IDX 90 25 91 26 95 27 92 28 94 29 93 30 21 31 22 32 23 33 24 34
REMARK SMILES IDX 25 35 26 36 27 38 28 39 29 40 87 41 30 42 86 43 31 44 32 45
REMARK SMILES IDX 33 46 80 47 34 48 85 49 79 50 81 51 35 52 84 53 78 54 77 55
REMARK SMILES IDX 36 57 66 58 47 59 65 60 48 61 51 62 64 63 82 64 49 65 50 66
REMARK SMILES IDX 63 68 83 69 52 70 37 71 38 72 46 73 39 74 45 75 40 76 41 77
REMARK SMILES IDX 42 78 43 79 44 80 67 81 68 82 76 83 69 84 75 85 70 86 71 87
REMARK SMILES IDX 72 88 73 89 74 90 53 91 54 92 62 93 55 94 61 95 56 96 57 97
REMARK SMILES IDX 58 98 59 99 60 100
REMARK H PARENT 18 6 10 16 25 37 81 56 51 67
REMARK Flexibility Score: inf
ROOT
ATOM      1  C   UNL     1      -1.212  -2.037  -5.304  1.00  0.00     0.021 C 
ENDROOT
BRANCH   1   2
ATOM      2  C   UNL     1      -1.552  -0.634  -5.807  1.00  0.00     0.116 C 
BRANCH   2   3
ATOM      3  N   UNL     1      -2.109  -0.539  -7.146  1.00  0.00    -0.352 N 
ATOM      4  C   UNL     1      -3.035   0.335  -7.686  1.00  0.00     0.251 C 
ATOM      5  O   UNL     1      -3.303   0.219  -8.884  1.00  0.00    -0.269 OA
ATOM      6  H   UNL     1      -1.769  -1.213  -7.778  1.00  0.00     0.163 HD
BRANCH   4   7
ATOM      7  C   UNL     1      -3.758   1.390  -6.904  1.00  0.00     0.041 A 
ATOM      8  C   UNL     1      -4.012   2.902  -5.022  1.00  0.00     0.041 A 
ATOM      9  C   UNL     1      -5.314   3.201  -5.428  1.00  0.00     0.026 A 
ATOM     10  C   UNL     1      -3.235   2.024  -5.775  1.00  0.00     0.040 A 
ATOM     11  C   UNL     1      -5.807   2.683  -6.620  1.00  0.00     0.003 A 
ATOM     12  C   UNL     1      -5.034   1.778  -7.351  1.00  0.00     0.014 A 
BRANCH   8  13
ATOM     13  N   UNL     1      -3.597   3.467  -3.818  1.00  0.00    -0.325 N 
ATOM     14  C   UNL     1      -2.392   3.889  -3.358  1.00  0.00     0.234 C 
ATOM     15  O   UNL     1      -2.417   4.395  -2.231  1.00  0.00    -0.274 OA
ATOM     16  H   UNL     1      -4.326   3.584  -3.167  1.00  0.00     0.169 HD
BRANCH  14  17
ATOM     17  C   UNL     1      -1.163   4.014  -4.226  1.00  0.00     0.178 C 
BRANCH  17  18
ATOM     18  S   UNL     1       0.018   2.674  -4.370  1.00  0.00    -0.076 SA
BRANCH  18  19
ATOM     19  C   UNL     1      -0.195   1.575  -3.056  1.00  0.00     0.196 A 
ATOM     20  C   UNL     1       0.763   0.164   0.126  1.00  0.00     0.090 C 
ATOM     21  C   UNL     1       0.302   0.481  -1.233  1.00  0.00     0.135 A 
ATOM     22  N   UNL     1      -0.251  -0.366  -2.077  1.00  0.00    -0.134 NA
ATOM     23  N   UNL     1       0.355   1.726  -1.806  1.00  0.00    -0.274 N 
ATOM     24  N   UNL     1      -0.569   0.327  -3.215  1.00  0.00    -0.123 NA
BRANCH  23  25
ATOM     25  C   UNL     1       0.774   2.920  -1.217  1.00  0.00     0.049 A 
ATOM     26  C   UNL     1      -0.211   3.738  -0.674  1.00  0.00     0.027 A 
ATOM     27  C   UNL     1       2.077   3.367  -1.419  1.00  0.00     0.027 A 
ATOM     28  C   UNL     1       0.071   5.080  -0.459  1.00  0.00     0.002 A 
ATOM     29  C   UNL     1       2.363   4.702  -1.150  1.00  0.00     0.002 A 
ATOM     30  C   UNL     1       1.353   5.565  -0.713  1.00  0.00     0.000 A 
ENDBRANCH  23  25
ENDBRANCH  18  19
ENDBRANCH  17  18
ENDBRANCH  14  17
ENDBRANCH   8  13
ENDBRANCH   4   7
ENDBRANCH   2   3
ENDBRANCH   1   2
BRANCH   1  31
ATOM     31  C   UNL     1       0.072  -2.738  -5.770  1.00  0.00     0.002 C 
BRANCH  31  32
ATOM     32  C   UNL     1       1.362  -1.954  -6.061  1.00  0.00     0.002 C 
BRANCH  32  33
ATOM     33  C   UNL     1       2.122  -1.226  -4.941  1.00  0.00     0.021 C 
BRANCH  33  34
ATOM     34  C   UNL     1       2.412  -2.016  -3.674  1.00  0.00     0.116 C 
BRANCH  34  35
ATOM     35  N   UNL     1       3.338  -3.143  -3.849  1.00  0.00    -0.352 N 
ATOM     36  C   UNL     1       3.805  -4.050  -2.901  1.00  0.00     0.251 C 
ATOM     37  H   UNL     1       3.676  -3.276  -4.764  1.00  0.00     0.163 HD
ATOM     38  O   UNL     1       4.837  -4.677  -3.106  1.00  0.00    -0.269 OA
BRANCH  36  39
ATOM     39  C   UNL     1       3.046  -4.259  -1.646  1.00  0.00     0.039 A 
ATOM     40  C   UNL     1       3.638  -4.691  -0.451  1.00  0.00     0.014 A 
ATOM     41  C   UNL     1       1.678  -4.048  -1.686  1.00  0.00     0.014 A 
ATOM     42  C   UNL     1       2.833  -4.868   0.681  1.00  0.00     0.010 A 
ATOM     43  C   UNL     1       0.953  -3.959  -0.536  1.00  0.00     0.010 A 
ATOM     44  C   UNL     1       1.480  -4.510   0.619  1.00  0.00    -0.014 A 
BRANCH  44  45
ATOM     45  C   UNL     1       0.551  -4.652   1.736  1.00  0.00     0.031 A 
ATOM     46  C   UNL     1       0.893  -3.823   2.921  1.00  0.00     0.074 A 
ATOM     47  C   UNL     1      -0.677  -5.198   1.562  1.00  0.00     0.049 A 
ATOM     48  N   UNL     1       1.385  -4.177   4.059  1.00  0.00    -0.248 NA
ATOM     49  C   UNL     1       0.853  -2.367   2.741  1.00  0.00     0.031 C 
ATOM     50  C   UNL     1      -1.287  -5.717   0.324  1.00  0.00     0.029 A 
ATOM     51  N   UNL     1      -1.712  -5.273   2.438  1.00  0.00    -0.354 N 
ATOM     52  C   UNL     1       1.454  -3.005   4.815  1.00  0.00     0.074 A 
ATOM     53  C   UNL     1       1.391  -1.922   3.874  1.00  0.00     0.031 C 
ATOM     54  C   UNL     1      -2.627  -5.816   0.478  1.00  0.00     0.029 A 
ATOM     55  C   UNL     1      -2.954  -5.538   1.863  1.00  0.00     0.049 A 
ATOM     56  H   UNL     1      -1.593  -5.150   3.407  1.00  0.00     0.167 HD
ATOM     57  C   UNL     1       1.223  -3.000   6.158  1.00  0.00     0.031 A 
ATOM     58  C   UNL     1      -4.163  -5.495   2.483  1.00  0.00     0.031 A 
ATOM     59  C   UNL     1       1.167  -4.346   6.673  1.00  0.00     0.049 A 
ATOM     60  C   UNL     1      -3.888  -5.553   3.942  1.00  0.00     0.074 A 
ATOM     61  C   UNL     1       2.031  -5.422   6.661  1.00  0.00     0.029 A 
ATOM     62  N   UNL     1      -0.089  -4.861   6.905  1.00  0.00    -0.354 N 
ATOM     63  N   UNL     1      -3.351  -6.586   4.531  1.00  0.00    -0.248 NA
ATOM     64  C   UNL     1      -3.757  -4.293   4.656  1.00  0.00     0.031 C 
ATOM     65  C   UNL     1       1.199  -6.547   6.389  1.00  0.00     0.029 A 
ATOM     66  C   UNL     1      -0.131  -6.116   6.357  1.00  0.00     0.049 A 
ATOM     67  H   UNL     1      -0.824  -4.410   7.380  1.00  0.00     0.167 HD
ATOM     68  C   UNL     1      -2.453  -6.049   5.443  1.00  0.00     0.074 A 
ATOM     69  C   UNL     1      -2.815  -4.634   5.541  1.00  0.00     0.031 C 
ATOM     70  C   UNL     1      -1.324  -6.727   5.809  1.00  0.00     0.031 A 
BRANCH  57  71
ATOM     71  C   UNL     1       0.610  -1.845   6.922  1.00  0.00    -0.014 A 
ATOM     72  C   UNL     1       0.435  -1.992   8.314  1.00  0.00     0.010 A 
ATOM     73  C   UNL     1      -0.045  -0.754   6.314  1.00  0.00     0.010 A 
ATOM     74  C   UNL     1      -0.430  -1.161   9.034  1.00  0.00     0.020 A 
ATOM     75  C   UNL     1      -0.874   0.112   7.032  1.00  0.00     0.020 A 
ATOM     76  C   UNL     1      -1.095  -0.125   8.381  1.00  0.00     0.054 A 
BRANCH  76  77
ATOM     77  S   UNL     1      -2.303   0.863   9.294  1.00  0.00     0.124 S 
ATOM     78  O   UNL     1      -3.349  -0.119   9.560  1.00  0.00    -0.237 OA
ATOM     79  O   UNL     1      -1.531   1.301  10.453  1.00  0.00    -0.237 OA
ATOM     80  O   UNL     1      -2.659   1.921   8.351  1.00  0.00    -0.744 OA
ENDBRANCH  76  77
ENDBRANCH  57  71
BRANCH  58  81
ATOM     81  C   UNL     1      -5.495  -5.119   1.936  1.00  0.00    -0.014 A 
ATOM     82  C   UNL     1      -6.677  -5.375   2.659  1.00  0.00     0.010 A 
ATOM     83  C   UNL     1      -5.587  -4.243   0.834  1.00  0.00     0.010 A 
ATOM     84  C   UNL     1      -7.885  -4.725   2.339  1.00  0.00     0.020 A 
ATOM     85  C   UNL     1      -6.788  -3.596   0.506  1.00  0.00     0.020 A 
ATOM     86  C   UNL     1      -7.926  -3.818   1.278  1.00  0.00     0.054 A 
BRANCH  86  87
ATOM     87  S   UNL     1      -9.430  -2.831   0.995  1.00  0.00     0.124 S 
ATOM     88  O   UNL     1     -10.365  -3.826   0.477  1.00  0.00    -0.237 OA
ATOM     89  O   UNL     1      -9.730  -2.316   2.328  1.00  0.00    -0.237 OA
ATOM     90  O   UNL     1      -9.003  -1.821   0.028  1.00  0.00    -0.744 OA
ENDBRANCH  86  87
ENDBRANCH  58  81
BRANCH  70  91
ATOM     91  C   UNL     1      -1.196  -8.187   5.437  1.00  0.00    -0.014 A 
ATOM     92  C   UNL     1      -1.146  -8.668   4.113  1.00  0.00     0.010 A 
ATOM     93  C   UNL     1      -0.923  -9.083   6.485  1.00  0.00     0.010 A 
ATOM     94  C   UNL     1      -0.842 -10.015   3.853  1.00  0.00     0.020 A 
ATOM     95  C   UNL     1      -0.601 -10.416   6.233  1.00  0.00     0.020 A 
ATOM     96  C   UNL     1      -0.569 -10.880   4.918  1.00  0.00     0.054 A 
BRANCH  96  97
ATOM     97  S   UNL     1      -0.122 -12.607   4.585  1.00  0.00     0.124 S 
ATOM     98  O   UNL     1      -1.375 -13.170   4.091  1.00  0.00    -0.237 OA
ATOM     99  O   UNL     1       0.947 -12.483   3.597  1.00  0.00    -0.237 OA
ATOM    100  O   UNL     1       0.310 -13.113   5.888  1.00  0.00    -0.744 OA
ENDBRANCH  96  97
ENDBRANCH  70  91
ENDBRANCH  44  45
ENDBRANCH  36  39
ENDBRANCH  34  35
ENDBRANCH  33  34
ENDBRANCH  32  33
ENDBRANCH  31  32
ENDBRANCH   1  31
TORSDOF 21
