REMARK SMILES O=C(NCCCCCCNC(=O)C1([NH+]2CCOCC2)CCC1)c1ccc(-c2c3nc(c(-c4ccc(S(=O)(=O)[O-])cc4)c4ccc([nH]4)c(-c4ccc(S(=O)(=O)[O-])cc4)c4nc(c(-c5ccc(S(=O)(=O)[O-])cc5)c5ccc2[nH]5)C=C4)C=C3)cc1
REMARK SMILES IDX 5 1 4 2 3 3 1 4 2 5 23 7 24 8 82 9 25 10 81 11 26 12 27 13
REMARK SMILES IDX 28 14 75 15 29 16 80 17 74 18 76 19 30 20 79 21 73 22 72 23
REMARK SMILES IDX 31 25 61 26 42 27 60 28 43 29 46 30 59 31 77 32 44 33 45 34
REMARK SMILES IDX 58 36 78 37 47 38 32 39 33 40 41 41 34 42 40 43 35 44 36 45
REMARK SMILES IDX 37 46 38 47 39 48 62 49 63 50 71 51 64 52 70 53 65 54 66 55
REMARK SMILES IDX 67 56 68 57 69 58 48 59 49 60 57 61 50 62 56 63 51 64 52 65
REMARK SMILES IDX 53 66 54 67 55 68 6 69 7 70 8 71 9 72 10 73 11 74 12 76
REMARK SMILES IDX 13 77 20 78 22 79 21 80 14 81 15 82 19 83 16 85 18 86 17 87
REMARK H PARENT 3 6 76 24 46 35 10 75 14 84
REMARK Flexibility Score: inf
ROOT
ATOM      1  C   UNL     1       4.533  -0.399  -2.728  1.00  0.00     0.021 C 
ENDROOT
BRANCH   1   2
ATOM      2  C   UNL     1       4.308   0.096  -1.307  1.00  0.00     0.116 C 
BRANCH   2   3
ATOM      3  N   UNL     1       2.907   0.250  -0.961  1.00  0.00    -0.352 N 
ATOM      4  O   UNL     1       1.048  -0.019   0.293  1.00  0.00    -0.269 OA
ATOM      5  C   UNL     1       2.266  -0.133   0.195  1.00  0.00     0.251 C 
ATOM      6  H   UNL     1       2.342   0.684  -1.641  1.00  0.00     0.163 HD
BRANCH   5   7
ATOM      7  C   UNL     1       3.054  -0.719   1.303  1.00  0.00     0.039 A 
ATOM      8  C   UNL     1       4.247  -0.124   1.720  1.00  0.00     0.014 A 
ATOM      9  C   UNL     1       2.603  -1.892   1.916  1.00  0.00     0.014 A 
ATOM     10  C   UNL     1       5.056  -0.776   2.643  1.00  0.00     0.010 A 
ATOM     11  C   UNL     1       3.379  -2.500   2.909  1.00  0.00     0.010 A 
ATOM     12  C   UNL     1       4.626  -1.963   3.261  1.00  0.00    -0.014 A 
BRANCH  12  13
ATOM     13  C   UNL     1       5.473  -2.568   4.321  1.00  0.00     0.031 A 
ATOM     14  C   UNL     1       6.117  -3.916   4.144  1.00  0.00     0.074 A 
ATOM     15  C   UNL     1       5.702  -1.850   5.438  1.00  0.00     0.049 A 
ATOM     16  N   UNL     1       6.937  -4.543   4.950  1.00  0.00    -0.248 NA
ATOM     17  C   UNL     1       5.802  -4.659   2.914  1.00  0.00     0.031 C 
ATOM     18  C   UNL     1       5.114  -0.538   5.731  1.00  0.00     0.029 A 
ATOM     19  N   UNL     1       6.509  -2.098   6.518  1.00  0.00    -0.354 N 
ATOM     20  C   UNL     1       7.228  -5.755   4.334  1.00  0.00     0.074 A 
ATOM     21  C   UNL     1       6.476  -5.787   3.097  1.00  0.00     0.031 C 
ATOM     22  C   UNL     1       5.625  -0.073   6.880  1.00  0.00     0.029 A 
ATOM     23  C   UNL     1       6.529  -1.074   7.434  1.00  0.00     0.049 A 
ATOM     24  H   UNL     1       7.024  -2.930   6.627  1.00  0.00     0.167 HD
ATOM     25  C   UNL     1       8.050  -6.746   4.758  1.00  0.00     0.031 A 
ATOM     26  C   UNL     1       7.192  -0.950   8.598  1.00  0.00     0.031 A 
ATOM     27  C   UNL     1       8.791  -6.713   5.994  1.00  0.00     0.049 A 
ATOM     28  C   UNL     1       8.098  -2.060   9.040  1.00  0.00     0.074 A 
ATOM     29  C   UNL     1       9.648  -7.670   6.512  1.00  0.00     0.029 A 
ATOM     30  N   UNL     1       8.767  -5.667   6.904  1.00  0.00    -0.354 N 
ATOM     31  N   UNL     1       8.366  -3.192   8.434  1.00  0.00    -0.248 NA
ATOM     32  C   UNL     1       8.794  -1.875  10.320  1.00  0.00     0.031 C 
ATOM     33  C   UNL     1      10.116  -7.216   7.751  1.00  0.00     0.029 A 
ATOM     34  C   UNL     1       9.587  -5.957   7.983  1.00  0.00     0.049 A 
ATOM     35  H   UNL     1       8.245  -4.839   6.800  1.00  0.00     0.167 HD
ATOM     36  C   UNL     1       9.262  -3.857   9.261  1.00  0.00     0.074 A 
ATOM     37  C   UNL     1       9.518  -2.984  10.390  1.00  0.00     0.031 C 
ATOM     38  C   UNL     1       9.816  -5.084   9.105  1.00  0.00     0.031 A 
BRANCH  25  39
ATOM     39  C   UNL     1       8.187  -7.964   3.882  1.00  0.00    -0.014 A 
ATOM     40  C   UNL     1       8.929  -7.914   2.688  1.00  0.00     0.010 A 
ATOM     41  C   UNL     1       7.619  -9.187   4.283  1.00  0.00     0.010 A 
ATOM     42  C   UNL     1       9.075  -9.058   1.897  1.00  0.00     0.020 A 
ATOM     43  C   UNL     1       7.781 -10.338   3.506  1.00  0.00     0.020 A 
ATOM     44  C   UNL     1       8.497 -10.262   2.309  1.00  0.00     0.054 A 
BRANCH  44  45
ATOM     45  S   UNL     1       8.726 -11.737   1.277  1.00  0.00     0.124 S 
ATOM     46  O   UNL     1       7.819 -11.468   0.164  1.00  0.00    -0.237 OA
ATOM     47  O   UNL     1      10.150 -11.685   0.953  1.00  0.00    -0.237 OA
ATOM     48  O   UNL     1       8.330 -12.838   2.152  1.00  0.00    -0.744 OA
ENDBRANCH  44  45
ENDBRANCH  25  39
BRANCH  26  49
ATOM     49  C   UNL     1       7.001   0.269   9.427  1.00  0.00    -0.014 A 
ATOM     50  C   UNL     1       8.028   1.219   9.560  1.00  0.00     0.010 A 
ATOM     51  C   UNL     1       5.768   0.497  10.066  1.00  0.00     0.010 A 
ATOM     52  C   UNL     1       7.830   2.368  10.332  1.00  0.00     0.020 A 
ATOM     53  C   UNL     1       5.557   1.657  10.813  1.00  0.00     0.020 A 
ATOM     54  C   UNL     1       6.595   2.579  10.953  1.00  0.00     0.054 A 
BRANCH  54  55
ATOM     55  S   UNL     1       6.335   4.103  11.903  1.00  0.00     0.124 S 
ATOM     56  O   UNL     1       6.997   3.788  13.164  1.00  0.00    -0.237 OA
ATOM     57  O   UNL     1       6.993   5.112  11.076  1.00  0.00    -0.237 OA
ATOM     58  O   UNL     1       4.879   4.216  11.967  1.00  0.00    -0.744 OA
ENDBRANCH  54  55
ENDBRANCH  26  49
BRANCH  38  59
ATOM     59  C   UNL     1      10.759  -5.542  10.183  1.00  0.00    -0.014 A 
ATOM     60  C   UNL     1      10.277  -5.936  11.444  1.00  0.00     0.010 A 
ATOM     61  C   UNL     1      12.141  -5.584   9.929  1.00  0.00     0.010 A 
ATOM     62  C   UNL     1      11.167  -6.322  12.449  1.00  0.00     0.020 A 
ATOM     63  C   UNL     1      13.032  -5.993  10.925  1.00  0.00     0.020 A 
ATOM     64  C   UNL     1      12.540  -6.340  12.185  1.00  0.00     0.054 A 
BRANCH  64  65
ATOM     65  S   UNL     1      13.678  -6.854  13.500  1.00  0.00     0.124 S 
ATOM     66  O   UNL     1      13.735  -5.658  14.336  1.00  0.00    -0.237 OA
ATOM     67  O   UNL     1      12.993  -8.002  14.091  1.00  0.00    -0.237 OA
ATOM     68  O   UNL     1      14.910  -7.174  12.783  1.00  0.00    -0.744 OA
ENDBRANCH  64  65
ENDBRANCH  38  59
ENDBRANCH  12  13
ENDBRANCH   5   7
ENDBRANCH   2   3
ENDBRANCH   1   2
BRANCH   1  69
ATOM     69  C   UNL     1       4.044   0.526  -3.840  1.00  0.00     0.002 C 
BRANCH  69  70
ATOM     70  C   UNL     1       4.492   1.987  -3.754  1.00  0.00     0.002 C 
BRANCH  70  71
ATOM     71  C   UNL     1       5.993   2.234  -3.570  1.00  0.00     0.021 C 
BRANCH  71  72
ATOM     72  C   UNL     1       6.917   1.525  -4.555  1.00  0.00     0.116 C 
BRANCH  72  73
ATOM     73  N   UNL     1       6.659   1.906  -5.925  1.00  0.00    -0.351 N 
ATOM     74  C   UNL     1       7.505   2.162  -6.980  1.00  0.00     0.281 C 
ATOM     75  H   UNL     1       5.704   1.998  -6.143  1.00  0.00     0.163 HD
ATOM     76  O   UNL     1       6.912   2.548  -8.000  1.00  0.00    -0.268 OA
BRANCH  74  77
ATOM     77  C   UNL     1       9.117   1.975  -6.851  1.00  0.00     0.177 C 
ATOM     78  C   UNL     1       9.767   3.034  -5.906  1.00  0.00     0.079 C 
ATOM     79  C   UNL     1       9.731   0.859  -5.967  1.00  0.00     0.079 C 
ATOM     80  C   UNL     1      10.536   1.914  -5.186  1.00  0.00     0.014 C 
BRANCH  77  81
ATOM     81  N   UNL     1       9.780   2.006  -8.198  1.00  0.00    -0.318 N 
ATOM     82  C   UNL     1       9.255   1.005  -9.149  1.00  0.00     0.291 C 
ATOM     83  C   UNL     1      11.237   2.134  -8.339  1.00  0.00     0.291 C 
ATOM     84  H   UNL     1       9.479   2.950  -8.440  1.00  0.00     0.349 HD
ATOM     85  C   UNL     1      10.079  -0.287  -9.247  1.00  0.00     0.221 C 
ATOM     86  C   UNL     1      12.020   0.820  -8.511  1.00  0.00     0.221 C 
ATOM     87  O   UNL     1      11.453  -0.010  -9.529  1.00  0.00    -0.370 OA
ENDBRANCH  77  81
ENDBRANCH  74  77
ENDBRANCH  72  73
ENDBRANCH  71  72
ENDBRANCH  70  71
ENDBRANCH  69  70
ENDBRANCH   1  69
TORSDOF 17
