REMARK SMILES COc1cc(OC)cc(-c2cc3nc(C)c(CCC(=O)NCCCCCCNC(=O)c4ccc(-c5c6nc(c(-c7ccc(S(=O)(=O)[O-])cc7)c7ccc([nH]7)c(-c7ccc(S(=O)(=O)[O-])cc7)c7nc(c(-c8ccc(S(=O)(=O)[O-])cc8)c8ccc5[nH]8)C=C7)C=C6)cc4)c(C)n3n2)c1
REMARK SMILES IDX 24 1 23 2 22 3 21 4 19 5 20 6 18 8 17 9 16 10 10 11 11 12
REMARK SMILES IDX 94 13 12 14 93 15 13 16 91 17 14 18 92 19 15 20 9 21 3 22
REMARK SMILES IDX 4 23 95 24 5 25 8 26 2 27 1 28 6 29 7 30 25 31 26 32 27 33
REMARK SMILES IDX 28 34 29 35 30 37 31 38 32 39 90 40 33 41 89 42 34 43 35 44
REMARK SMILES IDX 36 45 83 46 37 47 88 48 82 49 84 50 38 51 87 52 81 53 80 54
REMARK SMILES IDX 39 56 69 57 50 58 68 59 51 60 54 61 67 62 85 63 52 64 53 65
REMARK SMILES IDX 66 67 86 68 55 69 40 70 41 71 49 72 42 73 48 74 43 75 44 76
REMARK SMILES IDX 45 77 46 78 47 79 70 80 71 81 79 82 72 83 78 84 73 85 74 86
REMARK SMILES IDX 75 87 76 88 77 89 56 90 57 91 65 92 58 93 64 94 59 95 60 96
REMARK SMILES IDX 61 97 62 98 63 99
REMARK H PARENT 21 7 28 36 84 55 54 66
REMARK Flexibility Score: inf
ROOT
ATOM      1  C   UNL     1       5.847   0.623  -1.672  1.00  0.00     0.002 C 
ENDROOT
BRANCH   1   2
ATOM      2  C   UNL     1       6.977   1.631  -1.484  1.00  0.00     0.021 C 
BRANCH   2   3
ATOM      3  C   UNL     1       8.192   1.189  -0.683  1.00  0.00     0.116 C 
BRANCH   3   4
ATOM      4  N   UNL     1       9.167   0.556  -1.566  1.00  0.00    -0.356 N 
ATOM      5  C   UNL     1      10.211   1.092  -2.266  1.00  0.00     0.220 C 
ATOM      6  O   UNL     1      10.719   0.406  -3.156  1.00  0.00    -0.275 OA
ATOM      7  H   UNL     1       9.053  -0.416  -1.675  1.00  0.00     0.163 HD
BRANCH   5   8
ATOM      8  C   UNL     1      10.780   2.463  -1.926  1.00  0.00     0.105 C 
BRANCH   8   9
ATOM      9  C   UNL     1      10.788   3.437  -3.120  1.00  0.00     0.049 C 
BRANCH   9  10
ATOM     10  C   UNL     1       9.399   3.911  -3.423  1.00  0.00    -0.005 A 
ATOM     11  C   UNL     1       5.090   2.920  -3.742  1.00  0.00     0.095 A 
ATOM     12  C   UNL     1       5.453   4.173  -3.072  1.00  0.00     0.080 A 
ATOM     13  N   UNL     1       6.118   2.615  -4.560  1.00  0.00    -0.166 NA
ATOM     14  C   UNL     1       6.755   4.421  -3.255  1.00  0.00     0.156 A 
ATOM     15  N   UNL     1       7.174   3.471  -4.156  1.00  0.00    -0.219 N 
ATOM     16  N   UNL     1       7.530   5.280  -2.559  1.00  0.00    -0.234 NA
ATOM     17  C   UNL     1       8.560   3.302  -4.312  1.00  0.00     0.046 A 
ATOM     18  C   UNL     1       8.796   5.014  -2.569  1.00  0.00     0.045 A 
ATOM     19  C   UNL     1       8.942   2.300  -5.349  1.00  0.00     0.067 C 
ATOM     20  C   UNL     1       9.622   5.891  -1.644  1.00  0.00     0.067 C 
BRANCH  11  21
ATOM     21  C   UNL     1       3.578   2.393  -3.777  1.00  0.00     0.009 A 
ATOM     22  C   UNL     1       1.426   1.723  -1.492  1.00  0.00     0.123 A 
ATOM     23  C   UNL     1       0.943   3.497  -1.485  1.00  0.00     0.092 A 
ATOM     24  C   UNL     1       2.744   1.223  -2.672  1.00  0.00     0.057 A 
ATOM     25  C   UNL     1       1.781   4.571  -2.815  1.00  0.00     0.123 A 
ATOM     26  C   UNL     1       2.991   3.945  -3.882  1.00  0.00     0.057 A 
BRANCH  22  27
ATOM     27  O   UNL     1       0.560   0.808  -0.962  1.00  0.00    -0.497 OA
ATOM     28  C   UNL     1       1.106   0.119   0.150  1.00  0.00     0.278 C 
ENDBRANCH  22  27
BRANCH  25  29
ATOM     29  O   UNL     1       1.163   5.215  -3.985  1.00  0.00    -0.497 OA
ATOM     30  C   UNL     1       1.043   4.585  -5.327  1.00  0.00     0.278 C 
ENDBRANCH  25  29
ENDBRANCH  11  21
ENDBRANCH   9  10
ENDBRANCH   8   9
ENDBRANCH   5   8
ENDBRANCH   3   4
ENDBRANCH   2   3
ENDBRANCH   1   2
BRANCH   1  31
ATOM     31  C   UNL     1       4.649   0.813  -0.736  1.00  0.00     0.002 C 
BRANCH  31  32
ATOM     32  C   UNL     1       3.837   2.147  -0.638  1.00  0.00     0.021 C 
BRANCH  32  33
ATOM     33  C   UNL     1       2.896   3.112  -1.795  1.00  0.00     0.116 C 
BRANCH  33  34
ATOM     34  N   UNL     1       1.366   2.711  -3.184  1.00  0.00    -0.352 N 
ATOM     35  C   UNL     1      -0.279   3.276  -3.366  1.00  0.00     0.251 C 
ATOM     36  H   UNL     1       1.634   2.069  -3.880  1.00  0.00     0.163 HD
ATOM     37  O   UNL     1      -1.009   2.519  -4.022  1.00  0.00    -0.269 OA
BRANCH  35  38
ATOM     38  C   UNL     1      -0.974   4.894  -2.941  1.00  0.00     0.039 A 
ATOM     39  C   UNL     1      -1.519   5.584  -4.048  1.00  0.00     0.014 A 
ATOM     40  C   UNL     1      -0.460   5.841  -2.003  1.00  0.00     0.014 A 
ATOM     41  C   UNL     1      -0.937   6.832  -4.508  1.00  0.00     0.010 A 
ATOM     42  C   UNL     1       0.180   7.037  -2.463  1.00  0.00     0.010 A 
ATOM     43  C   UNL     1       0.149   7.396  -3.831  1.00  0.00    -0.014 A 
BRANCH  43  44
ATOM     44  C   UNL     1       1.286   8.238  -4.441  1.00  0.00     0.031 A 
ATOM     45  C   UNL     1       1.452   9.426  -3.600  1.00  0.00     0.074 A 
ATOM     46  C   UNL     1       2.242   8.211  -5.438  1.00  0.00     0.049 A 
ATOM     47  N   UNL     1       0.585  10.375  -3.625  1.00  0.00    -0.248 NA
ATOM     48  C   UNL     1       2.429   9.494  -2.508  1.00  0.00     0.031 C 
ATOM     49  C   UNL     1       2.676   7.192  -6.401  1.00  0.00     0.029 A 
ATOM     50  N   UNL     1       3.110   9.245  -5.804  1.00  0.00    -0.354 N 
ATOM     51  C   UNL     1       1.032  11.291  -2.715  1.00  0.00     0.074 A 
ATOM     52  C   UNL     1       1.973  10.582  -1.876  1.00  0.00     0.031 C 
ATOM     53  C   UNL     1       3.817   7.545  -7.054  1.00  0.00     0.029 A 
ATOM     54  C   UNL     1       4.087   8.938  -6.766  1.00  0.00     0.049 A 
ATOM     55  H   UNL     1       3.041  10.143  -5.406  1.00  0.00     0.167 HD
ATOM     56  C   UNL     1       0.787  12.610  -2.918  1.00  0.00     0.031 A 
ATOM     57  C   UNL     1       4.899   9.775  -7.479  1.00  0.00     0.031 A 
ATOM     58  C   UNL     1      -0.040  12.830  -4.094  1.00  0.00     0.049 A 
ATOM     59  C   UNL     1       4.186  11.068  -7.553  1.00  0.00     0.074 A 
ATOM     60  C   UNL     1      -1.278  12.377  -4.518  1.00  0.00     0.029 A 
ATOM     61  N   UNL     1       0.611  13.243  -5.239  1.00  0.00    -0.354 N 
ATOM     62  N   UNL     1       3.077  11.243  -8.214  1.00  0.00    -0.248 NA
ATOM     63  C   UNL     1       4.499  12.083  -6.567  1.00  0.00     0.031 C 
ATOM     64  C   UNL     1      -1.134  12.120  -5.917  1.00  0.00     0.029 A 
ATOM     65  C   UNL     1       0.159  12.484  -6.294  1.00  0.00     0.049 A 
ATOM     66  H   UNL     1       1.284  13.959  -5.292  1.00  0.00     0.167 HD
ATOM     67  C   UNL     1       2.339  12.109  -7.424  1.00  0.00     0.074 A 
ATOM     68  C   UNL     1       3.306  12.675  -6.486  1.00  0.00     0.031 C 
ATOM     69  C   UNL     1       0.974  12.082  -7.429  1.00  0.00     0.031 A 
BRANCH  56  70
ATOM     70  C   UNL     1       1.615  13.687  -2.296  1.00  0.00    -0.014 A 
ATOM     71  C   UNL     1       1.178  15.016  -2.415  1.00  0.00     0.010 A 
ATOM     72  C   UNL     1       2.905  13.468  -1.772  1.00  0.00     0.010 A 
ATOM     73  C   UNL     1       2.016  16.077  -2.064  1.00  0.00     0.020 A 
ATOM     74  C   UNL     1       3.726  14.513  -1.369  1.00  0.00     0.020 A 
ATOM     75  C   UNL     1       3.287  15.815  -1.549  1.00  0.00     0.054 A 
BRANCH  75  76
ATOM     76  S   UNL     1       4.395  17.190  -1.183  1.00  0.00     0.124 S 
ATOM     77  O   UNL     1       4.661  17.718  -2.517  1.00  0.00    -0.237 OA
ATOM     78  O   UNL     1       3.568  18.028  -0.319  1.00  0.00    -0.237 OA
ATOM     79  O   UNL     1       5.529  16.549  -0.522  1.00  0.00    -0.744 OA
ENDBRANCH  75  76
ENDBRANCH  56  70
BRANCH  57  80
ATOM     80  C   UNL     1       6.294   9.641  -8.009  1.00  0.00    -0.014 A 
ATOM     81  C   UNL     1       6.839  10.572  -8.928  1.00  0.00     0.010 A 
ATOM     82  C   UNL     1       7.204   8.797  -7.346  1.00  0.00     0.010 A 
ATOM     83  C   UNL     1       8.233  10.718  -9.099  1.00  0.00     0.020 A 
ATOM     84  C   UNL     1       8.596   8.936  -7.512  1.00  0.00     0.020 A 
ATOM     85  C   UNL     1       9.107   9.917  -8.362  1.00  0.00     0.054 A 
BRANCH  85  86
ATOM     86  S   UNL     1      10.899  10.259  -8.399  1.00  0.00     0.124 S 
ATOM     87  O   UNL     1      11.283   9.797  -9.730  1.00  0.00    -0.237 OA
ATOM     88  O   UNL     1      10.956  11.704  -8.194  1.00  0.00    -0.237 OA
ATOM     89  O   UNL     1      11.425   9.462  -7.291  1.00  0.00    -0.744 OA
ENDBRANCH  85  86
ENDBRANCH  57  80
BRANCH  69  90
ATOM     90  C   UNL     1       0.265  11.387  -8.578  1.00  0.00    -0.014 A 
ATOM     91  C   UNL     1       0.436  10.031  -8.924  1.00  0.00     0.010 A 
ATOM     92  C   UNL     1      -0.716  12.124  -9.268  1.00  0.00     0.010 A 
ATOM     93  C   UNL     1      -0.341   9.439  -9.936  1.00  0.00     0.020 A 
ATOM     94  C   UNL     1      -1.505  11.538 -10.263  1.00  0.00     0.020 A 
ATOM     95  C   UNL     1      -1.312  10.198 -10.597  1.00  0.00     0.054 A 
BRANCH  95  96
ATOM     96  S   UNL     1      -2.363   9.415 -11.855  1.00  0.00     0.124 S 
ATOM     97  O   UNL     1      -1.424   9.165 -12.945  1.00  0.00    -0.237 OA
ATOM     98  O   UNL     1      -2.861   8.225 -11.168  1.00  0.00    -0.237 OA
ATOM     99  O   UNL     1      -3.381  10.426 -12.138  1.00  0.00    -0.744 OA
ENDBRANCH  95  96
ENDBRANCH  69  90
ENDBRANCH  43  44
ENDBRANCH  35  38
ENDBRANCH  33  34
ENDBRANCH  32  33
ENDBRANCH  31  32
ENDBRANCH   1  31
TORSDOF 21
