REMARK SMILES COc1ccc2c(c1)c(Cc1nc(-c3ccc(C(=O)NCCCCCCNC(=O)c4ccc(-c5c6nc(c(-c7ccc(S(=O)(=O)[O-])cc7)c7ccc([nH]7)c(-c7ccc(S(=O)(=O)[O-])cc7)c7nc(c(-c8ccc(S(=O)(=O)[O-])cc8)c8ccc5[nH]8)C=C7)C=C6)cc4)cc3)cs1)c(C)n2C(=O)c1ccc(Cl)cc1
REMARK SMILES IDX 22 1 21 2 20 3 18 4 19 5 17 7 14 8 15 9 91 10 16 11 90 12
REMARK SMILES IDX 13 13 11 14 12 15 93 16 92 17 10 18 9 19 3 20 4 21 8 22 5 23
REMARK SMILES IDX 7 24 6 25 96 26 94 27 95 28 2 29 1 30 97 31 98 32 99 33
REMARK SMILES IDX 100 34 105 35 101 36 104 37 102 38 103 39 23 40 24 41 25 42
REMARK SMILES IDX 26 43 27 44 28 45 29 47 30 48 31 49 89 50 32 51 88 52 33 53
REMARK SMILES IDX 34 54 35 55 82 56 36 57 87 58 81 59 83 60 37 61 86 62 80 63
REMARK SMILES IDX 79 64 38 66 68 67 49 68 67 69 50 70 53 71 66 72 84 73 51 74
REMARK SMILES IDX 52 75 65 77 85 78 54 79 39 80 40 81 48 82 41 83 47 84 42 85
REMARK SMILES IDX 43 86 44 87 45 88 46 89 69 90 70 91 78 92 71 93 77 94 72 95
REMARK SMILES IDX 73 96 74 97 75 98 76 99 55 100 56 101 64 102 57 103 63 104
REMARK SMILES IDX 58 105 59 106 60 107 61 108 62 109
REMARK H PARENT 20 6 27 46 83 65 53 76
REMARK Flexibility Score: inf
ROOT
ATOM      1  C   UNL     1      -5.442   4.824   3.269  1.00  0.00     0.021 C 
ENDROOT
BRANCH   1   2
ATOM      2  C   UNL     1      -4.026   4.262   3.337  1.00  0.00     0.116 C 
BRANCH   2   3
ATOM      3  N   UNL     1      -3.254   4.756   4.465  1.00  0.00    -0.352 N 
ATOM      4  C   UNL     1      -2.481   4.100   5.394  1.00  0.00     0.251 C 
ATOM      5  O   UNL     1      -1.968   4.752   6.303  1.00  0.00    -0.269 OA
ATOM      6  H   UNL     1      -3.292   5.733   4.585  1.00  0.00     0.163 HD
BRANCH   4   7
ATOM      7  C   UNL     1      -2.314   2.621   5.387  1.00  0.00     0.039 A 
ATOM      8  C   UNL     1      -2.312  -0.195   5.539  1.00  0.00     0.001 A 
ATOM      9  C   UNL     1      -2.196   0.574   6.702  1.00  0.00     0.011 A 
ATOM     10  C   UNL     1      -2.296   0.461   4.299  1.00  0.00     0.011 A 
ATOM     11  C   UNL     1      -2.205   1.971   6.625  1.00  0.00     0.014 A 
ATOM     12  C   UNL     1      -2.260   1.856   4.223  1.00  0.00     0.014 A 
BRANCH   8  13
ATOM     13  C   UNL     1      -2.438  -1.647   5.571  1.00  0.00     0.081 A 
ATOM     14  C   UNL     1      -2.279  -3.677   4.683  1.00  0.00     0.098 A 
ATOM     15  N   UNL     1      -2.153  -2.390   4.446  1.00  0.00    -0.241 NA
ATOM     16  S   UNL     1      -2.874  -4.065   6.246  1.00  0.00    -0.126 S 
ATOM     17  C   UNL     1      -2.900  -2.391   6.639  1.00  0.00     0.095 A 
BRANCH  14  18
ATOM     18  C   UNL     1      -1.978  -4.739   3.666  1.00  0.00     0.105 C 
BRANCH  18  19
ATOM     19  C   UNL     1      -0.509  -4.827   3.327  1.00  0.00    -0.012 A 
ATOM     20  C   UNL     1       0.832  -1.813   1.383  1.00  0.00     0.119 A 
ATOM     21  C   UNL     1       2.088  -2.337   1.145  1.00  0.00     0.048 A 
ATOM     22  C   UNL     1      -0.095  -2.573   2.095  1.00  0.00     0.057 A 
ATOM     23  C   UNL     1       2.436  -3.608   1.624  1.00  0.00     0.031 A 
ATOM     24  C   UNL     1       0.237  -3.846   2.616  1.00  0.00     0.008 A 
ATOM     25  C   UNL     1       1.526  -4.346   2.415  1.00  0.00     0.057 A 
ATOM     26  N   UNL     1       1.628  -5.575   3.098  1.00  0.00    -0.280 N 
ATOM     27  C   UNL     1       0.353  -5.880   3.609  1.00  0.00     0.028 A 
ATOM     28  C   UNL     1      -0.021  -7.127   4.348  1.00  0.00     0.065 C 
BRANCH  20  29
ATOM     29  O   UNL     1       0.392  -0.577   1.000  1.00  0.00    -0.497 OA
ATOM     30  C   UNL     1       1.049   0.004  -0.122  1.00  0.00     0.278 C 
ENDBRANCH  20  29
BRANCH  26  31
ATOM     31  C   UNL     1       2.810  -6.363   3.224  1.00  0.00     0.262 C 
ATOM     32  O   UNL     1       2.731  -7.498   3.708  1.00  0.00    -0.268 OA
BRANCH  31  33
ATOM     33  C   UNL     1       4.158  -5.967   2.788  1.00  0.00     0.040 A 
ATOM     34  C   UNL     1       4.813  -4.871   3.364  1.00  0.00     0.015 A 
ATOM     35  C   UNL     1       4.760  -6.699   1.757  1.00  0.00     0.015 A 
ATOM     36  C   UNL     1       6.040  -4.457   2.839  1.00  0.00     0.021 A 
ATOM     37  C   UNL     1       5.989  -6.285   1.245  1.00  0.00     0.021 A 
ATOM     38  C   UNL     1       6.614  -5.156   1.775  1.00  0.00     0.041 A 
ATOM     39  Cl  UNL     1       8.098  -4.612   1.097  1.00  0.00    -0.084 Cl
ENDBRANCH  31  33
ENDBRANCH  26  31
ENDBRANCH  18  19
ENDBRANCH  14  18
ENDBRANCH   8  13
ENDBRANCH   4   7
ENDBRANCH   2   3
ENDBRANCH   1   2
BRANCH   1  40
ATOM     40  C   UNL     1      -5.567   6.319   2.975  1.00  0.00     0.002 C 
BRANCH  40  41
ATOM     41  C   UNL     1      -4.911   6.814   1.685  1.00  0.00     0.002 C 
BRANCH  41  42
ATOM     42  C   UNL     1      -5.275   6.064   0.399  1.00  0.00     0.021 C 
BRANCH  42  43
ATOM     43  C   UNL     1      -6.771   5.894   0.129  1.00  0.00     0.116 C 
BRANCH  43  44
ATOM     44  N   UNL     1      -7.522   7.130   0.083  1.00  0.00    -0.352 N 
ATOM     45  C   UNL     1      -7.824   8.037  -0.896  1.00  0.00     0.251 C 
ATOM     46  H   UNL     1      -7.903   7.375   0.957  1.00  0.00     0.163 HD
ATOM     47  O   UNL     1      -8.663   8.892  -0.597  1.00  0.00    -0.269 OA
BRANCH  45  48
ATOM     48  C   UNL     1      -7.177   8.102  -2.236  1.00  0.00     0.039 A 
ATOM     49  C   UNL     1      -6.270   7.176  -2.745  1.00  0.00     0.014 A 
ATOM     50  C   UNL     1      -7.467   9.246  -3.007  1.00  0.00     0.014 A 
ATOM     51  C   UNL     1      -5.583   7.438  -3.925  1.00  0.00     0.010 A 
ATOM     52  C   UNL     1      -6.801   9.501  -4.204  1.00  0.00     0.010 A 
ATOM     53  C   UNL     1      -5.817   8.620  -4.634  1.00  0.00    -0.014 A 
BRANCH  53  54
ATOM     54  C   UNL     1      -5.030   8.840  -5.844  1.00  0.00     0.031 A 
ATOM     55  C   UNL     1      -5.145   7.787  -6.893  1.00  0.00     0.074 A 
ATOM     56  C   UNL     1      -4.265   9.926  -6.069  1.00  0.00     0.049 A 
ATOM     57  N   UNL     1      -4.223   6.989  -7.322  1.00  0.00    -0.248 NA
ATOM     58  C   UNL     1      -6.474   7.531  -7.463  1.00  0.00     0.031 C 
ATOM     59  C   UNL     1      -4.210  11.184  -5.323  1.00  0.00     0.029 A 
ATOM     60  N   UNL     1      -3.419  10.150  -7.114  1.00  0.00    -0.354 N 
ATOM     61  C   UNL     1      -4.806   6.217  -8.325  1.00  0.00     0.074 A 
ATOM     62  C   UNL     1      -6.216   6.521  -8.296  1.00  0.00     0.031 C 
ATOM     63  C   UNL     1      -3.569  12.114  -6.070  1.00  0.00     0.029 A 
ATOM     64  C   UNL     1      -3.039  11.475  -7.263  1.00  0.00     0.049 A 
ATOM     65  H   UNL     1      -3.106   9.434  -7.711  1.00  0.00     0.167 HD
ATOM     66  C   UNL     1      -4.070   5.479  -9.204  1.00  0.00     0.031 A 
ATOM     67  C   UNL     1      -2.406  12.013  -8.336  1.00  0.00     0.031 A 
ATOM     68  C   UNL     1      -2.717   5.295  -8.756  1.00  0.00     0.049 A 
ATOM     69  C   UNL     1      -1.708  10.904  -9.036  1.00  0.00     0.074 A 
ATOM     70  C   UNL     1      -2.141   4.696  -7.653  1.00  0.00     0.029 A 
ATOM     71  N   UNL     1      -1.736   6.084  -9.309  1.00  0.00    -0.354 N 
ATOM     72  N   UNL     1      -0.697  10.254  -8.532  1.00  0.00    -0.248 NA
ATOM     73  C   UNL     1      -2.400  10.236 -10.128  1.00  0.00     0.031 C 
ATOM     74  C   UNL     1      -1.044   5.537  -7.314  1.00  0.00     0.029 A 
ATOM     75  C   UNL     1      -0.980   6.557  -8.267  1.00  0.00     0.049 A 
ATOM     76  H   UNL     1      -1.603   6.274 -10.266  1.00  0.00     0.167 HD
ATOM     77  C   UNL     1      -0.882   8.940  -8.938  1.00  0.00     0.074 A 
ATOM     78  C   UNL     1      -1.893   9.009  -9.991  1.00  0.00     0.031 C 
ATOM     79  C   UNL     1      -0.407   7.888  -8.208  1.00  0.00     0.031 A 
BRANCH  66  80
ATOM     80  C   UNL     1      -4.503   5.138 -10.607  1.00  0.00    -0.014 A 
ATOM     81  C   UNL     1      -5.560   5.798 -11.262  1.00  0.00     0.010 A 
ATOM     82  C   UNL     1      -3.687   4.299 -11.397  1.00  0.00     0.010 A 
ATOM     83  C   UNL     1      -5.806   5.630 -12.627  1.00  0.00     0.020 A 
ATOM     84  C   UNL     1      -3.897   4.159 -12.777  1.00  0.00     0.020 A 
ATOM     85  C   UNL     1      -4.961   4.824 -13.381  1.00  0.00     0.054 A 
BRANCH  85  86
ATOM     86  S   UNL     1      -5.232   4.740 -15.169  1.00  0.00     0.124 S 
ATOM     87  O   UNL     1      -6.485   3.994 -15.247  1.00  0.00    -0.237 OA
ATOM     88  O   UNL     1      -5.312   6.150 -15.539  1.00  0.00    -0.237 OA
ATOM     89  O   UNL     1      -4.052   4.035 -15.662  1.00  0.00    -0.744 OA
ENDBRANCH  85  86
ENDBRANCH  66  80
BRANCH  67  90
ATOM     90  C   UNL     1      -2.782  13.275  -9.028  1.00  0.00    -0.014 A 
ATOM     91  C   UNL     1      -4.072  13.819  -8.859  1.00  0.00     0.010 A 
ATOM     92  C   UNL     1      -1.998  13.765 -10.091  1.00  0.00     0.010 A 
ATOM     93  C   UNL     1      -4.598  14.742  -9.767  1.00  0.00     0.020 A 
ATOM     94  C   UNL     1      -2.522  14.688 -11.011  1.00  0.00     0.020 A 
ATOM     95  C   UNL     1      -3.836  15.137 -10.864  1.00  0.00     0.054 A 
BRANCH  95  96
ATOM     96  S   UNL     1      -4.635  16.152 -12.139  1.00  0.00     0.124 S 
ATOM     97  O   UNL     1      -5.626  15.226 -12.684  1.00  0.00    -0.237 OA
ATOM     98  O   UNL     1      -5.181  17.263 -11.361  1.00  0.00    -0.237 OA
ATOM     99  O   UNL     1      -3.544  16.503 -13.040  1.00  0.00    -0.744 OA
ENDBRANCH  95  96
ENDBRANCH  67  90
BRANCH  79 100
ATOM    100  C   UNL     1       0.550   8.138  -7.059  1.00  0.00    -0.014 A 
ATOM    101  C   UNL     1       1.689   7.314  -6.973  1.00  0.00     0.010 A 
ATOM    102  C   UNL     1       0.247   8.973  -5.966  1.00  0.00     0.010 A 
ATOM    103  C   UNL     1       2.470   7.282  -5.816  1.00  0.00     0.020 A 
ATOM    104  C   UNL     1       1.046   8.968  -4.811  1.00  0.00     0.020 A 
ATOM    105  C   UNL     1       2.135   8.096  -4.733  1.00  0.00     0.054 A 
BRANCH 105 106
ATOM    106  S   UNL     1       3.122   7.955  -3.219  1.00  0.00     0.124 S 
ATOM    107  O   UNL     1       2.721   6.644  -2.710  1.00  0.00    -0.237 OA
ATOM    108  O   UNL     1       4.493   8.035  -3.718  1.00  0.00    -0.237 OA
ATOM    109  O   UNL     1       2.693   9.092  -2.408  1.00  0.00    -0.744 OA
ENDBRANCH 105 106
ENDBRANCH  79 100
ENDBRANCH  53  54
ENDBRANCH  45  48
ENDBRANCH  43  44
ENDBRANCH  42  43
ENDBRANCH  41  42
ENDBRANCH  40  41
ENDBRANCH   1  40
TORSDOF 22
