REMARK SMILES CC(C)CC1(CNC(=O)N[C@H](C)CC(=O)NCCCCCCNC(=O)c2ccc(-c3c4nc(c(-c5ccc(S(=O)(=O)[O-])cc5)c5ccc([nH]5)c(-c5ccc(S(=O)(=O)[O-])cc5)c5nc(c(-c6ccc(S(=O)(=O)[O-])cc6)c6ccc3[nH]6)C=C5)C=C4)cc2)CCCC1
REMARK SMILES IDX 18 1 17 2 16 3 14 4 15 5 13 7 11 8 12 9 10 10 7 11 8 12 9 14
REMARK SMILES IDX 6 16 5 17 86 18 89 19 87 20 88 21 4 22 2 23 1 24 3 25 19 26
REMARK SMILES IDX 20 27 21 28 22 29 23 30 24 31 25 33 26 34 27 35 85 36 28 37
REMARK SMILES IDX 84 38 29 39 30 40 31 41 78 42 32 43 83 44 77 45 79 46 33 47
REMARK SMILES IDX 82 48 76 49 75 50 34 52 64 53 45 54 63 55 46 56 49 57 62 58
REMARK SMILES IDX 80 59 47 60 48 61 61 63 81 64 50 65 35 66 36 67 44 68 37 69
REMARK SMILES IDX 43 70 38 71 39 72 40 73 41 74 42 75 65 76 66 77 74 78 67 79
REMARK SMILES IDX 73 80 68 81 69 82 70 83 71 84 72 85 51 86 52 87 60 88 53 89
REMARK SMILES IDX 59 90 54 91 55 92 56 93 57 94 58 95
REMARK H PARENT 16 6 7 13 10 15 23 32 79 51 49 62
REMARK Flexibility Score: inf
ROOT
ATOM      1  C   UNL     1      -3.055  -3.833   2.307  1.00  0.00     0.021 C 
ENDROOT
BRANCH   1   2
ATOM      2  C   UNL     1      -2.900  -2.715   3.351  1.00  0.00     0.116 C 
BRANCH   2   3
ATOM      3  N   UNL     1      -1.981  -1.687   2.889  1.00  0.00    -0.356 N 
ATOM      4  C   UNL     1      -2.181  -0.409   2.461  1.00  0.00     0.222 C 
ATOM      5  O   UNL     1      -1.182   0.242   2.143  1.00  0.00    -0.275 OA
ATOM      6  H   UNL     1      -1.038  -1.966   2.886  1.00  0.00     0.163 HD
BRANCH   4   7
ATOM      7  C   UNL     1      -3.565   0.222   2.376  1.00  0.00     0.124 C 
BRANCH   7   8
ATOM      8  C   UNL     1      -4.395  -0.344   1.209  1.00  0.00     0.090 C 
ATOM      9  C   UNL     1      -5.425  -1.342   1.724  1.00  0.00     0.031 C 
BRANCH   8  10
ATOM     10  N   UNL     1      -5.103   0.666   0.419  1.00  0.00    -0.335 N 
ATOM     11  N   UNL     1      -5.837  -0.606  -1.451  1.00  0.00    -0.338 N 
ATOM     12  C   UNL     1      -5.891   0.496  -0.669  1.00  0.00     0.315 C 
ATOM     13  H   UNL     1      -6.705  -0.886  -1.823  1.00  0.00     0.165 HD
ATOM     14  O   UNL     1      -6.739   1.355  -0.917  1.00  0.00    -0.249 OA
ATOM     15  H   UNL     1      -4.990   1.596   0.721  1.00  0.00     0.165 HD
BRANCH  11  16
ATOM     16  C   UNL     1      -4.715  -1.450  -1.836  1.00  0.00     0.124 C 
BRANCH  16  17
ATOM     17  C   UNL     1      -4.958  -3.012  -1.884  1.00  0.00    -0.012 C 
ATOM     18  C   UNL     1      -3.563  -3.671  -1.768  1.00  0.00     0.009 C 
ATOM     19  C   UNL     1      -5.402  -3.435  -3.294  1.00  0.00     0.009 C 
ATOM     20  C   UNL     1      -2.963  -3.641  -3.166  1.00  0.00     0.001 C 
ATOM     21  C   UNL     1      -4.128  -3.489  -4.136  1.00  0.00     0.001 C 
BRANCH  17  22
ATOM     22  C   UNL     1      -5.929  -3.515  -0.778  1.00  0.00     0.012 C 
BRANCH  22  23
ATOM     23  C   UNL     1      -6.569  -4.933  -0.810  1.00  0.00    -0.017 C 
ATOM     24  C   UNL     1      -5.574  -6.090  -0.827  1.00  0.00     0.007 C 
ATOM     25  C   UNL     1      -7.467  -5.098   0.430  1.00  0.00     0.007 C 
ENDBRANCH  22  23
ENDBRANCH  17  22
ENDBRANCH  16  17
ENDBRANCH  11  16
ENDBRANCH   8  10
ENDBRANCH   7   8
ENDBRANCH   4   7
ENDBRANCH   2   3
ENDBRANCH   1   2
BRANCH   1  26
ATOM     26  C   UNL     1      -2.049  -4.980   2.436  1.00  0.00     0.002 C 
BRANCH  26  27
ATOM     27  C   UNL     1      -2.230  -5.860   3.680  1.00  0.00     0.002 C 
BRANCH  27  28
ATOM     28  C   UNL     1      -3.599  -6.534   3.826  1.00  0.00     0.021 C 
BRANCH  28  29
ATOM     29  C   UNL     1      -3.986  -7.469   2.683  1.00  0.00     0.116 C 
BRANCH  29  30
ATOM     30  N   UNL     1      -3.083  -8.602   2.566  1.00  0.00    -0.352 N 
ATOM     31  C   UNL     1      -3.351  -9.947   2.649  1.00  0.00     0.251 C 
ATOM     32  H   UNL     1      -2.140  -8.371   2.404  1.00  0.00     0.163 HD
ATOM     33  O   UNL     1      -2.429 -10.750   2.721  1.00  0.00    -0.269 OA
BRANCH  31  34
ATOM     34  C   UNL     1      -4.752 -10.422   2.669  1.00  0.00     0.039 A 
ATOM     35  C   UNL     1      -5.123 -11.387   3.608  1.00  0.00     0.014 A 
ATOM     36  C   UNL     1      -5.691  -9.932   1.757  1.00  0.00     0.014 A 
ATOM     37  C   UNL     1      -6.451 -11.816   3.671  1.00  0.00     0.010 A 
ATOM     38  C   UNL     1      -7.028 -10.309   1.867  1.00  0.00     0.010 A 
ATOM     39  C   UNL     1      -7.422 -11.257   2.823  1.00  0.00    -0.014 A 
BRANCH  39  40
ATOM     40  C   UNL     1      -8.850 -11.657   2.930  1.00  0.00     0.031 A 
ATOM     41  C   UNL     1      -9.531 -12.356   1.784  1.00  0.00     0.074 A 
ATOM     42  C   UNL     1      -9.545 -11.352   4.044  1.00  0.00     0.049 A 
ATOM     43  N   UNL     1     -10.776 -12.747   1.681  1.00  0.00    -0.248 NA
ATOM     44  C   UNL     1      -8.714 -12.636   0.592  1.00  0.00     0.031 C 
ATOM     45  C   UNL     1      -9.009 -10.644   5.210  1.00  0.00     0.029 A 
ATOM     46  N   UNL     1     -10.854 -11.595   4.380  1.00  0.00    -0.354 N 
ATOM     47  C   UNL     1     -10.893 -13.312   0.416  1.00  0.00     0.074 A 
ATOM     48  C   UNL     1      -9.609 -13.161  -0.233  1.00  0.00     0.031 C 
ATOM     49  C   UNL     1      -9.972 -10.533   6.139  1.00  0.00     0.029 A 
ATOM     50  C   UNL     1     -11.204 -11.120   5.622  1.00  0.00     0.049 A 
ATOM     51  H   UNL     1     -11.483 -12.066   3.786  1.00  0.00     0.167 HD
ATOM     52  C   UNL     1     -11.964 -13.921  -0.146  1.00  0.00     0.031 A 
ATOM     53  C   UNL     1     -12.386 -11.143   6.270  1.00  0.00     0.031 A 
ATOM     54  C   UNL     1     -13.240 -14.069   0.502  1.00  0.00     0.049 A 
ATOM     55  C   UNL     1     -13.569 -11.800   5.613  1.00  0.00     0.074 A 
ATOM     56  C   UNL     1     -14.376 -14.704   0.030  1.00  0.00     0.029 A 
ATOM     57  N   UNL     1     -13.553 -13.576   1.760  1.00  0.00    -0.354 N 
ATOM     58  N   UNL     1     -13.641 -12.382   4.439  1.00  0.00    -0.248 NA
ATOM     59  C   UNL     1     -14.826 -11.818   6.373  1.00  0.00     0.031 C 
ATOM     60  C   UNL     1     -15.392 -14.544   0.977  1.00  0.00     0.029 A 
ATOM     61  C   UNL     1     -14.870 -13.870   2.070  1.00  0.00     0.049 A 
ATOM     62  H   UNL     1     -12.930 -13.088   2.346  1.00  0.00     0.167 HD
ATOM     63  C   UNL     1     -14.943 -12.858   4.332  1.00  0.00     0.074 A 
ATOM     64  C   UNL     1     -15.617 -12.514   5.568  1.00  0.00     0.031 C 
ATOM     65  C   UNL     1     -15.528 -13.522   3.304  1.00  0.00     0.031 A 
BRANCH  52  66
ATOM     66  C   UNL     1     -11.800 -14.476  -1.538  1.00  0.00    -0.014 A 
ATOM     67  C   UNL     1     -10.980 -15.594  -1.782  1.00  0.00     0.010 A 
ATOM     68  C   UNL     1     -12.515 -13.909  -2.609  1.00  0.00     0.010 A 
ATOM     69  C   UNL     1     -10.848 -16.108  -3.074  1.00  0.00     0.020 A 
ATOM     70  C   UNL     1     -12.410 -14.440  -3.898  1.00  0.00     0.020 A 
ATOM     71  C   UNL     1     -11.564 -15.528  -4.125  1.00  0.00     0.054 A 
BRANCH  71  72
ATOM     72  S   UNL     1     -11.396 -16.238  -5.785  1.00  0.00     0.124 S 
ATOM     73  O   UNL     1     -10.035 -15.846  -6.143  1.00  0.00    -0.237 OA
ATOM     74  O   UNL     1     -11.595 -17.664  -5.544  1.00  0.00    -0.237 OA
ATOM     75  O   UNL     1     -12.453 -15.584  -6.552  1.00  0.00    -0.744 OA
ENDBRANCH  71  72
ENDBRANCH  52  66
BRANCH  53  76
ATOM     76  C   UNL     1     -12.508 -10.518   7.617  1.00  0.00    -0.014 A 
ATOM     77  C   UNL     1     -12.723 -11.306   8.762  1.00  0.00     0.010 A 
ATOM     78  C   UNL     1     -12.409  -9.121   7.761  1.00  0.00     0.010 A 
ATOM     79  C   UNL     1     -12.861 -10.709  10.019  1.00  0.00     0.020 A 
ATOM     80  C   UNL     1     -12.513  -8.523   9.020  1.00  0.00     0.020 A 
ATOM     81  C   UNL     1     -12.752  -9.321  10.140  1.00  0.00     0.054 A 
BRANCH  81  82
ATOM     82  S   UNL     1     -12.892  -8.571  11.786  1.00  0.00     0.124 S 
ATOM     83  O   UNL     1     -14.317  -8.717  12.066  1.00  0.00    -0.237 OA
ATOM     84  O   UNL     1     -12.000  -9.404  12.588  1.00  0.00    -0.237 OA
ATOM     85  O   UNL     1     -12.431  -7.200  11.577  1.00  0.00    -0.744 OA
ENDBRANCH  81  82
ENDBRANCH  53  76
BRANCH  65  86
ATOM     86  C   UNL     1     -16.960 -13.956   3.482  1.00  0.00    -0.014 A 
ATOM     87  C   UNL     1     -18.013 -13.024   3.488  1.00  0.00     0.010 A 
ATOM     88  C   UNL     1     -17.259 -15.327   3.587  1.00  0.00     0.010 A 
ATOM     89  C   UNL     1     -19.335 -13.453   3.631  1.00  0.00     0.020 A 
ATOM     90  C   UNL     1     -18.582 -15.762   3.697  1.00  0.00     0.020 A 
ATOM     91  C   UNL     1     -19.611 -14.820   3.733  1.00  0.00     0.054 A 
BRANCH  91  92
ATOM     92  S   UNL     1     -21.339 -15.353   3.872  1.00  0.00     0.124 S 
ATOM     93  O   UNL     1     -21.676 -14.941   5.232  1.00  0.00    -0.237 OA
ATOM     94  O   UNL     1     -21.993 -14.598   2.806  1.00  0.00    -0.237 OA
ATOM     95  O   UNL     1     -21.276 -16.797   3.657  1.00  0.00    -0.744 OA
ENDBRANCH  91  92
ENDBRANCH  65  86
ENDBRANCH  39  40
ENDBRANCH  31  34
ENDBRANCH  29  30
ENDBRANCH  28  29
ENDBRANCH  27  28
ENDBRANCH  26  27
ENDBRANCH   1  26
TORSDOF 22
