REMARK SMILES O=C(NCCCCCCNC(=O)[C@@H](Cc1ccccc1)Nc1ccc(Cl)c(Br)c1)c1ccc(-c2c3nc(c(-c4ccc(S(=O)(=O)[O-])cc4)c4ccc([nH]4)c(-c4ccc(S(=O)(=O)[O-])cc4)c4nc(c(-c5ccc(S(=O)(=O)[O-])cc5)c5ccc2[nH]5)C=C4)C=C3)cc1
REMARK SMILES IDX 6 1 5 2 4 3 3 4 1 5 2 6 30 8 31 9 89 10 32 11 88 12 33 13
REMARK SMILES IDX 34 14 35 15 82 16 36 17 87 18 81 19 83 20 37 21 86 22 80 23
REMARK SMILES IDX 79 24 38 26 68 27 49 28 67 29 50 30 53 31 66 32 84 33 51 34
REMARK SMILES IDX 52 35 65 37 85 38 54 39 39 40 40 41 48 42 41 43 47 44 42 45
REMARK SMILES IDX 43 46 44 47 45 48 46 49 69 50 70 51 78 52 71 53 77 54 72 55
REMARK SMILES IDX 73 56 74 57 75 58 76 59 55 60 56 61 64 62 57 63 63 64 58 65
REMARK SMILES IDX 59 66 60 67 61 68 62 69 7 70 8 71 9 72 10 73 11 74 12 76
REMARK SMILES IDX 13 77 14 78 15 79 16 80 20 81 17 82 19 83 18 84 21 85 22 87
REMARK SMILES IDX 23 88 29 89 24 90 27 91 25 92 28 93 26 94
REMARK H PARENT 3 7 83 25 53 36 10 75 21 86
REMARK Flexibility Score: inf
ROOT
ATOM      1  C   UNL     1       3.638  -0.289  -3.896  1.00  0.00     0.002 C 
ENDROOT
BRANCH   1   2
ATOM      2  C   UNL     1       4.319  -0.755  -2.607  1.00  0.00     0.021 C 
BRANCH   2   3
ATOM      3  C   UNL     1       4.219   0.230  -1.448  1.00  0.00     0.116 C 
BRANCH   3   4
ATOM      4  N   UNL     1       2.837   0.457  -1.053  1.00  0.00    -0.352 N 
ATOM      5  O   UNL     1       0.958   0.142   0.148  1.00  0.00    -0.269 OA
ATOM      6  C   UNL     1       2.182   0.086   0.096  1.00  0.00     0.251 C 
ATOM      7  H   UNL     1       2.290   0.950  -1.707  1.00  0.00     0.163 HD
BRANCH   6   8
ATOM      8  C   UNL     1       2.958  -0.383   1.264  1.00  0.00     0.039 A 
ATOM      9  C   UNL     1       4.130   0.273   1.642  1.00  0.00     0.014 A 
ATOM     10  C   UNL     1       2.493  -1.471   2.010  1.00  0.00     0.014 A 
ATOM     11  C   UNL     1       4.911  -0.242   2.668  1.00  0.00     0.010 A 
ATOM     12  C   UNL     1       3.230  -1.927   3.108  1.00  0.00     0.010 A 
ATOM     13  C   UNL     1       4.458  -1.330   3.432  1.00  0.00    -0.014 A 
BRANCH  13  14
ATOM     14  C   UNL     1       5.255  -1.758   4.611  1.00  0.00     0.031 A 
ATOM     15  C   UNL     1       5.882  -3.123   4.682  1.00  0.00     0.074 A 
ATOM     16  C   UNL     1       5.449  -0.870   5.607  1.00  0.00     0.049 A 
ATOM     17  N   UNL     1       6.648  -3.624   5.618  1.00  0.00    -0.248 NA
ATOM     18  C   UNL     1       5.615  -4.048   3.568  1.00  0.00     0.031 C 
ATOM     19  C   UNL     1       4.878   0.480   5.654  1.00  0.00     0.029 A 
ATOM     20  N   UNL     1       6.194  -0.952   6.755  1.00  0.00    -0.354 N 
ATOM     21  C   UNL     1       6.955  -4.918   5.211  1.00  0.00     0.074 A 
ATOM     22  C   UNL     1       6.258  -5.140   3.962  1.00  0.00     0.031 C 
ATOM     23  C   UNL     1       5.336   1.116   6.742  1.00  0.00     0.029 A 
ATOM     24  C   UNL     1       6.172   0.199   7.507  1.00  0.00     0.049 A 
ATOM     25  H   UNL     1       6.697  -1.757   7.016  1.00  0.00     0.167 HD
ATOM     26  C   UNL     1       7.754  -5.830   5.817  1.00  0.00     0.031 A 
ATOM     27  C   UNL     1       6.742   0.485   8.692  1.00  0.00     0.031 A 
ATOM     28  C   UNL     1       8.429  -5.607   7.071  1.00  0.00     0.049 A 
ATOM     29  C   UNL     1       7.582  -0.563   9.363  1.00  0.00     0.074 A 
ATOM     30  C   UNL     1       9.262  -6.469   7.765  1.00  0.00     0.029 A 
ATOM     31  N   UNL     1       8.351  -4.443   7.821  1.00  0.00    -0.354 N 
ATOM     32  N   UNL     1       7.881  -1.769   8.944  1.00  0.00    -0.248 NA
ATOM     33  C   UNL     1       8.166  -0.208  10.662  1.00  0.00     0.031 C 
ATOM     34  C   UNL     1       9.643  -5.846   8.958  1.00  0.00     0.029 A 
ATOM     35  C   UNL     1       9.104  -4.570   8.977  1.00  0.00     0.049 A 
ATOM     36  H   UNL     1       7.835  -3.643   7.568  1.00  0.00     0.167 HD
ATOM     37  C   UNL     1       8.707  -2.312   9.922  1.00  0.00     0.074 A 
ATOM     38  C   UNL     1       8.882  -1.290  10.934  1.00  0.00     0.031 C 
ATOM     39  C   UNL     1       9.265  -3.546   9.979  1.00  0.00     0.031 A 
BRANCH  26  40
ATOM     40  C   UNL     1       7.937  -7.164   5.137  1.00  0.00    -0.014 A 
ATOM     41  C   UNL     1       8.684  -7.274   3.950  1.00  0.00     0.010 A 
ATOM     42  C   UNL     1       7.414  -8.331   5.723  1.00  0.00     0.010 A 
ATOM     43  C   UNL     1       8.877  -8.519   3.346  1.00  0.00     0.020 A 
ATOM     44  C   UNL     1       7.629  -9.583   5.137  1.00  0.00     0.020 A 
ATOM     45  C   UNL     1       8.348  -9.667   3.943  1.00  0.00     0.054 A 
BRANCH  45  46
ATOM     46  S   UNL     1       8.643 -11.272   3.151  1.00  0.00     0.124 S 
ATOM     47  O   UNL     1       7.806 -11.176   1.957  1.00  0.00    -0.237 OA
ATOM     48  O   UNL     1      10.084 -11.248   2.910  1.00  0.00    -0.237 OA
ATOM     49  O   UNL     1       8.196 -12.241   4.148  1.00  0.00    -0.744 OA
ENDBRANCH  45  46
ENDBRANCH  26  40
BRANCH  27  50
ATOM     50  C   UNL     1       6.504   1.809   9.331  1.00  0.00    -0.014 A 
ATOM     51  C   UNL     1       7.551   2.729   9.506  1.00  0.00     0.010 A 
ATOM     52  C   UNL     1       5.211   2.152   9.772  1.00  0.00     0.010 A 
ATOM     53  C   UNL     1       7.318   3.952  10.142  1.00  0.00     0.020 A 
ATOM     54  C   UNL     1       4.967   3.388  10.373  1.00  0.00     0.020 A 
ATOM     55  C   UNL     1       6.027   4.273  10.572  1.00  0.00     0.054 A 
BRANCH  55  56
ATOM     56  S   UNL     1       5.742   5.874  11.375  1.00  0.00     0.124 S 
ATOM     57  O   UNL     1       6.356   5.669  12.683  1.00  0.00    -0.237 OA
ATOM     58  O   UNL     1       6.437   6.801  10.486  1.00  0.00    -0.237 OA
ATOM     59  O   UNL     1       4.286   5.999  11.379  1.00  0.00    -0.744 OA
ENDBRANCH  55  56
ENDBRANCH  27  50
BRANCH  39  60
ATOM     60  C   UNL     1      10.149  -3.843  11.162  1.00  0.00    -0.014 A 
ATOM     61  C   UNL     1       9.616  -3.991  12.455  1.00  0.00     0.010 A 
ATOM     62  C   UNL     1      11.534  -3.998  10.970  1.00  0.00     0.010 A 
ATOM     63  C   UNL     1      10.458  -4.241  13.542  1.00  0.00     0.020 A 
ATOM     64  C   UNL     1      12.375  -4.282  12.049  1.00  0.00     0.020 A 
ATOM     65  C   UNL     1      11.833  -4.383  13.331  1.00  0.00     0.054 A 
BRANCH  65  66
ATOM     66  S   UNL     1      12.901  -4.731  14.755  1.00  0.00     0.124 S 
ATOM     67  O   UNL     1      12.913  -3.446  15.448  1.00  0.00    -0.237 OA
ATOM     68  O   UNL     1      12.185  -5.807  15.436  1.00  0.00    -0.237 OA
ATOM     69  O   UNL     1      14.171  -5.123  14.147  1.00  0.00    -0.744 OA
ENDBRANCH  65  66
ENDBRANCH  39  60
ENDBRANCH  13  14
ENDBRANCH   6   8
ENDBRANCH   3   4
ENDBRANCH   2   3
ENDBRANCH   1   2
BRANCH   1  70
ATOM     70  C   UNL     1       4.112   1.067  -4.435  1.00  0.00     0.002 C 
BRANCH  70  71
ATOM     71  C   UNL     1       5.629   1.201  -4.567  1.00  0.00     0.021 C 
BRANCH  71  72
ATOM     72  C   UNL     1       6.250   0.246  -5.583  1.00  0.00     0.116 C 
BRANCH  72  73
ATOM     73  N   UNL     1       6.389   0.898  -6.867  1.00  0.00    -0.354 N 
ATOM     74  C   UNL     1       7.488   1.395  -7.499  1.00  0.00     0.242 C 
ATOM     75  H   UNL     1       5.548   1.000  -7.367  1.00  0.00     0.163 HD
ATOM     76  O   UNL     1       7.274   2.114  -8.484  1.00  0.00    -0.273 OA
BRANCH  74  77
ATOM     77  C   UNL     1       8.941   1.065  -7.075  1.00  0.00     0.173 C 
BRANCH  77  78
ATOM     78  C   UNL     1       9.498   1.899  -5.900  1.00  0.00     0.070 C 
BRANCH  78  79
ATOM     79  C   UNL     1       9.139   1.588  -4.463  1.00  0.00    -0.045 A 
ATOM     80  C   UNL     1       8.613   2.594  -3.636  1.00  0.00     0.004 A 
ATOM     81  C   UNL     1       9.391   0.331  -3.895  1.00  0.00     0.004 A 
ATOM     82  C   UNL     1       8.278   2.328  -2.304  1.00  0.00     0.000 A 
ATOM     83  C   UNL     1       9.033   0.057  -2.572  1.00  0.00     0.000 A 
ATOM     84  C   UNL     1       8.469   1.052  -1.779  1.00  0.00     0.000 A 
ENDBRANCH  78  79
ENDBRANCH  77  78
BRANCH  77  85
ATOM     85  N   UNL     1       9.152  -0.390  -6.976  1.00  0.00    -0.373 N 
ATOM     86  H   UNL     1       8.542  -0.905  -6.400  1.00  0.00     0.161 HD
BRANCH  85  87
ATOM     87  C   UNL     1      10.151  -1.079  -7.640  1.00  0.00     0.036 A 
ATOM     88  C   UNL     1       9.957  -2.438  -7.920  1.00  0.00     0.027 A 
ATOM     89  C   UNL     1      11.351  -0.494  -8.056  1.00  0.00     0.043 A 
ATOM     90  C   UNL     1      10.907  -3.180  -8.630  1.00  0.00     0.024 A 
ATOM     91  C   UNL     1      12.313  -1.230  -8.766  1.00  0.00     0.038 A 
ATOM     92  C   UNL     1      12.086  -2.575  -9.062  1.00  0.00     0.055 A 
ATOM     93  Br  UNL     1      13.895  -0.319  -9.296  1.00  0.00    -0.049 Br
ATOM     94  Cl  UNL     1      13.203  -3.543  -9.955  1.00  0.00    -0.083 Cl
ENDBRANCH  85  87
ENDBRANCH  77  85
ENDBRANCH  74  77
ENDBRANCH  72  73
ENDBRANCH  71  72
ENDBRANCH  70  71
ENDBRANCH   1  70
TORSDOF 20
