REMARK SMILES CSCC[C@@H](CO)n1ccnc1-c1ccccc1C(=O)NCCCCCCNC(=O)c1ccc(-c2c3nc(c(-c4ccc(S(=O)(=O)[O-])cc4)c4ccc([nH]4)c(-c4ccc(S(=O)(=O)[O-])cc4)c4nc(c(-c5ccc(S(=O)(=O)[O-])cc5)c5ccc2[nH]5)C=C4)C=C3)cc1
REMARK SMILES IDX 23 1 22 2 21 3 19 4 20 5 18 7 13 8 14 9 15 10 17 11 16 12
REMARK SMILES IDX 12 13 8 14 9 15 10 16 11 17 5 18 4 19 3 20 2 21 1 22 6 23
REMARK SMILES IDX 7 24 24 26 25 27 26 28 27 29 28 30 29 31 30 33 31 34 32 35
REMARK SMILES IDX 90 36 33 37 89 38 34 39 35 40 36 41 83 42 37 43 88 44 82 45
REMARK SMILES IDX 84 46 38 47 87 48 81 49 80 50 39 52 69 53 50 54 68 55 51 56
REMARK SMILES IDX 54 57 67 58 85 59 52 60 53 61 66 63 86 64 55 65 40 66 41 67
REMARK SMILES IDX 49 68 42 69 48 70 43 71 44 72 45 73 46 74 47 75 70 76 71 77
REMARK SMILES IDX 79 78 72 79 78 80 73 81 74 82 75 83 76 84 77 85 56 86 57 87
REMARK SMILES IDX 65 88 58 89 64 90 59 91 60 92 61 93 62 94 63 95
REMARK H PARENT 21 6 7 25 28 32 84 51 54 62
REMARK Flexibility Score: inf
ROOT
ATOM      1  C   UNL     1      -0.571  -4.821  -0.252  1.00  0.00     0.021 C 
ENDROOT
BRANCH   1   2
ATOM      2  C   UNL     1      -0.859  -3.853   0.885  1.00  0.00     0.116 C 
BRANCH   2   3
ATOM      3  N   UNL     1      -1.471  -2.596   0.545  1.00  0.00    -0.352 N 
ATOM      4  C   UNL     1      -2.106  -1.658   1.327  1.00  0.00     0.252 C 
ATOM      5  O   UNL     1      -2.511  -0.662   0.715  1.00  0.00    -0.269 OA
ATOM      6  H   UNL     1      -1.429  -2.367  -0.411  1.00  0.00     0.163 HD
BRANCH   4   7
ATOM      7  C   UNL     1      -2.385  -1.739   2.808  1.00  0.00     0.050 A 
ATOM      8  C   UNL     1      -1.688  -2.401   3.836  1.00  0.00     0.030 A 
ATOM      9  C   UNL     1      -2.196  -2.354   5.163  1.00  0.00     0.013 A 
ATOM     10  C   UNL     1      -3.323  -1.617   5.508  1.00  0.00     0.001 A 
ATOM     11  C   UNL     1      -3.519  -0.972   3.200  1.00  0.00     0.014 A 
ATOM     12  C   UNL     1      -3.977  -0.905   4.522  1.00  0.00     0.001 A 
BRANCH   8  13
ATOM     13  C   UNL     1      -0.468  -3.198   3.741  1.00  0.00     0.141 A 
ATOM     14  N   UNL     1       0.836  -2.767   3.514  1.00  0.00    -0.326 N 
ATOM     15  C   UNL     1       1.643  -3.873   3.705  1.00  0.00     0.108 A 
ATOM     16  C   UNL     1       0.807  -4.924   3.971  1.00  0.00     0.131 A 
ATOM     17  N   UNL     1      -0.477  -4.493   4.013  1.00  0.00    -0.237 NA
BRANCH  14  18
ATOM     18  C   UNL     1       1.256  -1.503   2.877  1.00  0.00     0.115 C 
BRANCH  18  19
ATOM     19  C   UNL     1       0.818  -0.229   3.625  1.00  0.00     0.039 C 
BRANCH  19  20
ATOM     20  C   UNL     1       1.165   1.094   2.924  1.00  0.00     0.071 C 
BRANCH  20  21
ATOM     21  S   UNL     1       0.171   1.500   1.443  1.00  0.00    -0.165 SA
ATOM     22  C   UNL     1       1.021   0.580   0.133  1.00  0.00     0.085 C 
ENDBRANCH  20  21
ENDBRANCH  19  20
ENDBRANCH  18  19
BRANCH  18  23
ATOM     23  C   UNL     1       2.773  -1.462   2.571  1.00  0.00     0.181 C 
BRANCH  23  24
ATOM     24  O   UNL     1       3.554  -1.211   3.737  1.00  0.00    -0.394 OA
ATOM     25  H   UNL     1       3.317  -0.345   4.105  1.00  0.00     0.210 HD
ENDBRANCH  23  24
ENDBRANCH  18  23
ENDBRANCH  14  18
ENDBRANCH   8  13
ENDBRANCH   4   7
ENDBRANCH   2   3
ENDBRANCH   1   2
BRANCH   1  26
ATOM     26  C   UNL     1       0.430  -4.393  -1.336  1.00  0.00     0.002 C 
BRANCH  26  27
ATOM     27  C   UNL     1       1.766  -3.726  -0.958  1.00  0.00     0.002 C 
BRANCH  27  28
ATOM     28  C   UNL     1       2.707  -4.397   0.050  1.00  0.00     0.021 C 
BRANCH  28  29
ATOM     29  C   UNL     1       3.053  -5.850  -0.207  1.00  0.00     0.116 C 
BRANCH  29  30
ATOM     30  N   UNL     1       3.815  -6.112  -1.435  1.00  0.00    -0.352 N 
ATOM     31  C   UNL     1       4.291  -7.333  -1.928  1.00  0.00     0.251 C 
ATOM     32  H   UNL     1       4.018  -5.322  -1.986  1.00  0.00     0.163 HD
ATOM     33  O   UNL     1       5.189  -7.365  -2.749  1.00  0.00    -0.269 OA
BRANCH  31  34
ATOM     34  C   UNL     1       3.680  -8.588  -1.426  1.00  0.00     0.039 A 
ATOM     35  C   UNL     1       4.340  -9.816  -1.307  1.00  0.00     0.014 A 
ATOM     36  C   UNL     1       2.369  -8.489  -1.014  1.00  0.00     0.014 A 
ATOM     37  C   UNL     1       3.633 -10.895  -0.760  1.00  0.00     0.010 A 
ATOM     38  C   UNL     1       1.915  -9.353  -0.077  1.00  0.00     0.010 A 
ATOM     39  C   UNL     1       2.391 -10.640  -0.167  1.00  0.00    -0.014 A 
BRANCH  39  40
ATOM     40  C   UNL     1       1.501 -11.634   0.414  1.00  0.00     0.031 A 
ATOM     41  C   UNL     1       2.022 -12.243   1.657  1.00  0.00     0.074 A 
ATOM     42  C   UNL     1       0.191 -11.702   0.065  1.00  0.00     0.049 A 
ATOM     43  N   UNL     1       2.441 -13.450   1.832  1.00  0.00    -0.248 NA
ATOM     44  C   UNL     1       2.279 -11.346   2.798  1.00  0.00     0.031 C 
ATOM     45  C   UNL     1      -0.557 -10.848  -0.877  1.00  0.00     0.029 A 
ATOM     46  N   UNL     1      -0.799 -12.467   0.594  1.00  0.00    -0.354 N 
ATOM     47  C   UNL     1       2.793 -13.527   3.174  1.00  0.00     0.074 A 
ATOM     48  C   UNL     1       2.915 -12.167   3.633  1.00  0.00     0.031 C 
ATOM     49  C   UNL     1      -1.887 -10.986  -0.667  1.00  0.00     0.029 A 
ATOM     50  C   UNL     1      -2.095 -12.050   0.296  1.00  0.00     0.049 A 
ATOM     51  H   UNL     1      -0.615 -13.260   1.148  1.00  0.00     0.167 HD
ATOM     52  C   UNL     1       2.676 -14.686   3.880  1.00  0.00     0.031 A 
ATOM     53  C   UNL     1      -3.251 -12.524   0.835  1.00  0.00     0.031 A 
ATOM     54  C   UNL     1       2.402 -15.802   3.010  1.00  0.00     0.049 A 
ATOM     55  C   UNL     1      -2.924 -13.831   1.461  1.00  0.00     0.074 A 
ATOM     56  C   UNL     1       3.064 -16.396   1.954  1.00  0.00     0.029 A 
ATOM     57  N   UNL     1       1.084 -16.191   2.902  1.00  0.00    -0.354 N 
ATOM     58  N   UNL     1      -2.527 -14.873   0.782  1.00  0.00    -0.248 NA
ATOM     59  C   UNL     1      -2.556 -13.832   2.869  1.00  0.00     0.031 C 
ATOM     60  C   UNL     1       2.041 -16.708   1.011  1.00  0.00     0.029 A 
ATOM     61  C   UNL     1       0.806 -16.372   1.571  1.00  0.00     0.049 A 
ATOM     62  H   UNL     1       0.455 -16.317   3.649  1.00  0.00     0.167 HD
ATOM     63  C   UNL     1      -1.512 -15.435   1.546  1.00  0.00     0.074 A 
ATOM     64  C   UNL     1      -1.637 -14.803   2.860  1.00  0.00     0.031 C 
ATOM     65  C   UNL     1      -0.492 -16.136   0.966  1.00  0.00     0.031 A 
BRANCH  52  66
ATOM     66  C   UNL     1       2.397 -14.748   5.362  1.00  0.00    -0.014 A 
ATOM     67  C   UNL     1       2.363 -16.010   5.989  1.00  0.00     0.010 A 
ATOM     68  C   UNL     1       1.920 -13.653   6.111  1.00  0.00     0.010 A 
ATOM     69  C   UNL     1       1.813 -16.174   7.267  1.00  0.00     0.020 A 
ATOM     70  C   UNL     1       1.413 -13.796   7.403  1.00  0.00     0.020 A 
ATOM     71  C   UNL     1       1.328 -15.064   7.959  1.00  0.00     0.054 A 
BRANCH  71  72
ATOM     72  S   UNL     1       0.518 -15.298   9.558  1.00  0.00     0.124 S 
ATOM     73  O   UNL     1      -0.673 -16.054   9.183  1.00  0.00    -0.237 OA
ATOM     74  O   UNL     1       1.529 -16.035  10.311  1.00  0.00    -0.237 OA
ATOM     75  O   UNL     1       0.275 -13.933  10.021  1.00  0.00    -0.744 OA
ENDBRANCH  71  72
ENDBRANCH  52  66
BRANCH  53  76
ATOM     76  C   UNL     1      -4.510 -11.785   1.126  1.00  0.00    -0.014 A 
ATOM     77  C   UNL     1      -5.731 -12.451   1.349  1.00  0.00     0.010 A 
ATOM     78  C   UNL     1      -4.452 -10.414   1.455  1.00  0.00     0.010 A 
ATOM     79  C   UNL     1      -6.836 -11.781   1.915  1.00  0.00     0.020 A 
ATOM     80  C   UNL     1      -5.546  -9.740   2.019  1.00  0.00     0.020 A 
ATOM     81  C   UNL     1      -6.730 -10.432   2.262  1.00  0.00     0.054 A 
BRANCH  81  82
ATOM     82  S   UNL     1      -8.107  -9.613   3.128  1.00  0.00     0.124 S 
ATOM     83  O   UNL     1      -9.135  -9.552   2.092  1.00  0.00    -0.237 OA
ATOM     84  O   UNL     1      -8.378 -10.527   4.234  1.00  0.00    -0.237 OA
ATOM     85  O   UNL     1      -7.548  -8.320   3.521  1.00  0.00    -0.744 OA
ENDBRANCH  81  82
ENDBRANCH  53  76
BRANCH  65  86
ATOM     86  C   UNL     1      -0.622 -16.523  -0.494  1.00  0.00    -0.014 A 
ATOM     87  C   UNL     1      -0.698 -15.598  -1.555  1.00  0.00     0.010 A 
ATOM     88  C   UNL     1      -0.488 -17.887  -0.808  1.00  0.00     0.010 A 
ATOM     89  C   UNL     1      -0.663 -16.033  -2.892  1.00  0.00     0.020 A 
ATOM     90  C   UNL     1      -0.434 -18.324  -2.133  1.00  0.00     0.020 A 
ATOM     91  C   UNL     1      -0.530 -17.397  -3.171  1.00  0.00     0.054 A 
BRANCH  91  92
ATOM     92  S   UNL     1      -0.442 -17.958  -4.896  1.00  0.00     0.124 S 
ATOM     93  O   UNL     1      -1.791 -17.692  -5.386  1.00  0.00    -0.237 OA
ATOM     94  O   UNL     1       0.611 -17.115  -5.459  1.00  0.00    -0.237 OA
ATOM     95  O   UNL     1      -0.093 -19.374  -4.783  1.00  0.00    -0.744 OA
ENDBRANCH  91  92
ENDBRANCH  65  86
ENDBRANCH  39  40
ENDBRANCH  31  34
ENDBRANCH  29  30
ENDBRANCH  28  29
ENDBRANCH  27  28
ENDBRANCH  26  27
ENDBRANCH   1  26
TORSDOF 23
