REMARK SMILES CCc1cc(S(F)(F)(F)(F)F)cc2c1O[C@@H](C(F)(F)F)C(C(=O)NCCCCCCNC(=O)c1ccc(-c3c4nc(c(-c5ccc(S(=O)(=O)[O-])cc5)c5ccc([nH]5)c(-c5ccc(S(=O)(=O)[O-])cc5)c5nc(c(-c6ccc(S(=O)(=O)[O-])cc6)c6ccc3[nH]6)C=C5)C=C4)cc1)=C2
REMARK SMILES IDX 28 1 27 2 26 3 25 4 24 5 22 6 23 7 21 9 3 10 4 11 14 12 5 13
REMARK SMILES IDX 13 14 15 15 12 16 94 17 16 18 2 19 1 20 6 21 7 22 8 23 9 24
REMARK SMILES IDX 10 25 11 26 17 27 18 28 19 29 20 30 29 31 30 32 31 33 32 34
REMARK SMILES IDX 33 36 34 37 35 38 93 39 36 40 92 41 37 42 38 43 39 44 86 45
REMARK SMILES IDX 40 46 91 47 85 48 87 49 41 50 90 51 84 52 83 53 42 55 72 56
REMARK SMILES IDX 53 57 71 58 54 59 57 60 70 61 88 62 55 63 56 64 69 66 89 67
REMARK SMILES IDX 58 68 43 69 44 70 52 71 45 72 51 73 46 74 47 75 48 76 49 77
REMARK SMILES IDX 50 78 73 79 74 80 82 81 75 82 81 83 76 84 77 85 78 86 79 87
REMARK SMILES IDX 80 88 59 89 60 90 68 91 61 92 67 93 62 94 63 95 64 96 65 97
REMARK SMILES IDX 66 98
REMARK H PARENT 24 8 31 35 87 54 57 65
REMARK Flexibility Score: inf
ROOT
ATOM      1  C   UNL     1       3.020  -1.361  10.162  1.00  0.00     0.002 C 
ENDROOT
BRANCH   1   2
ATOM      2  C   UNL     1       4.214  -1.256   9.227  1.00  0.00     0.002 C 
BRANCH   2   3
ATOM      3  C   UNL     1       3.862  -1.873   7.884  1.00  0.00     0.021 C 
BRANCH   3   4
ATOM      4  C   UNL     1       2.680  -1.132   7.280  1.00  0.00     0.116 C 
BRANCH   4   5
ATOM      5  N   UNL     1       3.033   0.282   7.092  1.00  0.00    -0.352 N 
ATOM      6  C   UNL     1       3.005   0.875   5.747  1.00  0.00     0.251 C 
ATOM      7  O   UNL     1       3.310   2.098   5.585  1.00  0.00    -0.270 OA
ATOM      8  H   UNL     1       3.289   0.833   7.867  1.00  0.00     0.163 HD
BRANCH   6   9
ATOM      9  C   UNL     1       2.611   0.025   4.550  1.00  0.00     0.067 C 
ATOM     10  C   UNL     1       1.064  -2.100   1.304  1.00  0.00    -0.004 A 
ATOM     11  C   UNL     1       0.908  -3.472   1.388  1.00  0.00     0.032 A 
ATOM     12  C   UNL     1       1.524  -1.420   2.405  1.00  0.00     0.131 A 
ATOM     13  C   UNL     1       1.200  -4.144   2.545  1.00  0.00     0.108 A 
ATOM     14  C   UNL     1       1.848  -2.067   3.583  1.00  0.00     0.019 A 
ATOM     15  O   UNL     1       1.567  -0.048   2.343  1.00  0.00    -0.475 OA
ATOM     16  C   UNL     1       1.675  -3.446   3.635  1.00  0.00     0.036 A 
ATOM     17  C   UNL     1       2.290  -1.254   4.703  1.00  0.00     0.025 C 
ATOM     18  C   UNL     1       2.576   0.621   3.150  1.00  0.00     0.314 C 
BRANCH  10  19
ATOM     19  C   UNL     1       0.557  -1.385   0.062  1.00  0.00     0.036 C 
ATOM     20  C   UNL     1       1.064   0.048   0.060  1.00  0.00     0.009 C 
ENDBRANCH  10  19
BRANCH  13  21
ATOM     21  S   UNL     1       0.967  -5.937   2.642  1.00  0.00     0.310 S 
ATOM     22  F   UNL     1       1.221  -5.947   4.207  1.00  0.00    -0.094 F 
ATOM     23  F   UNL     1       2.522  -6.111   2.457  1.00  0.00    -0.094 F 
ATOM     24  F   UNL     1       0.776  -7.478   2.725  1.00  0.00    -0.094 F 
ATOM     25  F   UNL     1      -0.566  -5.737   2.965  1.00  0.00    -0.094 F 
ATOM     26  F   UNL     1       1.162  -4.368   2.672  1.00  0.00    -0.094 F 
ENDBRANCH  13  21
BRANCH  18  27
ATOM     27  C   UNL     1       2.233   2.099   3.248  1.00  0.00     0.429 C 
ATOM     28  F   UNL     1       3.153   2.720   3.981  1.00  0.00    -0.167 F 
ATOM     29  F   UNL     1       2.204   2.630   2.029  1.00  0.00    -0.167 F 
ATOM     30  F   UNL     1       1.041   2.240   3.821  1.00  0.00    -0.167 F 
ENDBRANCH  18  27
ENDBRANCH   6   9
ENDBRANCH   4   5
ENDBRANCH   3   4
ENDBRANCH   2   3
ENDBRANCH   1   2
BRANCH   1  31
ATOM     31  C   UNL     1       2.655  -2.824  10.355  1.00  0.00     0.021 C 
BRANCH  31  32
ATOM     32  C   UNL     1       3.837  -3.565  10.959  1.00  0.00     0.116 C 
BRANCH  32  33
ATOM     33  N   UNL     1       4.177  -2.968  12.259  1.00  0.00    -0.352 N 
ATOM     34  C   UNL     1       4.127  -3.787  13.479  1.00  0.00     0.251 C 
ATOM     35  H   UNL     1       4.438  -2.021  12.312  1.00  0.00     0.163 HD
ATOM     36  O   UNL     1       4.422  -3.271  14.603  1.00  0.00    -0.269 OA
BRANCH  34  37
ATOM     37  C   UNL     1       3.724  -5.250  13.397  1.00  0.00     0.039 A 
ATOM     38  C   UNL     1       2.821  -5.740  14.325  1.00  0.00     0.014 A 
ATOM     39  C   UNL     1       4.231  -6.031  12.450  1.00  0.00     0.014 A 
ATOM     40  C   UNL     1       2.732  -7.152  14.350  1.00  0.00     0.010 A 
ATOM     41  C   UNL     1       3.992  -7.384  12.458  1.00  0.00     0.010 A 
ATOM     42  C   UNL     1       3.156  -7.945  13.383  1.00  0.00    -0.014 A 
BRANCH  42  43
ATOM     43  C   UNL     1       2.737  -9.404  13.303  1.00  0.00     0.031 A 
ATOM     44  C   UNL     1       3.742 -10.372  13.353  1.00  0.00     0.074 A 
ATOM     45  C   UNL     1       1.389  -9.694  13.185  1.00  0.00     0.049 A 
ATOM     46  N   UNL     1       3.596 -11.698  13.332  1.00  0.00    -0.248 NA
ATOM     47  C   UNL     1       5.177 -10.066  13.443  1.00  0.00     0.031 C 
ATOM     48  C   UNL     1       0.369  -8.723  13.143  1.00  0.00     0.029 A 
ATOM     49  N   UNL     1       0.795 -10.933  13.089  1.00  0.00    -0.354 N 
ATOM     50  C   UNL     1       4.787 -12.294  13.416  1.00  0.00     0.074 A 
ATOM     51  C   UNL     1       5.822 -11.253  13.483  1.00  0.00     0.031 C 
ATOM     52  C   UNL     1      -0.821  -9.367  13.011  1.00  0.00     0.029 A 
ATOM     53  C   UNL     1      -0.565 -10.751  12.970  1.00  0.00     0.049 A 
ATOM     54  H   UNL     1       1.263 -11.800  13.102  1.00  0.00     0.167 HD
ATOM     55  C   UNL     1       5.051 -13.665  13.443  1.00  0.00     0.031 A 
ATOM     56  C   UNL     1      -1.542 -11.723  12.830  1.00  0.00     0.031 A 
ATOM     57  C   UNL     1       4.069 -14.638  13.346  1.00  0.00     0.049 A 
ATOM     58  C   UNL     1      -1.273 -13.094  12.797  1.00  0.00     0.074 A 
ATOM     59  C   UNL     1       4.317 -16.024  13.379  1.00  0.00     0.029 A 
ATOM     60  N   UNL     1       2.711 -14.456  13.203  1.00  0.00    -0.354 N 
ATOM     61  N   UNL     1      -0.086 -13.690  12.921  1.00  0.00    -0.248 NA
ATOM     62  C   UNL     1      -2.297 -14.132  12.617  1.00  0.00     0.031 C 
ATOM     63  C   UNL     1       3.127 -16.668  13.247  1.00  0.00     0.029 A 
ATOM     64  C   UNL     1       2.116 -15.695  13.129  1.00  0.00     0.049 A 
ATOM     65  H   UNL     1       2.247 -13.588  13.160  1.00  0.00     0.167 HD
ATOM     66  C   UNL     1      -0.229 -15.015  12.859  1.00  0.00     0.074 A 
ATOM     67  C   UNL     1      -1.652 -15.318  12.655  1.00  0.00     0.031 C 
ATOM     68  C   UNL     1       0.770 -15.985  12.967  1.00  0.00     0.031 A 
BRANCH  55  69
ATOM     69  C   UNL     1       6.496 -14.115  13.584  1.00  0.00    -0.014 A 
ATOM     70  C   UNL     1       7.218 -13.740  14.705  1.00  0.00     0.010 A 
ATOM     71  C   UNL     1       7.042 -14.860  12.631  1.00  0.00     0.010 A 
ATOM     72  C   UNL     1       8.610 -13.962  14.591  1.00  0.00     0.020 A 
ATOM     73  C   UNL     1       8.384 -15.153  12.654  1.00  0.00     0.020 A 
ATOM     74  C   UNL     1       9.170 -14.763  13.702  1.00  0.00     0.054 A 
BRANCH  74  75
ATOM     75  S   UNL     1      10.887 -15.314  13.863  1.00  0.00     0.124 S 
ATOM     76  O   UNL     1      11.815 -14.097  13.864  1.00  0.00    -0.237 OA
ATOM     77  O   UNL     1      11.055 -16.084  15.175  1.00  0.00    -0.237 OA
ATOM     78  O   UNL     1      11.284 -16.333  12.548  1.00  0.00    -0.744 OA
ENDBRANCH  74  75
ENDBRANCH  55  69
BRANCH  56  79
ATOM     79  C   UNL     1      -2.989 -11.273  12.705  1.00  0.00    -0.014 A 
ATOM     80  C   UNL     1      -3.915 -11.693  13.645  1.00  0.00     0.010 A 
ATOM     81  C   UNL     1      -3.340 -10.485  11.696  1.00  0.00     0.010 A 
ATOM     82  C   UNL     1      -5.259 -11.459  13.269  1.00  0.00     0.020 A 
ATOM     83  C   UNL     1      -4.662 -10.188  11.467  1.00  0.00     0.020 A 
ATOM     84  C   UNL     1      -5.637 -10.619  12.323  1.00  0.00     0.054 A 
BRANCH  84  85
ATOM     85  S   UNL     1      -7.354 -10.068  12.168  1.00  0.00     0.124 S 
ATOM     86  O   UNL     1      -8.260 -11.279  11.934  1.00  0.00    -0.237 OA
ATOM     87  O   UNL     1      -7.779  -9.353  13.453  1.00  0.00    -0.237 OA
ATOM     88  O   UNL     1      -7.490  -8.992  10.846  1.00  0.00    -0.744 OA
ENDBRANCH  84  85
ENDBRANCH  56  79
BRANCH  68  89
ATOM     89  C   UNL     1       0.356 -17.446  12.904  1.00  0.00    -0.014 A 
ATOM     90  C   UNL     1      -0.277 -17.903  11.761  1.00  0.00     0.010 A 
ATOM     91  C   UNL     1       0.605 -18.258  13.925  1.00  0.00     0.010 A 
ATOM     92  C   UNL     1      -0.874 -19.178  11.906  1.00  0.00     0.020 A 
ATOM     93  C   UNL     1       0.103 -19.537  13.940  1.00  0.00     0.020 A 
ATOM     94  C   UNL     1      -0.583 -20.035  12.867  1.00  0.00     0.054 A 
BRANCH  94  95
ATOM     95  S   UNL     1      -1.068 -21.776  12.771  1.00  0.00     0.124 S 
ATOM     96  O   UNL     1      -2.592 -21.877  12.669  1.00  0.00    -0.237 OA
ATOM     97  O   UNL     1      -0.431 -22.416  11.535  1.00  0.00    -0.237 OA
ATOM     98  O   UNL     1      -0.536 -22.595  14.175  1.00  0.00    -0.744 OA
ENDBRANCH  94  95
ENDBRANCH  68  89
ENDBRANCH  42  43
ENDBRANCH  34  37
ENDBRANCH  32  33
ENDBRANCH  31  32
ENDBRANCH   1  31
TORSDOF 19
