REMARK SMILES COC[C@H](C)CNC(=O)N[C@@H]1CCCCC[C@@H]1C(=O)NCCCCCCNC(=O)c1ccc(-c2c3nc(c(-c4ccc(S(=O)(=O)[O-])cc4)c4ccc([nH]4)c(-c4ccc(S(=O)(=O)[O-])cc4)c4nc(c(-c5ccc(S(=O)(=O)[O-])cc5)c5ccc2[nH]5)C=C4)C=C3)cc1
REMARK SMILES IDX 22 1 21 2 20 3 18 4 19 5 17 7 11 8 10 9 7 10 8 11 9 13 6 15
REMARK SMILES IDX 4 16 5 17 3 18 2 19 1 20 12 21 13 22 14 23 16 25 15 26 23 28
REMARK SMILES IDX 24 29 25 30 26 31 27 32 28 33 29 35 30 36 31 37 89 38 32 39
REMARK SMILES IDX 88 40 33 41 34 42 35 43 82 44 36 45 87 46 81 47 83 48 37 49
REMARK SMILES IDX 86 50 80 51 79 52 38 54 68 55 49 56 67 57 50 58 53 59 66 60
REMARK SMILES IDX 84 61 51 62 52 63 65 65 85 66 54 67 39 68 40 69 48 70 41 71
REMARK SMILES IDX 47 72 42 73 43 74 44 75 45 76 46 77 69 78 70 79 78 80 71 81
REMARK SMILES IDX 77 82 72 83 73 84 74 85 75 86 76 87 55 88 56 89 64 90 57 91
REMARK SMILES IDX 63 92 58 93 59 94 60 95 61 96 62 97
REMARK H PARENT 20 6 7 12 10 14 27 34 83 53 53 64
REMARK Flexibility Score: 100.00
ROOT
ATOM      1  C   UNL     1       0.212   6.854   4.991  1.00  0.00     0.021 C 
ENDROOT
BRANCH   1   2
ATOM      2  C   UNL     1       0.811   5.832   5.963  1.00  0.00     0.116 C 
BRANCH   2   3
ATOM      3  N   UNL     1      -0.153   5.543   7.006  1.00  0.00    -0.356 N 
ATOM      4  C   UNL     1      -1.031   4.515   7.145  1.00  0.00     0.225 C 
ATOM      5  O   UNL     1      -1.995   4.740   7.885  1.00  0.00    -0.275 OA
ATOM      6  H   UNL     1      -0.174   6.201   7.737  1.00  0.00     0.163 HD
BRANCH   4   7
ATOM      7  C   UNL     1      -0.781   3.114   6.545  1.00  0.00     0.101 C 
BRANCH   7   8
ATOM      8  C   UNL     1      -0.667   2.981   4.996  1.00  0.00     0.096 C 
BRANCH   8   9
ATOM      9  N   UNL     1      -1.241   4.068   4.217  1.00  0.00    -0.335 N 
ATOM     10  N   UNL     1       0.034   4.173   2.207  1.00  0.00    -0.338 N 
ATOM     11  C   UNL     1      -0.974   4.559   2.996  1.00  0.00     0.315 C 
ATOM     12  H   UNL     1       0.060   4.710   1.382  1.00  0.00     0.165 HD
ATOM     13  O   UNL     1      -1.702   5.463   2.575  1.00  0.00    -0.249 OA
ATOM     14  H   UNL     1      -1.973   4.539   4.678  1.00  0.00     0.165 HD
BRANCH  10  15
ATOM     15  C   UNL     1       1.109   3.182   2.219  1.00  0.00     0.123 C 
BRANCH  15  16
ATOM     16  C   UNL     1       0.807   1.982   1.304  1.00  0.00     0.031 C 
ATOM     17  C   UNL     1       0.876   2.341  -0.184  1.00  0.00     0.012 C 
BRANCH  16  18
ATOM     18  C   UNL     1       1.698   0.768   1.632  1.00  0.00     0.164 C 
BRANCH  18  19
ATOM     19  O   UNL     1       2.989   1.108   2.134  1.00  0.00    -0.384 OA
ATOM     20  C   UNL     1       3.932   1.458   1.130  1.00  0.00     0.194 C 
ENDBRANCH  18  19
ENDBRANCH  16  18
ENDBRANCH  15  16
ENDBRANCH  10  15
ENDBRANCH   8   9
BRANCH   8  21
ATOM     21  C   UNL     1      -1.219   1.677   4.405  1.00  0.00     0.026 C 
BRANCH  21  22
ATOM     22  C   UNL     1      -0.523   0.428   4.917  1.00  0.00     0.002 C 
BRANCH  22  23
ATOM     23  C   UNL     1      -1.258  -0.177   6.098  1.00  0.00     0.000 CG0
ATOM     24  G   UNL     1      -1.249   0.684   7.352  1.00  0.00     0.000 G0
ENDBRANCH  22  23
ENDBRANCH  21  22
ENDBRANCH   8  21
ENDBRANCH   7   8
BRANCH   7  25
ATOM     25  C   UNL     1      -1.780   2.114   7.196  1.00  0.00     0.015 C 
BRANCH  25  26
ATOM     26  C   UNL     1      -1.249   0.684   7.352  1.00  0.00     0.001 CG0
ATOM     27  G   UNL     1      -1.258  -0.177   6.098  1.00  0.00     0.000 G0
ENDBRANCH  25  26
ENDBRANCH   7  25
ENDBRANCH   4   7
ENDBRANCH   2   3
ENDBRANCH   1   2
BRANCH   1  28
ATOM     28  C   UNL     1       0.284   8.309   5.463  1.00  0.00     0.002 C 
BRANCH  28  29
ATOM     29  C   UNL     1       1.696   8.888   5.551  1.00  0.00     0.002 C 
BRANCH  29  30
ATOM     30  C   UNL     1       2.540   8.738   4.282  1.00  0.00     0.021 C 
BRANCH  30  31
ATOM     31  C   UNL     1       1.896   9.297   3.015  1.00  0.00     0.116 C 
BRANCH  31  32
ATOM     32  N   UNL     1       1.654  10.727   3.116  1.00  0.00    -0.352 N 
ATOM     33  C   UNL     1       2.214  11.759   2.405  1.00  0.00     0.251 C 
ATOM     34  H   UNL     1       0.991  10.995   3.794  1.00  0.00     0.163 HD
ATOM     35  O   UNL     1       2.074  12.917   2.783  1.00  0.00    -0.269 OA
BRANCH  33  36
ATOM     36  C   UNL     1       2.998  11.466   1.186  1.00  0.00     0.039 A 
ATOM     37  C   UNL     1       4.227  12.104   0.998  1.00  0.00     0.014 A 
ATOM     38  C   UNL     1       2.516  10.570   0.228  1.00  0.00     0.014 A 
ATOM     39  C   UNL     1       5.000  11.796  -0.124  1.00  0.00     0.010 A 
ATOM     40  C   UNL     1       3.320  10.210  -0.850  1.00  0.00     0.010 A 
ATOM     41  C   UNL     1       4.569  10.822  -1.040  1.00  0.00    -0.014 A 
BRANCH  41  42
ATOM     42  C   UNL     1       5.407  10.426  -2.201  1.00  0.00     0.031 A 
ATOM     43  C   UNL     1       4.915  10.665  -3.603  1.00  0.00     0.074 A 
ATOM     44  C   UNL     1       6.577   9.790  -1.993  1.00  0.00     0.049 A 
ATOM     45  N   UNL     1       5.464  10.318  -4.739  1.00  0.00    -0.248 NA
ATOM     46  C   UNL     1       3.626  11.362  -3.748  1.00  0.00     0.031 C 
ATOM     47  C   UNL     1       7.148   9.469  -0.682  1.00  0.00     0.029 A 
ATOM     48  N   UNL     1       7.495   9.288  -2.883  1.00  0.00    -0.354 N 
ATOM     49  C   UNL     1       4.583  10.738  -5.729  1.00  0.00     0.074 A 
ATOM     50  C   UNL     1       3.442  11.321  -5.060  1.00  0.00     0.031 C 
ATOM     51  C   UNL     1       8.325   8.846  -0.854  1.00  0.00     0.029 A 
ATOM     52  C   UNL     1       8.573   8.680  -2.283  1.00  0.00     0.049 A 
ATOM     53  H   UNL     1       7.391   9.357  -3.860  1.00  0.00     0.167 HD
ATOM     54  C   UNL     1       4.721  10.660  -7.075  1.00  0.00     0.031 A 
ATOM     55  C   UNL     1       9.635   8.047  -2.819  1.00  0.00     0.031 A 
ATOM     56  C   UNL     1       5.864  10.089  -7.736  1.00  0.00     0.049 A 
ATOM     57  C   UNL     1       9.754   7.956  -4.316  1.00  0.00     0.074 A 
ATOM     58  C   UNL     1       6.122  10.014  -9.094  1.00  0.00     0.029 A 
ATOM     59  N   UNL     1       6.938   9.494  -7.091  1.00  0.00    -0.354 N 
ATOM     60  N   UNL     1       8.940   8.416  -5.237  1.00  0.00    -0.248 NA
ATOM     61  C   UNL     1      10.940   7.270  -4.849  1.00  0.00     0.031 C 
ATOM     62  C   UNL     1       7.322   9.320  -9.272  1.00  0.00     0.029 A 
ATOM     63  C   UNL     1       7.846   9.024  -8.024  1.00  0.00     0.049 A 
ATOM     64  H   UNL     1       7.039   9.417  -6.115  1.00  0.00     0.167 HD
ATOM     65  C   UNL     1       9.532   8.104  -6.456  1.00  0.00     0.074 A 
ATOM     66  C   UNL     1      10.777   7.428  -6.155  1.00  0.00     0.031 C 
ATOM     67  C   UNL     1       9.085   8.357  -7.711  1.00  0.00     0.031 A 
BRANCH  54  68
ATOM     68  C   UNL     1       3.601  11.200  -7.927  1.00  0.00    -0.014 A 
ATOM     69  C   UNL     1       3.343  12.581  -8.002  1.00  0.00     0.010 A 
ATOM     70  C   UNL     1       2.832  10.318  -8.709  1.00  0.00     0.010 A 
ATOM     71  C   UNL     1       2.316  13.066  -8.815  1.00  0.00     0.020 A 
ATOM     72  C   UNL     1       1.823  10.803  -9.547  1.00  0.00     0.020 A 
ATOM     73  C   UNL     1       1.562  12.174  -9.584  1.00  0.00     0.054 A 
BRANCH  73  74
ATOM     74  S   UNL     1       0.261  12.837 -10.658  1.00  0.00     0.124 S 
ATOM     75  O   UNL     1      -0.749  13.251  -9.687  1.00  0.00    -0.237 OA
ATOM     76  O   UNL     1       0.944  13.923 -11.355  1.00  0.00    -0.237 OA
ATOM     77  O   UNL     1      -0.112  11.700 -11.496  1.00  0.00    -0.744 OA
ENDBRANCH  73  74
ENDBRANCH  54  68
BRANCH  55  78
ATOM     78  C   UNL     1      10.671   7.446  -1.933  1.00  0.00    -0.014 A 
ATOM     79  C   UNL     1      11.967   7.988  -1.875  1.00  0.00     0.010 A 
ATOM     80  C   UNL     1      10.365   6.324  -1.141  1.00  0.00     0.010 A 
ATOM     81  C   UNL     1      12.945   7.404  -1.064  1.00  0.00     0.020 A 
ATOM     82  C   UNL     1      11.330   5.757  -0.304  1.00  0.00     0.020 A 
ATOM     83  C   UNL     1      12.619   6.292  -0.282  1.00  0.00     0.054 A 
BRANCH  83  84
ATOM     84  S   UNL     1      13.892   5.573   0.791  1.00  0.00     0.124 S 
ATOM     85  O   UNL     1      14.770   4.921  -0.174  1.00  0.00    -0.237 OA
ATOM     86  O   UNL     1      14.444   6.750   1.457  1.00  0.00    -0.237 OA
ATOM     87  O   UNL     1      13.137   4.672   1.660  1.00  0.00    -0.744 OA
ENDBRANCH  83  84
ENDBRANCH  55  78
BRANCH  67  88
ATOM     88  C   UNL     1       9.963   7.940  -8.861  1.00  0.00    -0.014 A 
ATOM     89  C   UNL     1      10.127   6.587  -9.205  1.00  0.00     0.010 A 
ATOM     90  C   UNL     1      10.579   8.928  -9.652  1.00  0.00     0.010 A 
ATOM     91  C   UNL     1      10.913   6.228 -10.303  1.00  0.00     0.020 A 
ATOM     92  C   UNL     1      11.340   8.575 -10.769  1.00  0.00     0.020 A 
ATOM     93  C   UNL     1      11.512   7.225 -11.081  1.00  0.00     0.054 A 
BRANCH  93  94
ATOM     94  S   UNL     1      12.480   6.734 -12.534  1.00  0.00     0.124 S 
ATOM     95  O   UNL     1      13.679   6.167 -11.922  1.00  0.00    -0.237 OA
ATOM     96  O   UNL     1      11.598   5.776 -13.196  1.00  0.00    -0.237 OA
ATOM     97  O   UNL     1      12.683   7.988 -13.256  1.00  0.00    -0.744 OA
ENDBRANCH  93  94
ENDBRANCH  67  88
ENDBRANCH  41  42
ENDBRANCH  33  36
ENDBRANCH  31  32
ENDBRANCH  30  31
ENDBRANCH  29  30
ENDBRANCH  28  29
ENDBRANCH   1  28
TORSDOF 21
