REMARK SMILES O=C1C[C@@H](c2cccc(O)c2)c2c(c(C(=O)NCCCCCCNC(=O)c3ccc(-c4c5nc(c(-c6ccc(S(=O)(=O)[O-])cc6)c6ccc([nH]6)c(-c6ccc(S(=O)(=O)[O-])cc6)c6nc(c(-c7ccc(S(=O)(=O)[O-])cc7)c7ccc4[nH]7)C=C6)C=C5)cc3)cn2-c2cccc(C(F)(F)F)c2)N1
REMARK SMILES IDX 21 1 20 2 19 3 18 4 17 5 15 6 16 7 14 9 1 10 2 11 3 12 99 13
REMARK SMILES IDX 4 14 13 15 12 17 88 18 87 19 5 20 6 21 11 22 7 23 9 24 8 25
REMARK SMILES IDX 10 26 89 28 90 29 98 30 91 31 93 32 92 33 94 34 95 35 96 36
REMARK SMILES IDX 97 37 22 38 23 39 24 40 25 41 26 43 27 44 28 45 86 46 29 47
REMARK SMILES IDX 85 48 30 49 31 50 32 51 79 52 33 53 84 54 78 55 80 56 34 57
REMARK SMILES IDX 83 58 77 59 76 60 35 62 65 63 46 64 64 65 47 66 50 67 63 68
REMARK SMILES IDX 81 69 48 70 49 71 62 73 82 74 51 75 36 76 37 77 45 78 38 79
REMARK SMILES IDX 44 80 39 81 40 82 41 83 42 84 43 85 66 86 67 87 75 88 68 89
REMARK SMILES IDX 74 90 69 91 70 92 71 93 72 94 73 95 52 96 53 97 61 98 54 99
REMARK SMILES IDX 60 100 55 101 56 102 57 103 58 104 59 105
REMARK H PARENT 17 8 99 16 10 27 24 42 80 61 50 72
REMARK Flexibility Score: inf
ROOT
ATOM      1  C   UNL     1       8.069  -6.281   4.546  1.00  0.00     0.002 C 
ENDROOT
BRANCH   1   2
ATOM      2  C   UNL     1       6.656  -5.874   4.988  1.00  0.00     0.002 C 
BRANCH   2   3
ATOM      3  C   UNL     1       6.356  -4.377   5.012  1.00  0.00     0.021 C 
BRANCH   3   4
ATOM      4  C   UNL     1       6.710  -3.612   3.741  1.00  0.00     0.116 C 
BRANCH   4   5
ATOM      5  N   UNL     1       5.835  -3.912   2.627  1.00  0.00    -0.352 N 
ATOM      6  C   UNL     1       5.088  -3.109   1.802  1.00  0.00     0.254 C 
ATOM      7  O   UNL     1       4.379  -3.675   0.967  1.00  0.00    -0.269 OA
ATOM      8  H   UNL     1       5.763  -4.872   2.423  1.00  0.00     0.163 HD
BRANCH   6   9
ATOM      9  C   UNL     1       5.091  -1.651   1.907  1.00  0.00     0.081 A 
ATOM     10  O   UNL     1       1.547  -0.384  -1.049  1.00  0.00    -0.275 OA
ATOM     11  C   UNL     1       2.478  -0.098  -0.295  1.00  0.00     0.225 C 
ATOM     12  C   UNL     1       3.050   1.316  -0.233  1.00  0.00     0.115 C 
ATOM     13  N   UNL     1       3.146  -1.071   0.407  1.00  0.00    -0.324 N 
ATOM     14  C   UNL     1       3.663   1.701   1.129  1.00  0.00     0.078 C 
ATOM     15  C   UNL     1       4.163  -0.777   1.285  1.00  0.00     0.076 A 
ATOM     16  H   UNL     1       2.887  -2.012   0.277  1.00  0.00     0.170 HD
ATOM     17  C   UNL     1       4.408   0.519   1.676  1.00  0.00     0.055 A 
ATOM     18  N   UNL     1       5.489   0.496   2.532  1.00  0.00    -0.317 N 
ATOM     19  C   UNL     1       6.008  -0.790   2.488  1.00  0.00     0.107 A 
BRANCH  14  20
ATOM     20  C   UNL     1       2.607   2.254   2.068  1.00  0.00    -0.035 A 
ATOM     21  C   UNL     1       1.597   1.448   2.617  1.00  0.00     0.005 A 
ATOM     22  C   UNL     1       2.678   3.603   2.457  1.00  0.00     0.050 A 
ATOM     23  C   UNL     1       0.717   1.964   3.571  1.00  0.00     0.004 A 
ATOM     24  C   UNL     1       1.818   4.093   3.433  1.00  0.00     0.115 A 
ATOM     25  C   UNL     1       0.837   3.286   3.994  1.00  0.00     0.046 A 
BRANCH  24  26
ATOM     26  O   UNL     1       2.012   5.373   3.862  1.00  0.00    -0.508 OA
ATOM     27  H   UNL     1       1.452   5.736   4.519  1.00  0.00     0.293 HD
ENDBRANCH  24  26
ENDBRANCH  14  20
BRANCH  18  28
ATOM     28  C   UNL     1       6.018   1.508   3.377  1.00  0.00     0.046 A 
ATOM     29  C   UNL     1       7.407   1.644   3.501  1.00  0.00     0.026 A 
ATOM     30  C   UNL     1       5.173   2.244   4.215  1.00  0.00     0.039 A 
ATOM     31  C   UNL     1       7.944   2.543   4.423  1.00  0.00     0.003 A 
ATOM     32  C   UNL     1       5.705   3.148   5.152  1.00  0.00     0.058 A 
ATOM     33  C   UNL     1       7.099   3.294   5.239  1.00  0.00     0.013 A 
BRANCH  32  34
ATOM     34  C   UNL     1       4.817   3.944   6.082  1.00  0.00     0.416 C 
ATOM     35  F   UNL     1       5.199   3.829   7.383  1.00  0.00    -0.166 F 
ATOM     36  F   UNL     1       4.853   5.278   5.803  1.00  0.00    -0.166 F 
ATOM     37  F   UNL     1       3.506   3.588   6.042  1.00  0.00    -0.166 F 
ENDBRANCH  32  34
ENDBRANCH  18  28
ENDBRANCH   6   9
ENDBRANCH   4   5
ENDBRANCH   3   4
ENDBRANCH   2   3
ENDBRANCH   1   2
BRANCH   1  38
ATOM     38  C   UNL     1       9.254  -5.569   5.218  1.00  0.00     0.021 C 
BRANCH  38  39
ATOM     39  C   UNL     1       9.390  -5.835   6.709  1.00  0.00     0.116 C 
BRANCH  39  40
ATOM     40  N   UNL     1       9.664  -7.244   7.003  1.00  0.00    -0.352 N 
ATOM     41  C   UNL     1       9.719  -7.891   8.227  1.00  0.00     0.251 C 
ATOM     42  H   UNL     1       9.834  -7.812   6.218  1.00  0.00     0.163 HD
ATOM     43  O   UNL     1      10.321  -8.945   8.344  1.00  0.00    -0.269 OA
BRANCH  41  44
ATOM     44  C   UNL     1       9.021  -7.291   9.380  1.00  0.00     0.039 A 
ATOM     45  C   UNL     1       9.496  -7.402  10.691  1.00  0.00     0.014 A 
ATOM     46  C   UNL     1       7.844  -6.602   9.114  1.00  0.00     0.014 A 
ATOM     47  C   UNL     1       8.791  -6.768  11.716  1.00  0.00     0.010 A 
ATOM     48  C   UNL     1       7.297  -5.796  10.066  1.00  0.00     0.010 A 
ATOM     49  C   UNL     1       7.691  -5.968  11.384  1.00  0.00    -0.014 A 
BRANCH  49  50
ATOM     50  C   UNL     1       6.919  -5.225  12.364  1.00  0.00     0.031 A 
ATOM     51  C   UNL     1       7.650  -4.086  12.969  1.00  0.00     0.074 A 
ATOM     52  C   UNL     1       5.573  -5.337  12.427  1.00  0.00     0.049 A 
ATOM     53  N   UNL     1       8.130  -3.995  14.164  1.00  0.00    -0.248 NA
ATOM     54  C   UNL     1       8.063  -2.987  12.077  1.00  0.00     0.031 C 
ATOM     55  C   UNL     1       4.682  -6.131  11.566  1.00  0.00     0.029 A 
ATOM     56  N   UNL     1       4.694  -4.634  13.182  1.00  0.00    -0.354 N 
ATOM     57  C   UNL     1       8.676  -2.718  14.246  1.00  0.00     0.074 A 
ATOM     58  C   UNL     1       8.851  -2.278  12.887  1.00  0.00     0.031 C 
ATOM     59  C   UNL     1       3.414  -5.675  11.685  1.00  0.00     0.029 A 
ATOM     60  C   UNL     1       3.375  -4.675  12.737  1.00  0.00     0.049 A 
ATOM     61  H   UNL     1       4.967  -4.133  13.984  1.00  0.00     0.167 HD
ATOM     62  C   UNL     1       8.647  -2.002  15.407  1.00  0.00     0.031 A 
ATOM     63  C   UNL     1       2.353  -3.892  13.174  1.00  0.00     0.031 A 
ATOM     64  C   UNL     1       8.227  -2.825  16.517  1.00  0.00     0.049 A 
ATOM     65  C   UNL     1       2.788  -3.307  14.470  1.00  0.00     0.074 A 
ATOM     66  C   UNL     1       8.675  -4.006  17.078  1.00  0.00     0.029 A 
ATOM     67  N   UNL     1       6.924  -2.678  16.940  1.00  0.00    -0.354 N 
ATOM     68  N   UNL     1       2.994  -4.014  15.546  1.00  0.00    -0.248 NA
ATOM     69  C   UNL     1       3.458  -2.014  14.439  1.00  0.00     0.031 C 
ATOM     70  C   UNL     1       7.489  -4.738  17.382  1.00  0.00     0.029 A 
ATOM     71  C   UNL     1       6.389  -3.932  17.080  1.00  0.00     0.049 A 
ATOM     72  H   UNL     1       6.461  -1.826  17.110  1.00  0.00     0.167 HD
ATOM     73  C   UNL     1       4.141  -3.475  16.113  1.00  0.00     0.074 A 
ATOM     74  C   UNL     1       4.327  -2.189  15.439  1.00  0.00     0.031 C 
ATOM     75  C   UNL     1       4.993  -4.245  16.855  1.00  0.00     0.031 A 
BRANCH  62  76
ATOM     76  C   UNL     1       8.566  -0.490  15.473  1.00  0.00    -0.014 A 
ATOM     77  C   UNL     1       8.523   0.123  16.743  1.00  0.00     0.010 A 
ATOM     78  C   UNL     1       8.272   0.332  14.366  1.00  0.00     0.010 A 
ATOM     79  C   UNL     1       8.114   1.454  16.899  1.00  0.00     0.020 A 
ATOM     80  C   UNL     1       7.910   1.673  14.505  1.00  0.00     0.020 A 
ATOM     81  C   UNL     1       7.795   2.214  15.776  1.00  0.00     0.054 A 
BRANCH  81  82
ATOM     82  S   UNL     1       7.168   3.896  15.989  1.00  0.00     0.124 S 
ATOM     83  O   UNL     1       5.880   3.655  16.632  1.00  0.00    -0.237 OA
ATOM     84  O   UNL     1       8.196   4.502  16.831  1.00  0.00    -0.237 OA
ATOM     85  O   UNL     1       7.103   4.412  14.624  1.00  0.00    -0.744 OA
ENDBRANCH  81  82
ENDBRANCH  62  76
BRANCH  63  86
ATOM     86  C   UNL     1       1.179  -3.364  12.428  1.00  0.00    -0.014 A 
ATOM     87  C   UNL     1       0.128  -2.720  13.111  1.00  0.00     0.010 A 
ATOM     88  C   UNL     1       1.229  -3.218  11.027  1.00  0.00     0.010 A 
ATOM     89  C   UNL     1      -0.778  -1.885  12.433  1.00  0.00     0.020 A 
ATOM     90  C   UNL     1       0.324  -2.394  10.343  1.00  0.00     0.020 A 
ATOM     91  C   UNL     1      -0.655  -1.704  11.054  1.00  0.00     0.054 A 
BRANCH  91  92
ATOM     92  S   UNL     1      -1.677  -0.450  10.220  1.00  0.00     0.124 S 
ATOM     93  O   UNL     1      -3.003  -1.058  10.246  1.00  0.00    -0.237 OA
ATOM     94  O   UNL     1      -1.501   0.722  11.073  1.00  0.00    -0.237 OA
ATOM     95  O   UNL     1      -1.070  -0.340   8.893  1.00  0.00    -0.744 OA
ENDBRANCH  91  92
ENDBRANCH  63  86
BRANCH  75  96
ATOM     96  C   UNL     1       4.532  -5.617  17.298  1.00  0.00    -0.014 A 
ATOM     97  C   UNL     1       4.129  -6.644  16.420  1.00  0.00     0.010 A 
ATOM     98  C   UNL     1       4.640  -5.916  18.667  1.00  0.00     0.010 A 
ATOM     99  C   UNL     1       3.802  -7.919  16.908  1.00  0.00     0.020 A 
ATOM    100  C   UNL     1       4.337  -7.187  19.157  1.00  0.00     0.020 A 
ATOM    101  C   UNL     1       3.903  -8.179  18.278  1.00  0.00     0.054 A 
BRANCH 101 102
ATOM    102  S   UNL     1       3.482  -9.827  18.912  1.00  0.00     0.124 S 
ATOM    103  O   UNL     1       2.040  -9.893  18.688  1.00  0.00    -0.237 OA
ATOM    104  O   UNL     1       4.290 -10.713  18.077  1.00  0.00    -0.237 OA
ATOM    105  O   UNL     1       3.887  -9.774  20.316  1.00  0.00    -0.744 OA
ENDBRANCH 101 102
ENDBRANCH  75  96
ENDBRANCH  49  50
ENDBRANCH  41  44
ENDBRANCH  39  40
ENDBRANCH  38  39
ENDBRANCH   1  38
TORSDOF 20
