REMARK SMILES COc1ccc(-c2ccc(CCC(=O)NCCCCCCNC(=O)c3ccc(-c4c5nc(c(-c6ccc(S(=O)(=O)[O-])cc6)c6ccc([nH]6)c(-c6ccc(S(=O)(=O)[O-])cc6)c6nc(c(-c7ccc(S(=O)(=O)[O-])cc7)c7ccc4[nH]7)C=C6)C=C5)cc3)n2-c2ccc(C(C)=O)cc2)cc1
REMARK SMILES IDX 18 1 17 2 16 3 15 4 13 5 14 6 12 8 11 9 10 10 7 11 8 12
REMARK SMILES IDX 85 13 9 14 6 15 3 16 4 17 96 18 5 19 95 20 2 21 1 22 86 23
REMARK SMILES IDX 87 24 94 25 88 26 93 27 89 28 90 29 91 30 92 31 19 32 20 33
REMARK SMILES IDX 21 34 22 35 23 36 24 38 25 39 26 40 84 41 27 42 83 43 28 44
REMARK SMILES IDX 29 45 30 46 77 47 31 48 82 49 76 50 78 51 32 52 81 53 75 54
REMARK SMILES IDX 74 55 33 57 63 58 44 59 62 60 45 61 48 62 61 63 79 64 46 65
REMARK SMILES IDX 47 66 60 68 80 69 49 70 34 71 35 72 43 73 36 74 42 75 37 76
REMARK SMILES IDX 38 77 39 78 40 79 41 80 64 81 65 82 73 83 66 84 72 85 67 86
REMARK SMILES IDX 68 87 69 88 70 89 71 90 50 91 51 92 59 93 52 94 58 95 53 96
REMARK SMILES IDX 54 97 55 98 56 99 57 100
REMARK H PARENT 15 7 22 37 78 56 48 67
REMARK Flexibility Score: inf
ROOT
ATOM      1  C   UNL     1       5.772  -0.737  -8.008  1.00  0.00     0.002 C 
ENDROOT
BRANCH   1   2
ATOM      2  C   UNL     1       4.636   0.276  -7.943  1.00  0.00     0.021 C 
BRANCH   2   3
ATOM      3  C   UNL     1       5.066   1.728  -7.753  1.00  0.00     0.116 C 
BRANCH   3   4
ATOM      4  N   UNL     1       5.215   2.384  -9.037  1.00  0.00    -0.356 N 
ATOM      5  C   UNL     1       4.424   3.332  -9.611  1.00  0.00     0.220 C 
ATOM      6  O   UNL     1       4.643   3.647 -10.783  1.00  0.00    -0.275 OA
ATOM      7  H   UNL     1       5.996   2.106  -9.567  1.00  0.00     0.163 HD
BRANCH   5   8
ATOM      8  C   UNL     1       3.335   4.018  -8.808  1.00  0.00     0.106 C 
BRANCH   8   9
ATOM      9  C   UNL     1       1.937   3.462  -9.080  1.00  0.00     0.064 C 
BRANCH   9  10
ATOM     10  C   UNL     1       1.592   2.243  -8.266  1.00  0.00     0.024 A 
ATOM     11  C   UNL     1       1.294   0.991  -6.410  1.00  0.00     0.053 A 
ATOM     12  C   UNL     1       1.325   0.142  -7.510  1.00  0.00     0.029 A 
ATOM     13  N   UNL     1       1.158   2.275  -6.939  1.00  0.00    -0.314 N 
ATOM     14  C   UNL     1       1.520   0.925  -8.668  1.00  0.00     0.024 A 
BRANCH  11  15
ATOM     15  C   UNL     1       1.114   0.603  -5.011  1.00  0.00    -0.001 A 
ATOM     16  C   UNL     1       0.801  -0.278  -2.366  1.00  0.00     0.118 A 
ATOM     17  C   UNL     1      -0.256  -0.381  -3.269  1.00  0.00     0.047 A 
ATOM     18  C   UNL     1       2.025   0.244  -2.784  1.00  0.00     0.047 A 
ATOM     19  C   UNL     1      -0.103   0.062  -4.585  1.00  0.00     0.014 A 
ATOM     20  C   UNL     1       2.180   0.686  -4.105  1.00  0.00     0.014 A 
BRANCH  16  21
ATOM     21  O   UNL     1       0.580  -0.785  -1.116  1.00  0.00    -0.497 OA
ATOM     22  C   UNL     1       1.023   0.066  -0.063  1.00  0.00     0.278 C 
ENDBRANCH  16  21
ENDBRANCH  11  15
BRANCH  13  23
ATOM     23  C   UNL     1       0.347   3.299  -6.387  1.00  0.00     0.046 A 
ATOM     24  C   UNL     1      -0.755   3.705  -7.150  1.00  0.00     0.027 A 
ATOM     25  C   UNL     1       0.541   3.805  -5.105  1.00  0.00     0.027 A 
ATOM     26  C   UNL     1      -1.661   4.632  -6.645  1.00  0.00     0.014 A 
ATOM     27  C   UNL     1      -0.359   4.758  -4.612  1.00  0.00     0.014 A 
ATOM     28  C   UNL     1      -1.466   5.178  -5.376  1.00  0.00     0.017 A 
BRANCH  28  29
ATOM     29  C   UNL     1      -2.385   6.206  -4.798  1.00  0.00     0.159 C 
ATOM     30  C   UNL     1      -3.682   6.563  -5.485  1.00  0.00     0.093 C 
ATOM     31  O   UNL     1      -2.067   6.771  -3.750  1.00  0.00    -0.295 OA
ENDBRANCH  28  29
ENDBRANCH  13  23
ENDBRANCH   9  10
ENDBRANCH   8   9
ENDBRANCH   5   8
ENDBRANCH   3   4
ENDBRANCH   2   3
ENDBRANCH   1   2
BRANCH   1  32
ATOM     32  C   UNL     1       6.564  -0.882  -6.706  1.00  0.00     0.002 C 
BRANCH  32  33
ATOM     33  C   UNL     1       5.726  -1.116  -5.437  1.00  0.00     0.021 C 
BRANCH  33  34
ATOM     34  C   UNL     1       4.818  -2.348  -5.495  1.00  0.00     0.116 C 
BRANCH  34  35
ATOM     35  N   UNL     1       5.622  -3.552  -5.588  1.00  0.00    -0.352 N 
ATOM     36  C   UNL     1       5.311  -4.851  -5.292  1.00  0.00     0.251 C 
ATOM     37  H   UNL     1       6.539  -3.412  -5.917  1.00  0.00     0.163 HD
ATOM     38  O   UNL     1       6.229  -5.628  -5.056  1.00  0.00    -0.269 OA
BRANCH  36  39
ATOM     39  C   UNL     1       3.914  -5.341  -5.279  1.00  0.00     0.039 A 
ATOM     40  C   UNL     1       3.619  -6.419  -4.432  1.00  0.00     0.014 A 
ATOM     41  C   UNL     1       2.947  -4.868  -6.173  1.00  0.00     0.014 A 
ATOM     42  C   UNL     1       2.358  -7.005  -4.463  1.00  0.00     0.010 A 
ATOM     43  C   UNL     1       1.682  -5.448  -6.204  1.00  0.00     0.010 A 
ATOM     44  C   UNL     1       1.388  -6.511  -5.344  1.00  0.00    -0.014 A 
BRANCH  44  45
ATOM     45  C   UNL     1      -0.003  -6.999  -5.218  1.00  0.00     0.031 A 
ATOM     46  C   UNL     1      -0.743  -6.260  -4.080  1.00  0.00     0.074 A 
ATOM     47  C   UNL     1      -0.386  -8.017  -6.054  1.00  0.00     0.049 A 
ATOM     48  N   UNL     1      -1.743  -6.657  -3.360  1.00  0.00    -0.248 NA
ATOM     49  C   UNL     1      -0.260  -4.926  -3.613  1.00  0.00     0.031 C 
ATOM     50  C   UNL     1       0.463  -8.599  -7.124  1.00  0.00     0.029 A 
ATOM     51  N   UNL     1      -1.535  -8.772  -6.194  1.00  0.00    -0.354 N 
ATOM     52  C   UNL     1      -2.106  -5.604  -2.485  1.00  0.00     0.074 A 
ATOM     53  C   UNL     1      -1.103  -4.594  -2.630  1.00  0.00     0.031 C 
ATOM     54  C   UNL     1      -0.154  -9.642  -7.728  1.00  0.00     0.029 A 
ATOM     55  C   UNL     1      -1.463  -9.838  -7.138  1.00  0.00     0.049 A 
ATOM     56  H   UNL     1      -2.350  -8.586  -5.675  1.00  0.00     0.167 HD
ATOM     57  C   UNL     1      -3.275  -5.599  -1.777  1.00  0.00     0.031 A 
ATOM     58  C   UNL     1      -2.375 -10.832  -7.393  1.00  0.00     0.031 A 
ATOM     59  C   UNL     1      -3.974  -6.816  -2.013  1.00  0.00     0.049 A 
ATOM     60  C   UNL     1      -3.558 -10.486  -6.594  1.00  0.00     0.074 A 
ATOM     61  C   UNL     1      -3.732  -8.107  -1.623  1.00  0.00     0.029 A 
ATOM     62  N   UNL     1      -4.844  -6.809  -3.075  1.00  0.00    -0.354 N 
ATOM     63  N   UNL     1      -4.389  -9.526  -6.860  1.00  0.00    -0.248 NA
ATOM     64  C   UNL     1      -3.817 -11.253  -5.368  1.00  0.00     0.031 C 
ATOM     65  C   UNL     1      -4.041  -8.842  -2.783  1.00  0.00     0.029 A 
ATOM     66  C   UNL     1      -4.691  -8.014  -3.707  1.00  0.00     0.049 A 
ATOM     67  H   UNL     1      -5.457  -6.082  -3.332  1.00  0.00     0.167 HD
ATOM     68  C   UNL     1      -4.999  -9.337  -5.648  1.00  0.00     0.074 A 
ATOM     69  C   UNL     1      -4.872 -10.581  -4.917  1.00  0.00     0.031 C 
ATOM     70  C   UNL     1      -5.017  -8.093  -5.107  1.00  0.00     0.031 A 
BRANCH  57  71
ATOM     71  C   UNL     1      -4.034  -4.528  -1.041  1.00  0.00    -0.014 A 
ATOM     72  C   UNL     1      -5.111  -4.962  -0.220  1.00  0.00     0.010 A 
ATOM     73  C   UNL     1      -3.987  -3.169  -1.377  1.00  0.00     0.010 A 
ATOM     74  C   UNL     1      -6.170  -4.121   0.120  1.00  0.00     0.020 A 
ATOM     75  C   UNL     1      -5.035  -2.304  -1.003  1.00  0.00     0.020 A 
ATOM     76  C   UNL     1      -6.141  -2.800  -0.305  1.00  0.00     0.054 A 
BRANCH  76  77
ATOM     77  S   UNL     1      -7.606  -1.776   0.011  1.00  0.00     0.124 S 
ATOM     78  O   UNL     1      -8.602  -2.380  -0.868  1.00  0.00    -0.237 OA
ATOM     79  O   UNL     1      -7.830  -1.980   1.441  1.00  0.00    -0.237 OA
ATOM     80  O   UNL     1      -7.171  -0.431  -0.357  1.00  0.00    -0.744 OA
ENDBRANCH  76  77
ENDBRANCH  57  71
BRANCH  58  81
ATOM     81  C   UNL     1      -2.479 -12.166  -8.115  1.00  0.00    -0.014 A 
ATOM     82  C   UNL     1      -1.477 -12.804  -8.853  1.00  0.00     0.010 A 
ATOM     83  C   UNL     1      -3.658 -12.943  -7.892  1.00  0.00     0.010 A 
ATOM     84  C   UNL     1      -1.584 -14.181  -9.188  1.00  0.00     0.020 A 
ATOM     85  C   UNL     1      -3.750 -14.311  -8.156  1.00  0.00     0.020 A 
ATOM     86  C   UNL     1      -2.690 -14.938  -8.778  1.00  0.00     0.054 A 
BRANCH  86  87
ATOM     87  S   UNL     1      -2.692 -16.753  -8.901  1.00  0.00     0.124 S 
ATOM     88  O   UNL     1      -3.138 -16.976 -10.272  1.00  0.00    -0.237 OA
ATOM     89  O   UNL     1      -1.300 -17.096  -8.624  1.00  0.00    -0.237 OA
ATOM     90  O   UNL     1      -3.637 -17.165  -7.863  1.00  0.00    -0.744 OA
ENDBRANCH  86  87
ENDBRANCH  58  81
BRANCH  70  91
ATOM     91  C   UNL     1      -5.009  -6.936  -6.092  1.00  0.00    -0.014 A 
ATOM     92  C   UNL     1      -6.077  -6.821  -7.002  1.00  0.00     0.010 A 
ATOM     93  C   UNL     1      -3.972  -5.986  -6.188  1.00  0.00     0.010 A 
ATOM     94  C   UNL     1      -6.127  -5.792  -7.951  1.00  0.00     0.020 A 
ATOM     95  C   UNL     1      -4.011  -4.947  -7.141  1.00  0.00     0.020 A 
ATOM     96  C   UNL     1      -5.099  -4.850  -8.010  1.00  0.00     0.054 A 
BRANCH  96  97
ATOM     97  S   UNL     1      -5.231  -3.501  -9.223  1.00  0.00     0.124 S 
ATOM     98  O   UNL     1      -5.312  -4.215 -10.496  1.00  0.00    -0.237 OA
ATOM     99  O   UNL     1      -6.458  -2.825  -8.810  1.00  0.00    -0.237 OA
ATOM    100  O   UNL     1      -4.005  -2.729  -9.029  1.00  0.00    -0.744 OA
ENDBRANCH  96  97
ENDBRANCH  70  91
ENDBRANCH  44  45
ENDBRANCH  36  39
ENDBRANCH  34  35
ENDBRANCH  33  34
ENDBRANCH  32  33
ENDBRANCH   1  32
TORSDOF 22
