REMARK SMILES CS(=O)(=O)N1C[C@@H]2CN(C(=O)c3ccco3)C[C@]2(C(=O)NCCCCCCNC(=O)c2ccc(-c3c4nc(c(-c5ccc(S(=O)(=O)[O-])cc5)c5ccc([nH]5)c(-c5ccc(S(=O)(=O)[O-])cc5)c5nc(c(-c6ccc(S(=O)(=O)[O-])cc6)c6ccc3[nH]6)C=C5)C=C4)cc2)C1
REMARK SMILES IDX 25 1 24 2 23 3 22 4 21 5 19 6 20 7 18 9 5 10 6 11 91 12 7 13
REMARK SMILES IDX 8 14 17 15 9 16 2 17 1 18 3 19 4 20 10 21 11 22 12 23 13 24
REMARK SMILES IDX 16 25 14 26 15 27 26 28 27 29 28 30 29 31 30 33 31 34 32 35
REMARK SMILES IDX 90 36 33 37 89 38 34 39 35 40 36 41 83 42 37 43 88 44 82 45
REMARK SMILES IDX 84 46 38 47 87 48 81 49 80 50 39 52 69 53 50 54 68 55 51 56
REMARK SMILES IDX 54 57 67 58 85 59 52 60 53 61 66 63 86 64 55 65 40 66 41 67
REMARK SMILES IDX 49 68 42 69 48 70 43 71 44 72 45 73 46 74 47 75 70 76 71 77
REMARK SMILES IDX 79 78 72 79 78 80 73 81 74 82 75 83 76 84 77 85 56 86 57 87
REMARK SMILES IDX 65 88 58 89 64 90 59 91 60 92 61 93 62 94 63 95
REMARK H PARENT 21 8 28 32 84 51 54 62
REMARK Flexibility Score: inf
ROOT
ATOM      1  C   UNL     1       7.245  -5.903   4.234  1.00  0.00     0.002 C 
ENDROOT
BRANCH   1   2
ATOM      2  C   UNL     1       6.732  -5.967   2.796  1.00  0.00     0.002 C 
BRANCH   2   3
ATOM      3  C   UNL     1       5.208  -5.944   2.685  1.00  0.00     0.021 C 
BRANCH   3   4
ATOM      4  C   UNL     1       4.579  -4.584   2.979  1.00  0.00     0.116 C 
BRANCH   4   5
ATOM      5  N   UNL     1       4.676  -3.756   1.794  1.00  0.00    -0.356 N 
ATOM      6  C   UNL     1       3.739  -3.672   0.796  1.00  0.00     0.229 C 
ATOM      7  O   UNL     1       4.099  -3.299  -0.322  1.00  0.00    -0.274 OA
ATOM      8  H   UNL     1       5.486  -3.204   1.697  1.00  0.00     0.163 HD
BRANCH   6   9
ATOM      9  C   UNL     1       2.275  -4.004   1.194  1.00  0.00     0.086 C 
ATOM     10  N   UNL     1       0.805  -2.034   1.603  1.00  0.00    -0.201 NA
ATOM     11  C   UNL     1      -0.018  -3.190   1.839  1.00  0.00     0.108 C 
ATOM     12  C   UNL     1       2.033  -2.431   0.899  1.00  0.00     0.121 C 
ATOM     13  C   UNL     1       0.720  -4.205   0.995  1.00  0.00     0.042 C 
ATOM     14  C   UNL     1       0.392  -5.623   1.394  1.00  0.00     0.126 C 
ATOM     15  C   UNL     1       2.468  -5.356   0.317  1.00  0.00     0.138 C 
ATOM     16  N   UNL     1       1.550  -6.322   0.928  1.00  0.00    -0.334 N 
BRANCH  10  17
ATOM     17  S   UNL     1       0.274  -0.468   1.716  1.00  0.00     0.211 S 
ATOM     18  C   UNL     1       0.605   0.172   0.086  1.00  0.00     0.176 C 
ATOM     19  O   UNL     1       1.154   0.227   2.633  1.00  0.00    -0.213 OA
ATOM     20  O   UNL     1      -1.157  -0.487   1.913  1.00  0.00    -0.213 OA
ENDBRANCH  10  17
BRANCH  16  21
ATOM     21  C   UNL     1       1.755  -7.635   1.342  1.00  0.00     0.289 C 
ATOM     22  O   UNL     1       0.893  -8.200   2.018  1.00  0.00    -0.265 OA
BRANCH  21  23
ATOM     23  C   UNL     1       3.025  -8.272   1.071  1.00  0.00     0.191 A 
ATOM     24  C   UNL     1       3.826  -9.028   1.909  1.00  0.00     0.056 A 
ATOM     25  O   UNL     1       3.586  -8.223  -0.175  1.00  0.00    -0.459 OA
ATOM     26  C   UNL     1       4.944  -9.437   1.147  1.00  0.00     0.043 A 
ATOM     27  C   UNL     1       4.733  -8.954  -0.122  1.00  0.00     0.196 A 
ENDBRANCH  21  23
ENDBRANCH  16  21
ENDBRANCH   6   9
ENDBRANCH   4   5
ENDBRANCH   3   4
ENDBRANCH   2   3
ENDBRANCH   1   2
BRANCH   1  28
ATOM     28  C   UNL     1       6.733  -7.020   5.150  1.00  0.00     0.021 C 
BRANCH  28  29
ATOM     29  C   UNL     1       7.020  -8.436   4.659  1.00  0.00     0.116 C 
BRANCH  29  30
ATOM     30  N   UNL     1       8.442  -8.678   4.492  1.00  0.00    -0.352 N 
ATOM     31  C   UNL     1       9.212  -9.688   5.006  1.00  0.00     0.251 C 
ATOM     32  H   UNL     1       8.920  -8.025   3.931  1.00  0.00     0.163 HD
ATOM     33  O   UNL     1      10.435  -9.629   4.930  1.00  0.00    -0.269 OA
BRANCH  31  34
ATOM     34  C   UNL     1       8.561 -10.842   5.659  1.00  0.00     0.039 A 
ATOM     35  C   UNL     1       9.052 -11.290   6.886  1.00  0.00     0.014 A 
ATOM     36  C   UNL     1       7.486 -11.496   5.047  1.00  0.00     0.014 A 
ATOM     37  C   UNL     1       8.449 -12.382   7.513  1.00  0.00     0.010 A 
ATOM     38  C   UNL     1       6.844 -12.541   5.706  1.00  0.00     0.010 A 
ATOM     39  C   UNL     1       7.333 -13.010   6.934  1.00  0.00    -0.014 A 
BRANCH  39  40
ATOM     40  C   UNL     1       6.711 -14.196   7.579  1.00  0.00     0.031 A 
ATOM     41  C   UNL     1       6.766 -15.537   6.892  1.00  0.00     0.074 A 
ATOM     42  C   UNL     1       6.096 -14.071   8.772  1.00  0.00     0.049 A 
ATOM     43  N   UNL     1       6.275 -16.685   7.284  1.00  0.00    -0.248 NA
ATOM     44  C   UNL     1       7.447 -15.593   5.587  1.00  0.00     0.031 C 
ATOM     45  C   UNL     1       5.953 -12.824   9.528  1.00  0.00     0.029 A 
ATOM     46  N   UNL     1       5.478 -15.008   9.563  1.00  0.00    -0.354 N 
ATOM     47  C   UNL     1       6.590 -17.594   6.280  1.00  0.00     0.074 A 
ATOM     48  C   UNL     1       7.252 -16.854   5.230  1.00  0.00     0.031 C 
ATOM     49  C   UNL     1       5.317 -13.079  10.683  1.00  0.00     0.029 A 
ATOM     50  C   UNL     1       4.973 -14.496  10.736  1.00  0.00     0.049 A 
ATOM     51  H   UNL     1       5.404 -15.957   9.314  1.00  0.00     0.167 HD
ATOM     52  C   UNL     1       6.378 -18.931   6.247  1.00  0.00     0.031 A 
ATOM     53  C   UNL     1       4.305 -15.101  11.738  1.00  0.00     0.031 A 
ATOM     54  C   UNL     1       5.726 -19.670   7.295  1.00  0.00     0.049 A 
ATOM     55  C   UNL     1       4.050 -16.585  11.656  1.00  0.00     0.074 A 
ATOM     56  C   UNL     1       5.478 -21.030   7.363  1.00  0.00     0.029 A 
ATOM     57  N   UNL     1       5.228 -19.115   8.464  1.00  0.00    -0.354 N 
ATOM     58  N   UNL     1       4.394 -17.433  10.715  1.00  0.00    -0.248 NA
ATOM     59  C   UNL     1       3.336 -17.198  12.785  1.00  0.00     0.031 C 
ATOM     60  C   UNL     1       4.788 -21.291   8.551  1.00  0.00     0.029 A 
ATOM     61  C   UNL     1       4.670 -20.104   9.255  1.00  0.00     0.049 A 
ATOM     62  H   UNL     1       5.267 -18.159   8.697  1.00  0.00     0.167 HD
ATOM     63  C   UNL     1       3.981 -18.684  11.165  1.00  0.00     0.074 A 
ATOM     64  C   UNL     1       3.378 -18.483  12.465  1.00  0.00     0.031 C 
ATOM     65  C   UNL     1       4.093 -19.892  10.558  1.00  0.00     0.031 A 
BRANCH  52  66
ATOM     66  C   UNL     1       6.876 -19.692   5.046  1.00  0.00    -0.014 A 
ATOM     67  C   UNL     1       8.255 -19.874   4.832  1.00  0.00     0.010 A 
ATOM     68  C   UNL     1       5.962 -20.295   4.164  1.00  0.00     0.010 A 
ATOM     69  C   UNL     1       8.711 -20.627   3.748  1.00  0.00     0.020 A 
ATOM     70  C   UNL     1       6.414 -21.076   3.095  1.00  0.00     0.020 A 
ATOM     71  C   UNL     1       7.787 -21.229   2.890  1.00  0.00     0.054 A 
BRANCH  71  72
ATOM     72  S   UNL     1       8.410 -22.254   1.530  1.00  0.00     0.124 S 
ATOM     73  O   UNL     1       9.007 -21.254   0.647  1.00  0.00    -0.237 OA
ATOM     74  O   UNL     1       9.356 -23.139   2.206  1.00  0.00    -0.237 OA
ATOM     75  O   UNL     1       7.212 -22.908   1.009  1.00  0.00    -0.744 OA
ENDBRANCH  71  72
ENDBRANCH  52  66
BRANCH  53  76
ATOM     76  C   UNL     1       3.822 -14.318  12.912  1.00  0.00    -0.014 A 
ATOM     77  C   UNL     1       4.333 -14.560  14.201  1.00  0.00     0.010 A 
ATOM     78  C   UNL     1       2.801 -13.363  12.754  1.00  0.00     0.010 A 
ATOM     79  C   UNL     1       3.792 -13.907  15.314  1.00  0.00     0.020 A 
ATOM     80  C   UNL     1       2.285 -12.680  13.859  1.00  0.00     0.020 A 
ATOM     81  C   UNL     1       2.765 -12.977  15.135  1.00  0.00     0.054 A 
BRANCH  81  82
ATOM     82  S   UNL     1       2.066 -12.153  16.592  1.00  0.00     0.124 S 
ATOM     83  O   UNL     1       1.295 -13.229  17.207  1.00  0.00    -0.237 OA
ATOM     84  O   UNL     1       3.260 -11.732  17.320  1.00  0.00    -0.237 OA
ATOM     85  O   UNL     1       1.277 -11.063  16.022  1.00  0.00    -0.744 OA
ENDBRANCH  81  82
ENDBRANCH  53  76
BRANCH  65  86
ATOM     86  C   UNL     1       3.627 -21.102  11.327  1.00  0.00    -0.014 A 
ATOM     87  C   UNL     1       2.267 -21.329  11.600  1.00  0.00     0.010 A 
ATOM     88  C   UNL     1       4.578 -22.046  11.759  1.00  0.00     0.010 A 
ATOM     89  C   UNL     1       1.872 -22.448  12.338  1.00  0.00     0.020 A 
ATOM     90  C   UNL     1       4.184 -23.184  12.465  1.00  0.00     0.020 A 
ATOM     91  C   UNL     1       2.835 -23.367  12.769  1.00  0.00     0.054 A 
BRANCH  91  92
ATOM     92  S   UNL     1       2.296 -24.818  13.714  1.00  0.00     0.124 S 
ATOM     93  O   UNL     1       1.948 -24.228  15.004  1.00  0.00    -0.237 OA
ATOM     94  O   UNL     1       1.171 -25.314  12.925  1.00  0.00    -0.237 OA
ATOM     95  O   UNL     1       3.473 -25.683  13.722  1.00  0.00    -0.744 OA
ENDBRANCH  91  92
ENDBRANCH  65  86
ENDBRANCH  39  40
ENDBRANCH  31  34
ENDBRANCH  29  30
ENDBRANCH  28  29
ENDBRANCH   1  28
TORSDOF 19
