REMARK SMILES NC(=O)c1ccccc1NC(=O)[C@@H]1CC=CC[C@@H]1C(=O)NCCCCCCNC(=O)c1ccc(-c2c3nc(c(-c4ccc(S(=O)(=O)[O-])cc4)c4ccc([nH]4)c(-c4ccc(S(=O)(=O)[O-])cc4)c4nc(c(-c5ccc(S(=O)(=O)[O-])cc5)c5ccc2[nH]5)C=C4)C=C3)cc1
REMARK SMILES IDX 24 1 23 2 22 3 21 4 19 5 20 6 18 8 13 9 14 10 15 11 17 12
REMARK SMILES IDX 16 13 11 14 10 15 12 17 9 18 4 19 5 20 6 21 8 22 7 23 2 24
REMARK SMILES IDX 1 25 3 28 25 29 26 30 27 31 28 32 29 33 30 35 31 36 32 37
REMARK SMILES IDX 90 38 33 39 89 40 34 41 35 42 36 43 83 44 37 45 88 46 82 47
REMARK SMILES IDX 84 48 38 49 87 50 81 51 80 52 39 54 69 55 50 56 68 57 51 58
REMARK SMILES IDX 54 59 67 60 85 61 52 62 53 63 66 65 86 66 55 67 40 68 41 69
REMARK SMILES IDX 49 70 42 71 48 72 43 73 44 74 45 75 46 76 47 77 70 78 71 79
REMARK SMILES IDX 79 80 72 81 78 82 73 83 74 84 75 85 76 86 77 87 56 88 57 89
REMARK SMILES IDX 65 90 58 91 64 92 59 93 60 94 61 95 62 96 63 97
REMARK H PARENT 21 7 10 16 1 26 1 27 28 34 84 53 54 64
REMARK Flexibility Score: inf
ROOT
ATOM      1  C   UNL     1       9.082  -1.340  -1.324  1.00  0.00     0.002 C 
ENDROOT
BRANCH   1   2
ATOM      2  C   UNL     1       7.641  -1.407  -1.838  1.00  0.00     0.021 C 
BRANCH   2   3
ATOM      3  C   UNL     1       6.725  -0.284  -1.367  1.00  0.00     0.116 C 
BRANCH   3   4
ATOM      4  N   UNL     1       7.120   1.024  -1.841  1.00  0.00    -0.356 N 
ATOM      5  C   UNL     1       6.409   2.181  -1.958  1.00  0.00     0.224 C 
ATOM      6  O   UNL     1       7.017   3.140  -2.439  1.00  0.00    -0.275 OA
ATOM      7  H   UNL     1       8.060   1.091  -2.126  1.00  0.00     0.163 HD
BRANCH   5   8
ATOM      8  C   UNL     1       4.913   2.266  -1.607  1.00  0.00     0.095 C 
ATOM      9  C   UNL     1       4.431   3.728  -1.427  1.00  0.00     0.095 C 
ATOM     10  C   UNL     1       5.299   4.465  -0.388  1.00  0.00     0.041 C 
ATOM     11  C   UNL     1       5.353   3.667   0.888  1.00  0.00    -0.030 C 
ATOM     12  C   UNL     1       4.511   1.602  -0.258  1.00  0.00     0.041 C 
ATOM     13  C   UNL     1       4.960   2.385   0.954  1.00  0.00    -0.030 C 
BRANCH   9  14
ATOM     14  C   UNL     1       4.019   4.586  -2.617  1.00  0.00     0.228 C 
ATOM     15  N   UNL     1       3.234   5.712  -2.377  1.00  0.00    -0.325 N 
ATOM     16  H   UNL     1       3.106   6.310  -3.148  1.00  0.00     0.169 HD
ATOM     17  O   UNL     1       4.372   4.342  -3.769  1.00  0.00    -0.274 OA
BRANCH  15  18
ATOM     18  C   UNL     1       2.590   6.121  -1.173  1.00  0.00     0.053 A 
ATOM     19  C   UNL     1       2.639   7.460  -0.753  1.00  0.00     0.063 A 
ATOM     20  C   UNL     1       2.358   7.787   0.585  1.00  0.00     0.016 A 
ATOM     21  C   UNL     1       1.927   6.807   1.477  1.00  0.00     0.001 A 
ATOM     22  C   UNL     1       1.975   5.199  -0.315  1.00  0.00     0.027 A 
ATOM     23  C   UNL     1       1.686   5.522   1.012  1.00  0.00     0.002 A 
BRANCH  19  24
ATOM     24  C   UNL     1       3.008   8.571  -1.654  1.00  0.00     0.250 C 
ATOM     25  N   UNL     1       2.459   8.541  -2.904  1.00  0.00    -0.366 N 
ATOM     26  H   UNL     1       2.667   9.255  -3.550  1.00  0.00     0.159 HD
ATOM     27  H   UNL     1       1.855   7.807  -3.159  1.00  0.00     0.159 HD
ATOM     28  O   UNL     1       3.701   9.514  -1.278  1.00  0.00    -0.269 OA
ENDBRANCH  19  24
ENDBRANCH  15  18
ENDBRANCH   9  14
ENDBRANCH   5   8
ENDBRANCH   3   4
ENDBRANCH   2   3
ENDBRANCH   1   2
BRANCH   1  29
ATOM     29  C   UNL     1       9.265  -1.299   0.197  1.00  0.00     0.002 C 
BRANCH  29  30
ATOM     30  C   UNL     1       8.600  -2.424   0.993  1.00  0.00     0.021 C 
BRANCH  30  31
ATOM     31  C   UNL     1       8.880  -3.845   0.511  1.00  0.00     0.116 C 
BRANCH  31  32
ATOM     32  N   UNL     1      10.295  -4.163   0.460  1.00  0.00    -0.352 N 
ATOM     33  C   UNL     1      10.951  -5.304   0.850  1.00  0.00     0.251 C 
ATOM     34  H   UNL     1      10.870  -3.455   0.090  1.00  0.00     0.163 HD
ATOM     35  O   UNL     1      12.178  -5.336   0.818  1.00  0.00    -0.269 OA
BRANCH  33  36
ATOM     36  C   UNL     1      10.195  -6.480   1.341  1.00  0.00     0.039 A 
ATOM     37  C   UNL     1      10.676  -7.152   2.469  1.00  0.00     0.014 A 
ATOM     38  C   UNL     1       9.040  -6.938   0.699  1.00  0.00     0.014 A 
ATOM     39  C   UNL     1       9.970  -8.242   2.984  1.00  0.00     0.010 A 
ATOM     40  C   UNL     1       8.301  -7.984   1.253  1.00  0.00     0.010 A 
ATOM     41  C   UNL     1       8.758  -8.648   2.401  1.00  0.00    -0.014 A 
BRANCH  41  42
ATOM     42  C   UNL     1       7.968  -9.758   2.998  1.00  0.00     0.031 A 
ATOM     43  C   UNL     1       7.764 -11.046   2.245  1.00  0.00     0.074 A 
ATOM     44  C   UNL     1       7.419  -9.597   4.219  1.00  0.00     0.049 A 
ATOM     45  N   UNL     1       7.111 -12.119   2.613  1.00  0.00    -0.248 NA
ATOM     46  C   UNL     1       8.354 -11.137   0.899  1.00  0.00     0.031 C 
ATOM     47  C   UNL     1       7.504  -8.381   5.033  1.00  0.00     0.029 A 
ATOM     48  N   UNL     1       6.682 -10.460   4.992  1.00  0.00    -0.354 N 
ATOM     49  C   UNL     1       7.217 -13.012   1.553  1.00  0.00     0.074 A 
ATOM     50  C   UNL     1       7.945 -12.334   0.502  1.00  0.00     0.031 C 
ATOM     51  C   UNL     1       6.873  -8.587   6.200  1.00  0.00     0.029 A 
ATOM     52  C   UNL     1       6.310  -9.933   6.207  1.00  0.00     0.049 A 
ATOM     53  H   UNL     1       6.443 -11.370   4.704  1.00  0.00     0.167 HD
ATOM     54  C   UNL     1       6.776 -14.290   1.471  1.00  0.00     0.031 A 
ATOM     55  C   UNL     1       5.594 -10.470   7.214  1.00  0.00     0.031 A 
ATOM     56  C   UNL     1       6.053 -14.968   2.516  1.00  0.00     0.049 A 
ATOM     57  C   UNL     1       5.103 -11.888   7.089  1.00  0.00     0.074 A 
ATOM     58  C   UNL     1       5.583 -16.270   2.533  1.00  0.00     0.029 A 
ATOM     59  N   UNL     1       5.702 -14.402   3.732  1.00  0.00    -0.354 N 
ATOM     60  N   UNL     1       5.261 -12.730   6.096  1.00  0.00    -0.248 NA
ATOM     61  C   UNL     1       4.352 -12.432   8.229  1.00  0.00     0.031 C 
ATOM     62  C   UNL     1       4.913 -16.479   3.743  1.00  0.00     0.029 A 
ATOM     63  C   UNL     1       5.013 -15.324   4.501  1.00  0.00     0.049 A 
ATOM     64  H   UNL     1       5.913 -13.480   4.007  1.00  0.00     0.167 HD
ATOM     65  C   UNL     1       4.651 -13.912   6.504  1.00  0.00     0.074 A 
ATOM     66  C   UNL     1       4.145 -13.682   7.841  1.00  0.00     0.031 C 
ATOM     67  C   UNL     1       4.516 -15.081   5.831  1.00  0.00     0.031 A 
BRANCH  54  68
ATOM     68  C   UNL     1       7.081 -15.056   0.209  1.00  0.00    -0.014 A 
ATOM     69  C   UNL     1       8.393 -15.480  -0.071  1.00  0.00     0.010 A 
ATOM     70  C   UNL     1       6.043 -15.418  -0.668  1.00  0.00     0.010 A 
ATOM     71  C   UNL     1       8.665 -16.232  -1.216  1.00  0.00     0.020 A 
ATOM     72  C   UNL     1       6.307 -16.193  -1.802  1.00  0.00     0.020 A 
ATOM     73  C   UNL     1       7.620 -16.586  -2.074  1.00  0.00     0.054 A 
BRANCH  73  74
ATOM     74  S   UNL     1       7.997 -17.606  -3.526  1.00  0.00     0.124 S 
ATOM     75  O   UNL     1       8.703 -16.658  -4.384  1.00  0.00    -0.237 OA
ATOM     76  O   UNL     1       8.819 -18.674  -2.961  1.00  0.00    -0.237 OA
ATOM     77  O   UNL     1       6.683 -18.023  -4.008  1.00  0.00    -0.744 OA
ENDBRANCH  73  74
ENDBRANCH  54  68
BRANCH  55  78
ATOM     78  C   UNL     1       5.292  -9.670   8.433  1.00  0.00    -0.014 A 
ATOM     79  C   UNL     1       5.859 -10.005   9.675  1.00  0.00     0.010 A 
ATOM     80  C   UNL     1       4.403  -8.582   8.360  1.00  0.00     0.010 A 
ATOM     81  C   UNL     1       5.509  -9.296  10.829  1.00  0.00     0.020 A 
ATOM     82  C   UNL     1       4.075  -7.851   9.505  1.00  0.00     0.020 A 
ATOM     83  C   UNL     1       4.614  -8.227  10.736  1.00  0.00     0.054 A 
BRANCH  83  84
ATOM     84  S   UNL     1       4.175  -7.313  12.241  1.00  0.00     0.124 S 
ATOM     85  O   UNL     1       3.251  -8.234  12.895  1.00  0.00    -0.237 OA
ATOM     86  O   UNL     1       5.469  -7.141  12.897  1.00  0.00    -0.237 OA
ATOM     87  O   UNL     1       3.577  -6.082  11.729  1.00  0.00    -0.744 OA
ENDBRANCH  83  84
ENDBRANCH  55  78
BRANCH  67  88
ATOM     88  C   UNL     1       3.823 -16.210   6.546  1.00  0.00    -0.014 A 
ATOM     89  C   UNL     1       2.438 -16.178   6.789  1.00  0.00     0.010 A 
ATOM     90  C   UNL     1       4.566 -17.331   6.959  1.00  0.00     0.010 A 
ATOM     91  C   UNL     1       1.818 -17.226   7.475  1.00  0.00     0.020 A 
ATOM     92  C   UNL     1       3.944 -18.394   7.619  1.00  0.00     0.020 A 
ATOM     93  C   UNL     1       2.576 -18.325   7.890  1.00  0.00     0.054 A 
BRANCH  93  94
ATOM     94  S   UNL     1       1.744 -19.680   8.762  1.00  0.00     0.124 S 
ATOM     95  O   UNL     1       1.528 -19.101  10.086  1.00  0.00    -0.237 OA
ATOM     96  O   UNL     1       0.539 -19.886   7.962  1.00  0.00    -0.237 OA
ATOM     97  O   UNL     1       2.714 -20.772   8.710  1.00  0.00    -0.744 OA
ENDBRANCH  93  94
ENDBRANCH  67  88
ENDBRANCH  41  42
ENDBRANCH  33  36
ENDBRANCH  31  32
ENDBRANCH  30  31
ENDBRANCH  29  30
ENDBRANCH   1  29
TORSDOF 19
