REMARK SMILES COc1ccc(/C=C2/C(=O)N(c3ccccc3)C(=O)[NH+]=C2NCCCCCCNC(=O)c2ccc(-c3c4nc(c(-c5ccc(S(=O)(=O)[O-])cc5)c5ccc([nH]5)c(-c5ccc(S(=O)(=O)[O-])cc5)c5nc(c(-c6ccc(S(=O)(=O)[O-])cc6)c6ccc3[nH]6)C=C5)C=C4)cc2)cc1C(=O)[O-]
REMARK SMILES IDX 26 1 25 2 24 3 23 4 22 5 7 6 8 7 9 8 21 9 10 10 11 11 20 12
REMARK SMILES IDX 18 13 19 16 6 17 3 18 4 19 93 20 5 21 92 22 2 23 1 24 94 25
REMARK SMILES IDX 95 26 96 27 12 28 13 29 17 30 14 31 16 32 15 33 27 34 28 35
REMARK SMILES IDX 29 36 30 37 31 39 32 40 33 41 91 42 34 43 90 44 35 45 36 46
REMARK SMILES IDX 37 47 84 48 38 49 89 50 83 51 85 52 39 53 88 54 82 55 81 56
REMARK SMILES IDX 40 58 70 59 51 60 69 61 52 62 55 63 68 64 86 65 53 66 54 67
REMARK SMILES IDX 67 69 87 70 56 71 41 72 42 73 50 74 43 75 49 76 44 77 45 78
REMARK SMILES IDX 46 79 47 80 48 81 71 82 72 83 80 84 73 85 79 86 74 87 75 88
REMARK SMILES IDX 76 89 77 90 78 91 57 92 58 93 66 94 59 95 65 96 60 97 61 98
REMARK SMILES IDX 62 99 63 100 64 101
REMARK H PARENT 20 14 22 15 29 38 85 57 55 68
REMARK Flexibility Score: inf
ROOT
ATOM      1  C   UNL     1      -2.034   1.242  -1.616  1.00  0.00     0.002 C 
ENDROOT
BRANCH   1   2
ATOM      2  C   UNL     1      -0.942   2.250  -1.112  1.00  0.00     0.003 C 
BRANCH   2   3
ATOM      3  C   UNL     1       0.673   2.760  -1.718  1.00  0.00     0.037 C 
BRANCH   3   4
ATOM      4  C   UNL     1       1.632   2.947  -3.678  1.00  0.00     0.194 C 
BRANCH   4   5
ATOM      5  N   UNL     1       1.093   3.692  -5.046  1.00  0.00    -0.305 N 
ATOM      6  C   UNL     1       1.255   5.992  -3.088  1.00  0.00     0.030 C 
ATOM      7  C   UNL     1       1.385   6.128  -4.411  1.00  0.00     0.129 C 
ATOM      8  C   UNL     1       1.831   7.388  -5.026  1.00  0.00     0.328 C 
ATOM      9  C   UNL     1       0.980   5.043  -5.335  1.00  0.00     0.236 C 
ATOM     10  O   UNL     1       2.624   8.130  -4.451  1.00  0.00    -0.249 OA
ATOM     11  N   UNL     1       1.244   7.601  -6.257  1.00  0.00    -0.155 N 
ATOM     12  N   UNL     1       0.426   5.391  -6.465  1.00  0.00    -0.209 N 
ATOM     13  C   UNL     1       0.247   6.742  -6.714  1.00  0.00     0.448 C 
ATOM     14  H   UNL     1       0.144   4.713  -7.121  1.00  0.00     0.270 HD
ATOM     15  H   UNL     1       0.808   3.085  -5.767  1.00  0.00     0.256 HD
ATOM     16  O   UNL     1      -0.766   7.153  -7.275  1.00  0.00    -0.212 OA
BRANCH   6  17
ATOM     17  C   UNL     1       1.004   4.639  -2.620  1.00  0.00    -0.024 A 
ATOM     18  C   UNL     1       1.465   1.067  -2.644  1.00  0.00     0.127 A 
ATOM     19  C   UNL     1      -0.031   1.778  -3.377  1.00  0.00     0.048 A 
ATOM     20  C   UNL     1       2.748   2.138  -2.010  1.00  0.00     0.040 A 
ATOM     21  C   UNL     1      -0.319   3.579  -3.283  1.00  0.00     0.012 A 
ATOM     22  C   UNL     1       2.493   3.897  -1.943  1.00  0.00     0.022 A 
BRANCH  18  23
ATOM     23  O   UNL     1       1.483  -0.278  -2.369  1.00  0.00    -0.496 OA
ATOM     24  C   UNL     1       1.698  -0.489  -0.962  1.00  0.00     0.278 C 
ENDBRANCH  18  23
BRANCH  20  25
ATOM     25  C   UNL     1       4.086   1.658  -1.636  1.00  0.00     0.075 C 
ATOM     26  O   UNL     1       4.899   2.297  -1.000  1.00  0.00    -0.545 OA
ATOM     27  O   UNL     1       4.336   0.446  -2.145  1.00  0.00    -0.545 OA
ENDBRANCH  20  25
ENDBRANCH   6  17
BRANCH  11  28
ATOM     28  C   UNL     1       1.442   8.852  -6.883  1.00  0.00     0.111 A 
ATOM     29  C   UNL     1       0.760   9.995  -6.455  1.00  0.00     0.044 A 
ATOM     30  C   UNL     1       2.426   8.951  -7.873  1.00  0.00     0.044 A 
ATOM     31  C   UNL     1       1.068  11.236  -7.019  1.00  0.00     0.004 A 
ATOM     32  C   UNL     1       2.734  10.192  -8.427  1.00  0.00     0.004 A 
ATOM     33  C   UNL     1       2.058  11.334  -7.998  1.00  0.00     0.000 A 
ENDBRANCH  11  28
ENDBRANCH   4   5
ENDBRANCH   3   4
ENDBRANCH   2   3
ENDBRANCH   1   2
BRANCH   1  34
ATOM     34  C   UNL     1      -1.786  -0.274  -1.769  1.00  0.00     0.021 C 
BRANCH  34  35
ATOM     35  C   UNL     1      -1.428  -1.027  -0.494  1.00  0.00     0.116 C 
BRANCH  35  36
ATOM     36  N   UNL     1      -2.519  -1.760   0.108  1.00  0.00    -0.352 N 
ATOM     37  C   UNL     1      -2.418  -2.854   0.941  1.00  0.00     0.251 C 
ATOM     38  H   UNL     1      -3.429  -1.445  -0.099  1.00  0.00     0.163 HD
ATOM     39  O   UNL     1      -3.431  -3.462   1.275  1.00  0.00    -0.269 OA
BRANCH  37  40
ATOM     40  C   UNL     1      -1.085  -3.328   1.406  1.00  0.00     0.039 A 
ATOM     41  C   UNL     1      -0.800  -4.695   1.333  1.00  0.00     0.014 A 
ATOM     42  C   UNL     1      -0.136  -2.457   1.954  1.00  0.00     0.014 A 
ATOM     43  C   UNL     1       0.430  -5.182   1.793  1.00  0.00     0.010 A 
ATOM     44  C   UNL     1       1.115  -2.938   2.361  1.00  0.00     0.010 A 
ATOM     45  C   UNL     1       1.404  -4.310   2.309  1.00  0.00    -0.014 A 
BRANCH  45  46
ATOM     46  C   UNL     1       2.691  -4.854   2.829  1.00  0.00     0.031 A 
ATOM     47  C   UNL     1       3.008  -4.803   4.303  1.00  0.00     0.074 A 
ATOM     48  C   UNL     1       3.572  -5.428   1.985  1.00  0.00     0.049 A 
ATOM     49  N   UNL     1       4.015  -5.338   4.949  1.00  0.00    -0.248 NA
ATOM     50  C   UNL     1       2.085  -4.042   5.158  1.00  0.00     0.031 C 
ATOM     51  C   UNL     1       3.414  -5.517   0.532  1.00  0.00     0.029 A 
ATOM     52  N   UNL     1       4.764  -6.068   2.229  1.00  0.00    -0.354 N 
ATOM     53  C   UNL     1       3.845  -4.981   6.283  1.00  0.00     0.074 A 
ATOM     54  C   UNL     1       2.674  -4.133   6.342  1.00  0.00     0.031 C 
ATOM     55  C   UNL     1       4.440  -6.217   0.022  1.00  0.00     0.029 A 
ATOM     56  C   UNL     1       5.342  -6.607   1.103  1.00  0.00     0.049 A 
ATOM     57  H   UNL     1       5.166  -6.134   3.125  1.00  0.00     0.167 HD
ATOM     58  C   UNL     1       4.576  -5.342   7.367  1.00  0.00     0.031 A 
ATOM     59  C   UNL     1       6.458  -7.349   0.954  1.00  0.00     0.031 A 
ATOM     60  C   UNL     1       5.745  -6.181   7.314  1.00  0.00     0.049 A 
ATOM     61  C   UNL     1       7.265  -7.729   2.166  1.00  0.00     0.074 A 
ATOM     62  C   UNL     1       6.521  -6.644   8.363  1.00  0.00     0.029 A 
ATOM     63  N   UNL     1       6.314  -6.675   6.150  1.00  0.00    -0.354 N 
ATOM     64  N   UNL     1       7.039  -7.449   3.428  1.00  0.00    -0.248 NA
ATOM     65  C   UNL     1       8.470  -8.538   1.934  1.00  0.00     0.031 C 
ATOM     66  C   UNL     1       7.593  -7.369   7.829  1.00  0.00     0.029 A 
ATOM     67  C   UNL     1       7.450  -7.409   6.451  1.00  0.00     0.049 A 
ATOM     68  H   UNL     1       5.963  -6.525   5.243  1.00  0.00     0.167 HD
ATOM     69  C   UNL     1       8.062  -8.065   4.141  1.00  0.00     0.074 A 
ATOM     70  C   UNL     1       8.896  -8.746   3.172  1.00  0.00     0.031 C 
ATOM     71  C   UNL     1       8.287  -8.068   5.479  1.00  0.00     0.031 A 
BRANCH  58  72
ATOM     72  C   UNL     1       4.133  -4.810   8.707  1.00  0.00    -0.014 A 
ATOM     73  C   UNL     1       2.934  -5.245   9.303  1.00  0.00     0.010 A 
ATOM     74  C   UNL     1       4.928  -3.869   9.385  1.00  0.00     0.010 A 
ATOM     75  C   UNL     1       2.508  -4.702  10.518  1.00  0.00     0.020 A 
ATOM     76  C   UNL     1       4.521  -3.345  10.616  1.00  0.00     0.020 A 
ATOM     77  C   UNL     1       3.300  -3.747  11.162  1.00  0.00     0.054 A 
BRANCH  77  78
ATOM     78  S   UNL     1       2.715  -3.044  12.728  1.00  0.00     0.124 S 
ATOM     79  O   UNL     1       1.646  -2.155  12.277  1.00  0.00    -0.237 OA
ATOM     80  O   UNL     1       2.279  -4.225  13.468  1.00  0.00    -0.237 OA
ATOM     81  O   UNL     1       3.895  -2.373  13.269  1.00  0.00    -0.744 OA
ENDBRANCH  77  78
ENDBRANCH  58  72
BRANCH  59  82
ATOM     82  C   UNL     1       6.853  -7.819  -0.402  1.00  0.00    -0.014 A 
ATOM     83  C   UNL     1       6.722  -9.174  -0.756  1.00  0.00     0.010 A 
ATOM     84  C   UNL     1       7.331  -6.906  -1.359  1.00  0.00     0.010 A 
ATOM     85  C   UNL     1       7.063  -9.607  -2.041  1.00  0.00     0.020 A 
ATOM     86  C   UNL     1       7.649  -7.330  -2.653  1.00  0.00     0.020 A 
ATOM     87  C   UNL     1       7.517  -8.680  -2.984  1.00  0.00     0.054 A 
BRANCH  87  88
ATOM     88  S   UNL     1       7.875  -9.249  -4.670  1.00  0.00     0.124 S 
ATOM     89  O   UNL     1       9.124  -9.981  -4.485  1.00  0.00    -0.237 OA
ATOM     90  O   UNL     1       6.703 -10.063  -4.982  1.00  0.00    -0.237 OA
ATOM     91  O   UNL     1       7.982  -8.008  -5.433  1.00  0.00    -0.744 OA
ENDBRANCH  87  88
ENDBRANCH  59  82
BRANCH  71  92
ATOM     92  C   UNL     1       9.480  -8.841   5.981  1.00  0.00    -0.014 A 
ATOM     93  C   UNL     1      10.791  -8.384   5.757  1.00  0.00     0.010 A 
ATOM     94  C   UNL     1       9.285 -10.019   6.725  1.00  0.00     0.010 A 
ATOM     95  C   UNL     1      11.886  -9.110   6.236  1.00  0.00     0.020 A 
ATOM     96  C   UNL     1      10.375 -10.733   7.230  1.00  0.00     0.020 A 
ATOM     97  C   UNL     1      11.670 -10.282   6.968  1.00  0.00     0.054 A 
BRANCH  97  98
ATOM     98  S   UNL     1      13.106 -11.189   7.607  1.00  0.00     0.124 S 
ATOM     99  O   UNL     1      13.636 -11.809   6.396  1.00  0.00    -0.237 OA
ATOM    100  O   UNL     1      13.928 -10.126   8.180  1.00  0.00    -0.237 OA
ATOM    101  O   UNL     1      12.527 -12.113   8.579  1.00  0.00    -0.744 OA
ENDBRANCH  97  98
ENDBRANCH  71  92
ENDBRANCH  45  46
ENDBRANCH  37  40
ENDBRANCH  35  36
ENDBRANCH  34  35
ENDBRANCH   1  34
TORSDOF 19
