REMARK SMILES O=C(NCCCCCCNC(=O)[C@@H]1C[C@@H](O)CN1C(=O)c1ccccc1)c1ccc(-c2c3nc(c(-c4ccc(S(=O)(=O)[O-])cc4)c4ccc([nH]4)c(-c4ccc(S(=O)(=O)[O-])cc4)c4nc(c(-c5ccc(S(=O)(=O)[O-])cc5)c5ccc2[nH]5)C=C4)C=C3)cc1
REMARK SMILES IDX 6 1 5 2 4 3 3 4 1 5 2 6 27 8 28 9 86 10 29 11 85 12 30 13
REMARK SMILES IDX 31 14 32 15 79 16 33 17 84 18 78 19 80 20 34 21 83 22 77 23
REMARK SMILES IDX 76 24 35 26 65 27 46 28 64 29 47 30 50 31 63 32 81 33 48 34
REMARK SMILES IDX 49 35 62 37 82 38 51 39 36 40 37 41 45 42 38 43 44 44 39 45
REMARK SMILES IDX 40 46 41 47 42 48 43 49 66 50 67 51 75 52 68 53 74 54 69 55
REMARK SMILES IDX 70 56 71 57 72 58 73 59 52 60 53 61 61 62 54 63 60 64 55 65
REMARK SMILES IDX 56 66 57 67 58 68 59 69 7 70 8 71 9 72 10 73 11 74 12 76
REMARK SMILES IDX 13 77 14 78 18 79 15 80 17 81 19 82 20 83 21 84 22 85 26 86
REMARK SMILES IDX 23 87 25 88 24 89 16 90
REMARK H PARENT 3 7 80 25 50 36 10 75 16 91
REMARK Flexibility Score: inf
ROOT
ATOM      1  C   UNL     1      13.721  -2.316  -4.731  1.00  0.00     0.002 C 
ENDROOT
BRANCH   1   2
ATOM      2  C   UNL     1      14.850  -2.890  -3.873  1.00  0.00     0.021 C 
BRANCH   2   3
ATOM      3  C   UNL     1      16.066  -3.393  -4.641  1.00  0.00     0.116 C 
BRANCH   3   4
ATOM      4  N   UNL     1      16.772  -2.336  -5.345  1.00  0.00    -0.352 N 
ATOM      5  O   UNL     1      18.511  -1.007  -5.891  1.00  0.00    -0.269 OA
ATOM      6  C   UNL     1      18.111  -2.022  -5.327  1.00  0.00     0.251 C 
ATOM      7  H   UNL     1      16.212  -1.762  -5.916  1.00  0.00     0.163 HD
BRANCH   6   8
ATOM      8  C   UNL     1      19.065  -2.890  -4.598  1.00  0.00     0.039 A 
ATOM      9  C   UNL     1      19.010  -4.280  -4.722  1.00  0.00     0.014 A 
ATOM     10  C   UNL     1      20.025  -2.301  -3.769  1.00  0.00     0.014 A 
ATOM     11  C   UNL     1      19.801  -5.079  -3.901  1.00  0.00     0.010 A 
ATOM     12  C   UNL     1      20.876  -3.107  -3.006  1.00  0.00     0.010 A 
ATOM     13  C   UNL     1      20.742  -4.503  -3.031  1.00  0.00    -0.014 A 
BRANCH  13  14
ATOM     14  C   UNL     1      21.581  -5.387  -2.180  1.00  0.00     0.031 A 
ATOM     15  C   UNL     1      21.456  -5.372  -0.679  1.00  0.00     0.074 A 
ATOM     16  C   UNL     1      22.430  -6.250  -2.774  1.00  0.00     0.049 A 
ATOM     17  N   UNL     1      22.056  -6.132   0.203  1.00  0.00    -0.248 NA
ATOM     18  C   UNL     1      20.549  -4.375  -0.089  1.00  0.00     0.031 C 
ATOM     19  C   UNL     1      22.652  -6.354  -4.218  1.00  0.00     0.029 A 
ATOM     20  N   UNL     1      23.239  -7.222  -2.243  1.00  0.00    -0.354 N 
ATOM     21  C   UNL     1      21.623  -5.690   1.449  1.00  0.00     0.074 A 
ATOM     22  C   UNL     1      20.722  -4.583   1.210  1.00  0.00     0.031 C 
ATOM     23  C   UNL     1      23.489  -7.373  -4.462  1.00  0.00     0.029 A 
ATOM     24  C   UNL     1      23.904  -7.961  -3.193  1.00  0.00     0.049 A 
ATOM     25  H   UNL     1      23.335  -7.375  -1.275  1.00  0.00     0.167 HD
ATOM     26  C   UNL     1      21.942  -6.164   2.678  1.00  0.00     0.031 A 
ATOM     27  C   UNL     1      24.751  -8.999  -3.063  1.00  0.00     0.031 A 
ATOM     28  C   UNL     1      22.827  -7.275   2.916  1.00  0.00     0.049 A 
ATOM     29  C   UNL     1      25.080  -9.511  -1.691  1.00  0.00     0.074 A 
ATOM     30  C   UNL     1      23.181  -7.850   4.125  1.00  0.00     0.029 A 
ATOM     31  N   UNL     1      23.499  -7.978   1.928  1.00  0.00    -0.354 N 
ATOM     32  N   UNL     1      24.630  -9.099  -0.530  1.00  0.00    -0.248 NA
ATOM     33  C   UNL     1      26.026 -10.632  -1.613  1.00  0.00     0.031 C 
ATOM     34  C   UNL     1      24.098  -8.877   3.870  1.00  0.00     0.029 A 
ATOM     35  C   UNL     1      24.277  -8.971   2.500  1.00  0.00     0.049 A 
ATOM     36  H   UNL     1      23.432  -7.799   0.963  1.00  0.00     0.167 HD
ATOM     37  C   UNL     1      25.226  -9.923   0.417  1.00  0.00     0.074 A 
ATOM     38  C   UNL     1      26.053 -10.867  -0.309  1.00  0.00     0.031 C 
ATOM     39  C   UNL     1      25.099  -9.899   1.766  1.00  0.00     0.031 A 
BRANCH  26  40
ATOM     40  C   UNL     1      21.346  -5.463   3.871  1.00  0.00    -0.014 A 
ATOM     41  C   UNL     1      19.989  -5.619   4.206  1.00  0.00     0.010 A 
ATOM     42  C   UNL     1      22.167  -4.669   4.692  1.00  0.00     0.010 A 
ATOM     43  C   UNL     1      19.455  -4.959   5.317  1.00  0.00     0.020 A 
ATOM     44  C   UNL     1      21.642  -4.025   5.816  1.00  0.00     0.020 A 
ATOM     45  C   UNL     1      20.283  -4.160   6.111  1.00  0.00     0.054 A 
BRANCH  45  46
ATOM     46  S   UNL     1      19.569  -3.323   7.553  1.00  0.00     0.124 S 
ATOM     47  O   UNL     1      18.844  -2.219   6.929  1.00  0.00    -0.237 OA
ATOM     48  O   UNL     1      18.734  -4.363   8.150  1.00  0.00    -0.237 OA
ATOM     49  O   UNL     1      20.736  -2.936   8.342  1.00  0.00    -0.744 OA
ENDBRANCH  45  46
ENDBRANCH  26  40
BRANCH  27  50
ATOM     50  C   UNL     1      25.334  -9.629  -4.277  1.00  0.00    -0.014 A 
ATOM     51  C   UNL     1      24.911 -10.903  -4.691  1.00  0.00     0.010 A 
ATOM     52  C   UNL     1      26.291  -8.940  -5.044  1.00  0.00     0.010 A 
ATOM     53  C   UNL     1      25.442 -11.483  -5.846  1.00  0.00     0.020 A 
ATOM     54  C   UNL     1      26.804  -9.505  -6.213  1.00  0.00     0.020 A 
ATOM     55  C   UNL     1      26.384 -10.779  -6.601  1.00  0.00     0.054 A 
BRANCH  55  56
ATOM     56  S   UNL     1      27.011 -11.519  -8.135  1.00  0.00     0.124 S 
ATOM     57  O   UNL     1      27.983 -12.483  -7.629  1.00  0.00    -0.237 OA
ATOM     58  O   UNL     1      25.804 -12.088  -8.730  1.00  0.00    -0.237 OA
ATOM     59  O   UNL     1      27.572 -10.379  -8.856  1.00  0.00    -0.744 OA
ENDBRANCH  55  56
ENDBRANCH  27  50
BRANCH  39  60
ATOM     60  C   UNL     1      25.850 -10.947   2.541  1.00  0.00    -0.014 A 
ATOM     61  C   UNL     1      27.244 -10.870   2.707  1.00  0.00     0.010 A 
ATOM     62  C   UNL     1      25.145 -12.011   3.131  1.00  0.00     0.010 A 
ATOM     63  C   UNL     1      27.926 -11.863   3.415  1.00  0.00     0.020 A 
ATOM     64  C   UNL     1      25.820 -12.993   3.859  1.00  0.00     0.020 A 
ATOM     65  C   UNL     1      27.210 -12.923   3.980  1.00  0.00     0.054 A 
BRANCH  65  66
ATOM     66  S   UNL     1      28.109 -14.192   4.913  1.00  0.00     0.124 S 
ATOM     67  O   UNL     1      28.676 -15.008   3.844  1.00  0.00    -0.237 OA
ATOM     68  O   UNL     1      29.072 -13.407   5.683  1.00  0.00    -0.237 OA
ATOM     69  O   UNL     1      27.067 -14.839   5.707  1.00  0.00    -0.744 OA
ENDBRANCH  65  66
ENDBRANCH  39  60
ENDBRANCH  13  14
ENDBRANCH   6   8
ENDBRANCH   3   4
ENDBRANCH   2   3
ENDBRANCH   1   2
BRANCH   1  70
ATOM     70  C   UNL     1      13.172  -3.241  -5.822  1.00  0.00     0.002 C 
BRANCH  70  71
ATOM     71  C   UNL     1      12.748  -4.643  -5.368  1.00  0.00     0.021 C 
BRANCH  71  72
ATOM     72  C   UNL     1      11.749  -4.675  -4.216  1.00  0.00     0.116 C 
BRANCH  72  73
ATOM     73  N   UNL     1      10.474  -4.092  -4.570  1.00  0.00    -0.354 N 
ATOM     74  C   UNL     1       9.214  -4.606  -4.520  1.00  0.00     0.242 C 
ATOM     75  H   UNL     1      10.526  -3.167  -4.903  1.00  0.00     0.163 HD
ATOM     76  O   UNL     1       8.284  -3.797  -4.638  1.00  0.00    -0.273 OA
BRANCH  74  77
ATOM     77  C   UNL     1       8.917  -6.065  -4.111  1.00  0.00     0.177 C 
ATOM     78  C   UNL     1       9.079  -6.223  -2.592  1.00  0.00     0.069 C 
ATOM     79  N   UNL     1       9.729  -7.144  -4.687  1.00  0.00    -0.324 N 
ATOM     80  C   UNL     1       9.433  -7.692  -2.412  1.00  0.00     0.136 C 
ATOM     81  C   UNL     1      10.262  -8.030  -3.651  1.00  0.00     0.152 C 
BRANCH  79  82
ATOM     82  C   UNL     1       9.745  -7.324  -6.058  1.00  0.00     0.254 C 
ATOM     83  O   UNL     1       9.194  -6.550  -6.836  1.00  0.00    -0.269 OA
BRANCH  82  84
ATOM     84  C   UNL     1      10.491  -8.461  -6.636  1.00  0.00     0.040 A 
ATOM     85  C   UNL     1      11.561  -8.185  -7.493  1.00  0.00     0.014 A 
ATOM     86  C   UNL     1      10.081  -9.780  -6.423  1.00  0.00     0.014 A 
ATOM     87  C   UNL     1      12.256  -9.235  -8.094  1.00  0.00     0.001 A 
ATOM     88  C   UNL     1      10.785 -10.828  -7.019  1.00  0.00     0.001 A 
ATOM     89  C   UNL     1      11.873 -10.555  -7.849  1.00  0.00     0.000 A 
ENDBRANCH  82  84
ENDBRANCH  79  82
BRANCH  80  90
ATOM     90  O   UNL     1       8.239  -8.476  -2.378  1.00  0.00    -0.391 OA
ATOM     91  H   UNL     1       7.730  -8.325  -3.189  1.00  0.00     0.211 HD
ENDBRANCH  80  90
ENDBRANCH  74  77
ENDBRANCH  72  73
ENDBRANCH  71  72
ENDBRANCH  70  71
ENDBRANCH   1  70
TORSDOF 19
