REMARK SMILES O=C(C[C@@H](Cc1ccc(Br)cc1)C(=O)Nc1ccccc1)NCCCCCCNC(=O)c1ccc(-c2c3nc(c(-c4ccc(S(=O)(=O)[O-])cc4)c4ccc([nH]4)c(-c4ccc(S(=O)(=O)[O-])cc4)c4nc(c(-c5ccc(S(=O)(=O)[O-])cc5)c5ccc2[nH]5)C=C4)C=C3)cc1
REMARK SMILES IDX 25 1 24 2 23 3 22 4 1 5 2 6 3 8 4 9 5 10 6 11 7 12 12 13
REMARK SMILES IDX 8 14 11 15 9 16 10 17 13 18 14 19 15 20 16 22 17 23 21 24
REMARK SMILES IDX 18 25 20 26 19 27 26 28 27 29 28 30 29 31 30 32 31 34 32 35
REMARK SMILES IDX 33 36 91 37 34 38 90 39 35 40 36 41 37 42 84 43 38 44 89 45
REMARK SMILES IDX 83 46 85 47 39 48 88 49 82 50 81 51 40 53 70 54 51 55 69 56
REMARK SMILES IDX 52 57 55 58 68 59 86 60 53 61 54 62 67 64 87 65 56 66 41 67
REMARK SMILES IDX 42 68 50 69 43 70 49 71 44 72 45 73 46 74 47 75 48 76 71 77
REMARK SMILES IDX 72 78 80 79 73 80 79 81 74 82 75 83 76 84 77 85 78 86 57 87
REMARK SMILES IDX 58 88 66 89 59 90 65 91 60 92 61 93 62 94 63 95 64 96
REMARK H PARENT 22 7 15 21 29 33 85 52 55 63
REMARK Flexibility Score: inf
ROOT
ATOM      1  C   UNL     1       3.863  -0.345  -3.755  1.00  0.00     0.002 C 
ENDROOT
BRANCH   1   2
ATOM      2  C   UNL     1       2.352  -0.253  -3.489  1.00  0.00     0.021 C 
BRANCH   2   3
ATOM      3  C   UNL     1       1.836  -1.105  -2.322  1.00  0.00     0.116 C 
BRANCH   3   4
ATOM      4  N   UNL     1       2.518  -0.746  -1.097  1.00  0.00    -0.356 N 
ATOM      5  O   UNL     1       0.735  -0.861   0.344  1.00  0.00    -0.275 OA
ATOM      6  C   UNL     1       1.901  -0.564   0.116  1.00  0.00     0.220 C 
ATOM      7  H   UNL     1       3.495  -0.625  -1.136  1.00  0.00     0.163 HD
BRANCH   6   8
ATOM      8  C   UNL     1       2.752   0.203   1.114  1.00  0.00     0.113 C 
BRANCH   8   9
ATOM      9  C   UNL     1       3.926  -0.533   1.745  1.00  0.00     0.092 C 
BRANCH   9  10
ATOM     10  C   UNL     1       5.030  -1.157   0.855  1.00  0.00     0.049 C 
BRANCH  10  11
ATOM     11  C   UNL     1       5.979  -0.321   0.021  1.00  0.00    -0.047 A 
ATOM     12  C   UNL     1       5.589   0.795  -0.724  1.00  0.00     0.005 A 
ATOM     13  C   UNL     1       7.317  -0.737  -0.098  1.00  0.00     0.005 A 
ATOM     14  C   UNL     1       6.497   1.503  -1.519  1.00  0.00     0.016 A 
ATOM     15  C   UNL     1       8.234  -0.030  -0.886  1.00  0.00     0.016 A 
ATOM     16  C   UNL     1       7.820   1.097  -1.584  1.00  0.00     0.017 A 
ATOM     17  Br  UNL     1       9.051   2.089  -2.615  1.00  0.00    -0.051 Br
ENDBRANCH  10  11
ENDBRANCH   9  10
BRANCH   9  18
ATOM     18  C   UNL     1       4.542   0.123   2.993  1.00  0.00     0.228 C 
ATOM     19  O   UNL     1       4.531  -0.510   4.059  1.00  0.00    -0.274 OA
ATOM     20  N   UNL     1       5.282   1.267   2.986  1.00  0.00    -0.326 N 
ATOM     21  H   UNL     1       5.888   1.339   3.758  1.00  0.00     0.169 HD
BRANCH  20  22
ATOM     22  C   UNL     1       5.367   2.360   2.118  1.00  0.00     0.041 A 
ATOM     23  C   UNL     1       6.636   2.884   1.851  1.00  0.00     0.026 A 
ATOM     24  C   UNL     1       4.249   3.000   1.589  1.00  0.00     0.026 A 
ATOM     25  C   UNL     1       6.790   3.941   0.949  1.00  0.00     0.002 A 
ATOM     26  C   UNL     1       4.398   4.053   0.680  1.00  0.00     0.002 A 
ATOM     27  C   UNL     1       5.671   4.509   0.344  1.00  0.00     0.000 A 
ENDBRANCH  20  22
ENDBRANCH   9  18
ENDBRANCH   8   9
ENDBRANCH   6   8
ENDBRANCH   3   4
ENDBRANCH   2   3
ENDBRANCH   1   2
BRANCH   1  28
ATOM     28  C   UNL     1       4.421  -1.754  -3.955  1.00  0.00     0.002 C 
BRANCH  28  29
ATOM     29  C   UNL     1       3.812  -2.505  -5.136  1.00  0.00     0.021 C 
BRANCH  29  30
ATOM     30  C   UNL     1       3.974  -1.803  -6.479  1.00  0.00     0.116 C 
BRANCH  30  31
ATOM     31  N   UNL     1       5.365  -1.717  -6.899  1.00  0.00    -0.352 N 
ATOM     32  C   UNL     1       5.918  -2.074  -8.105  1.00  0.00     0.251 C 
ATOM     33  H   UNL     1       5.992  -1.355  -6.232  1.00  0.00     0.163 HD
ATOM     34  O   UNL     1       7.138  -2.097  -8.247  1.00  0.00    -0.269 OA
BRANCH  32  35
ATOM     35  C   UNL     1       5.030  -2.460  -9.223  1.00  0.00     0.039 A 
ATOM     36  C   UNL     1       5.295  -3.635  -9.928  1.00  0.00     0.014 A 
ATOM     37  C   UNL     1       3.915  -1.680  -9.544  1.00  0.00     0.014 A 
ATOM     38  C   UNL     1       4.400  -4.066 -10.912  1.00  0.00     0.010 A 
ATOM     39  C   UNL     1       2.987  -2.150 -10.468  1.00  0.00     0.010 A 
ATOM     40  C   UNL     1       3.219  -3.348 -11.162  1.00  0.00    -0.014 A 
BRANCH  40  41
ATOM     41  C   UNL     1       2.208  -3.831 -12.139  1.00  0.00     0.031 A 
ATOM     42  C   UNL     1       1.881  -3.003 -13.355  1.00  0.00     0.074 A 
ATOM     43  C   UNL     1       1.528  -4.970 -11.894  1.00  0.00     0.049 A 
ATOM     44  N   UNL     1       0.972  -3.211 -14.272  1.00  0.00    -0.248 NA
ATOM     45  C   UNL     1       2.660  -1.769 -13.554  1.00  0.00     0.031 C 
ATOM     46  C   UNL     1       1.726  -5.845 -10.734  1.00  0.00     0.029 A 
ATOM     47  N   UNL     1       0.523  -5.585 -12.600  1.00  0.00    -0.354 N 
ATOM     48  C   UNL     1       1.048  -2.124 -15.135  1.00  0.00     0.074 A 
ATOM     49  C   UNL     1       2.068  -1.241 -14.617  1.00  0.00     0.031 C 
ATOM     50  C   UNL     1       0.887  -6.891 -10.822  1.00  0.00     0.029 A 
ATOM     51  C   UNL     1       0.059  -6.740 -12.013  1.00  0.00     0.049 A 
ATOM     52  H   UNL     1       0.168  -5.232 -13.447  1.00  0.00     0.167 HD
ATOM     53  C   UNL     1       0.339  -1.889 -16.264  1.00  0.00     0.031 A 
ATOM     54  C   UNL     1      -0.933  -7.576 -12.383  1.00  0.00     0.031 A 
ATOM     55  C   UNL     1      -0.654  -2.785 -16.794  1.00  0.00     0.049 A 
ATOM     56  C   UNL     1      -1.711  -7.280 -13.639  1.00  0.00     0.074 A 
ATOM     57  C   UNL     1      -1.363  -2.673 -17.978  1.00  0.00     0.029 A 
ATOM     58  N   UNL     1      -1.083  -3.950 -16.178  1.00  0.00    -0.354 N 
ATOM     59  N   UNL     1      -1.561  -6.291 -14.488  1.00  0.00    -0.248 NA
ATOM     60  C   UNL     1      -2.788  -8.216 -13.991  1.00  0.00     0.031 C 
ATOM     61  C   UNL     1      -2.269  -3.735 -18.045  1.00  0.00     0.029 A 
ATOM     62  C   UNL     1      -2.073  -4.546 -16.939  1.00  0.00     0.049 A 
ATOM     63  H   UNL     1      -0.735  -4.301 -15.327  1.00  0.00     0.167 HD
ATOM     64  C   UNL     1      -2.497  -6.512 -15.493  1.00  0.00     0.074 A 
ATOM     65  C   UNL     1      -3.199  -7.731 -15.154  1.00  0.00     0.031 C 
ATOM     66  C   UNL     1      -2.751  -5.771 -16.600  1.00  0.00     0.031 A 
BRANCH  53  67
ATOM     67  C   UNL     1       0.596  -0.607 -17.012  1.00  0.00    -0.014 A 
ATOM     68  C   UNL     1       1.786  -0.405 -17.732  1.00  0.00     0.010 A 
ATOM     69  C   UNL     1      -0.414   0.372 -17.070  1.00  0.00     0.010 A 
ATOM     70  C   UNL     1       1.969   0.760 -18.482  1.00  0.00     0.020 A 
ATOM     71  C   UNL     1      -0.247   1.524 -17.841  1.00  0.00     0.020 A 
ATOM     72  C   UNL     1       0.949   1.714 -18.537  1.00  0.00     0.054 A 
BRANCH  72  73
ATOM     73  S   UNL     1       1.189   3.184 -19.572  1.00  0.00     0.124 S 
ATOM     74  O   UNL     1       2.194   3.925 -18.815  1.00  0.00    -0.237 OA
ATOM     75  O   UNL     1       1.649   2.612 -20.835  1.00  0.00    -0.237 OA
ATOM     76  O   UNL     1      -0.135   3.799 -19.616  1.00  0.00    -0.744 OA
ENDBRANCH  72  73
ENDBRANCH  53  67
BRANCH  54  77
ATOM     77  C   UNL     1      -1.262  -8.774 -11.559  1.00  0.00    -0.014 A 
ATOM     78  C   UNL     1      -1.050 -10.070 -12.065  1.00  0.00     0.010 A 
ATOM     79  C   UNL     1      -1.829  -8.627 -10.281  1.00  0.00     0.010 A 
ATOM     80  C   UNL     1      -1.441 -11.192 -11.329  1.00  0.00     0.020 A 
ATOM     81  C   UNL     1      -2.190  -9.748  -9.527  1.00  0.00     0.020 A 
ATOM     82  C   UNL     1      -2.014 -11.023 -10.066  1.00  0.00     0.054 A 
BRANCH  82  83
ATOM     83  S   UNL     1      -2.513 -12.494  -9.127  1.00  0.00     0.124 S 
ATOM     84  O   UNL     1      -3.706 -12.923  -9.850  1.00  0.00    -0.237 OA
ATOM     85  O   UNL     1      -1.346 -13.362  -9.257  1.00  0.00    -0.237 OA
ATOM     86  O   UNL     1      -2.748 -11.975  -7.781  1.00  0.00    -0.744 OA
ENDBRANCH  82  83
ENDBRANCH  54  77
BRANCH  66  87
ATOM     87  C   UNL     1      -3.792  -6.281 -17.562  1.00  0.00    -0.014 A 
ATOM     88  C   UNL     1      -5.161  -6.252 -17.245  1.00  0.00     0.010 A 
ATOM     89  C   UNL     1      -3.391  -6.730 -18.834  1.00  0.00     0.010 A 
ATOM     90  C   UNL     1      -6.109  -6.687 -18.176  1.00  0.00     0.020 A 
ATOM     91  C   UNL     1      -4.337  -7.136 -19.778  1.00  0.00     0.020 A 
ATOM     92  C   UNL     1      -5.691  -7.123 -19.438  1.00  0.00     0.054 A 
BRANCH  92  93
ATOM     93  S   UNL     1      -6.945  -7.626 -20.647  1.00  0.00     0.124 S 
ATOM     94  O   UNL     1      -7.396  -8.904 -20.103  1.00  0.00    -0.237 OA
ATOM     95  O   UNL     1      -7.914  -6.535 -20.575  1.00  0.00    -0.237 OA
ATOM     96  O   UNL     1      -6.203  -7.711 -21.902  1.00  0.00    -0.744 OA
ENDBRANCH  92  93
ENDBRANCH  66  87
ENDBRANCH  40  41
ENDBRANCH  32  35
ENDBRANCH  30  31
ENDBRANCH  29  30
ENDBRANCH  28  29
ENDBRANCH   1  28
TORSDOF 21
