REMARK SMILES Cc1cc([N+](=O)[O-])ccc1NC(=O)[C@@H]1[C@@H](C(=O)NCCCCCCNC(=O)c2ccc(-c3c4nc(c(-c5ccc(S(=O)(=O)[O-])cc5)c5ccc([nH]5)c(-c5ccc(S(=O)(=O)[O-])cc5)c5nc(c(-c6ccc(S(=O)(=O)[O-])cc6)c6ccc3[nH]6)C=C5)C=C4)cc2)[C@H]2C=C[C@@H]1C2
REMARK SMILES IDX 21 1 20 2 19 3 18 4 16 5 17 6 15 8 14 9 91 10 88 11 90 12
REMARK SMILES IDX 92 13 89 14 12 15 11 16 13 18 10 19 1 20 2 21 3 22 4 23 9 24
REMARK SMILES IDX 8 25 5 26 6 27 7 28 22 29 23 30 24 31 25 32 26 33 27 35
REMARK SMILES IDX 28 36 29 37 87 38 30 39 86 40 31 41 32 42 33 43 80 44 34 45
REMARK SMILES IDX 85 46 79 47 81 48 35 49 84 50 78 51 77 52 36 54 66 55 47 56
REMARK SMILES IDX 65 57 48 58 51 59 64 60 82 61 49 62 50 63 63 65 83 66 52 67
REMARK SMILES IDX 37 68 38 69 46 70 39 71 45 72 40 73 41 74 42 75 43 76 44 77
REMARK SMILES IDX 67 78 68 79 76 80 69 81 75 82 70 83 71 84 72 85 73 86 74 87
REMARK SMILES IDX 53 88 54 89 62 90 55 91 61 92 56 93 57 94 58 95 59 96 60 97
REMARK H PARENT 18 7 11 17 25 34 81 53 51 64
REMARK Flexibility Score: inf
ROOT
ATOM      1  C   UNL     1      -5.010   9.389  -1.070  1.00  0.00     0.002 C 
ENDROOT
BRANCH   1   2
ATOM      2  C   UNL     1      -3.827   9.174  -0.117  1.00  0.00     0.021 C 
BRANCH   2   3
ATOM      3  C   UNL     1      -3.525   7.738   0.308  1.00  0.00     0.116 C 
BRANCH   3   4
ATOM      4  N   UNL     1      -3.312   6.833  -0.799  1.00  0.00    -0.356 N 
ATOM      5  C   UNL     1      -2.661   5.639  -0.831  1.00  0.00     0.224 C 
ATOM      6  O   UNL     1      -2.683   5.013  -1.894  1.00  0.00    -0.275 OA
ATOM      7  H   UNL     1      -3.695   7.124  -1.658  1.00  0.00     0.163 HD
BRANCH   5   8
ATOM      8  C   UNL     1      -1.857   5.150   0.374  1.00  0.00     0.098 C 
ATOM      9  C   UNL     1      -1.384   3.653   0.171  1.00  0.00     0.099 C 
ATOM     10  C   UNL     1      -1.815   2.981   1.502  1.00  0.00     0.025 C 
ATOM     11  C   UNL     1      -2.622   5.052   1.720  1.00  0.00     0.025 C 
ATOM     12  C   UNL     1      -3.322   2.873   1.468  1.00  0.00    -0.027 C 
ATOM     13  C   UNL     1      -1.685   4.128   2.503  1.00  0.00     0.017 C 
ATOM     14  C   UNL     1      -3.806   4.118   1.586  1.00  0.00    -0.027 C 
BRANCH   9  15
ATOM     15  C   UNL     1       0.098   3.473  -0.097  1.00  0.00     0.228 C 
ATOM     16  N   UNL     1       0.658   2.236  -0.301  1.00  0.00    -0.326 N 
ATOM     17  H   UNL     1       1.631   2.273  -0.441  1.00  0.00     0.169 HD
ATOM     18  O   UNL     1       0.874   4.434  -0.089  1.00  0.00    -0.274 OA
BRANCH  16  19
ATOM     19  C   UNL     1       0.143   0.922  -0.355  1.00  0.00     0.044 A 
ATOM     20  C   UNL     1       2.482  -0.041   0.176  1.00  0.00     0.047 C 
ATOM     21  C   UNL     1       0.998  -0.166  -0.059  1.00  0.00    -0.021 A 
ATOM     22  C   UNL     1       0.463  -1.472   0.011  1.00  0.00     0.091 A 
ATOM     23  C   UNL     1      -0.896  -1.700  -0.219  1.00  0.00     0.269 A 
ATOM     24  C   UNL     1      -1.191   0.643  -0.683  1.00  0.00     0.033 A 
ATOM     25  C   UNL     1      -1.722  -0.647  -0.596  1.00  0.00     0.088 A 
BRANCH  23  26
ATOM     26  N   UNL     1      -1.456  -3.047  -0.071  1.00  0.00     0.062 N 
ATOM     27  O   UNL     1      -0.663  -3.986   0.089  1.00  0.00    -0.258 OA
ATOM     28  O   UNL     1      -2.689  -3.166  -0.101  1.00  0.00    -0.258 OA
ENDBRANCH  23  26
ENDBRANCH  16  19
ENDBRANCH   9  15
ENDBRANCH   5   8
ENDBRANCH   3   4
ENDBRANCH   2   3
ENDBRANCH   1   2
BRANCH   1  29
ATOM     29  C   UNL     1      -6.369   8.797  -0.672  1.00  0.00     0.002 C 
BRANCH  29  30
ATOM     30  C   UNL     1      -6.848   9.055   0.756  1.00  0.00     0.021 C 
BRANCH  30  31
ATOM     31  C   UNL     1      -6.884  10.521   1.167  1.00  0.00     0.116 C 
BRANCH  31  32
ATOM     32  N   UNL     1      -8.207  11.117   1.190  1.00  0.00    -0.352 N 
ATOM     33  C   UNL     1      -8.536  12.393   1.620  1.00  0.00     0.251 C 
ATOM     34  H   UNL     1      -8.949  10.556   0.866  1.00  0.00     0.163 HD
ATOM     35  O   UNL     1      -9.689  12.749   1.791  1.00  0.00    -0.269 OA
BRANCH  33  36
ATOM     36  C   UNL     1      -7.421  13.357   1.775  1.00  0.00     0.039 A 
ATOM     37  C   UNL     1      -7.353  14.415   0.863  1.00  0.00     0.014 A 
ATOM     38  C   UNL     1      -6.354  13.076   2.626  1.00  0.00     0.014 A 
ATOM     39  C   UNL     1      -6.148  15.095   0.691  1.00  0.00     0.010 A 
ATOM     40  C   UNL     1      -5.136  13.693   2.393  1.00  0.00     0.010 A 
ATOM     41  C   UNL     1      -5.018  14.674   1.398  1.00  0.00    -0.014 A 
BRANCH  41  42
ATOM     42  C   UNL     1      -3.667  15.138   1.089  1.00  0.00     0.031 A 
ATOM     43  C   UNL     1      -2.985  16.123   1.963  1.00  0.00     0.074 A 
ATOM     44  C   UNL     1      -3.007  14.695  -0.006  1.00  0.00     0.049 A 
ATOM     45  N   UNL     1      -2.143  17.007   1.531  1.00  0.00    -0.248 NA
ATOM     46  C   UNL     1      -3.232  16.214   3.398  1.00  0.00     0.031 C 
ATOM     47  C   UNL     1      -1.586  14.886  -0.293  1.00  0.00     0.029 A 
ATOM     48  N   UNL     1      -3.522  14.174  -1.193  1.00  0.00    -0.354 N 
ATOM     49  C   UNL     1      -1.541  17.573   2.632  1.00  0.00     0.074 A 
ATOM     50  C   UNL     1      -2.311  17.110   3.766  1.00  0.00     0.031 C 
ATOM     51  C   UNL     1      -1.401  14.799  -1.618  1.00  0.00     0.029 A 
ATOM     52  C   UNL     1      -2.711  14.659  -2.232  1.00  0.00     0.049 A 
ATOM     53  H   UNL     1      -4.303  13.582  -1.285  1.00  0.00     0.167 HD
ATOM     54  C   UNL     1      -0.365  18.251   2.508  1.00  0.00     0.031 A 
ATOM     55  C   UNL     1      -3.154  15.345  -3.323  1.00  0.00     0.031 A 
ATOM     56  C   UNL     1       0.132  18.265   1.137  1.00  0.00     0.049 A 
ATOM     57  C   UNL     1      -2.449  16.665  -3.534  1.00  0.00     0.074 A 
ATOM     58  C   UNL     1       1.100  17.515   0.490  1.00  0.00     0.029 A 
ATOM     59  N   UNL     1      -0.543  18.975   0.154  1.00  0.00    -0.354 N 
ATOM     60  N   UNL     1      -1.710  17.242  -2.630  1.00  0.00    -0.248 NA
ATOM     61  C   UNL     1      -2.579  17.474  -4.743  1.00  0.00     0.031 C 
ATOM     62  C   UNL     1       0.999  17.767  -0.898  1.00  0.00     0.029 A 
ATOM     63  C   UNL     1      -0.029  18.672  -1.092  1.00  0.00     0.049 A 
ATOM     64  H   UNL     1      -1.282  19.604   0.321  1.00  0.00     0.167 HD
ATOM     65  C   UNL     1      -1.302  18.472  -3.083  1.00  0.00     0.074 A 
ATOM     66  C   UNL     1      -1.854  18.561  -4.421  1.00  0.00     0.031 C 
ATOM     67  C   UNL     1      -0.562  19.304  -2.292  1.00  0.00     0.031 A 
BRANCH  54  68
ATOM     68  C   UNL     1       0.498  18.632   3.691  1.00  0.00    -0.014 A 
ATOM     69  C   UNL     1       1.902  18.655   3.550  1.00  0.00     0.010 A 
ATOM     70  C   UNL     1      -0.005  18.940   4.968  1.00  0.00     0.010 A 
ATOM     71  C   UNL     1       2.758  18.845   4.642  1.00  0.00     0.020 A 
ATOM     72  C   UNL     1       0.840  19.096   6.079  1.00  0.00     0.020 A 
ATOM     73  C   UNL     1       2.220  19.028   5.911  1.00  0.00     0.054 A 
BRANCH  73  74
ATOM     74  S   UNL     1       3.343  19.149   7.327  1.00  0.00     0.124 S 
ATOM     75  O   UNL     1       4.135  17.927   7.206  1.00  0.00    -0.237 OA
ATOM     76  O   UNL     1       4.058  20.392   7.056  1.00  0.00    -0.237 OA
ATOM     77  O   UNL     1       2.444  19.186   8.479  1.00  0.00    -0.744 OA
ENDBRANCH  73  74
ENDBRANCH  54  68
BRANCH  55  78
ATOM     78  C   UNL     1      -4.569  15.085  -3.688  1.00  0.00    -0.014 A 
ATOM     79  C   UNL     1      -4.882  13.822  -4.232  1.00  0.00     0.010 A 
ATOM     80  C   UNL     1      -5.594  15.866  -3.127  1.00  0.00     0.010 A 
ATOM     81  C   UNL     1      -6.158  13.281  -4.071  1.00  0.00     0.020 A 
ATOM     82  C   UNL     1      -6.875  15.324  -2.966  1.00  0.00     0.020 A 
ATOM     83  C   UNL     1      -7.127  14.014  -3.383  1.00  0.00     0.054 A 
BRANCH  83  84
ATOM     84  S   UNL     1      -8.644  13.151  -2.877  1.00  0.00     0.124 S 
ATOM     85  O   UNL     1      -9.218  12.752  -4.158  1.00  0.00    -0.237 OA
ATOM     86  O   UNL     1      -8.112  12.062  -2.058  1.00  0.00    -0.237 OA
ATOM     87  O   UNL     1      -9.383  14.175  -2.146  1.00  0.00    -0.744 OA
ENDBRANCH  83  84
ENDBRANCH  55  78
BRANCH  67  88
ATOM     88  C   UNL     1      -0.182  20.744  -2.567  1.00  0.00    -0.014 A 
ATOM     89  C   UNL     1      -0.780  21.561  -3.538  1.00  0.00     0.010 A 
ATOM     90  C   UNL     1       0.779  21.363  -1.727  1.00  0.00     0.010 A 
ATOM     91  C   UNL     1      -0.405  22.906  -3.696  1.00  0.00     0.020 A 
ATOM     92  C   UNL     1       1.132  22.711  -1.848  1.00  0.00     0.020 A 
ATOM     93  C   UNL     1       0.551  23.472  -2.852  1.00  0.00     0.054 A 
BRANCH  93  94
ATOM     94  S   UNL     1       0.976  25.224  -3.020  1.00  0.00     0.124 S 
ATOM     95  O   UNL     1       2.017  25.186  -4.043  1.00  0.00    -0.237 OA
ATOM     96  O   UNL     1      -0.288  25.829  -3.437  1.00  0.00    -0.237 OA
ATOM     97  O   UNL     1       1.423  25.599  -1.681  1.00  0.00    -0.744 OA
ENDBRANCH  93  94
ENDBRANCH  67  88
ENDBRANCH  41  42
ENDBRANCH  33  36
ENDBRANCH  31  32
ENDBRANCH  30  31
ENDBRANCH  29  30
ENDBRANCH   1  29
TORSDOF 19
