REMARK SMILES O=C(NCCCCCCNC(=O)c1sc2ccccc2c1CSC[C@H](O)CO)c1ccc(-c2c3nc(c(-c4ccc(S(=O)(=O)[O-])cc4)c4ccc([nH]4)c(-c4ccc(S(=O)(=O)[O-])cc4)c4nc(c(-c5ccc(S(=O)(=O)[O-])cc5)c5ccc2[nH]5)C=C4)C=C3)cc1
REMARK SMILES IDX 8 1 7 2 6 3 5 4 4 5 3 6 1 7 2 8 29 10 30 11 88 12 31 13
REMARK SMILES IDX 87 14 32 15 33 16 34 17 81 18 35 19 86 20 80 21 82 22 36 23
REMARK SMILES IDX 85 24 79 25 78 26 37 28 67 29 48 30 66 31 49 32 52 33 65 34
REMARK SMILES IDX 83 35 50 36 51 37 64 39 84 40 53 41 38 42 39 43 47 44 40 45
REMARK SMILES IDX 46 46 41 47 42 48 43 49 44 50 45 51 68 52 69 53 77 54 70 55
REMARK SMILES IDX 76 56 71 57 72 58 73 59 74 60 75 61 54 62 55 63 63 64 56 65
REMARK SMILES IDX 62 66 57 67 58 68 59 69 60 70 61 71 9 72 10 73 11 74 12 76
REMARK SMILES IDX 13 77 14 78 21 79 15 80 20 81 16 82 19 83 17 84 18 85 22 86
REMARK SMILES IDX 23 87 24 88 25 89 27 90 28 91 26 93
REMARK H PARENT 3 9 82 27 52 38 10 75 28 92 26 94
REMARK Flexibility Score: inf
ROOT
ATOM      1  C   UNL     1      11.909   2.848   3.104  1.00  0.00     0.021 C 
ENDROOT
BRANCH   1   2
ATOM      2  C   UNL     1      13.037   2.342   2.201  1.00  0.00     0.002 C 
BRANCH   2   3
ATOM      3  C   UNL     1      12.719   1.152   1.294  1.00  0.00     0.002 C 
BRANCH   3   4
ATOM      4  C   UNL     1      11.500   1.285   0.377  1.00  0.00     0.021 C 
BRANCH   4   5
ATOM      5  C   UNL     1      11.437   2.531  -0.503  1.00  0.00     0.116 C 
BRANCH   5   6
ATOM      6  N   UNL     1      12.571   2.659  -1.399  1.00  0.00    -0.352 N 
ATOM      7  O   UNL     1      13.681   3.035  -3.315  1.00  0.00    -0.269 OA
ATOM      8  C   UNL     1      12.615   3.088  -2.704  1.00  0.00     0.251 C 
ATOM      9  H   UNL     1      13.439   2.400  -1.015  1.00  0.00     0.163 HD
BRANCH   8  10
ATOM     10  C   UNL     1      11.398   3.581  -3.395  1.00  0.00     0.039 A 
ATOM     11  C   UNL     1      10.500   4.462  -2.783  1.00  0.00     0.014 A 
ATOM     12  C   UNL     1      11.183   3.186  -4.721  1.00  0.00     0.014 A 
ATOM     13  C   UNL     1       9.349   4.869  -3.461  1.00  0.00     0.010 A 
ATOM     14  C   UNL     1      10.047   3.621  -5.412  1.00  0.00     0.010 A 
ATOM     15  C   UNL     1       9.109   4.446  -4.777  1.00  0.00    -0.014 A 
BRANCH  15  16
ATOM     16  C   UNL     1       7.883   4.890  -5.484  1.00  0.00     0.031 A 
ATOM     17  C   UNL     1       6.720   3.956  -5.662  1.00  0.00     0.074 A 
ATOM     18  C   UNL     1       7.802   6.152  -5.941  1.00  0.00     0.049 A 
ATOM     19  N   UNL     1       5.553   4.192  -6.204  1.00  0.00    -0.248 NA
ATOM     20  C   UNL     1       6.891   2.583  -5.166  1.00  0.00     0.031 C 
ATOM     21  C   UNL     1       8.861   7.157  -5.843  1.00  0.00     0.029 A 
ATOM     22  N   UNL     1       6.770   6.808  -6.563  1.00  0.00    -0.354 N 
ATOM     23  C   UNL     1       4.853   2.996  -6.131  1.00  0.00     0.074 A 
ATOM     24  C   UNL     1       5.728   2.034  -5.491  1.00  0.00     0.031 C 
ATOM     25  C   UNL     1       8.409   8.316  -6.350  1.00  0.00     0.029 A 
ATOM     26  C   UNL     1       7.038   8.130  -6.818  1.00  0.00     0.049 A 
ATOM     27  H   UNL     1       5.920   6.373  -6.802  1.00  0.00     0.167 HD
ATOM     28  C   UNL     1       3.595   2.718  -6.553  1.00  0.00     0.031 A 
ATOM     29  C   UNL     1       6.264   9.091  -7.355  1.00  0.00     0.031 A 
ATOM     30  C   UNL     1       2.707   3.663  -7.171  1.00  0.00     0.049 A 
ATOM     31  C   UNL     1       4.866   8.771  -7.791  1.00  0.00     0.074 A 
ATOM     32  C   UNL     1       1.412   3.468  -7.621  1.00  0.00     0.029 A 
ATOM     33  N   UNL     1       3.021   4.989  -7.422  1.00  0.00    -0.354 N 
ATOM     34  N   UNL     1       4.224   7.631  -7.713  1.00  0.00    -0.248 NA
ATOM     35  C   UNL     1       4.092   9.867  -8.389  1.00  0.00     0.031 C 
ATOM     36  C   UNL     1       0.942   4.681  -8.144  1.00  0.00     0.029 A 
ATOM     37  C   UNL     1       1.946   5.627  -8.018  1.00  0.00     0.049 A 
ATOM     38  H   UNL     1       3.882   5.415  -7.209  1.00  0.00     0.167 HD
ATOM     39  C   UNL     1       2.967   7.872  -8.253  1.00  0.00     0.074 A 
ATOM     40  C   UNL     1       2.938   9.266  -8.650  1.00  0.00     0.031 C 
ATOM     41  C   UNL     1       1.931   7.012  -8.407  1.00  0.00     0.031 A 
BRANCH  28  42
ATOM     42  C   UNL     1       3.122   1.309  -6.350  1.00  0.00    -0.014 A 
ATOM     43  C   UNL     1       2.519   0.930  -5.138  1.00  0.00     0.010 A 
ATOM     44  C   UNL     1       3.314   0.350  -7.359  1.00  0.00     0.010 A 
ATOM     45  C   UNL     1       2.154  -0.400  -4.920  1.00  0.00     0.020 A 
ATOM     46  C   UNL     1       2.947  -0.981  -7.145  1.00  0.00     0.020 A 
ATOM     47  C   UNL     1       2.391  -1.351  -5.917  1.00  0.00     0.054 A 
BRANCH  47  48
ATOM     48  S   UNL     1       1.959  -3.088  -5.621  1.00  0.00     0.124 S 
ATOM     49  O   UNL     1       3.213  -3.620  -5.093  1.00  0.00    -0.237 OA
ATOM     50  O   UNL     1       0.863  -3.004  -4.659  1.00  0.00    -0.237 OA
ATOM     51  O   UNL     1       1.583  -3.570  -6.947  1.00  0.00    -0.744 OA
ENDBRANCH  47  48
ENDBRANCH  28  42
BRANCH  29  52
ATOM     52  C   UNL     1       6.805  10.465  -7.476  1.00  0.00    -0.014 A 
ATOM     53  C   UNL     1       6.617  11.385  -6.431  1.00  0.00     0.010 A 
ATOM     54  C   UNL     1       7.567  10.832  -8.597  1.00  0.00     0.010 A 
ATOM     55  C   UNL     1       7.198  12.654  -6.497  1.00  0.00     0.020 A 
ATOM     56  C   UNL     1       8.151  12.100  -8.665  1.00  0.00     0.020 A 
ATOM     57  C   UNL     1       7.963  13.002  -7.614  1.00  0.00     0.054 A 
BRANCH  57  58
ATOM     58  S   UNL     1       8.803  14.610  -7.665  1.00  0.00     0.124 S 
ATOM     59  O   UNL     1       7.870  15.415  -8.446  1.00  0.00    -0.237 OA
ATOM     60  O   UNL     1       8.920  14.972  -6.254  1.00  0.00    -0.237 OA
ATOM     61  O   UNL     1      10.069  14.293  -8.323  1.00  0.00    -0.744 OA
ENDBRANCH  57  58
ENDBRANCH  29  52
BRANCH  41  62
ATOM     62  C   UNL     1       0.683   7.562  -9.031  1.00  0.00    -0.014 A 
ATOM     63  C   UNL     1       0.525   7.552 -10.427  1.00  0.00     0.010 A 
ATOM     64  C   UNL     1      -0.344   8.076  -8.221  1.00  0.00     0.010 A 
ATOM     65  C   UNL     1      -0.636   8.067 -11.009  1.00  0.00     0.020 A 
ATOM     66  C   UNL     1      -1.507   8.590  -8.800  1.00  0.00     0.020 A 
ATOM     67  C   UNL     1      -1.640   8.594 -10.192  1.00  0.00     0.054 A 
BRANCH  67  68
ATOM     68  S   UNL     1      -3.162   9.243 -10.939  1.00  0.00     0.124 S 
ATOM     69  O   UNL     1      -2.854  10.664 -11.066  1.00  0.00    -0.237 OA
ATOM     70  O   UNL     1      -3.259   8.508 -12.198  1.00  0.00    -0.237 OA
ATOM     71  O   UNL     1      -4.185   8.908  -9.951  1.00  0.00    -0.744 OA
ENDBRANCH  67  68
ENDBRANCH  41  62
ENDBRANCH  15  16
ENDBRANCH   8  10
ENDBRANCH   5   6
ENDBRANCH   4   5
ENDBRANCH   3   4
ENDBRANCH   2   3
ENDBRANCH   1   2
BRANCH   1  72
ATOM     72  C   UNL     1      11.181   1.802   3.944  1.00  0.00     0.116 C 
BRANCH  72  73
ATOM     73  N   UNL     1      12.060   1.033   4.805  1.00  0.00    -0.351 N 
ATOM     74  C   UNL     1      11.764   0.494   6.037  1.00  0.00     0.261 C 
ATOM     75  H   UNL     1      12.973   0.878   4.469  1.00  0.00     0.163 HD
ATOM     76  O   UNL     1      12.539  -0.328   6.524  1.00  0.00    -0.268 OA
BRANCH  74  77
ATOM     77  C   UNL     1      10.550   0.934   6.692  1.00  0.00     0.097 A 
ATOM     78  S   UNL     1       9.108   0.096   6.348  1.00  0.00    -0.130 S 
ATOM     79  C   UNL     1      10.376   1.946   7.626  1.00  0.00    -0.007 A 
ATOM     80  C   UNL     1       8.166   1.171   7.296  1.00  0.00     0.035 A 
ATOM     81  C   UNL     1       8.963   2.128   7.931  1.00  0.00    -0.003 A 
ATOM     82  C   UNL     1       6.765   1.146   7.452  1.00  0.00     0.019 A 
ATOM     83  C   UNL     1       8.302   3.092   8.739  1.00  0.00     0.010 A 
ATOM     84  C   UNL     1       6.153   2.109   8.255  1.00  0.00     0.001 A 
ATOM     85  C   UNL     1       6.913   3.074   8.894  1.00  0.00     0.001 A 
BRANCH  79  86
ATOM     86  C   UNL     1      11.469   2.816   8.190  1.00  0.00     0.107 C 
BRANCH  86  87
ATOM     87  S   UNL     1      12.860   1.940   8.972  1.00  0.00    -0.154 SA
BRANCH  87  88
ATOM     88  C   UNL     1      12.004   0.770  10.092  1.00  0.00     0.104 C 
BRANCH  88  89
ATOM     89  C   UNL     1      11.428   1.358  11.387  1.00  0.00     0.149 C 
BRANCH  89  90
ATOM     90  C   UNL     1      12.444   2.134  12.230  1.00  0.00     0.188 C 
BRANCH  90  91
ATOM     91  O   UNL     1      11.821   2.529  13.457  1.00  0.00    -0.394 OA
ATOM     92  H   UNL     1      11.053   3.089  13.264  1.00  0.00     0.210 HD
ENDBRANCH  90  91
ENDBRANCH  89  90
BRANCH  89  93
ATOM     93  O   UNL     1      10.307   2.217  11.134  1.00  0.00    -0.390 OA
ATOM     94  H   UNL     1      10.601   2.991  10.629  1.00  0.00     0.211 HD
ENDBRANCH  89  93
ENDBRANCH  88  89
ENDBRANCH  87  88
ENDBRANCH  86  87
ENDBRANCH  79  86
ENDBRANCH  74  77
ENDBRANCH  72  73
ENDBRANCH   1  72
TORSDOF 23
