REMARK SMILES Cc1nn(C)cc1CNC(=O)[C@H]1[C@@H]2CC[C@@H](C2)[C@@H]1C(=O)NCCCCCCNC(=O)c1ccc(-c2c3nc(c(-c4ccc(S(=O)(=O)[O-])cc4)c4ccc([nH]4)c(-c4ccc(S(=O)(=O)[O-])cc4)c4nc(c(-c5ccc(S(=O)(=O)[O-])cc5)c5ccc2[nH]5)C=C4)C=C3)cc1
REMARK SMILES IDX 24 1 23 2 22 3 21 4 19 5 20 6 18 8 12 9 13 10 14 11 17 12
REMARK SMILES IDX 16 13 15 14 10 15 9 16 11 18 8 19 7 20 1 21 2 22 3 23 4 24
REMARK SMILES IDX 6 25 5 26 25 27 26 28 27 29 28 30 29 31 30 33 31 34 32 35
REMARK SMILES IDX 90 36 33 37 89 38 34 39 35 40 36 41 83 42 37 43 88 44 82 45
REMARK SMILES IDX 84 46 38 47 87 48 81 49 80 50 39 52 69 53 50 54 68 55 51 56
REMARK SMILES IDX 54 57 67 58 85 59 52 60 53 61 66 63 86 64 55 65 40 66 41 67
REMARK SMILES IDX 49 68 42 69 48 70 43 71 44 72 45 73 46 74 47 75 70 76 71 77
REMARK SMILES IDX 79 78 72 79 78 80 73 81 74 82 75 83 76 84 77 85 56 86 57 87
REMARK SMILES IDX 65 88 58 89 64 90 59 91 60 92 61 93 62 94 63 95
REMARK H PARENT 21 7 9 17 28 32 84 51 54 62
REMARK Flexibility Score: inf
ROOT
ATOM      1  C   UNL     1      -3.004  -4.250   5.124  1.00  0.00     0.002 C 
ENDROOT
BRANCH   1   2
ATOM      2  C   UNL     1      -2.382  -5.301   4.208  1.00  0.00     0.021 C 
BRANCH   2   3
ATOM      3  C   UNL     1      -1.928  -4.767   2.859  1.00  0.00     0.116 C 
BRANCH   3   4
ATOM      4  N   UNL     1      -0.687  -4.034   2.932  1.00  0.00    -0.356 N 
ATOM      5  C   UNL     1       0.416  -4.048   2.147  1.00  0.00     0.224 C 
ATOM      6  O   UNL     1       1.337  -3.296   2.490  1.00  0.00    -0.275 OA
ATOM      7  H   UNL     1      -0.632  -3.409   3.691  1.00  0.00     0.163 HD
BRANCH   5   8
ATOM      8  C   UNL     1       0.621  -4.953   0.936  1.00  0.00     0.094 C 
ATOM      9  C   UNL     1      -0.529  -5.394   0.004  1.00  0.00     0.094 C 
ATOM     10  C   UNL     1      -0.243  -6.923  -0.152  1.00  0.00     0.002 C 
ATOM     11  C   UNL     1      -0.618  -7.681   1.136  1.00  0.00     0.005 C 
ATOM     12  C   UNL     1       1.286  -6.995  -0.067  1.00  0.00     0.009 C 
ATOM     13  C   UNL     1       1.335  -6.283   1.286  1.00  0.00     0.002 C 
ATOM     14  C   UNL     1       0.452  -7.211   2.136  1.00  0.00     0.005 C 
BRANCH   9  15
ATOM     15  C   UNL     1      -0.462  -4.667  -1.339  1.00  0.00     0.224 C 
ATOM     16  N   UNL     1      -0.910  -3.384  -1.431  1.00  0.00    -0.352 N 
ATOM     17  H   UNL     1      -0.816  -2.980  -2.324  1.00  0.00     0.163 HD
ATOM     18  O   UNL     1      -0.016  -5.199  -2.356  1.00  0.00    -0.275 OA
BRANCH  16  19
ATOM     19  C   UNL     1      -1.501  -2.515  -0.433  1.00  0.00     0.155 C 
BRANCH  19  20
ATOM     20  C   UNL     1      -0.657  -1.300  -0.280  1.00  0.00     0.012 A 
ATOM     21  C   UNL     1      -2.448   0.618  -0.081  1.00  0.00     0.069 C 
ATOM     22  C   UNL     1      -1.074   0.057  -0.127  1.00  0.00     0.064 A 
ATOM     23  N   UNL     1      -0.031   0.891  -0.016  1.00  0.00    -0.178 NA
ATOM     24  N   UNL     1       1.041   0.085  -0.069  1.00  0.00    -0.275 N 
ATOM     25  C   UNL     1       0.722  -1.228  -0.219  1.00  0.00     0.114 A 
ATOM     26  C   UNL     1       2.364   0.650   0.014  1.00  0.00     0.173 C 
ENDBRANCH  19  20
ENDBRANCH  16  19
ENDBRANCH   9  15
ENDBRANCH   5   8
ENDBRANCH   3   4
ENDBRANCH   2   3
ENDBRANCH   1   2
BRANCH   1  27
ATOM     27  C   UNL     1      -4.170  -3.464   4.516  1.00  0.00     0.002 C 
BRANCH  27  28
ATOM     28  C   UNL     1      -5.278  -4.307   3.879  1.00  0.00     0.021 C 
BRANCH  28  29
ATOM     29  C   UNL     1      -5.860  -5.395   4.775  1.00  0.00     0.116 C 
BRANCH  29  30
ATOM     30  N   UNL     1      -6.371  -4.860   6.024  1.00  0.00    -0.352 N 
ATOM     31  C   UNL     1      -7.612  -5.009   6.589  1.00  0.00     0.251 C 
ATOM     32  H   UNL     1      -5.737  -4.311   6.539  1.00  0.00     0.163 HD
ATOM     33  O   UNL     1      -7.931  -4.326   7.555  1.00  0.00    -0.269 OA
BRANCH  31  34
ATOM     34  C   UNL     1      -8.565  -5.981   6.012  1.00  0.00     0.039 A 
ATOM     35  C   UNL     1      -9.891  -5.590   5.823  1.00  0.00     0.014 A 
ATOM     36  C   UNL     1      -8.151  -7.270   5.663  1.00  0.00     0.014 A 
ATOM     37  C   UNL     1     -10.793  -6.478   5.235  1.00  0.00     0.010 A 
ATOM     38  C   UNL     1      -9.032  -8.125   5.008  1.00  0.00     0.010 A 
ATOM     39  C   UNL     1     -10.364  -7.741   4.795  1.00  0.00    -0.014 A 
BRANCH  39  40
ATOM     40  C   UNL     1     -11.299  -8.673   4.115  1.00  0.00     0.031 A 
ATOM     41  C   UNL     1     -11.639  -9.996   4.747  1.00  0.00     0.074 A 
ATOM     42  C   UNL     1     -11.805  -8.348   2.908  1.00  0.00     0.049 A 
ATOM     43  N   UNL     1     -12.398 -10.958   4.286  1.00  0.00    -0.248 NA
ATOM     44  C   UNL     1     -11.032 -10.287   6.057  1.00  0.00     0.031 C 
ATOM     45  C   UNL     1     -11.525  -7.108   2.178  1.00  0.00     0.029 A 
ATOM     46  N   UNL     1     -12.659  -9.031   2.081  1.00  0.00    -0.354 N 
ATOM     47  C   UNL     1     -12.352 -11.967   5.241  1.00  0.00     0.074 A 
ATOM     48  C   UNL     1     -11.447 -11.526   6.280  1.00  0.00     0.031 C 
ATOM     49  C   UNL     1     -12.220  -7.107   1.029  1.00  0.00     0.029 A 
ATOM     50  C   UNL     1     -12.956  -8.362   0.916  1.00  0.00     0.049 A 
ATOM     51  H   UNL     1     -13.026  -9.918   2.300  1.00  0.00     0.167 HD
ATOM     52  C   UNL     1     -13.021 -13.144   5.264  1.00  0.00     0.031 A 
ATOM     53  C   UNL     1     -13.727  -8.720  -0.129  1.00  0.00     0.031 A 
ATOM     54  C   UNL     1     -13.925 -13.576   4.231  1.00  0.00     0.049 A 
ATOM     55  C   UNL     1     -14.432 -10.050  -0.094  1.00  0.00     0.074 A 
ATOM     56  C   UNL     1     -14.683 -14.733   4.181  1.00  0.00     0.029 A 
ATOM     57  N   UNL     1     -14.192 -12.873   3.066  1.00  0.00    -0.354 N 
ATOM     58  N   UNL     1     -14.423 -10.963   0.848  1.00  0.00    -0.248 NA
ATOM     59  C   UNL     1     -15.260 -10.392  -1.258  1.00  0.00     0.031 C 
ATOM     60  C   UNL     1     -15.363 -14.757   2.960  1.00  0.00     0.029 A 
ATOM     61  C   UNL     1     -15.084 -13.582   2.280  1.00  0.00     0.049 A 
ATOM     62  H   UNL     1     -13.806 -11.998   2.833  1.00  0.00     0.167 HD
ATOM     63  C   UNL     1     -15.270 -11.973   0.403  1.00  0.00     0.074 A 
ATOM     64  C   UNL     1     -15.786 -11.549  -0.882  1.00  0.00     0.031 C 
ATOM     65  C   UNL     1     -15.592 -13.145   1.004  1.00  0.00     0.031 A 
BRANCH  52  66
ATOM     66  C   UNL     1     -12.799 -14.054   6.445  1.00  0.00    -0.014 A 
ATOM     67  C   UNL     1     -13.279 -13.713   7.723  1.00  0.00     0.010 A 
ATOM     68  C   UNL     1     -12.155 -15.291   6.266  1.00  0.00     0.010 A 
ATOM     69  C   UNL     1     -13.087 -14.576   8.805  1.00  0.00     0.020 A 
ATOM     70  C   UNL     1     -11.989 -16.172   7.339  1.00  0.00     0.020 A 
ATOM     71  C   UNL     1     -12.445 -15.801   8.605  1.00  0.00     0.054 A 
BRANCH  71  72
ATOM     72  S   UNL     1     -12.246 -16.917  10.022  1.00  0.00     0.124 S 
ATOM     73  O   UNL     1     -11.243 -16.215  10.819  1.00  0.00    -0.237 OA
ATOM     74  O   UNL     1     -13.591 -16.951  10.592  1.00  0.00    -0.237 OA
ATOM     75  O   UNL     1     -11.796 -18.169   9.418  1.00  0.00    -0.744 OA
ENDBRANCH  71  72
ENDBRANCH  52  66
BRANCH  53  76
ATOM     76  C   UNL     1     -13.878  -7.809  -1.297  1.00  0.00    -0.014 A 
ATOM     77  C   UNL     1     -15.115  -7.200  -1.576  1.00  0.00     0.010 A 
ATOM     78  C   UNL     1     -12.786  -7.553  -2.146  1.00  0.00     0.010 A 
ATOM     79  C   UNL     1     -15.264  -6.379  -2.698  1.00  0.00     0.020 A 
ATOM     80  C   UNL     1     -12.922  -6.706  -3.249  1.00  0.00     0.020 A 
ATOM     81  C   UNL     1     -14.166  -6.137  -3.527  1.00  0.00     0.054 A 
BRANCH  81  82
ATOM     82  S   UNL     1     -14.376  -5.045  -4.961  1.00  0.00     0.124 S 
ATOM     83  O   UNL     1     -15.171  -5.875  -5.860  1.00  0.00    -0.237 OA
ATOM     84  O   UNL     1     -15.066  -3.896  -4.381  1.00  0.00    -0.237 OA
ATOM     85  O   UNL     1     -13.005  -4.785  -5.395  1.00  0.00    -0.744 OA
ENDBRANCH  81  82
ENDBRANCH  53  76
BRANCH  65  86
ATOM     86  C   UNL     1     -16.580 -14.038   0.300  1.00  0.00    -0.014 A 
ATOM     87  C   UNL     1     -16.238 -14.725  -0.878  1.00  0.00     0.010 A 
ATOM     88  C   UNL     1     -17.856 -14.234   0.861  1.00  0.00     0.010 A 
ATOM     89  C   UNL     1     -17.166 -15.564  -1.501  1.00  0.00     0.020 A 
ATOM     90  C   UNL     1     -18.774 -15.097   0.259  1.00  0.00     0.020 A 
ATOM     91  C   UNL     1     -18.428 -15.746  -0.927  1.00  0.00     0.054 A 
BRANCH  91  92
ATOM     92  S   UNL     1     -19.597 -16.875  -1.732  1.00  0.00     0.124 S 
ATOM     93  O   UNL     1     -19.982 -16.118  -2.919  1.00  0.00    -0.237 OA
ATOM     94  O   UNL     1     -18.777 -18.059  -1.979  1.00  0.00    -0.237 OA
ATOM     95  O   UNL     1     -20.651 -17.051  -0.736  1.00  0.00    -0.744 OA
ENDBRANCH  91  92
ENDBRANCH  65  86
ENDBRANCH  39  40
ENDBRANCH  31  34
ENDBRANCH  29  30
ENDBRANCH  28  29
ENDBRANCH  27  28
ENDBRANCH   1  27
TORSDOF 19
