REMARK SMILES Cc1ccccc1C[C@H](C[C@@H]1Cc2ccccc21)C(=O)NCCCCCCNC(=O)c1ccc(-c2c3nc(c(-c4ccc(S(=O)(=O)[O-])cc4)c4ccc([nH]4)c(-c4ccc(S(=O)(=O)[O-])cc4)c4nc(c(-c5ccc(S(=O)(=O)[O-])cc5)c5ccc2[nH]5)C=C4)C=C3)cc1
REMARK SMILES IDX 25 1 24 2 23 3 22 4 21 5 19 6 20 7 9 9 8 10 7 11 1 12 2 13
REMARK SMILES IDX 3 14 4 15 6 16 5 17 10 18 11 19 12 20 18 21 13 22 17 23
REMARK SMILES IDX 14 24 16 25 15 26 26 27 27 28 28 29 29 30 30 32 31 33 32 34
REMARK SMILES IDX 90 35 33 36 89 37 34 38 35 39 36 40 83 41 37 42 88 43 82 44
REMARK SMILES IDX 84 45 38 46 87 47 81 48 80 49 39 51 69 52 50 53 68 54 51 55
REMARK SMILES IDX 54 56 67 57 85 58 52 59 53 60 66 62 86 63 55 64 40 65 41 66
REMARK SMILES IDX 49 67 42 68 48 69 43 70 44 71 45 72 46 73 47 74 70 75 71 76
REMARK SMILES IDX 79 77 72 78 78 79 73 80 74 81 75 82 76 83 77 84 56 85 57 86
REMARK SMILES IDX 65 87 58 88 64 89 59 90 60 91 61 92 62 93 63 94
REMARK H PARENT 21 8 28 31 84 50 54 61
REMARK Flexibility Score: inf
ROOT
ATOM      1  C   UNL     1       2.118   1.021  -2.471  1.00  0.00     0.002 C 
ENDROOT
BRANCH   1   2
ATOM      2  C   UNL     1       1.602   0.071  -1.379  1.00  0.00     0.002 C 
BRANCH   2   3
ATOM      3  C   UNL     1       0.909   0.694  -0.162  1.00  0.00     0.021 C 
BRANCH   3   4
ATOM      4  C   UNL     1      -0.131   1.775  -0.445  1.00  0.00     0.116 C 
BRANCH   4   5
ATOM      5  N   UNL     1      -1.478   1.286  -0.653  1.00  0.00    -0.356 N 
ATOM      6  C   UNL     1      -2.667   1.813  -0.255  1.00  0.00     0.223 C 
ATOM      7  O   UNL     1      -3.683   1.410  -0.836  1.00  0.00    -0.275 OA
ATOM      8  H   UNL     1      -1.542   0.445  -1.161  1.00  0.00     0.163 HD
BRANCH   6   9
ATOM      9  C   UNL     1      -2.820   2.843   0.875  1.00  0.00     0.083 C 
BRANCH   9  10
ATOM     10  C   UNL     1      -2.732   4.314   0.397  1.00  0.00     0.049 C 
BRANCH  10  11
ATOM     11  C   UNL     1      -1.446   4.801  -0.239  1.00  0.00    -0.044 A 
ATOM     12  C   UNL     1      -2.431   4.865  -2.613  1.00  0.00     0.044 C 
ATOM     13  C   UNL     1      -1.303   5.016  -1.628  1.00  0.00    -0.048 A 
ATOM     14  C   UNL     1      -0.035   5.340  -2.147  1.00  0.00     0.004 A 
ATOM     15  C   UNL     1       1.067   5.505  -1.310  1.00  0.00     0.000 A 
ATOM     16  C   UNL     1      -0.335   5.041   0.593  1.00  0.00     0.004 A 
ATOM     17  C   UNL     1       0.913   5.372   0.063  1.00  0.00     0.000 A 
ENDBRANCH  10  11
ENDBRANCH   9  10
BRANCH   9  18
ATOM     18  C   UNL     1      -2.076   2.552   2.190  1.00  0.00     0.022 C 
BRANCH  18  19
ATOM     19  C   UNL     1      -2.374   1.146   2.728  1.00  0.00     0.025 C 
ATOM     20  C   UNL     1      -3.324   1.052   3.985  1.00  0.00     0.044 C 
ATOM     21  C   UNL     1      -1.291   0.647   3.656  1.00  0.00    -0.041 A 
ATOM     22  C   UNL     1      -2.112   0.609   4.754  1.00  0.00    -0.044 A 
ATOM     23  C   UNL     1       0.037   0.294   3.717  1.00  0.00     0.004 A 
ATOM     24  C   UNL     1      -1.646   0.233   5.992  1.00  0.00     0.004 A 
ATOM     25  C   UNL     1       0.539  -0.096   4.958  1.00  0.00     0.000 A 
ATOM     26  C   UNL     1      -0.296  -0.121   6.090  1.00  0.00     0.000 A 
ENDBRANCH  18  19
ENDBRANCH   9  18
ENDBRANCH   6   9
ENDBRANCH   4   5
ENDBRANCH   3   4
ENDBRANCH   2   3
ENDBRANCH   1   2
BRANCH   1  27
ATOM     27  C   UNL     1       2.890   2.259  -2.013  1.00  0.00     0.021 C 
BRANCH  27  28
ATOM     28  C   UNL     1       4.268   1.972  -1.429  1.00  0.00     0.116 C 
BRANCH  28  29
ATOM     29  N   UNL     1       5.330   2.627  -2.190  1.00  0.00    -0.352 N 
ATOM     30  C   UNL     1       6.620   2.936  -1.787  1.00  0.00     0.251 C 
ATOM     31  H   UNL     1       5.099   2.883  -3.112  1.00  0.00     0.163 HD
ATOM     32  O   UNL     1       7.376   3.620  -2.444  1.00  0.00    -0.269 OA
BRANCH  30  33
ATOM     33  C   UNL     1       7.076   2.299  -0.537  1.00  0.00     0.039 A 
ATOM     34  C   UNL     1       7.925   1.193  -0.659  1.00  0.00     0.014 A 
ATOM     35  C   UNL     1       6.409   2.582   0.650  1.00  0.00     0.014 A 
ATOM     36  C   UNL     1       7.952   0.248   0.359  1.00  0.00     0.010 A 
ATOM     37  C   UNL     1       6.363   1.597   1.615  1.00  0.00     0.010 A 
ATOM     38  C   UNL     1       7.089   0.408   1.443  1.00  0.00    -0.014 A 
BRANCH  38  39
ATOM     39  C   UNL     1       6.814  -0.652   2.405  1.00  0.00     0.031 A 
ATOM     40  C   UNL     1       7.402  -0.580   3.760  1.00  0.00     0.074 A 
ATOM     41  C   UNL     1       5.976  -1.665   2.090  1.00  0.00     0.049 A 
ATOM     42  N   UNL     1       7.619  -1.601   4.519  1.00  0.00    -0.248 NA
ATOM     43  C   UNL     1       7.858   0.678   4.343  1.00  0.00     0.031 C 
ATOM     44  C   UNL     1       5.377  -2.620   3.018  1.00  0.00     0.029 A 
ATOM     45  N   UNL     1       5.661  -2.178   0.829  1.00  0.00    -0.354 N 
ATOM     46  C   UNL     1       7.934  -1.121   5.771  1.00  0.00     0.074 A 
ATOM     47  C   UNL     1       8.173   0.291   5.581  1.00  0.00     0.031 C 
ATOM     48  C   UNL     1       5.046  -3.729   2.338  1.00  0.00     0.029 A 
ATOM     49  C   UNL     1       5.551  -3.570   0.985  1.00  0.00     0.049 A 
ATOM     50  H   UNL     1       5.540  -1.666  -0.003  1.00  0.00     0.167 HD
ATOM     51  C   UNL     1       7.801  -1.931   6.860  1.00  0.00     0.031 A 
ATOM     52  C   UNL     1       6.315  -4.483   0.317  1.00  0.00     0.031 A 
ATOM     53  C   UNL     1       7.449  -3.298   6.478  1.00  0.00     0.049 A 
ATOM     54  C   UNL     1       7.084  -5.401   1.243  1.00  0.00     0.074 A 
ATOM     55  C   UNL     1       6.252  -3.995   6.478  1.00  0.00     0.029 A 
ATOM     56  N   UNL     1       8.350  -4.060   5.744  1.00  0.00    -0.354 N 
ATOM     57  N   UNL     1       7.261  -5.168   2.513  1.00  0.00    -0.248 NA
ATOM     58  C   UNL     1       7.763  -6.617   0.802  1.00  0.00     0.031 C 
ATOM     59  C   UNL     1       6.417  -5.149   5.671  1.00  0.00     0.029 A 
ATOM     60  C   UNL     1       7.720  -5.166   5.205  1.00  0.00     0.049 A 
ATOM     61  H   UNL     1       9.303  -3.843   5.624  1.00  0.00     0.167 HD
ATOM     62  C   UNL     1       8.068  -6.135   3.052  1.00  0.00     0.074 A 
ATOM     63  C   UNL     1       8.341  -7.032   1.944  1.00  0.00     0.031 C 
ATOM     64  C   UNL     1       8.454  -6.101   4.361  1.00  0.00     0.031 A 
BRANCH  51  65
ATOM     65  C   UNL     1       7.674  -1.406   8.278  1.00  0.00    -0.014 A 
ATOM     66  C   UNL     1       6.965  -2.161   9.237  1.00  0.00     0.010 A 
ATOM     67  C   UNL     1       8.152  -0.157   8.715  1.00  0.00     0.010 A 
ATOM     68  C   UNL     1       6.652  -1.653  10.508  1.00  0.00     0.020 A 
ATOM     69  C   UNL     1       7.818   0.381   9.967  1.00  0.00     0.020 A 
ATOM     70  C   UNL     1       7.053  -0.366  10.853  1.00  0.00     0.054 A 
BRANCH  70  71
ATOM     71  S   UNL     1       6.560   0.316  12.456  1.00  0.00     0.124 S 
ATOM     72  O   UNL     1       5.103   0.217  12.406  1.00  0.00    -0.237 OA
ATOM     73  O   UNL     1       7.222  -0.583  13.397  1.00  0.00    -0.237 OA
ATOM     74  O   UNL     1       7.084   1.681  12.428  1.00  0.00    -0.744 OA
ENDBRANCH  70  71
ENDBRANCH  51  65
BRANCH  52  75
ATOM     75  C   UNL     1       6.802  -4.030  -1.013  1.00  0.00    -0.014 A 
ATOM     76  C   UNL     1       5.854  -3.910  -2.050  1.00  0.00     0.010 A 
ATOM     77  C   UNL     1       8.024  -3.343  -1.121  1.00  0.00     0.010 A 
ATOM     78  C   UNL     1       6.050  -2.995  -3.087  1.00  0.00     0.020 A 
ATOM     79  C   UNL     1       8.222  -2.426  -2.162  1.00  0.00     0.020 A 
ATOM     80  C   UNL     1       7.207  -2.215  -3.100  1.00  0.00     0.054 A 
BRANCH  80  81
ATOM     81  S   UNL     1       7.263  -0.794  -4.234  1.00  0.00     0.124 S 
ATOM     82  O   UNL     1       7.220  -1.439  -5.542  1.00  0.00    -0.237 OA
ATOM     83  O   UNL     1       6.059  -0.056  -3.855  1.00  0.00    -0.237 OA
ATOM     84  O   UNL     1       8.524  -0.144  -3.891  1.00  0.00    -0.744 OA
ENDBRANCH  80  81
ENDBRANCH  52  75
BRANCH  64  85
ATOM     85  C   UNL     1       9.494  -6.987   5.005  1.00  0.00    -0.014 A 
ATOM     86  C   UNL     1      10.516  -7.646   4.303  1.00  0.00     0.010 A 
ATOM     87  C   UNL     1       9.530  -7.078   6.418  1.00  0.00     0.010 A 
ATOM     88  C   UNL     1      11.483  -8.412   4.971  1.00  0.00     0.020 A 
ATOM     89  C   UNL     1      10.516  -7.801   7.096  1.00  0.00     0.020 A 
ATOM     90  C   UNL     1      11.473  -8.490   6.364  1.00  0.00     0.054 A 
BRANCH  90  91
ATOM     91  S   UNL     1      12.757  -9.437   7.221  1.00  0.00     0.124 S 
ATOM     92  O   UNL     1      12.177 -10.777   7.242  1.00  0.00    -0.237 OA
ATOM     93  O   UNL     1      13.921  -9.273   6.353  1.00  0.00    -0.237 OA
ATOM     94  O   UNL     1      12.860  -8.776   8.519  1.00  0.00    -0.744 OA
ENDBRANCH  90  91
ENDBRANCH  64  85
ENDBRANCH  38  39
ENDBRANCH  30  33
ENDBRANCH  28  29
ENDBRANCH  27  28
ENDBRANCH   1  27
TORSDOF 20
