REMARK SMILES C=C(C(=O)NCCCCCCNC(=O)c1ccc(-c2c3nc(c(-c4ccc(S(=O)(=O)[O-])cc4)c4ccc([nH]4)c(-c4ccc(S(=O)(=O)[O-])cc4)c4nc(c(-c5ccc(S(=O)(=O)[O-])cc5)c5ccc2[nH]5)C=C4)C=C3)cc1)[C@@H]1CC[C@]2(C)C[C@@H](O)CC(=C)[C@H]2C1
REMARK SMILES IDX 9 1 8 2 7 3 6 4 5 5 3 6 4 7 2 9 1 10 75 11 76 12 87 13 77 14
REMARK SMILES IDX 86 15 78 16 84 17 79 18 80 19 83 20 85 21 81 22 82 23 10 25
REMARK SMILES IDX 11 26 12 27 13 28 14 30 15 31 16 32 74 33 17 34 73 35 18 36
REMARK SMILES IDX 19 37 20 38 67 39 21 40 72 41 66 42 68 43 22 44 71 45 65 46
REMARK SMILES IDX 64 47 23 49 53 50 34 51 52 52 35 53 38 54 51 55 69 56 36 57
REMARK SMILES IDX 37 58 50 60 70 61 39 62 24 63 25 64 33 65 26 66 32 67 27 68
REMARK SMILES IDX 28 69 29 70 30 71 31 72 54 73 55 74 63 75 56 76 62 77 57 78
REMARK SMILES IDX 58 79 59 80 60 81 61 82 40 83 41 84 49 85 42 86 48 87 43 88
REMARK SMILES IDX 44 89 45 90 46 91 47 92
REMARK H PARENT 5 8 82 24 12 29 68 48 38 59
REMARK Flexibility Score: inf
ROOT
ATOM      1  C   UNL     1      -3.954  -2.100   2.435  1.00  0.00     0.002 C 
ENDROOT
BRANCH   1   2
ATOM      2  C   UNL     1      -3.534  -0.637   2.610  1.00  0.00     0.002 C 
BRANCH   2   3
ATOM      3  C   UNL     1      -2.037  -0.332   2.518  1.00  0.00     0.021 C 
BRANCH   3   4
ATOM      4  C   UNL     1      -1.320  -0.786   1.250  1.00  0.00     0.116 C 
BRANCH   4   5
ATOM      5  N   UNL     1      -1.740  -0.071   0.057  1.00  0.00    -0.352 N 
ATOM      6  C   UNL     1      -1.034   0.439  -0.993  1.00  0.00     0.246 C 
ATOM      7  O   UNL     1      -1.659   0.988  -1.901  1.00  0.00    -0.270 OA
ATOM      8  H   UNL     1      -2.712   0.072  -0.004  1.00  0.00     0.163 HD
BRANCH   6   9
ATOM      9  C   UNL     1       0.469   0.389  -1.051  1.00  0.00     0.013 C 
ATOM     10  C   UNL     1       1.097  -0.750  -0.699  1.00  0.00     0.018 C 
BRANCH   9  11
ATOM     11  C   UNL     1       1.153   1.560  -1.782  1.00  0.00     0.025 C 
ATOM     12  C   UNL     1       2.693   1.477  -1.883  1.00  0.00     0.009 C 
ATOM     13  C   UNL     1       0.762   2.982  -1.301  1.00  0.00     0.017 C 
ATOM     14  C   UNL     1       3.398   1.880  -0.583  1.00  0.00     0.008 C 
ATOM     15  C   UNL     1       1.477   3.425  -0.011  1.00  0.00     0.021 C 
ATOM     16  C   UNL     1       3.028   3.309  -0.110  1.00  0.00    -0.024 C 
ATOM     17  C   UNL     1       1.122   4.815   0.513  1.00  0.00    -0.071 C 
ATOM     18  C   UNL     1       3.645   4.321  -1.110  1.00  0.00     0.012 C 
ATOM     19  C   UNL     1       3.629   3.541   1.311  1.00  0.00     0.039 C 
ATOM     20  C   UNL     1       1.643   5.070   1.914  1.00  0.00     0.062 C 
ATOM     21  C   UNL     1       0.448   5.759  -0.165  1.00  0.00     0.008 C 
ATOM     22  C   UNL     1       3.156   4.820   2.026  1.00  0.00     0.119 C 
BRANCH  22  23
ATOM     23  O   UNL     1       3.900   5.948   1.560  1.00  0.00    -0.393 OA
ATOM     24  H   UNL     1       3.728   6.080   0.614  1.00  0.00     0.210 HD
ENDBRANCH  22  23
ENDBRANCH   9  11
ENDBRANCH   6   9
ENDBRANCH   4   5
ENDBRANCH   3   4
ENDBRANCH   2   3
ENDBRANCH   1   2
BRANCH   1  25
ATOM     25  C   UNL     1      -3.208  -3.135   3.281  1.00  0.00     0.021 C 
BRANCH  25  26
ATOM     26  C   UNL     1      -3.198  -2.890   4.788  1.00  0.00     0.116 C 
BRANCH  26  27
ATOM     27  N   UNL     1      -4.531  -2.888   5.365  1.00  0.00    -0.352 N 
ATOM     28  C   UNL     1      -5.026  -3.596   6.430  1.00  0.00     0.251 C 
ATOM     29  H   UNL     1      -5.176  -2.288   4.925  1.00  0.00     0.163 HD
ATOM     30  O   UNL     1      -6.237  -3.575   6.658  1.00  0.00    -0.269 OA
BRANCH  28  31
ATOM     31  C   UNL     1      -4.130  -4.397   7.295  1.00  0.00     0.039 A 
ATOM     32  C   UNL     1      -4.550  -5.667   7.700  1.00  0.00     0.014 A 
ATOM     33  C   UNL     1      -2.905  -3.893   7.744  1.00  0.00     0.014 A 
ATOM     34  C   UNL     1      -3.725  -6.447   8.515  1.00  0.00     0.010 A 
ATOM     35  C   UNL     1      -2.056  -4.696   8.507  1.00  0.00     0.010 A 
ATOM     36  C   UNL     1      -2.461  -5.978   8.908  1.00  0.00    -0.014 A 
BRANCH  36  37
ATOM     37  C   UNL     1      -1.561  -6.826   9.731  1.00  0.00     0.031 A 
ATOM     38  C   UNL     1      -1.219  -6.438  11.144  1.00  0.00     0.074 A 
ATOM     39  C   UNL     1      -1.023  -7.937   9.190  1.00  0.00     0.049 A 
ATOM     40  N   UNL     1      -0.482  -7.075  12.018  1.00  0.00    -0.248 NA
ATOM     41  C   UNL     1      -1.757  -5.158  11.632  1.00  0.00     0.031 C 
ATOM     42  C   UNL     1      -1.237  -8.397   7.816  1.00  0.00     0.029 A 
ATOM     43  N   UNL     1      -0.194  -8.886   9.732  1.00  0.00    -0.354 N 
ATOM     44  C   UNL     1      -0.452  -6.269  13.151  1.00  0.00     0.074 A 
ATOM     45  C   UNL     1      -1.210  -5.076  12.837  1.00  0.00     0.031 C 
ATOM     46  C   UNL     1      -0.592  -9.561   7.637  1.00  0.00     0.029 A 
ATOM     47  C   UNL     1       0.103  -9.915   8.871  1.00  0.00     0.049 A 
ATOM     48  H   UNL     1       0.156  -8.835  10.651  1.00  0.00     0.167 HD
ATOM     49  C   UNL     1       0.138  -6.504  14.348  1.00  0.00     0.031 A 
ATOM     50  C   UNL     1       0.839 -11.027   9.056  1.00  0.00     0.031 A 
ATOM     51  C   UNL     1       0.881  -7.696  14.662  1.00  0.00     0.049 A 
ATOM     52  C   UNL     1       1.469 -11.277  10.397  1.00  0.00     0.074 A 
ATOM     53  C   UNL     1       1.452  -8.064  15.868  1.00  0.00     0.029 A 
ATOM     54  N   UNL     1       1.163  -8.713  13.761  1.00  0.00    -0.354 N 
ATOM     55  N   UNL     1       1.417 -10.540  11.481  1.00  0.00    -0.248 NA
ATOM     56  C   UNL     1       2.245 -12.515  10.541  1.00  0.00     0.031 C 
ATOM     57  C   UNL     1       2.120  -9.281  15.684  1.00  0.00     0.029 A 
ATOM     58  C   UNL     1       1.923  -9.694  14.376  1.00  0.00     0.049 A 
ATOM     59  H   UNL     1       0.866  -8.733  12.823  1.00  0.00     0.167 HD
ATOM     60  C   UNL     1       2.138 -11.236  12.444  1.00  0.00     0.074 A 
ATOM     61  C   UNL     1       2.598 -12.460  11.818  1.00  0.00     0.031 C 
ATOM     62  C   UNL     1       2.393 -10.895  13.732  1.00  0.00     0.031 A 
BRANCH  49  63
ATOM     63  C   UNL     1       0.013  -5.435  15.403  1.00  0.00    -0.014 A 
ATOM     64  C   UNL     1      -1.218  -5.173  16.033  1.00  0.00     0.010 A 
ATOM     65  C   UNL     1       1.145  -4.691  15.779  1.00  0.00     0.010 A 
ATOM     66  C   UNL     1      -1.325  -4.149  16.979  1.00  0.00     0.020 A 
ATOM     67  C   UNL     1       1.048  -3.684  16.745  1.00  0.00     0.020 A 
ATOM     68  C   UNL     1      -0.193  -3.405  17.322  1.00  0.00     0.054 A 
BRANCH  68  69
ATOM     69  S   UNL     1      -0.358  -2.078  18.549  1.00  0.00     0.124 S 
ATOM     70  O   UNL     1      -1.012  -1.030  17.770  1.00  0.00    -0.237 OA
ATOM     71  O   UNL     1      -1.182  -2.697  19.584  1.00  0.00    -0.237 OA
ATOM     72  O   UNL     1       1.020  -1.796  18.941  1.00  0.00    -0.744 OA
ENDBRANCH  68  69
ENDBRANCH  49  63
BRANCH  50  73
ATOM     73  C   UNL     1       0.978 -12.013   7.951  1.00  0.00    -0.014 A 
ATOM     74  C   UNL     1       0.290 -13.238   8.005  1.00  0.00     0.010 A 
ATOM     75  C   UNL     1       1.770 -11.722   6.826  1.00  0.00     0.010 A 
ATOM     76  C   UNL     1       0.397 -14.158   6.959  1.00  0.00     0.020 A 
ATOM     77  C   UNL     1       1.862 -12.629   5.767  1.00  0.00     0.020 A 
ATOM     78  C   UNL     1       1.180 -13.846   5.844  1.00  0.00     0.054 A 
BRANCH  78  79
ATOM     79  S   UNL     1       1.248 -15.023   4.464  1.00  0.00     0.124 S 
ATOM     80  O   UNL     1       2.137 -16.054   4.989  1.00  0.00    -0.237 OA
ATOM     81  O   UNL     1      -0.152 -15.411   4.310  1.00  0.00    -0.237 OA
ATOM     82  O   UNL     1       1.789 -14.226   3.365  1.00  0.00    -0.744 OA
ENDBRANCH  78  79
ENDBRANCH  50  73
BRANCH  62  83
ATOM     83  C   UNL     1       3.200 -11.870  14.547  1.00  0.00    -0.014 A 
ATOM     84  C   UNL     1       4.578 -12.039  14.320  1.00  0.00     0.010 A 
ATOM     85  C   UNL     1       2.573 -12.620  15.558  1.00  0.00     0.010 A 
ATOM     86  C   UNL     1       5.304 -12.977  15.058  1.00  0.00     0.020 A 
ATOM     87  C   UNL     1       3.302 -13.539  16.316  1.00  0.00     0.020 A 
ATOM     88  C   UNL     1       4.660 -13.728  16.046  1.00  0.00     0.054 A 
BRANCH  88  89
ATOM     89  S   UNL     1       5.622 -14.936  16.997  1.00  0.00     0.124 S 
ATOM     90  O   UNL     1       5.730 -16.046  16.055  1.00  0.00    -0.237 OA
ATOM     91  O   UNL     1       6.865 -14.218  17.268  1.00  0.00    -0.237 OA
ATOM     92  O   UNL     1       4.790 -15.192  18.171  1.00  0.00    -0.744 OA
ENDBRANCH  88  89
ENDBRANCH  62  83
ENDBRANCH  36  37
ENDBRANCH  28  31
ENDBRANCH  26  27
ENDBRANCH  25  26
ENDBRANCH   1  25
TORSDOF 18
