REMARK SMILES Cc1ccc(S(=O)(=O)Nc2cccc(F)c2C(=O)NCCCCCCNC(=O)c2ccc(-c3c4nc(c(-c5ccc(S(=O)(=O)[O-])cc5)c5ccc([nH]5)c(-c5ccc(S(=O)(=O)[O-])cc5)c5nc(c(-c6ccc(S(=O)(=O)[O-])cc6)c6ccc3[nH]6)C=C5)C=C4)cc2)cc1Cl
REMARK SMILES IDX 22 1 21 2 20 3 19 4 17 5 18 6 16 8 10 9 11 10 12 11 14 12
REMARK SMILES IDX 13 13 15 14 9 15 6 17 7 18 8 19 5 20 1 21 2 22 3 23 90 24
REMARK SMILES IDX 4 25 89 26 91 27 23 28 24 29 25 30 26 31 27 32 28 34 29 35
REMARK SMILES IDX 30 36 88 37 31 38 87 39 32 40 33 41 34 42 81 43 35 44 86 45
REMARK SMILES IDX 80 46 82 47 36 48 85 49 79 50 78 51 37 53 67 54 48 55 66 56
REMARK SMILES IDX 49 57 52 58 65 59 83 60 50 61 51 62 64 64 84 65 53 66 38 67
REMARK SMILES IDX 39 68 47 69 40 70 46 71 41 72 42 73 43 74 44 75 45 76 68 77
REMARK SMILES IDX 69 78 77 79 70 80 76 81 71 82 72 83 73 84 74 85 75 86 54 87
REMARK SMILES IDX 55 88 63 89 56 90 62 91 57 92 58 93 59 94 60 95 61 96
REMARK H PARENT 19 7 9 16 26 33 82 52 52 63
REMARK Flexibility Score: inf
ROOT
ATOM      1  C   UNL     1     -10.537  -0.541   3.479  1.00  0.00     0.002 C 
ENDROOT
BRANCH   1   2
ATOM      2  C   UNL     1      -9.973   0.101   2.210  1.00  0.00     0.021 C 
BRANCH   2   3
ATOM      3  C   UNL     1      -8.489   0.455   2.199  1.00  0.00     0.116 C 
BRANCH   3   4
ATOM      4  N   UNL     1      -7.600  -0.674   2.395  1.00  0.00    -0.352 N 
ATOM      5  C   UNL     1      -6.388  -0.985   1.828  1.00  0.00     0.256 C 
ATOM      6  O   UNL     1      -5.811  -1.993   2.244  1.00  0.00    -0.269 OA
ATOM      7  H   UNL     1      -7.923  -1.335   3.050  1.00  0.00     0.163 HD
BRANCH   5   8
ATOM      8  C   UNL     1      -5.782  -0.244   0.685  1.00  0.00     0.099 A 
ATOM      9  C   UNL     1      -4.990  -0.943  -0.262  1.00  0.00     0.065 A 
ATOM     10  C   UNL     1      -4.568  -0.307  -1.436  1.00  0.00     0.028 A 
ATOM     11  C   UNL     1      -4.773   1.063  -1.597  1.00  0.00     0.005 A 
ATOM     12  C   UNL     1      -5.865   1.140   0.554  1.00  0.00     0.138 A 
ATOM     13  C   UNL     1      -5.377   1.793  -0.577  1.00  0.00     0.040 A 
ATOM     14  F   UNL     1      -6.333   1.904   1.551  1.00  0.00    -0.206 F 
BRANCH   9  15
ATOM     15  N   UNL     1      -4.536  -2.271   0.037  1.00  0.00    -0.279 N 
ATOM     16  H   UNL     1      -5.200  -2.943   0.315  1.00  0.00     0.180 HD
BRANCH  15  17
ATOM     17  S   UNL     1      -2.916  -2.733  -0.068  1.00  0.00     0.261 S 
ATOM     18  O   UNL     1      -2.688  -3.122  -1.450  1.00  0.00    -0.201 OA
ATOM     19  O   UNL     1      -2.686  -3.666   1.008  1.00  0.00    -0.201 OA
BRANCH  17  20
ATOM     20  C   UNL     1      -1.830  -1.347   0.229  1.00  0.00     0.089 A 
ATOM     21  C   UNL     1       0.728   2.132   0.181  1.00  0.00     0.046 C 
ATOM     22  C   UNL     1      -0.122   0.892   0.224  1.00  0.00    -0.032 A 
ATOM     23  C   UNL     1      -1.375   0.940   0.858  1.00  0.00     0.006 A 
ATOM     24  C   UNL     1       0.308  -0.331  -0.308  1.00  0.00     0.045 A 
ATOM     25  C   UNL     1      -2.209  -0.185   0.895  1.00  0.00     0.022 A 
ATOM     26  C   UNL     1      -0.549  -1.433  -0.332  1.00  0.00     0.043 A 
ATOM     27  Cl  UNL     1       1.893  -0.531  -0.965  1.00  0.00    -0.084 Cl
ENDBRANCH  17  20
ENDBRANCH  15  17
ENDBRANCH   9  15
ENDBRANCH   5   8
ENDBRANCH   3   4
ENDBRANCH   2   3
ENDBRANCH   1   2
BRANCH   1  28
ATOM     28  C   UNL     1     -10.274   0.173   4.806  1.00  0.00     0.002 C 
BRANCH  28  29
ATOM     29  C   UNL     1     -10.600   1.666   4.872  1.00  0.00     0.021 C 
BRANCH  29  30
ATOM     30  C   UNL     1     -12.002   2.081   4.434  1.00  0.00     0.116 C 
BRANCH  30  31
ATOM     31  N   UNL     1     -13.055   1.503   5.250  1.00  0.00    -0.352 N 
ATOM     32  C   UNL     1     -14.123   2.111   5.866  1.00  0.00     0.251 C 
ATOM     33  H   UNL     1     -12.995   0.529   5.381  1.00  0.00     0.163 HD
ATOM     34  O   UNL     1     -14.850   1.453   6.606  1.00  0.00    -0.269 OA
BRANCH  32  35
ATOM     35  C   UNL     1     -14.386   3.558   5.674  1.00  0.00     0.039 A 
ATOM     36  C   UNL     1     -14.696   4.335   6.795  1.00  0.00     0.014 A 
ATOM     37  C   UNL     1     -14.347   4.150   4.408  1.00  0.00     0.014 A 
ATOM     38  C   UNL     1     -14.892   5.713   6.658  1.00  0.00     0.010 A 
ATOM     39  C   UNL     1     -14.484   5.533   4.281  1.00  0.00     0.010 A 
ATOM     40  C   UNL     1     -14.751   6.331   5.405  1.00  0.00    -0.014 A 
BRANCH  40  41
ATOM     41  C   UNL     1     -14.853   7.807   5.257  1.00  0.00     0.031 A 
ATOM     42  C   UNL     1     -15.968   8.421   4.455  1.00  0.00     0.074 A 
ATOM     43  C   UNL     1     -13.900   8.596   5.793  1.00  0.00     0.049 A 
ATOM     44  N   UNL     1     -16.176   9.679   4.161  1.00  0.00    -0.248 NA
ATOM     45  C   UNL     1     -16.968   7.500   3.893  1.00  0.00     0.031 C 
ATOM     46  C   UNL     1     -12.746   8.127   6.564  1.00  0.00     0.029 A 
ATOM     47  N   UNL     1     -13.743   9.960   5.761  1.00  0.00    -0.354 N 
ATOM     48  C   UNL     1     -17.317   9.701   3.368  1.00  0.00     0.074 A 
ATOM     49  C   UNL     1     -17.735   8.326   3.195  1.00  0.00     0.031 C 
ATOM     50  C   UNL     1     -12.012   9.185   6.946  1.00  0.00     0.029 A 
ATOM     51  C   UNL     1     -12.618  10.403   6.417  1.00  0.00     0.049 A 
ATOM     52  H   UNL     1     -14.376  10.565   5.311  1.00  0.00     0.167 HD
ATOM     53  C   UNL     1     -17.967  10.768   2.842  1.00  0.00     0.031 A 
ATOM     54  C   UNL     1     -12.121  11.646   6.570  1.00  0.00     0.031 A 
ATOM     55  C   UNL     1     -17.559  12.136   3.021  1.00  0.00     0.049 A 
ATOM     56  C   UNL     1     -12.856  12.813   5.971  1.00  0.00     0.074 A 
ATOM     57  C   UNL     1     -18.184  13.287   2.571  1.00  0.00     0.029 A 
ATOM     58  N   UNL     1     -16.421  12.541   3.703  1.00  0.00    -0.354 N 
ATOM     59  N   UNL     1     -13.965  12.815   5.271  1.00  0.00    -0.248 NA
ATOM     60  C   UNL     1     -12.278  14.146   6.192  1.00  0.00     0.031 C 
ATOM     61  C   UNL     1     -17.401  14.385   2.943  1.00  0.00     0.029 A 
ATOM     62  C   UNL     1     -16.314  13.922   3.667  1.00  0.00     0.049 A 
ATOM     63  H   UNL     1     -15.784  11.936   4.147  1.00  0.00     0.167 HD
ATOM     64  C   UNL     1     -14.229  14.150   4.986  1.00  0.00     0.074 A 
ATOM     65  C   UNL     1     -13.172  14.927   5.602  1.00  0.00     0.031 C 
ATOM     66  C   UNL     1     -15.255  14.683   4.280  1.00  0.00     0.031 A 
BRANCH  53  67
ATOM     67  C   UNL     1     -19.192  10.493   2.010  1.00  0.00    -0.014 A 
ATOM     68  C   UNL     1     -20.389  10.053   2.603  1.00  0.00     0.010 A 
ATOM     69  C   UNL     1     -19.159  10.718   0.621  1.00  0.00     0.010 A 
ATOM     70  C   UNL     1     -21.517   9.799   1.818  1.00  0.00     0.020 A 
ATOM     71  C   UNL     1     -20.294  10.490  -0.164  1.00  0.00     0.020 A 
ATOM     72  C   UNL     1     -21.460  10.014   0.438  1.00  0.00     0.054 A 
BRANCH  72  73
ATOM     73  S   UNL     1     -22.943   9.691  -0.556  1.00  0.00     0.124 S 
ATOM     74  O   UNL     1     -22.962   8.231  -0.599  1.00  0.00    -0.237 OA
ATOM     75  O   UNL     1     -24.003  10.310   0.236  1.00  0.00    -0.237 OA
ATOM     76  O   UNL     1     -22.657  10.348  -1.829  1.00  0.00    -0.744 OA
ENDBRANCH  72  73
ENDBRANCH  53  67
BRANCH  54  77
ATOM     77  C   UNL     1     -10.861  11.850   7.333  1.00  0.00    -0.014 A 
ATOM     78  C   UNL     1     -10.888  12.434   8.611  1.00  0.00     0.010 A 
ATOM     79  C   UNL     1      -9.627  11.446   6.790  1.00  0.00     0.010 A 
ATOM     80  C   UNL     1      -9.703  12.622   9.329  1.00  0.00     0.020 A 
ATOM     81  C   UNL     1      -8.444  11.610   7.515  1.00  0.00     0.020 A 
ATOM     82  C   UNL     1      -8.488  12.207   8.776  1.00  0.00     0.054 A 
BRANCH  82  83
ATOM     83  S   UNL     1      -6.968  12.406   9.747  1.00  0.00     0.124 S 
ATOM     84  O   UNL     1      -6.707  13.835   9.613  1.00  0.00    -0.237 OA
ATOM     85  O   UNL     1      -7.380  11.959  11.076  1.00  0.00    -0.237 OA
ATOM     86  O   UNL     1      -6.016  11.527   9.071  1.00  0.00    -0.744 OA
ENDBRANCH  82  83
ENDBRANCH  54  77
BRANCH  66  87
ATOM     87  C   UNL     1     -15.303  16.182   4.154  1.00  0.00    -0.014 A 
ATOM     88  C   UNL     1     -14.415  16.869   3.308  1.00  0.00     0.010 A 
ATOM     89  C   UNL     1     -16.283  16.907   4.856  1.00  0.00     0.010 A 
ATOM     90  C   UNL     1     -14.487  18.260   3.189  1.00  0.00     0.020 A 
ATOM     91  C   UNL     1     -16.374  18.295   4.721  1.00  0.00     0.020 A 
ATOM     92  C   UNL     1     -15.465  18.964   3.898  1.00  0.00     0.054 A 
BRANCH  92  93
ATOM     93  S   UNL     1     -15.567  20.764   3.695  1.00  0.00     0.124 S 
ATOM     94  O   UNL     1     -14.435  21.224   4.495  1.00  0.00    -0.237 OA
ATOM     95  O   UNL     1     -15.426  20.934   2.251  1.00  0.00    -0.237 OA
ATOM     96  O   UNL     1     -16.886  21.098   4.230  1.00  0.00    -0.744 OA
ENDBRANCH  92  93
ENDBRANCH  66  87
ENDBRANCH  40  41
ENDBRANCH  32  35
ENDBRANCH  30  31
ENDBRANCH  29  30
ENDBRANCH  28  29
ENDBRANCH   1  28
TORSDOF 19
