REMARK SMILES O=C(NCCCCCCNC(=O)c1cc(NC(=O)c2ccccc2Cl)ccc1N1CCC[C@H](C[NH+]2CCCC2)C1)c1ccc(-c2c3nc(c(-c4ccc(S(=O)(=O)[O-])cc4)c4ccc([nH]4)c(-c4ccc(S(=O)(=O)[O-])cc4)c4nc(c(-c5ccc(S(=O)(=O)[O-])cc5)c5ccc2[nH]5)C=C4)C=C3)cc1
REMARK SMILES IDX 6 1 5 2 4 3 3 4 1 5 2 6 41 8 42 9 100 10 43 11 99 12 44 13
REMARK SMILES IDX 45 14 46 15 93 16 47 17 98 18 92 19 94 20 48 21 97 22 91 23
REMARK SMILES IDX 90 24 49 26 79 27 60 28 78 29 61 30 64 31 77 32 95 33 62 34
REMARK SMILES IDX 63 35 76 37 96 38 65 39 50 40 51 41 59 42 52 43 58 44 53 45
REMARK SMILES IDX 54 46 55 47 56 48 57 49 80 50 81 51 89 52 82 53 88 54 83 55
REMARK SMILES IDX 84 56 85 57 86 58 87 59 66 60 67 61 75 62 68 63 74 64 69 65
REMARK SMILES IDX 70 66 71 67 72 68 73 69 7 70 8 71 9 72 10 73 11 74 12 76
REMARK SMILES IDX 13 77 14 78 28 79 15 80 27 81 26 82 29 83 30 84 40 85 31 86
REMARK SMILES IDX 33 87 32 88 34 89 35 90 36 91 39 92 37 94 38 95 16 96 17 97
REMARK SMILES IDX 18 99 19 100 20 101 24 102 21 103 23 104 25 105 22 106
REMARK H PARENT 3 7 94 25 64 36 10 75 35 93 16 98
REMARK Flexibility Score: inf
ROOT
ATOM      1  C   UNL     1       4.258  -3.835  -0.524  1.00  0.00     0.002 C 
ENDROOT
BRANCH   1   2
ATOM      2  C   UNL     1       4.819  -2.626   0.226  1.00  0.00     0.021 C 
BRANCH   2   3
ATOM      3  C   UNL     1       4.518  -1.260  -0.378  1.00  0.00     0.116 C 
BRANCH   3   4
ATOM      4  N   UNL     1       3.098  -0.977  -0.495  1.00  0.00    -0.352 N 
ATOM      5  O   UNL     1       1.168   0.148  -0.222  1.00  0.00    -0.269 OA
ATOM      6  C   UNL     1       2.387   0.142  -0.121  1.00  0.00     0.251 C 
ATOM      7  H   UNL     1       2.562  -1.695  -0.904  1.00  0.00     0.163 HD
BRANCH   6   8
ATOM      8  C   UNL     1       3.092   1.321   0.438  1.00  0.00     0.039 A 
ATOM      9  C   UNL     1       4.271   1.803  -0.134  1.00  0.00     0.014 A 
ATOM     10  C   UNL     1       2.553   1.958   1.561  1.00  0.00     0.014 A 
ATOM     11  C   UNL     1       4.989   2.811   0.505  1.00  0.00     0.010 A 
ATOM     12  C   UNL     1       3.235   3.026   2.154  1.00  0.00     0.010 A 
ATOM     13  C   UNL     1       4.482   3.433   1.657  1.00  0.00    -0.014 A 
BRANCH  13  14
ATOM     14  C   UNL     1       5.261   4.520   2.308  1.00  0.00     0.031 A 
ATOM     15  C   UNL     1       5.819   4.352   3.697  1.00  0.00     0.074 A 
ATOM     16  C   UNL     1       5.497   5.657   1.624  1.00  0.00     0.049 A 
ATOM     17  N   UNL     1       6.565   5.176   4.390  1.00  0.00    -0.248 NA
ATOM     18  C   UNL     1       5.494   3.103   4.404  1.00  0.00     0.031 C 
ATOM     19  C   UNL     1       5.009   5.944   0.273  1.00  0.00     0.029 A 
ATOM     20  N   UNL     1       6.223   6.772   1.958  1.00  0.00    -0.354 N 
ATOM     21  C   UNL     1       6.776   4.561   5.620  1.00  0.00     0.074 A 
ATOM     22  C   UNL     1       6.061   3.303   5.586  1.00  0.00     0.031 C 
ATOM     23  C   UNL     1       5.497   7.127  -0.129  1.00  0.00     0.029 A 
ATOM     24  C   UNL     1       6.282   7.710   0.955  1.00  0.00     0.049 A 
ATOM     25  H   UNL     1       6.662   6.889   2.832  1.00  0.00     0.167 HD
ATOM     26  C   UNL     1       7.500   5.001   6.678  1.00  0.00     0.031 A 
ATOM     27  C   UNL     1       6.893   8.908   0.907  1.00  0.00     0.031 A 
ATOM     28  C   UNL     1       8.213   6.253   6.709  1.00  0.00     0.049 A 
ATOM     29  C   UNL     1       7.676   9.380   2.098  1.00  0.00     0.074 A 
ATOM     30  C   UNL     1       9.006   6.768   7.721  1.00  0.00     0.029 A 
ATOM     31  N   UNL     1       8.216   7.189   5.686  1.00  0.00    -0.354 N 
ATOM     32  N   UNL     1       7.893   8.765   3.236  1.00  0.00    -0.248 NA
ATOM     33  C   UNL     1       8.302  10.704   1.994  1.00  0.00     0.031 C 
ATOM     34  C   UNL     1       9.447   8.037   7.330  1.00  0.00     0.029 A 
ATOM     35  C   UNL     1       8.977   8.288   6.050  1.00  0.00     0.049 A 
ATOM     36  H   UNL     1       7.746   7.088   4.827  1.00  0.00     0.167 HD
ATOM     37  C   UNL     1       8.704   9.618   3.975  1.00  0.00     0.074 A 
ATOM     38  C   UNL     1       8.947  10.785   3.150  1.00  0.00     0.031 C 
ATOM     39  C   UNL     1       9.207   9.446   5.223  1.00  0.00     0.031 A 
BRANCH  26  40
ATOM     40  C   UNL     1       7.526   4.134   7.912  1.00  0.00    -0.014 A 
ATOM     41  C   UNL     1       8.225   2.914   7.937  1.00  0.00     0.010 A 
ATOM     42  C   UNL     1       6.857   4.561   9.074  1.00  0.00     0.010 A 
ATOM     43  C   UNL     1       8.209   2.112   9.082  1.00  0.00     0.020 A 
ATOM     44  C   UNL     1       6.861   3.775  10.230  1.00  0.00     0.020 A 
ATOM     45  C   UNL     1       7.518   2.543  10.219  1.00  0.00     0.054 A 
BRANCH  45  46
ATOM     46  S   UNL     1       7.504   1.478  11.688  1.00  0.00     0.124 S 
ATOM     47  O   UNL     1       6.573   0.427  11.285  1.00  0.00    -0.237 OA
ATOM     48  O   UNL     1       8.901   1.067  11.801  1.00  0.00    -0.237 OA
ATOM     49  O   UNL     1       7.029   2.360  12.751  1.00  0.00    -0.744 OA
ENDBRANCH  45  46
ENDBRANCH  26  40
BRANCH  27  50
ATOM     50  C   UNL     1       6.800   9.732  -0.328  1.00  0.00    -0.014 A 
ATOM     51  C   UNL     1       7.920   9.896  -1.161  1.00  0.00     0.010 A 
ATOM     52  C   UNL     1       5.577  10.320  -0.700  1.00  0.00     0.010 A 
ATOM     53  C   UNL     1       7.822  10.640  -2.340  1.00  0.00     0.020 A 
ATOM     54  C   UNL     1       5.468  11.041  -1.891  1.00  0.00     0.020 A 
ATOM     55  C   UNL     1       6.594  11.204  -2.700  1.00  0.00     0.054 A 
BRANCH  55  56
ATOM     56  S   UNL     1       6.472  12.103  -4.270  1.00  0.00     0.124 S 
ATOM     57  O   UNL     1       7.155  13.354  -3.957  1.00  0.00    -0.237 OA
ATOM     58  O   UNL     1       7.168  11.215  -5.198  1.00  0.00    -0.237 OA
ATOM     59  O   UNL     1       5.031  12.213  -4.489  1.00  0.00    -0.744 OA
ENDBRANCH  55  56
ENDBRANCH  27  50
BRANCH  39  60
ATOM     60  C   UNL     1      10.108  10.528   5.756  1.00  0.00    -0.014 A 
ATOM     61  C   UNL     1       9.598  11.777   6.152  1.00  0.00     0.010 A 
ATOM     62  C   UNL     1      11.485  10.274   5.890  1.00  0.00     0.010 A 
ATOM     63  C   UNL     1      10.457  12.768   6.635  1.00  0.00     0.020 A 
ATOM     64  C   UNL     1      12.343  11.253   6.398  1.00  0.00     0.020 A 
ATOM     65  C   UNL     1      11.825  12.500   6.751  1.00  0.00     0.054 A 
BRANCH  65  66
ATOM     66  S   UNL     1      12.918  13.791   7.407  1.00  0.00     0.124 S 
ATOM     67  O   UNL     1      13.033  14.698   6.268  1.00  0.00    -0.237 OA
ATOM     68  O   UNL     1      12.163  14.305   8.547  1.00  0.00    -0.237 OA
ATOM     69  O   UNL     1      14.140  13.067   7.752  1.00  0.00    -0.744 OA
ENDBRANCH  65  66
ENDBRANCH  39  60
ENDBRANCH  13  14
ENDBRANCH   6   8
ENDBRANCH   3   4
ENDBRANCH   2   3
ENDBRANCH   1   2
BRANCH   1  70
ATOM     70  C   UNL     1       4.580  -3.930  -2.020  1.00  0.00     0.002 C 
BRANCH  70  71
ATOM     71  C   UNL     1       6.059  -3.869  -2.421  1.00  0.00     0.021 C 
BRANCH  71  72
ATOM     72  C   UNL     1       6.987  -4.824  -1.681  1.00  0.00     0.116 C 
BRANCH  72  73
ATOM     73  N   UNL     1       6.681  -6.226  -1.861  1.00  0.00    -0.352 N 
ATOM     74  C   UNL     1       7.516  -7.301  -1.653  1.00  0.00     0.253 C 
ATOM     75  H   UNL     1       5.770  -6.436  -2.168  1.00  0.00     0.163 HD
ATOM     76  O   UNL     1       7.062  -8.441  -1.746  1.00  0.00    -0.269 OA
BRANCH  74  77
ATOM     77  C   UNL     1       8.977  -7.112  -1.441  1.00  0.00     0.065 A 
ATOM     78  C   UNL     1       9.765  -7.732  -2.428  1.00  0.00     0.042 A 
ATOM     79  C   UNL     1       9.573  -6.378  -0.398  1.00  0.00     0.050 A 
ATOM     80  C   UNL     1      11.139  -7.532  -2.501  1.00  0.00     0.042 A 
ATOM     81  C   UNL     1      10.974  -6.240  -0.454  1.00  0.00     0.029 A 
ATOM     82  C   UNL     1      11.744  -6.798  -1.485  1.00  0.00     0.028 A 
BRANCH  79  83
ATOM     83  N   UNL     1       8.906  -5.873   0.708  1.00  0.00    -0.370 N 
ATOM     84  C   UNL     1       9.079  -4.474   1.116  1.00  0.00     0.116 C 
ATOM     85  C   UNL     1       7.847  -6.668   1.334  1.00  0.00     0.126 C 
ATOM     86  C   UNL     1       9.051  -4.321   2.632  1.00  0.00     0.022 C 
ATOM     87  C   UNL     1       7.971  -6.604   2.864  1.00  0.00     0.064 C 
ATOM     88  C   UNL     1       7.916  -5.123   3.266  1.00  0.00     0.013 C 
BRANCH  87  89
ATOM     89  C   UNL     1       9.239  -7.384   3.310  1.00  0.00     0.267 C 
BRANCH  89  90
ATOM     90  N   UNL     1       9.445  -7.720   4.722  1.00  0.00    -0.335 N 
ATOM     91  C   UNL     1       8.380  -8.507   5.335  1.00  0.00     0.262 C 
ATOM     92  C   UNL     1       9.744  -6.605   5.618  1.00  0.00     0.262 C 
ATOM     93  H   UNL     1      10.285  -8.291   4.633  1.00  0.00     0.348 HD
ATOM     94  C   UNL     1       7.560  -7.517   6.136  1.00  0.00     0.067 C 
ATOM     95  C   UNL     1       8.576  -6.486   6.591  1.00  0.00     0.067 C 
ENDBRANCH  89  90
ENDBRANCH  87  89
ENDBRANCH  79  83
BRANCH  80  96
ATOM     96  N   UNL     1      11.963  -8.015  -3.537  1.00  0.00    -0.322 N 
ATOM     97  C   UNL     1      11.670  -8.495  -4.798  1.00  0.00     0.257 C 
ATOM     98  H   UNL     1      12.924  -8.011  -3.322  1.00  0.00     0.170 HD
ATOM     99  O   UNL     1      12.550  -9.001  -5.493  1.00  0.00    -0.269 OA
BRANCH  97 100
ATOM    100  C   UNL     1      10.307  -8.414  -5.348  1.00  0.00     0.058 A 
ATOM    101  C   UNL     1       9.632  -9.627  -5.551  1.00  0.00     0.015 A 
ATOM    102  C   UNL     1       9.659  -7.195  -5.582  1.00  0.00     0.053 A 
ATOM    103  C   UNL     1       8.282  -9.616  -5.901  1.00  0.00     0.001 A 
ATOM    104  C   UNL     1       8.303  -7.195  -5.922  1.00  0.00     0.021 A 
ATOM    105  Cl  UNL     1      10.454  -5.670  -5.432  1.00  0.00    -0.083 Cl
ATOM    106  C   UNL     1       7.614  -8.402  -6.064  1.00  0.00     0.002 A 
ENDBRANCH  97 100
ENDBRANCH  80  96
ENDBRANCH  74  77
ENDBRANCH  72  73
ENDBRANCH  71  72
ENDBRANCH  70  71
ENDBRANCH   1  70
TORSDOF 21
