REMARK SMILES CC1=C[C@@H]([C@@H]2N=N[C@H](S)N2/N=C/c2ccc(C(=O)NCCCCCCNC(=O)c3ccc(-c4c5nc(c(-c6ccc(S(=O)(=O)[O-])cc6)c6ccc([nH]6)c(-c6ccc(S(=O)(=O)[O-])cc6)c6nc(c(-c7ccc(S(=O)(=O)[O-])cc7)c7ccc4[nH]7)C=C6)C=C5)cc3)cc2)N=N1
REMARK SMILES IDX 22 1 21 2 20 3 19 4 17 5 18 6 16 8 13 9 14 10 90 11 15 12
REMARK SMILES IDX 89 13 12 14 11 15 10 16 5 17 6 18 7 19 8 20 4 21 1 22 2 23
REMARK SMILES IDX 3 24 92 25 91 26 9 27 23 29 24 30 25 31 26 32 27 33 28 35
REMARK SMILES IDX 29 36 30 37 88 38 31 39 87 40 32 41 33 42 34 43 81 44 35 45
REMARK SMILES IDX 86 46 80 47 82 48 36 49 85 50 79 51 78 52 37 54 67 55 48 56
REMARK SMILES IDX 66 57 49 58 52 59 65 60 83 61 50 62 51 63 64 65 84 66 53 67
REMARK SMILES IDX 38 68 39 69 47 70 40 71 46 72 41 73 42 74 43 75 44 76 45 77
REMARK SMILES IDX 68 78 69 79 77 80 70 81 76 82 71 83 72 84 73 85 74 86 75 87
REMARK SMILES IDX 54 88 55 89 63 90 56 91 62 92 57 93 58 94 59 95 60 96 61 97
REMARK H PARENT 19 7 9 28 26 34 82 53 52 64
REMARK Flexibility Score: inf
ROOT
ATOM      1  C   UNL     1      -7.313  10.626  -4.454  1.00  0.00     0.002 C 
ENDROOT
BRANCH   1   2
ATOM      2  C   UNL     1      -6.009   9.822  -4.357  1.00  0.00     0.021 C 
BRANCH   2   3
ATOM      3  C   UNL     1      -6.217   8.322  -4.580  1.00  0.00     0.116 C 
BRANCH   3   4
ATOM      4  N   UNL     1      -6.297   8.036  -5.998  1.00  0.00    -0.352 N 
ATOM      5  C   UNL     1      -5.421   7.472  -6.886  1.00  0.00     0.251 C 
ATOM      6  O   UNL     1      -5.801   7.346  -8.052  1.00  0.00    -0.269 OA
ATOM      7  H   UNL     1      -7.154   8.300  -6.405  1.00  0.00     0.163 HD
BRANCH   5   8
ATOM      8  C   UNL     1      -4.082   6.942  -6.500  1.00  0.00     0.039 A 
ATOM      9  C   UNL     1      -1.637   5.734  -5.863  1.00  0.00    -0.005 A 
ATOM     10  C   UNL     1      -2.304   5.361  -7.030  1.00  0.00     0.010 A 
ATOM     11  C   UNL     1      -2.149   6.735  -5.042  1.00  0.00     0.010 A 
ATOM     12  C   UNL     1      -3.532   5.951  -7.333  1.00  0.00     0.014 A 
ATOM     13  C   UNL     1      -3.340   7.372  -5.395  1.00  0.00     0.014 A 
BRANCH   9  14
ATOM     14  C   UNL     1      -0.339   5.123  -5.551  1.00  0.00     0.141 C 
ATOM     15  N   UNL     1       0.076   4.986  -4.331  1.00  0.00    -0.180 NA
BRANCH  15  16
ATOM     16  N   UNL     1       1.324   4.485  -4.140  1.00  0.00    -0.233 NA
ATOM     17  C   UNL     1       1.637   3.688  -2.949  1.00  0.00     0.274 C 
ATOM     18  N   UNL     1       2.714   2.729  -3.326  1.00  0.00    -0.161 NA
ATOM     19  N   UNL     1       3.108   2.943  -4.495  1.00  0.00    -0.153 NA
ATOM     20  C   UNL     1       2.267   3.974  -5.135  1.00  0.00     0.298 C 
BRANCH  17  21
ATOM     21  C   UNL     1       2.099   4.542  -1.727  1.00  0.00     0.201 C 
ATOM     22  C   UNL     1       5.658   5.517  -1.827  1.00  0.00     0.068 C 
ATOM     23  C   UNL     1       4.281   5.036  -1.551  1.00  0.00     0.058 C 
ATOM     24  C   UNL     1       3.157   5.537  -2.059  1.00  0.00     0.031 C 
ATOM     25  N   UNL     1       4.054   3.935  -0.762  1.00  0.00    -0.160 NA
ATOM     26  N   UNL     1       2.818   3.656  -0.755  1.00  0.00    -0.177 NA
ENDBRANCH  17  21
BRANCH  20  27
ATOM     27  S   UNL     1       3.181   5.340  -5.926  1.00  0.00    -0.128 SA
ATOM     28  H   UNL     1       3.876   6.028  -4.980  1.00  0.00     0.106 HD
ENDBRANCH  20  27
ENDBRANCH  15  16
ENDBRANCH   9  14
ENDBRANCH   5   8
ENDBRANCH   3   4
ENDBRANCH   2   3
ENDBRANCH   1   2
BRANCH   1  29
ATOM     29  C   UNL     1      -8.425  10.190  -3.485  1.00  0.00     0.002 C 
BRANCH  29  30
ATOM     30  C   UNL     1      -8.016  10.065  -2.009  1.00  0.00     0.021 C 
BRANCH  30  31
ATOM     31  C   UNL     1      -7.689  11.403  -1.365  1.00  0.00     0.116 C 
BRANCH  31  32
ATOM     32  N   UNL     1      -8.878  12.248  -1.245  1.00  0.00    -0.352 N 
ATOM     33  C   UNL     1      -8.972  13.526  -0.743  1.00  0.00     0.251 C 
ATOM     34  H   UNL     1      -9.720  11.851  -1.565  1.00  0.00     0.163 HD
ATOM     35  O   UNL     1     -10.057  13.960  -0.343  1.00  0.00    -0.269 OA
BRANCH  33  36
ATOM     36  C   UNL     1      -7.769  14.369  -0.701  1.00  0.00     0.039 A 
ATOM     37  C   UNL     1      -7.521  15.248   0.357  1.00  0.00     0.014 A 
ATOM     38  C   UNL     1      -6.868  14.258  -1.758  1.00  0.00     0.014 A 
ATOM     39  C   UNL     1      -6.324  15.960   0.370  1.00  0.00     0.010 A 
ATOM     40  C   UNL     1      -5.626  14.825  -1.661  1.00  0.00     0.010 A 
ATOM     41  C   UNL     1      -5.375  15.729  -0.639  1.00  0.00    -0.014 A 
BRANCH  41  42
ATOM     42  C   UNL     1      -4.047  16.324  -0.587  1.00  0.00     0.031 A 
ATOM     43  C   UNL     1      -3.288  15.982   0.641  1.00  0.00     0.074 A 
ATOM     44  C   UNL     1      -3.470  16.924  -1.652  1.00  0.00     0.049 A 
ATOM     45  N   UNL     1      -3.030  16.761   1.637  1.00  0.00    -0.248 NA
ATOM     46  C   UNL     1      -2.929  14.573   0.882  1.00  0.00     0.031 C 
ATOM     47  C   UNL     1      -3.991  17.048  -3.020  1.00  0.00     0.029 A 
ATOM     48  N   UNL     1      -2.222  17.450  -1.768  1.00  0.00    -0.354 N 
ATOM     49  C   UNL     1      -2.251  16.014   2.511  1.00  0.00     0.074 A 
ATOM     50  C   UNL     1      -2.414  14.638   2.112  1.00  0.00     0.031 C 
ATOM     51  C   UNL     1      -2.985  17.378  -3.862  1.00  0.00     0.029 A 
ATOM     52  C   UNL     1      -1.795  17.656  -3.078  1.00  0.00     0.049 A 
ATOM     53  H   UNL     1      -1.664  17.669  -0.988  1.00  0.00     0.167 HD
ATOM     54  C   UNL     1      -1.316  16.609   3.303  1.00  0.00     0.031 A 
ATOM     55  C   UNL     1      -0.544  18.001  -3.484  1.00  0.00     0.031 A 
ATOM     56  C   UNL     1      -1.462  18.044   3.297  1.00  0.00     0.049 A 
ATOM     57  C   UNL     1       0.133  18.602  -2.309  1.00  0.00     0.074 A 
ATOM     58  C   UNL     1      -2.475  18.922   3.631  1.00  0.00     0.029 A 
ATOM     59  N   UNL     1      -0.601  18.745   2.482  1.00  0.00    -0.354 N 
ATOM     60  N   UNL     1      -0.247  19.727  -1.769  1.00  0.00    -0.248 NA
ATOM     61  C   UNL     1       0.910  17.728  -1.445  1.00  0.00     0.031 C 
ATOM     62  C   UNL     1      -2.426  19.934   2.628  1.00  0.00     0.029 A 
ATOM     63  C   UNL     1      -1.335  19.676   1.795  1.00  0.00     0.049 A 
ATOM     64  H   UNL     1       0.370  18.602   2.407  1.00  0.00     0.167 HD
ATOM     65  C   UNL     1      -0.169  19.503  -0.402  1.00  0.00     0.074 A 
ATOM     66  C   UNL     1       0.645  18.294  -0.264  1.00  0.00     0.031 C 
ATOM     67  C   UNL     1      -1.007  20.146   0.465  1.00  0.00     0.031 A 
BRANCH  54  68
ATOM     68  C   UNL     1      -0.022  15.956   3.723  1.00  0.00    -0.014 A 
ATOM     69  C   UNL     1       0.843  16.670   4.578  1.00  0.00     0.010 A 
ATOM     70  C   UNL     1       0.501  14.804   3.100  1.00  0.00     0.010 A 
ATOM     71  C   UNL     1       2.182  16.293   4.739  1.00  0.00     0.020 A 
ATOM     72  C   UNL     1       1.822  14.394   3.289  1.00  0.00     0.020 A 
ATOM     73  C   UNL     1       2.664  15.161   4.083  1.00  0.00     0.054 A 
BRANCH  73  74
ATOM     74  S   UNL     1       4.415  14.733   4.230  1.00  0.00     0.124 S 
ATOM     75  O   UNL     1       5.056  15.857   3.557  1.00  0.00    -0.237 OA
ATOM     76  O   UNL     1       4.594  14.672   5.678  1.00  0.00    -0.237 OA
ATOM     77  O   UNL     1       4.511  13.449   3.540  1.00  0.00    -0.744 OA
ENDBRANCH  73  74
ENDBRANCH  54  68
BRANCH  55  78
ATOM     78  C   UNL     1       0.203  17.565  -4.695  1.00  0.00    -0.014 A 
ATOM     79  C   UNL     1       1.436  18.157  -5.038  1.00  0.00     0.010 A 
ATOM     80  C   UNL     1      -0.138  16.358  -5.338  1.00  0.00     0.010 A 
ATOM     81  C   UNL     1       2.330  17.521  -5.918  1.00  0.00     0.020 A 
ATOM     82  C   UNL     1       0.745  15.722  -6.222  1.00  0.00     0.020 A 
ATOM     83  C   UNL     1       1.990  16.290  -6.483  1.00  0.00     0.054 A 
BRANCH  83  84
ATOM     84  S   UNL     1       3.232  15.362  -7.436  1.00  0.00     0.124 S 
ATOM     85  O   UNL     1       3.319  16.134  -8.672  1.00  0.00    -0.237 OA
ATOM     86  O   UNL     1       4.406  15.418  -6.570  1.00  0.00    -0.237 OA
ATOM     87  O   UNL     1       2.635  14.034  -7.575  1.00  0.00    -0.744 OA
ENDBRANCH  83  84
ENDBRANCH  55  78
BRANCH  67  88
ATOM     88  C   UNL     1      -1.814  21.318  -0.048  1.00  0.00    -0.014 A 
ATOM     89  C   UNL     1      -2.766  21.239  -1.085  1.00  0.00     0.010 A 
ATOM     90  C   UNL     1      -1.695  22.528   0.657  1.00  0.00     0.010 A 
ATOM     91  C   UNL     1      -3.552  22.354  -1.423  1.00  0.00     0.020 A 
ATOM     92  C   UNL     1      -2.485  23.633   0.340  1.00  0.00     0.020 A 
ATOM     93  C   UNL     1      -3.401  23.546  -0.708  1.00  0.00     0.054 A 
BRANCH  93  94
ATOM     94  S   UNL     1      -4.427  24.983  -1.130  1.00  0.00     0.124 S 
ATOM     95  O   UNL     1      -3.924  25.357  -2.448  1.00  0.00    -0.237 OA
ATOM     96  O   UNL     1      -5.782  24.435  -1.105  1.00  0.00    -0.237 OA
ATOM     97  O   UNL     1      -4.138  25.942  -0.064  1.00  0.00    -0.744 OA
ENDBRANCH  93  94
ENDBRANCH  67  88
ENDBRANCH  41  42
ENDBRANCH  33  36
ENDBRANCH  31  32
ENDBRANCH  30  31
ENDBRANCH  29  30
ENDBRANCH   1  29
TORSDOF 20
