REMARK SMILES Cn1ccnc(N[C@H]2C=C[C@H](C(=O)NCCCCCCNC(=O)c3ccc(-c4c5nc(c(-c6ccc(S(=O)(=O)[O-])cc6)c6ccc([nH]6)c(-c6ccc(S(=O)(=O)[O-])cc6)c6nc(c(-c7ccc(S(=O)(=O)[O-])cc7)c7ccc4[nH]7)C=C6)C=C5)cc3)C2)c1=O
REMARK SMILES IDX 18 1 17 2 16 3 15 4 14 5 12 6 13 7 11 9 8 10 9 11 84 12
REMARK SMILES IDX 10 13 7 14 6 16 1 17 2 18 3 19 85 20 4 21 86 22 5 23 19 24
REMARK SMILES IDX 20 25 21 26 22 27 23 29 24 30 25 31 83 32 26 33 82 34 27 35
REMARK SMILES IDX 28 36 29 37 76 38 30 39 81 40 75 41 77 42 31 43 80 44 74 45
REMARK SMILES IDX 73 46 32 48 62 49 43 50 61 51 44 52 47 53 60 54 78 55 45 56
REMARK SMILES IDX 46 57 59 59 79 60 48 61 33 62 34 63 42 64 35 65 41 66 36 67
REMARK SMILES IDX 37 68 38 69 39 70 40 71 63 72 64 73 72 74 65 75 71 76 66 77
REMARK SMILES IDX 67 78 68 79 69 80 70 81 49 82 50 83 58 84 51 85 57 86 52 87
REMARK SMILES IDX 53 88 54 89 55 90 56 91
REMARK H PARENT 14 8 7 15 21 28 77 47 47 58
REMARK Flexibility Score: inf
ROOT
ATOM      1  C   UNL     1      -8.104  -5.315   0.026  1.00  0.00     0.002 C 
ENDROOT
BRANCH   1   2
ATOM      2  C   UNL     1      -7.756  -4.533  -1.244  1.00  0.00     0.002 C 
BRANCH   2   3
ATOM      3  C   UNL     1      -6.824  -3.336  -1.035  1.00  0.00     0.021 C 
BRANCH   3   4
ATOM      4  C   UNL     1      -5.513  -3.672  -0.334  1.00  0.00     0.116 C 
BRANCH   4   5
ATOM      5  N   UNL     1      -4.728  -4.644  -1.078  1.00  0.00    -0.356 N 
ATOM      6  C   UNL     1      -3.376  -4.660  -1.289  1.00  0.00     0.227 C 
ATOM      7  O   UNL     1      -2.882  -5.616  -1.887  1.00  0.00    -0.274 OA
ATOM      8  H   UNL     1      -5.235  -5.385  -1.483  1.00  0.00     0.163 HD
BRANCH   6   9
ATOM      9  C   UNL     1      -2.561  -3.483  -0.766  1.00  0.00     0.103 C 
ATOM     10  C   UNL     1      -0.209  -3.569  -0.075  1.00  0.00     0.104 C 
ATOM     11  C   UNL     1      -1.115  -3.624   1.098  1.00  0.00    -0.006 C 
ATOM     12  C   UNL     1      -1.117  -3.430  -1.297  1.00  0.00     0.046 C 
ATOM     13  C   UNL     1      -2.397  -3.603   0.726  1.00  0.00    -0.016 C 
BRANCH  10  14
ATOM     14  N   UNL     1       0.773  -2.529   0.061  1.00  0.00    -0.359 N 
ATOM     15  H   UNL     1       1.690  -2.870   0.171  1.00  0.00     0.162 HD
BRANCH  14  16
ATOM     16  C   UNL     1       0.699  -1.153   0.069  1.00  0.00     0.193 A 
ATOM     17  C   UNL     1      -1.637   1.898   0.027  1.00  0.00     0.153 C 
ATOM     18  N   UNL     1      -0.455   1.061   0.040  1.00  0.00    -0.314 N 
ATOM     19  C   UNL     1       0.803   1.605   0.026  1.00  0.00     0.109 A 
ATOM     20  C   UNL     1      -0.628  -0.320   0.071  1.00  0.00     0.293 A 
ATOM     21  C   UNL     1       1.884   0.819   0.044  1.00  0.00     0.131 A 
ATOM     22  O   UNL     1      -1.733  -0.844   0.086  1.00  0.00    -0.265 OA
ATOM     23  N   UNL     1       1.867  -0.548   0.066  1.00  0.00    -0.233 NA
ENDBRANCH  14  16
ENDBRANCH  10  14
ENDBRANCH   6   9
ENDBRANCH   4   5
ENDBRANCH   3   4
ENDBRANCH   2   3
ENDBRANCH   1   2
BRANCH   1  24
ATOM     24  C   UNL     1      -8.733  -4.485   1.146  1.00  0.00     0.021 C 
BRANCH  24  25
ATOM     25  C   UNL     1      -9.983  -3.711   0.741  1.00  0.00     0.116 C 
BRANCH  25  26
ATOM     26  N   UNL     1     -11.048  -4.587   0.280  1.00  0.00    -0.352 N 
ATOM     27  C   UNL     1     -12.360  -4.642   0.680  1.00  0.00     0.251 C 
ATOM     28  H   UNL     1     -10.792  -5.232  -0.418  1.00  0.00     0.163 HD
ATOM     29  O   UNL     1     -13.076  -5.569   0.315  1.00  0.00    -0.269 OA
BRANCH  27  30
ATOM     30  C   UNL     1     -12.898  -3.593   1.573  1.00  0.00     0.039 A 
ATOM     31  C   UNL     1     -13.679  -3.971   2.666  1.00  0.00     0.014 A 
ATOM     32  C   UNL     1     -12.626  -2.242   1.335  1.00  0.00     0.014 A 
ATOM     33  C   UNL     1     -14.138  -2.998   3.556  1.00  0.00     0.010 A 
ATOM     34  C   UNL     1     -13.018  -1.283   2.265  1.00  0.00     0.010 A 
ATOM     35  C   UNL     1     -13.781  -1.649   3.383  1.00  0.00    -0.014 A 
BRANCH  35  36
ATOM     36  C   UNL     1     -14.194  -0.613   4.364  1.00  0.00     0.031 A 
ATOM     37  C   UNL     1     -15.097   0.515   3.941  1.00  0.00     0.074 A 
ATOM     38  C   UNL     1     -13.710  -0.656   5.622  1.00  0.00     0.049 A 
ATOM     39  N   UNL     1     -15.523   1.535   4.641  1.00  0.00    -0.248 NA
ATOM     40  C   UNL     1     -15.563   0.511   2.544  1.00  0.00     0.031 C 
ATOM     41  C   UNL     1     -12.797  -1.676   6.145  1.00  0.00     0.029 A 
ATOM     42  N   UNL     1     -13.915   0.182   6.691  1.00  0.00    -0.354 N 
ATOM     43  C   UNL     1     -16.293   2.298   3.770  1.00  0.00     0.074 A 
ATOM     44  C   UNL     1     -16.233   1.652   2.477  1.00  0.00     0.031 C 
ATOM     45  C   UNL     1     -12.545  -1.420   7.438  1.00  0.00     0.029 A 
ATOM     46  C   UNL     1     -13.237  -0.195   7.827  1.00  0.00     0.049 A 
ATOM     47  H   UNL     1     -14.492   0.978   6.648  1.00  0.00     0.167 HD
ATOM     48  C   UNL     1     -17.003   3.423   4.027  1.00  0.00     0.031 A 
ATOM     49  C   UNL     1     -13.170   0.383   9.042  1.00  0.00     0.031 A 
ATOM     50  C   UNL     1     -17.065   4.058   5.317  1.00  0.00     0.049 A 
ATOM     51  C   UNL     1     -13.949   1.645   9.296  1.00  0.00     0.074 A 
ATOM     52  C   UNL     1     -17.799   5.170   5.691  1.00  0.00     0.029 A 
ATOM     53  N   UNL     1     -16.366   3.644   6.441  1.00  0.00    -0.354 N 
ATOM     54  N   UNL     1     -14.727   2.312   8.476  1.00  0.00    -0.248 NA
ATOM     55  C   UNL     1     -13.851   2.227  10.641  1.00  0.00     0.031 C 
ATOM     56  C   UNL     1     -17.494   5.466   7.023  1.00  0.00     0.029 A 
ATOM     57  C   UNL     1     -16.628   4.496   7.500  1.00  0.00     0.049 A 
ATOM     58  H   UNL     1     -15.772   2.860   6.479  1.00  0.00     0.167 HD
ATOM     59  C   UNL     1     -15.235   3.374   9.217  1.00  0.00     0.074 A 
ATOM     60  C   UNL     1     -14.690   3.250  10.553  1.00  0.00     0.031 C 
ATOM     61  C   UNL     1     -16.079   4.361   8.827  1.00  0.00     0.031 A 
BRANCH  48  62
ATOM     62  C   UNL     1     -17.765   4.048   2.886  1.00  0.00    -0.014 A 
ATOM     63  C   UNL     1     -18.891   3.416   2.329  1.00  0.00     0.010 A 
ATOM     64  C   UNL     1     -17.383   5.312   2.402  1.00  0.00     0.010 A 
ATOM     65  C   UNL     1     -19.598   4.019   1.285  1.00  0.00     0.020 A 
ATOM     66  C   UNL     1     -18.106   5.934   1.380  1.00  0.00     0.020 A 
ATOM     67  C   UNL     1     -19.201   5.275   0.818  1.00  0.00     0.054 A 
BRANCH  67  68
ATOM     68  S   UNL     1     -20.160   6.048  -0.514  1.00  0.00     0.124 S 
ATOM     69  O   UNL     1     -19.810   5.213  -1.661  1.00  0.00    -0.237 OA
ATOM     70  O   UNL     1     -21.534   5.916  -0.036  1.00  0.00    -0.237 OA
ATOM     71  O   UNL     1     -19.648   7.416  -0.562  1.00  0.00    -0.744 OA
ENDBRANCH  67  68
ENDBRANCH  48  62
BRANCH  49  72
ATOM     72  C   UNL     1     -12.336  -0.228  10.115  1.00  0.00    -0.014 A 
ATOM     73  C   UNL     1     -12.934  -0.799  11.252  1.00  0.00     0.010 A 
ATOM     74  C   UNL     1     -10.933  -0.242  10.003  1.00  0.00     0.010 A 
ATOM     75  C   UNL     1     -12.146  -1.348  12.268  1.00  0.00     0.020 A 
ATOM     76  C   UNL     1     -10.143  -0.820  11.001  1.00  0.00     0.020 A 
ATOM     77  C   UNL     1     -10.755  -1.357  12.135  1.00  0.00     0.054 A 
BRANCH  77  78
ATOM     78  S   UNL     1      -9.755  -2.110  13.448  1.00  0.00     0.124 S 
ATOM     79  O   UNL     1      -9.889  -1.138  14.528  1.00  0.00    -0.237 OA
ATOM     80  O   UNL     1     -10.427  -3.390  13.659  1.00  0.00    -0.237 OA
ATOM     81  O   UNL     1      -8.424  -2.205  12.852  1.00  0.00    -0.744 OA
ENDBRANCH  77  78
ENDBRANCH  49  72
BRANCH  61  82
ATOM     82  C   UNL     1     -16.501   5.368   9.866  1.00  0.00    -0.014 A 
ATOM     83  C   UNL     1     -15.601   6.323  10.370  1.00  0.00     0.010 A 
ATOM     84  C   UNL     1     -17.840   5.391  10.300  1.00  0.00     0.010 A 
ATOM     85  C   UNL     1     -16.024   7.261  11.316  1.00  0.00     0.020 A 
ATOM     86  C   UNL     1     -18.274   6.348  11.220  1.00  0.00     0.020 A 
ATOM     87  C   UNL     1     -17.359   7.269  11.733  1.00  0.00     0.054 A 
BRANCH  87  88
ATOM     88  S   UNL     1     -17.892   8.526  12.927  1.00  0.00     0.124 S 
ATOM     89  O   UNL     1     -17.256   8.066  14.158  1.00  0.00    -0.237 OA
ATOM     90  O   UNL     1     -17.347   9.757  12.359  1.00  0.00    -0.237 OA
ATOM     91  O   UNL     1     -19.350   8.430  12.905  1.00  0.00    -0.744 OA
ENDBRANCH  87  88
ENDBRANCH  61  82
ENDBRANCH  35  36
ENDBRANCH  27  30
ENDBRANCH  25  26
ENDBRANCH  24  25
ENDBRANCH   1  24
TORSDOF 18
