REMARK SMILES Cc1ccccc1CNc1ccc(C(=O)NCCCCCCNC(=O)c2ccc(-c3c4nc(c(-c5ccc(S(=O)(=O)[O-])cc5)c5ccc([nH]5)c(-c5ccc(S(=O)(=O)[O-])cc5)c5nc(c(-c6ccc(S(=O)(=O)[O-])cc6)c6ccc3[nH]6)C=C5)C=C4)cc2)c(F)c1F
REMARK SMILES IDX 19 1 18 2 17 3 16 4 14 5 15 6 13 8 10 9 11 10 88 11 12 12
REMARK SMILES IDX 86 13 89 14 87 15 9 16 8 18 7 19 1 20 2 21 3 22 4 23 6 24
REMARK SMILES IDX 5 25 20 26 21 27 22 28 23 29 24 30 25 32 26 33 27 34 85 35
REMARK SMILES IDX 28 36 84 37 29 38 30 39 31 40 78 41 32 42 83 43 77 44 79 45
REMARK SMILES IDX 33 46 82 47 76 48 75 49 34 51 64 52 45 53 63 54 46 55 49 56
REMARK SMILES IDX 62 57 80 58 47 59 48 60 61 62 81 63 50 64 35 65 36 66 44 67
REMARK SMILES IDX 37 68 43 69 38 70 39 71 40 72 41 73 42 74 65 75 66 76 74 77
REMARK SMILES IDX 67 78 73 79 68 80 69 81 70 82 71 83 72 84 51 85 52 86 60 87
REMARK SMILES IDX 53 88 59 89 54 90 55 91 56 92 57 93 58 94
REMARK H PARENT 16 7 9 17 23 31 79 50 49 61
REMARK Flexibility Score: inf
ROOT
ATOM      1  C   UNL     1       0.131  11.940   1.334  1.00  0.00     0.002 C 
ENDROOT
BRANCH   1   2
ATOM      2  C   UNL     1       0.804  10.726   0.689  1.00  0.00     0.021 C 
BRANCH   2   3
ATOM      3  C   UNL     1       0.079   9.386   0.746  1.00  0.00     0.116 C 
BRANCH   3   4
ATOM      4  N   UNL     1      -1.201   9.340   0.063  1.00  0.00    -0.352 N 
ATOM      5  C   UNL     1      -1.836   8.293  -0.571  1.00  0.00     0.254 C 
ATOM      6  O   UNL     1      -2.970   8.472  -1.012  1.00  0.00    -0.269 OA
ATOM      7  H   UNL     1      -1.694  10.192   0.051  1.00  0.00     0.163 HD
BRANCH   5   8
ATOM      8  C   UNL     1      -1.199   6.960  -0.728  1.00  0.00     0.078 A 
ATOM      9  C   UNL     1      -0.037   4.383  -1.066  1.00  0.00     0.074 A 
ATOM     10  C   UNL     1       0.201   5.140   0.082  1.00  0.00     0.030 A 
ATOM     11  C   UNL     1      -0.875   4.951  -2.041  1.00  0.00     0.182 A 
ATOM     12  C   UNL     1      -0.407   6.387   0.270  1.00  0.00     0.019 A 
ATOM     13  C   UNL     1      -1.444   6.216  -1.883  1.00  0.00     0.173 A 
ATOM     14  F   UNL     1      -1.154   4.242  -3.150  1.00  0.00    -0.201 F 
ATOM     15  F   UNL     1      -2.227   6.689  -2.865  1.00  0.00    -0.203 F 
BRANCH   9  16
ATOM     16  N   UNL     1       0.469   3.110  -1.248  1.00  0.00    -0.379 N 
ATOM     17  H   UNL     1       0.427   2.735  -2.158  1.00  0.00     0.161 HD
BRANCH  16  18
ATOM     18  C   UNL     1       1.057   2.277  -0.214  1.00  0.00     0.149 C 
BRANCH  18  19
ATOM     19  C   UNL     1       0.356   0.933  -0.159  1.00  0.00    -0.026 A 
ATOM     20  C   UNL     1       2.538  -0.433  -0.070  1.00  0.00     0.044 C 
ATOM     21  C   UNL     1       1.039  -0.297  -0.069  1.00  0.00    -0.046 A 
ATOM     22  C   UNL     1       0.291  -1.488  -0.000  1.00  0.00     0.004 A 
ATOM     23  C   UNL     1      -1.104  -1.471   0.019  1.00  0.00     0.000 A 
ATOM     24  C   UNL     1      -1.056   0.927  -0.112  1.00  0.00     0.006 A 
ATOM     25  C   UNL     1      -1.779  -0.260  -0.030  1.00  0.00     0.000 A 
ENDBRANCH  18  19
ENDBRANCH  16  18
ENDBRANCH   9  16
ENDBRANCH   5   8
ENDBRANCH   3   4
ENDBRANCH   2   3
ENDBRANCH   1   2
BRANCH   1  26
ATOM     26  C   UNL     1      -0.399  11.824   2.772  1.00  0.00     0.002 C 
BRANCH  26  27
ATOM     27  C   UNL     1       0.477  11.132   3.817  1.00  0.00     0.021 C 
BRANCH  27  28
ATOM     28  C   UNL     1       1.851  11.738   4.031  1.00  0.00     0.116 C 
BRANCH  28  29
ATOM     29  N   UNL     1       1.941  12.738   5.083  1.00  0.00    -0.352 N 
ATOM     30  C   UNL     1       3.139  12.859   5.789  1.00  0.00     0.251 C 
ATOM     31  H   UNL     1       1.174  13.319   5.292  1.00  0.00     0.163 HD
ATOM     32  O   UNL     1       3.337  12.446   6.916  1.00  0.00    -0.269 OA
BRANCH  30  33
ATOM     33  C   UNL     1       4.257  13.354   4.954  1.00  0.00     0.039 A 
ATOM     34  C   UNL     1       4.584  14.709   4.918  1.00  0.00     0.014 A 
ATOM     35  C   UNL     1       4.782  12.454   4.026  1.00  0.00     0.014 A 
ATOM     36  C   UNL     1       5.336  15.191   3.845  1.00  0.00     0.010 A 
ATOM     37  C   UNL     1       5.427  12.946   2.917  1.00  0.00     0.010 A 
ATOM     38  C   UNL     1       5.678  14.317   2.811  1.00  0.00    -0.014 A 
BRANCH  38  39
ATOM     39  C   UNL     1       6.277  14.717   1.547  1.00  0.00     0.031 A 
ATOM     40  C   UNL     1       7.722  14.487   1.325  1.00  0.00     0.074 A 
ATOM     41  C   UNL     1       5.482  15.134   0.537  1.00  0.00     0.049 A 
ATOM     42  N   UNL     1       8.423  15.085   0.423  1.00  0.00    -0.248 NA
ATOM     43  C   UNL     1       8.510  13.570   2.146  1.00  0.00     0.031 C 
ATOM     44  C   UNL     1       5.839  15.248  -0.875  1.00  0.00     0.029 A 
ATOM     45  N   UNL     1       4.231  15.748   0.615  1.00  0.00    -0.354 N 
ATOM     46  C   UNL     1       9.636  14.437   0.344  1.00  0.00     0.074 A 
ATOM     47  C   UNL     1       9.672  13.555   1.486  1.00  0.00     0.031 C 
ATOM     48  C   UNL     1       5.018  16.140  -1.452  1.00  0.00     0.029 A 
ATOM     49  C   UNL     1       4.221  16.731  -0.388  1.00  0.00     0.049 A 
ATOM     50  H   UNL     1       3.505  15.536   1.245  1.00  0.00     0.167 HD
ATOM     51  C   UNL     1      10.419  14.610  -0.757  1.00  0.00     0.031 A 
ATOM     52  C   UNL     1       4.122  18.070  -0.135  1.00  0.00     0.031 A 
ATOM     53  C   UNL     1       9.833  15.579  -1.678  1.00  0.00     0.049 A 
ATOM     54  C   UNL     1       5.302  18.855  -0.674  1.00  0.00     0.074 A 
ATOM     55  C   UNL     1       9.082  15.445  -2.833  1.00  0.00     0.029 A 
ATOM     56  N   UNL     1       9.720  16.903  -1.281  1.00  0.00    -0.354 N 
ATOM     57  N   UNL     1       6.442  18.318  -1.011  1.00  0.00    -0.248 NA
ATOM     58  C   UNL     1       5.301  20.303  -0.852  1.00  0.00     0.031 C 
ATOM     59  C   UNL     1       8.446  16.689  -3.085  1.00  0.00     0.029 A 
ATOM     60  C   UNL     1       8.841  17.580  -2.103  1.00  0.00     0.049 A 
ATOM     61  H   UNL     1      10.199  17.304  -0.520  1.00  0.00     0.167 HD
ATOM     62  C   UNL     1       7.304  19.289  -1.453  1.00  0.00     0.074 A 
ATOM     63  C   UNL     1       6.539  20.517  -1.336  1.00  0.00     0.031 C 
ATOM     64  C   UNL     1       8.570  18.994  -1.875  1.00  0.00     0.031 A 
BRANCH  51  65
ATOM     65  C   UNL     1      11.572  13.705  -1.125  1.00  0.00    -0.014 A 
ATOM     66  C   UNL     1      11.896  13.520  -2.486  1.00  0.00     0.010 A 
ATOM     67  C   UNL     1      12.347  12.985  -0.197  1.00  0.00     0.010 A 
ATOM     68  C   UNL     1      12.874  12.604  -2.903  1.00  0.00     0.020 A 
ATOM     69  C   UNL     1      13.306  12.041  -0.600  1.00  0.00     0.020 A 
ATOM     70  C   UNL     1      13.557  11.849  -1.955  1.00  0.00     0.054 A 
BRANCH  70  71
ATOM     71  S   UNL     1      14.769  10.624  -2.516  1.00  0.00     0.124 S 
ATOM     72  O   UNL     1      13.970   9.770  -3.392  1.00  0.00    -0.237 OA
ATOM     73  O   UNL     1      15.768  11.453  -3.184  1.00  0.00    -0.237 OA
ATOM     74  O   UNL     1      15.217   9.987  -1.279  1.00  0.00    -0.744 OA
ENDBRANCH  70  71
ENDBRANCH  51  65
BRANCH  52  75
ATOM     75  C   UNL     1       3.361  18.400   1.106  1.00  0.00    -0.014 A 
ATOM     76  C   UNL     1       1.973  18.142   1.098  1.00  0.00     0.010 A 
ATOM     77  C   UNL     1       4.027  18.490   2.341  1.00  0.00     0.010 A 
ATOM     78  C   UNL     1       1.311  17.777   2.275  1.00  0.00     0.020 A 
ATOM     79  C   UNL     1       3.360  18.135   3.524  1.00  0.00     0.020 A 
ATOM     80  C   UNL     1       2.033  17.699   3.465  1.00  0.00     0.054 A 
BRANCH  80  81
ATOM     81  S   UNL     1       1.275  16.832   4.875  1.00  0.00     0.124 S 
ATOM     82  O   UNL     1       0.001  17.526   5.026  1.00  0.00    -0.237 OA
ATOM     83  O   UNL     1       1.194  15.454   4.383  1.00  0.00    -0.237 OA
ATOM     84  O   UNL     1       2.237  17.038   5.953  1.00  0.00    -0.744 OA
ENDBRANCH  80  81
ENDBRANCH  52  75
BRANCH  64  85
ATOM     85  C   UNL     1       9.681  19.975  -2.186  1.00  0.00    -0.014 A 
ATOM     86  C   UNL     1       9.705  21.313  -1.768  1.00  0.00     0.010 A 
ATOM     87  C   UNL     1      10.848  19.495  -2.837  1.00  0.00     0.010 A 
ATOM     88  C   UNL     1      10.809  22.140  -2.028  1.00  0.00     0.020 A 
ATOM     89  C   UNL     1      11.972  20.294  -3.057  1.00  0.00     0.020 A 
ATOM     90  C   UNL     1      11.936  21.625  -2.670  1.00  0.00     0.054 A 
BRANCH  90  91
ATOM     91  S   UNL     1      13.382  22.682  -2.931  1.00  0.00     0.124 S 
ATOM     92  O   UNL     1      13.041  23.352  -4.183  1.00  0.00    -0.237 OA
ATOM     93  O   UNL     1      13.380  23.535  -1.744  1.00  0.00    -0.237 OA
ATOM     94  O   UNL     1      14.491  21.736  -3.006  1.00  0.00    -0.744 OA
ENDBRANCH  90  91
ENDBRANCH  64  85
ENDBRANCH  38  39
ENDBRANCH  30  33
ENDBRANCH  28  29
ENDBRANCH  27  28
ENDBRANCH  26  27
ENDBRANCH   1  26
TORSDOF 19
