REMARK SMILES CCC(CC)N(CC(C)C)C(=O)N[C@H](C)C(=O)NCCCCCCNC(=O)c1ccc(-c2c3nc(c(-c4ccc(S(=O)(=O)[O-])cc4)c4ccc([nH]4)c(-c4ccc(S(=O)(=O)[O-])cc4)c4nc(c(-c5ccc(S(=O)(=O)[O-])cc5)c5ccc2[nH]5)C=C4)C=C3)cc1
REMARK SMILES IDX 21 1 20 2 19 3 18 4 16 5 17 6 14 8 15 9 13 10 11 11 12 12
REMARK SMILES IDX 6 14 3 15 2 16 1 17 4 18 5 19 7 20 8 21 9 22 10 23 22 24
REMARK SMILES IDX 23 25 24 26 25 27 26 28 27 30 28 31 29 32 87 33 30 34 86 35
REMARK SMILES IDX 31 36 32 37 33 38 80 39 34 40 85 41 79 42 81 43 35 44 84 45
REMARK SMILES IDX 78 46 77 47 36 49 66 50 47 51 65 52 48 53 51 54 64 55 82 56
REMARK SMILES IDX 49 57 50 58 63 60 83 61 52 62 37 63 38 64 46 65 39 66 45 67
REMARK SMILES IDX 40 68 41 69 42 70 43 71 44 72 67 73 68 74 76 75 69 76 75 77
REMARK SMILES IDX 70 78 71 79 72 80 73 81 74 82 53 83 54 84 62 85 55 86 61 87
REMARK SMILES IDX 56 88 57 89 58 90 59 91 60 92
REMARK H PARENT 18 7 13 13 25 29 81 48 51 59
REMARK Flexibility Score: inf
ROOT
ATOM      1  C   UNL     1      -4.707   5.888   6.164  1.00  0.00     0.002 C 
ENDROOT
BRANCH   1   2
ATOM      2  C   UNL     1      -4.091   5.676   4.786  1.00  0.00     0.021 C 
BRANCH   2   3
ATOM      3  C   UNL     1      -3.097   6.745   4.364  1.00  0.00     0.116 C 
BRANCH   3   4
ATOM      4  N   UNL     1      -1.927   6.834   5.197  1.00  0.00    -0.354 N 
ATOM      5  C   UNL     1      -0.619   6.741   4.826  1.00  0.00     0.242 C 
ATOM      6  O   UNL     1       0.238   6.921   5.698  1.00  0.00    -0.273 OA
ATOM      7  H   UNL     1      -2.092   6.981   6.157  1.00  0.00     0.163 HD
BRANCH   5   8
ATOM      8  C   UNL     1      -0.214   6.230   3.421  1.00  0.00     0.170 C 
ATOM      9  C   UNL     1      -0.320   4.717   3.454  1.00  0.00     0.041 C 
BRANCH   8  10
ATOM     10  N   UNL     1      -0.689   7.056   2.282  1.00  0.00    -0.326 N 
ATOM     11  C   UNL     1      -1.679   7.303   1.411  1.00  0.00     0.318 C 
ATOM     12  O   UNL     1      -1.706   8.489   1.065  1.00  0.00    -0.249 OA
ATOM     13  H   UNL     1       0.031   7.696   2.079  1.00  0.00     0.166 HD
BRANCH  11  14
ATOM     14  N   UNL     1      -2.596   6.400   0.954  1.00  0.00    -0.322 N 
BRANCH  14  15
ATOM     15  C   UNL     1      -3.844   6.899   0.278  1.00  0.00     0.086 C 
BRANCH  15  16
ATOM     16  C   UNL     1      -4.620   7.933   1.134  1.00  0.00     0.022 C 
ATOM     17  C   UNL     1      -6.043   8.195   0.653  1.00  0.00     0.006 C 
ENDBRANCH  15  16
BRANCH  15  18
ATOM     18  C   UNL     1      -3.674   7.269  -1.211  1.00  0.00     0.022 C 
ATOM     19  C   UNL     1      -2.995   8.590  -1.532  1.00  0.00     0.006 C 
ENDBRANCH  15  18
ENDBRANCH  14  15
BRANCH  14  20
ATOM     20  C   UNL     1      -2.468   4.947   1.039  1.00  0.00     0.124 C 
BRANCH  20  21
ATOM     21  C   UNL     1      -1.550   4.253   0.011  1.00  0.00     0.002 C 
ATOM     22  C   UNL     1      -0.172   4.881  -0.208  1.00  0.00     0.009 C 
ATOM     23  C   UNL     1      -1.405   2.773   0.407  1.00  0.00     0.009 C 
ENDBRANCH  20  21
ENDBRANCH  14  20
ENDBRANCH  11  14
ENDBRANCH   8  10
ENDBRANCH   5   8
ENDBRANCH   3   4
ENDBRANCH   2   3
ENDBRANCH   1   2
BRANCH   1  24
ATOM     24  C   UNL     1      -5.245   7.298   6.418  1.00  0.00     0.002 C 
BRANCH  24  25
ATOM     25  C   UNL     1      -6.255   7.810   5.386  1.00  0.00     0.021 C 
BRANCH  25  26
ATOM     26  C   UNL     1      -7.463   6.906   5.177  1.00  0.00     0.116 C 
BRANCH  26  27
ATOM     27  N   UNL     1      -8.183   6.684   6.419  1.00  0.00    -0.352 N 
ATOM     28  C   UNL     1      -9.475   7.014   6.741  1.00  0.00     0.251 C 
ATOM     29  H   UNL     1      -7.673   6.232   7.130  1.00  0.00     0.163 HD
ATOM     30  O   UNL     1      -9.844   6.996   7.909  1.00  0.00    -0.269 OA
BRANCH  28  31
ATOM     31  C   UNL     1     -10.412   7.396   5.665  1.00  0.00     0.039 A 
ATOM     32  C   UNL     1     -11.235   8.510   5.844  1.00  0.00     0.014 A 
ATOM     33  C   UNL     1     -10.477   6.649   4.486  1.00  0.00     0.014 A 
ATOM     34  C   UNL     1     -12.088   8.906   4.812  1.00  0.00     0.010 A 
ATOM     35  C   UNL     1     -11.272   7.088   3.433  1.00  0.00     0.010 A 
ATOM     36  C   UNL     1     -12.090   8.217   3.588  1.00  0.00    -0.014 A 
BRANCH  36  37
ATOM     37  C   UNL     1     -12.937   8.662   2.454  1.00  0.00     0.031 A 
ATOM     38  C   UNL     1     -14.033   7.772   1.937  1.00  0.00     0.074 A 
ATOM     39  C   UNL     1     -12.675   9.839   1.852  1.00  0.00     0.049 A 
ATOM     40  N   UNL     1     -14.832   7.957   0.918  1.00  0.00    -0.248 NA
ATOM     41  C   UNL     1     -14.244   6.495   2.640  1.00  0.00     0.031 C 
ATOM     42  C   UNL     1     -11.616  10.773   2.242  1.00  0.00     0.029 A 
ATOM     43  N   UNL     1     -13.274  10.448   0.778  1.00  0.00    -0.354 N 
ATOM     44  C   UNL     1     -15.628   6.820   0.849  1.00  0.00     0.074 A 
ATOM     45  C   UNL     1     -15.182   5.927   1.896  1.00  0.00     0.031 C 
ATOM     46  C   UNL     1     -11.658  11.847   1.438  1.00  0.00     0.029 A 
ATOM     47  C   UNL     1     -12.713  11.659   0.447  1.00  0.00     0.049 A 
ATOM     48  H   UNL     1     -14.034  10.055   0.291  1.00  0.00     0.167 HD
ATOM     49  C   UNL     1     -16.651   6.551   0.003  1.00  0.00     0.031 A 
ATOM     50  C   UNL     1     -13.006  12.517  -0.550  1.00  0.00     0.031 A 
ATOM     51  C   UNL     1     -17.092   7.446  -1.034  1.00  0.00     0.049 A 
ATOM     52  C   UNL     1     -14.127  12.182  -1.496  1.00  0.00     0.074 A 
ATOM     53  C   UNL     1     -18.152   7.290  -1.910  1.00  0.00     0.029 A 
ATOM     54  N   UNL     1     -16.497   8.661  -1.338  1.00  0.00    -0.354 N 
ATOM     55  N   UNL     1     -14.912  11.131  -1.503  1.00  0.00    -0.248 NA
ATOM     56  C   UNL     1     -14.406  13.152  -2.563  1.00  0.00     0.031 C 
ATOM     57  C   UNL     1     -18.159   8.382  -2.784  1.00  0.00     0.029 A 
ATOM     58  C   UNL     1     -17.146   9.251  -2.409  1.00  0.00     0.049 A 
ATOM     59  H   UNL     1     -15.726   9.048  -0.863  1.00  0.00     0.167 HD
ATOM     60  C   UNL     1     -15.796  11.326  -2.558  1.00  0.00     0.074 A 
ATOM     61  C   UNL     1     -15.459  12.603  -3.154  1.00  0.00     0.031 C 
ATOM     62  C   UNL     1     -16.797  10.522  -2.993  1.00  0.00     0.031 A 
BRANCH  49  63
ATOM     63  C   UNL     1     -17.357   5.229   0.158  1.00  0.00    -0.014 A 
ATOM     64  C   UNL     1     -18.159   4.958   1.282  1.00  0.00     0.010 A 
ATOM     65  C   UNL     1     -17.254   4.259  -0.856  1.00  0.00     0.010 A 
ATOM     66  C   UNL     1     -18.808   3.728   1.410  1.00  0.00     0.020 A 
ATOM     67  C   UNL     1     -17.928   3.038  -0.747  1.00  0.00     0.020 A 
ATOM     68  C   UNL     1     -18.687   2.775   0.394  1.00  0.00     0.054 A 
BRANCH  68  69
ATOM     69  S   UNL     1     -19.561   1.196   0.577  1.00  0.00     0.124 S 
ATOM     70  O   UNL     1     -18.787   0.544   1.631  1.00  0.00    -0.237 OA
ATOM     71  O   UNL     1     -20.907   1.617   0.957  1.00  0.00    -0.237 OA
ATOM     72  O   UNL     1     -19.451   0.582  -0.744  1.00  0.00    -0.744 OA
ENDBRANCH  68  69
ENDBRANCH  49  63
BRANCH  50  73
ATOM     73  C   UNL     1     -12.228  13.778  -0.698  1.00  0.00    -0.014 A 
ATOM     74  C   UNL     1     -12.829  15.022  -0.436  1.00  0.00     0.010 A 
ATOM     75  C   UNL     1     -10.877  13.741  -1.089  1.00  0.00     0.010 A 
ATOM     76  C   UNL     1     -12.099  16.205  -0.582  1.00  0.00     0.020 A 
ATOM     77  C   UNL     1     -10.136  14.920  -1.206  1.00  0.00     0.020 A 
ATOM     78  C   UNL     1     -10.756  16.146  -0.964  1.00  0.00     0.054 A 
BRANCH  78  79
ATOM     79  S   UNL     1      -9.818  17.693  -1.100  1.00  0.00     0.124 S 
ATOM     80  O   UNL     1     -10.382  18.284  -2.310  1.00  0.00    -0.237 OA
ATOM     81  O   UNL     1     -10.149  18.373   0.150  1.00  0.00    -0.237 OA
ATOM     82  O   UNL     1      -8.432  17.244  -1.208  1.00  0.00    -0.744 OA
ENDBRANCH  78  79
ENDBRANCH  50  73
BRANCH  62  83
ATOM     83  C   UNL     1     -17.625  11.008  -4.153  1.00  0.00    -0.014 A 
ATOM     84  C   UNL     1     -17.102  11.046  -5.458  1.00  0.00     0.010 A 
ATOM     85  C   UNL     1     -18.970  11.366  -3.943  1.00  0.00     0.010 A 
ATOM     86  C   UNL     1     -17.902  11.458  -6.527  1.00  0.00     0.020 A 
ATOM     87  C   UNL     1     -19.781  11.749  -5.014  1.00  0.00     0.020 A 
ATOM     88  C   UNL     1     -19.238  11.803  -6.299  1.00  0.00     0.054 A 
BRANCH  88  89
ATOM     89  S   UNL     1     -20.270  12.276  -7.713  1.00  0.00     0.124 S 
ATOM     90  O   UNL     1     -19.740  13.595  -8.048  1.00  0.00    -0.237 OA
ATOM     91  O   UNL     1     -19.986  11.220  -8.682  1.00  0.00    -0.237 OA
ATOM     92  O   UNL     1     -21.627  12.268  -7.171  1.00  0.00    -0.744 OA
ENDBRANCH  88  89
ENDBRANCH  62  83
ENDBRANCH  36  37
ENDBRANCH  28  31
ENDBRANCH  26  27
ENDBRANCH  25  26
ENDBRANCH  24  25
ENDBRANCH   1  24
TORSDOF 23
