REMARK SMILES C[C@H](Oc1ccccc1Cl)C(=O)N1CCCC[C@H]1C(=O)NCCCCCCNC(=O)c1ccc(-c2c3nc(c(-c4ccc(S(=O)(=O)[O-])cc4)c4ccc([nH]4)c(-c4ccc(S(=O)(=O)[O-])cc4)c4nc(c(-c5ccc(S(=O)(=O)[O-])cc5)c5ccc2[nH]5)C=C4)C=C3)cc1
REMARK SMILES IDX 24 1 23 2 22 3 21 4 19 5 20 6 18 8 13 9 14 10 15 11 17 12
REMARK SMILES IDX 16 13 11 14 12 15 2 16 1 17 3 18 4 19 5 20 9 21 6 22 8 23
REMARK SMILES IDX 10 24 7 25 25 26 26 27 27 28 28 29 29 30 30 32 31 33 32 34
REMARK SMILES IDX 90 35 33 36 89 37 34 38 35 39 36 40 83 41 37 42 88 43 82 44
REMARK SMILES IDX 84 45 38 46 87 47 81 48 80 49 39 51 69 52 50 53 68 54 51 55
REMARK SMILES IDX 54 56 67 57 85 58 52 59 53 60 66 62 86 63 55 64 40 65 41 66
REMARK SMILES IDX 49 67 42 68 48 69 43 70 44 71 45 72 46 73 47 74 70 75 71 76
REMARK SMILES IDX 79 77 72 78 78 79 73 80 74 81 75 82 76 83 77 84 56 85 57 86
REMARK SMILES IDX 65 87 58 88 64 89 59 90 60 91 61 92 62 93 63 94
REMARK H PARENT 21 7 28 31 84 50 54 61
REMARK Flexibility Score: inf
ROOT
ATOM      1  C   UNL     1      -0.372  -0.322   6.583  1.00  0.00     0.002 C 
ENDROOT
BRANCH   1   2
ATOM      2  C   UNL     1      -0.680   0.562   5.370  1.00  0.00     0.021 C 
BRANCH   2   3
ATOM      3  C   UNL     1       0.001   0.127   4.074  1.00  0.00     0.116 C 
BRANCH   3   4
ATOM      4  N   UNL     1      -0.391  -1.213   3.680  1.00  0.00    -0.354 N 
ATOM      5  C   UNL     1      -1.056  -1.635   2.564  1.00  0.00     0.242 C 
ATOM      6  O   UNL     1      -1.266  -2.845   2.457  1.00  0.00    -0.273 OA
ATOM      7  H   UNL     1      -0.139  -1.925   4.311  1.00  0.00     0.163 HD
BRANCH   5   8
ATOM      8  C   UNL     1      -1.533  -0.601   1.514  1.00  0.00     0.174 C 
ATOM      9  N   UNL     1      -1.873  -1.202   0.206  1.00  0.00    -0.327 N 
ATOM     10  C   UNL     1      -3.144  -1.927   0.137  1.00  0.00     0.120 C 
ATOM     11  C   UNL     1      -4.317  -1.120   0.675  1.00  0.00     0.022 C 
ATOM     12  C   UNL     1      -2.712   0.241   2.026  1.00  0.00     0.035 C 
ATOM     13  C   UNL     1      -4.018  -0.544   2.052  1.00  0.00     0.004 C 
BRANCH   9  14
ATOM     14  C   UNL     1      -1.049  -1.207  -0.918  1.00  0.00     0.264 C 
ATOM     15  O   UNL     1      -1.520  -1.379  -2.050  1.00  0.00    -0.271 OA
BRANCH  14  16
ATOM     16  C   UNL     1       0.496  -1.212  -0.744  1.00  0.00     0.259 C 
ATOM     17  C   UNL     1       0.846  -2.576  -0.132  1.00  0.00     0.064 C 
BRANCH  16  18
ATOM     18  O   UNL     1       0.978  -0.079  -0.031  1.00  0.00    -0.479 OA
BRANCH  18  19
ATOM     19  C   UNL     1       2.302   0.085   0.276  1.00  0.00     0.139 A 
ATOM     20  C   UNL     1       3.336  -0.750  -0.154  1.00  0.00     0.048 A 
ATOM     21  C   UNL     1       2.629   1.166   1.115  1.00  0.00     0.083 A 
ATOM     22  C   UNL     1       4.639  -0.582   0.331  1.00  0.00     0.004 A 
ATOM     23  C   UNL     1       3.932   1.340   1.592  1.00  0.00     0.024 A 
ATOM     24  Cl  UNL     1       1.447   2.342   1.576  1.00  0.00    -0.080 Cl
ATOM     25  C   UNL     1       4.934   0.450   1.217  1.00  0.00     0.002 A 
ENDBRANCH  18  19
ENDBRANCH  16  18
ENDBRANCH  14  16
ENDBRANCH   9  14
ENDBRANCH   5   8
ENDBRANCH   3   4
ENDBRANCH   2   3
ENDBRANCH   1   2
BRANCH   1  26
ATOM     26  C   UNL     1       1.115  -0.498   6.900  1.00  0.00     0.002 C 
BRANCH  26  27
ATOM     27  C   UNL     1       1.893   0.803   7.105  1.00  0.00     0.021 C 
BRANCH  27  28
ATOM     28  C   UNL     1       1.346   1.707   8.204  1.00  0.00     0.116 C 
BRANCH  28  29
ATOM     29  N   UNL     1       1.403   1.079   9.515  1.00  0.00    -0.352 N 
ATOM     30  C   UNL     1       1.955   1.552  10.679  1.00  0.00     0.251 C 
ATOM     31  H   UNL     1       0.987   0.188   9.575  1.00  0.00     0.163 HD
ATOM     32  O   UNL     1       2.079   0.807  11.648  1.00  0.00    -0.269 OA
BRANCH  30  33
ATOM     33  C   UNL     1       2.420   2.954  10.754  1.00  0.00     0.039 A 
ATOM     34  C   UNL     1       3.662   3.227  11.331  1.00  0.00     0.014 A 
ATOM     35  C   UNL     1       1.637   3.994  10.245  1.00  0.00     0.014 A 
ATOM     36  C   UNL     1       4.146   4.537  11.342  1.00  0.00     0.010 A 
ATOM     37  C   UNL     1       2.155   5.283  10.183  1.00  0.00     0.010 A 
ATOM     38  C   UNL     1       3.412   5.571  10.736  1.00  0.00    -0.014 A 
BRANCH  38  39
ATOM     39  C   UNL     1       3.942   6.957  10.667  1.00  0.00     0.031 A 
ATOM     40  C   UNL     1       3.224   8.080  11.365  1.00  0.00     0.074 A 
ATOM     41  C   UNL     1       5.038   7.216   9.926  1.00  0.00     0.049 A 
ATOM     42  N   UNL     1       3.517   9.355  11.395  1.00  0.00    -0.248 NA
ATOM     43  C   UNL     1       2.003   7.727  12.107  1.00  0.00     0.031 C 
ATOM     44  C   UNL     1       5.810   6.221   9.179  1.00  0.00     0.029 A 
ATOM     45  N   UNL     1       5.695   8.396   9.683  1.00  0.00    -0.354 N 
ATOM     46  C   UNL     1       2.511   9.957  12.142  1.00  0.00     0.074 A 
ATOM     47  C   UNL     1       1.569   8.916  12.494  1.00  0.00     0.031 C 
ATOM     48  C   UNL     1       6.861   6.824   8.601  1.00  0.00     0.029 A 
ATOM     49  C   UNL     1       6.811   8.253   8.893  1.00  0.00     0.049 A 
ATOM     50  H   UNL     1       5.395   9.263  10.040  1.00  0.00     0.167 HD
ATOM     51  C   UNL     1       2.389  11.254  12.519  1.00  0.00     0.031 A 
ATOM     52  C   UNL     1       7.699   9.167   8.455  1.00  0.00     0.031 A 
ATOM     53  C   UNL     1       3.323  12.287  12.157  1.00  0.00     0.049 A 
ATOM     54  C   UNL     1       7.520  10.608   8.846  1.00  0.00     0.074 A 
ATOM     55  C   UNL     1       3.318  13.621  12.526  1.00  0.00     0.029 A 
ATOM     56  N   UNL     1       4.423  12.106  11.330  1.00  0.00    -0.354 N 
ATOM     57  N   UNL     1       6.599  11.148   9.609  1.00  0.00    -0.248 NA
ATOM     58  C   UNL     1       8.507  11.562   8.322  1.00  0.00     0.031 C 
ATOM     59  C   UNL     1       4.376  14.259  11.869  1.00  0.00     0.029 A 
ATOM     60  C   UNL     1       5.084  13.310  11.149  1.00  0.00     0.049 A 
ATOM     61  H   UNL     1       4.694  11.248  10.931  1.00  0.00     0.167 HD
ATOM     62  C   UNL     1       6.916  12.501   9.684  1.00  0.00     0.074 A 
ATOM     63  C   UNL     1       8.117  12.692   8.896  1.00  0.00     0.031 C 
ATOM     64  C   UNL     1       6.273  13.491  10.352  1.00  0.00     0.031 A 
BRANCH  51  65
ATOM     65  C   UNL     1       1.179  11.620  13.344  1.00  0.00    -0.014 A 
ATOM     66  C   UNL     1       1.005  11.123  14.649  1.00  0.00     0.010 A 
ATOM     67  C   UNL     1       0.194  12.465  12.801  1.00  0.00     0.010 A 
ATOM     68  C   UNL     1      -0.163  11.400  15.364  1.00  0.00     0.020 A 
ATOM     69  C   UNL     1      -0.959  12.775  13.527  1.00  0.00     0.020 A 
ATOM     70  C   UNL     1      -1.144  12.216  14.793  1.00  0.00     0.054 A 
BRANCH  70  71
ATOM     71  S   UNL     1      -2.665  12.532  15.729  1.00  0.00     0.124 S 
ATOM     72  O   UNL     1      -3.347  11.243  15.636  1.00  0.00    -0.237 OA
ATOM     73  O   UNL     1      -2.160  12.880  17.054  1.00  0.00    -0.237 OA
ATOM     74  O   UNL     1      -3.300  13.627  14.999  1.00  0.00    -0.744 OA
ENDBRANCH  70  71
ENDBRANCH  51  65
BRANCH  52  75
ATOM     75  C   UNL     1       8.863   8.733   7.635  1.00  0.00    -0.014 A 
ATOM     76  C   UNL     1      10.156   8.748   8.185  1.00  0.00     0.010 A 
ATOM     77  C   UNL     1       8.684   8.267   6.320  1.00  0.00     0.010 A 
ATOM     78  C   UNL     1      11.251   8.306   7.436  1.00  0.00     0.020 A 
ATOM     79  C   UNL     1       9.772   7.798   5.577  1.00  0.00     0.020 A 
ATOM     80  C   UNL     1      11.050   7.825   6.139  1.00  0.00     0.054 A 
BRANCH  80  81
ATOM     81  S   UNL     1      12.475   7.182   5.219  1.00  0.00     0.124 S 
ATOM     82  O   UNL     1      13.226   8.399   4.930  1.00  0.00    -0.237 OA
ATOM     83  O   UNL     1      13.087   6.273   6.184  1.00  0.00    -0.237 OA
ATOM     84  O   UNL     1      11.867   6.530   4.060  1.00  0.00    -0.744 OA
ENDBRANCH  80  81
ENDBRANCH  52  75
BRANCH  64  85
ATOM     85  C   UNL     1       6.873  14.872  10.290  1.00  0.00    -0.014 A 
ATOM     86  C   UNL     1       6.840  15.635   9.109  1.00  0.00     0.010 A 
ATOM     87  C   UNL     1       7.434  15.435  11.452  1.00  0.00     0.010 A 
ATOM     88  C   UNL     1       7.385  16.922   9.083  1.00  0.00     0.020 A 
ATOM     89  C   UNL     1       7.950  16.733  11.439  1.00  0.00     0.020 A 
ATOM     90  C   UNL     1       7.935  17.464  10.250  1.00  0.00     0.054 A 
BRANCH  90  91
ATOM     91  S   UNL     1       8.592  19.154  10.201  1.00  0.00     0.124 S 
ATOM     92  O   UNL     1       9.815  18.982   9.420  1.00  0.00    -0.237 OA
ATOM     93  O   UNL     1       7.522  19.894   9.538  1.00  0.00    -0.237 OA
ATOM     94  O   UNL     1       8.794  19.488  11.609  1.00  0.00    -0.744 OA
ENDBRANCH  90  91
ENDBRANCH  64  85
ENDBRANCH  38  39
ENDBRANCH  30  33
ENDBRANCH  28  29
ENDBRANCH  27  28
ENDBRANCH  26  27
ENDBRANCH   1  26
TORSDOF 20
