REMARK SMILES O=C(C[C@H]1C(=O)Nc2ccccc21)NCCCCCCNC(=O)c1ccc(-c2c3nc(c(-c4ccc(S(=O)(=O)[O-])cc4)c4ccc([nH]4)c(-c4ccc(S(=O)(=O)[O-])cc4)c4nc(c(-c5ccc(S(=O)(=O)[O-])cc5)c5ccc2[nH]5)C=C4)C=C3)cc1
REMARK SMILES IDX 18 1 17 2 16 3 15 4 14 5 1 6 2 7 3 9 4 10 5 11 13 12 6 13
REMARK SMILES IDX 7 14 8 15 12 16 9 18 11 19 10 20 19 21 20 22 21 23 22 24
REMARK SMILES IDX 23 26 24 27 25 28 83 29 26 30 82 31 27 32 28 33 29 34 76 35
REMARK SMILES IDX 30 36 81 37 75 38 77 39 31 40 80 41 74 42 73 43 32 45 62 46
REMARK SMILES IDX 43 47 61 48 44 49 47 50 60 51 78 52 45 53 46 54 59 56 79 57
REMARK SMILES IDX 48 58 33 59 34 60 42 61 35 62 41 63 36 64 37 65 38 66 39 67
REMARK SMILES IDX 40 68 63 69 64 70 72 71 65 72 71 73 66 74 67 75 68 76 69 77
REMARK SMILES IDX 70 78 49 79 50 80 58 81 51 82 57 83 52 84 53 85 54 86 55 87
REMARK SMILES IDX 56 88
REMARK H PARENT 14 8 7 17 21 25 77 44 47 55
REMARK Flexibility Score: inf
ROOT
ATOM      1  C   UNL     1       3.331   2.510  -3.651  1.00  0.00     0.002 C 
ENDROOT
BRANCH   1   2
ATOM      2  C   UNL     1       4.781   2.186  -3.277  1.00  0.00     0.002 C 
BRANCH   2   3
ATOM      3  C   UNL     1       5.485   3.240  -2.410  1.00  0.00     0.021 C 
BRANCH   3   4
ATOM      4  C   UNL     1       4.804   3.515  -1.069  1.00  0.00     0.116 C 
BRANCH   4   5
ATOM      5  N   UNL     1       4.774   2.317  -0.254  1.00  0.00    -0.356 N 
ATOM      6  O   UNL     1       5.638   3.255   1.660  1.00  0.00    -0.275 OA
ATOM      7  C   UNL     1       5.237   2.277   1.039  1.00  0.00     0.221 C 
ATOM      8  H   UNL     1       4.406   1.492  -0.645  1.00  0.00     0.163 HD
BRANCH   7   9
ATOM      9  C   UNL     1       5.236   0.893   1.639  1.00  0.00     0.118 C 
BRANCH   9  10
ATOM     10  C   UNL     1       3.816   0.400   1.879  1.00  0.00     0.120 C 
ATOM     11  C   UNL     1       3.766  -1.131   1.746  1.00  0.00     0.232 C 
ATOM     12  C   UNL     1       3.332   0.605   3.288  1.00  0.00    -0.011 A 
ATOM     13  O   UNL     1       4.065  -1.785   0.758  1.00  0.00    -0.274 OA
ATOM     14  N   UNL     1       3.322  -1.645   2.956  1.00  0.00    -0.325 N 
ATOM     15  C   UNL     1       3.062  -0.633   3.866  1.00  0.00     0.045 A 
ATOM     16  C   UNL     1       3.133   1.776   3.995  1.00  0.00     0.007 A 
ATOM     17  H   UNL     1       3.208  -2.605   3.143  1.00  0.00     0.169 HD
ATOM     18  C   UNL     1       2.603  -0.762   5.159  1.00  0.00     0.026 A 
ATOM     19  C   UNL     1       2.663   1.672   5.307  1.00  0.00     0.000 A 
ATOM     20  C   UNL     1       2.403   0.415   5.885  1.00  0.00     0.002 A 
ENDBRANCH   9  10
ENDBRANCH   7   9
ENDBRANCH   4   5
ENDBRANCH   3   4
ENDBRANCH   2   3
ENDBRANCH   1   2
BRANCH   1  21
ATOM     21  C   UNL     1       3.140   3.825  -4.408  1.00  0.00     0.021 C 
BRANCH  21  22
ATOM     22  C   UNL     1       3.914   3.925  -5.718  1.00  0.00     0.116 C 
BRANCH  22  23
ATOM     23  N   UNL     1       3.463   2.953  -6.704  1.00  0.00    -0.352 N 
ATOM     24  C   UNL     1       3.089   3.160  -8.010  1.00  0.00     0.251 C 
ATOM     25  H   UNL     1       3.421   2.020  -6.392  1.00  0.00     0.163 HD
ATOM     26  O   UNL     1       2.568   2.255  -8.654  1.00  0.00    -0.269 OA
BRANCH  24  27
ATOM     27  C   UNL     1       3.296   4.489  -8.625  1.00  0.00     0.039 A 
ATOM     28  C   UNL     1       2.253   5.078  -9.344  1.00  0.00     0.014 A 
ATOM     29  C   UNL     1       4.513   5.160  -8.473  1.00  0.00     0.014 A 
ATOM     30  C   UNL     1       2.408   6.371  -9.853  1.00  0.00     0.010 A 
ATOM     31  C   UNL     1       4.637   6.474  -8.915  1.00  0.00     0.010 A 
ATOM     32  C   UNL     1       3.588   7.093  -9.612  1.00  0.00    -0.014 A 
BRANCH  32  33
ATOM     33  C   UNL     1       3.758   8.493 -10.083  1.00  0.00     0.031 A 
ATOM     34  C   UNL     1       4.847   8.823 -11.070  1.00  0.00     0.074 A 
ATOM     35  C   UNL     1       2.993   9.477  -9.565  1.00  0.00     0.049 A 
ATOM     36  N   UNL     1       5.229   9.993 -11.515  1.00  0.00    -0.248 NA
ATOM     37  C   UNL     1       5.625   7.694 -11.610  1.00  0.00     0.031 C 
ATOM     38  C   UNL     1       1.924   9.293  -8.580  1.00  0.00     0.029 A 
ATOM     39  N   UNL     1       3.007  10.833  -9.784  1.00  0.00    -0.354 N 
ATOM     40  C   UNL     1       6.305   9.744 -12.359  1.00  0.00     0.074 A 
ATOM     41  C   UNL     1       6.541   8.318 -12.338  1.00  0.00     0.031 C 
ATOM     42  C   UNL     1       1.376  10.486  -8.295  1.00  0.00     0.029 A 
ATOM     43  C   UNL     1       2.084  11.526  -9.035  1.00  0.00     0.049 A 
ATOM     44  H   UNL     1       3.621  11.269 -10.419  1.00  0.00     0.167 HD
ATOM     45  C   UNL     1       7.023  10.622 -13.097  1.00  0.00     0.031 A 
ATOM     46  C   UNL     1       1.847  12.850  -8.938  1.00  0.00     0.031 A 
ATOM     47  C   UNL     1       6.768  12.037 -13.139  1.00  0.00     0.049 A 
ATOM     48  C   UNL     1       2.674  13.805  -9.760  1.00  0.00     0.074 A 
ATOM     49  C   UNL     1       7.397  12.999 -13.910  1.00  0.00     0.029 A 
ATOM     50  N   UNL     1       5.810  12.694 -12.382  1.00  0.00    -0.354 N 
ATOM     51  N   UNL     1       3.640  13.540 -10.607  1.00  0.00    -0.248 NA
ATOM     52  C   UNL     1       2.372  15.238  -9.622  1.00  0.00     0.031 C 
ATOM     53  C   UNL     1       6.863  14.245 -13.574  1.00  0.00     0.029 A 
ATOM     54  C   UNL     1       5.851  14.051 -12.648  1.00  0.00     0.049 A 
ATOM     55  H   UNL     1       5.193  12.259 -11.749  1.00  0.00     0.167 HD
ATOM     56  C   UNL     1       4.028  14.769 -11.133  1.00  0.00     0.074 A 
ATOM     57  C   UNL     1       3.190  15.774 -10.517  1.00  0.00     0.031 C 
ATOM     58  C   UNL     1       4.992  15.038 -12.047  1.00  0.00     0.031 A 
BRANCH  45  59
ATOM     59  C   UNL     1       8.163  10.091 -13.926  1.00  0.00    -0.014 A 
ATOM     60  C   UNL     1       7.929   9.324 -15.080  1.00  0.00     0.010 A 
ATOM     61  C   UNL     1       9.484  10.448 -13.597  1.00  0.00     0.010 A 
ATOM     62  C   UNL     1       8.996   8.910 -15.882  1.00  0.00     0.020 A 
ATOM     63  C   UNL     1      10.551  10.061 -14.412  1.00  0.00     0.020 A 
ATOM     64  C   UNL     1      10.300   9.287 -15.546  1.00  0.00     0.054 A 
BRANCH  64  65
ATOM     65  S   UNL     1      11.656   8.795 -16.646  1.00  0.00     0.124 S 
ATOM     66  O   UNL     1      11.729   7.355 -16.410  1.00  0.00    -0.237 OA
ATOM     67  O   UNL     1      11.159   9.191 -17.961  1.00  0.00    -0.237 OA
ATOM     68  O   UNL     1      12.798   9.564 -16.156  1.00  0.00    -0.744 OA
ENDBRANCH  64  65
ENDBRANCH  45  59
BRANCH  46  69
ATOM     69  C   UNL     1       0.789  13.366  -8.022  1.00  0.00    -0.014 A 
ATOM     70  C   UNL     1      -0.355  14.003  -8.536  1.00  0.00     0.010 A 
ATOM     71  C   UNL     1       0.941  13.262  -6.628  1.00  0.00     0.010 A 
ATOM     72  C   UNL     1      -1.302  14.566  -7.674  1.00  0.00     0.020 A 
ATOM     73  C   UNL     1      -0.020  13.792  -5.762  1.00  0.00     0.020 A 
ATOM     74  C   UNL     1      -1.125  14.462  -6.292  1.00  0.00     0.054 A 
BRANCH  74  75
ATOM     75  S   UNL     1      -2.365  15.200  -5.192  1.00  0.00     0.124 S 
ATOM     76  O   UNL     1      -2.094  16.626  -5.344  1.00  0.00    -0.237 OA
ATOM     77  O   UNL     1      -3.620  14.727  -5.769  1.00  0.00    -0.237 OA
ATOM     78  O   UNL     1      -2.038  14.636  -3.883  1.00  0.00    -0.744 OA
ENDBRANCH  74  75
ENDBRANCH  46  69
BRANCH  58  79
ATOM     79  C   UNL     1       5.155  16.466 -12.498  1.00  0.00    -0.014 A 
ATOM     80  C   UNL     1       5.713  17.445 -11.659  1.00  0.00     0.010 A 
ATOM     81  C   UNL     1       4.817  16.809 -13.821  1.00  0.00     0.010 A 
ATOM     82  C   UNL     1       5.909  18.747 -12.127  1.00  0.00     0.020 A 
ATOM     83  C   UNL     1       5.041  18.101 -14.303  1.00  0.00     0.020 A 
ATOM     84  C   UNL     1       5.577  19.065 -13.448  1.00  0.00     0.054 A 
BRANCH  84  85
ATOM     85  S   UNL     1       5.903  20.744 -14.050  1.00  0.00     0.124 S 
ATOM     86  O   UNL     1       4.878  21.521 -13.358  1.00  0.00    -0.237 OA
ATOM     87  O   UNL     1       7.276  20.981 -13.610  1.00  0.00    -0.237 OA
ATOM     88  O   UNL     1       5.729  20.635 -15.497  1.00  0.00    -0.744 OA
ENDBRANCH  84  85
ENDBRANCH  58  79
ENDBRANCH  32  33
ENDBRANCH  24  27
ENDBRANCH  22  23
ENDBRANCH  21  22
ENDBRANCH   1  21
TORSDOF 17
