REMARK SMILES Cc1cccc([C@H]([NH3+])[C@H](O)C(=O)NCCCCCCNC(=O)c2ccc(-c3c4nc(c(-c5ccc(S(=O)(=O)[O-])cc5)c5ccc([nH]5)c(-c5ccc(S(=O)(=O)[O-])cc5)c5nc(c(-c6ccc(S(=O)(=O)[O-])cc6)c6ccc3[nH]6)C=C5)C=C4)cc2)c1
REMARK SMILES IDX 17 1 16 2 15 3 14 4 13 5 11 6 12 7 9 9 7 10 6 11 1 12 2 13
REMARK SMILES IDX 3 14 83 15 4 16 5 17 8 18 10 22 18 24 19 25 20 26 21 27
REMARK SMILES IDX 22 29 23 30 24 31 82 32 25 33 81 34 26 35 27 36 28 37 75 38
REMARK SMILES IDX 29 39 80 40 74 41 76 42 30 43 79 44 73 45 72 46 31 48 61 49
REMARK SMILES IDX 42 50 60 51 43 52 46 53 59 54 77 55 44 56 45 57 58 59 78 60
REMARK SMILES IDX 47 61 32 62 33 63 41 64 34 65 40 66 35 67 36 68 37 69 38 70
REMARK SMILES IDX 39 71 62 72 63 73 71 74 64 75 70 76 65 77 66 78 67 79 68 80
REMARK SMILES IDX 69 81 48 82 49 83 57 84 50 85 56 86 51 87 52 88 53 89 54 90
REMARK SMILES IDX 55 91
REMARK H PARENT 13 8 8 19 8 20 8 21 10 23 20 28 76 47 46 58
REMARK Flexibility Score: inf
ROOT
ATOM      1  C   UNL     1      -1.215   8.297   1.489  1.00  0.00     0.002 C 
ENDROOT
BRANCH   1   2
ATOM      2  C   UNL     1      -1.599   7.798   0.088  1.00  0.00     0.002 C 
BRANCH   2   3
ATOM      3  C   UNL     1      -1.199   6.371  -0.305  1.00  0.00     0.021 C 
BRANCH   3   4
ATOM      4  C   UNL     1      -1.501   5.263   0.698  1.00  0.00     0.116 C 
BRANCH   4   5
ATOM      5  N   UNL     1      -2.902   5.002   0.931  1.00  0.00    -0.354 N 
ATOM      6  C   UNL     1      -3.465   3.827   1.343  1.00  0.00     0.255 C 
ATOM      7  O   UNL     1      -4.632   3.857   1.751  1.00  0.00    -0.272 OA
ATOM      8  H   UNL     1      -3.519   5.753   0.776  1.00  0.00     0.163 HD
BRANCH   6   9
ATOM      9  C   UNL     1      -2.677   2.492   1.333  1.00  0.00     0.266 C 
BRANCH   9  10
ATOM     10  C   UNL     1      -1.752   2.326   2.593  1.00  0.00     0.250 C 
BRANCH  10  11
ATOM     11  C   UNL     1      -0.248   2.390   2.330  1.00  0.00     0.013 A 
ATOM     12  C   UNL     1       2.546   0.230   0.854  1.00  0.00     0.044 C 
ATOM     13  C   UNL     1       1.820   1.384   1.479  1.00  0.00    -0.051 A 
ATOM     14  C   UNL     1       2.509   2.563   1.778  1.00  0.00     0.003 A 
ATOM     15  C   UNL     1       0.445   1.313   1.744  1.00  0.00     0.013 A 
ATOM     16  C   UNL     1       1.849   3.625   2.391  1.00  0.00     0.001 A 
ATOM     17  C   UNL     1       0.489   3.527   2.692  1.00  0.00     0.010 A 
ENDBRANCH  10  11
BRANCH  10  18
ATOM     18  N   UNL     1      -2.043   1.045   3.290  1.00  0.00    -0.349 N 
ATOM     19  H   UNL     1      -1.802   0.264   2.680  1.00  0.00     0.345 HD
ATOM     20  H   UNL     1      -3.036   1.002   3.521  1.00  0.00     0.345 HD
ATOM     21  H   UNL     1      -1.492   0.991   4.146  1.00  0.00     0.345 HD
ENDBRANCH  10  18
ENDBRANCH   9  10
BRANCH   9  22
ATOM     22  O   UNL     1      -2.055   2.207   0.085  1.00  0.00    -0.378 OA
ATOM     23  H   UNL     1      -1.370   2.871  -0.094  1.00  0.00     0.211 HD
ENDBRANCH   9  22
ENDBRANCH   6   9
ENDBRANCH   4   5
ENDBRANCH   3   4
ENDBRANCH   2   3
ENDBRANCH   1   2
BRANCH   1  24
ATOM     24  C   UNL     1       0.222   8.059   1.954  1.00  0.00     0.021 C 
BRANCH  24  25
ATOM     25  C   UNL     1       1.288   8.778   1.136  1.00  0.00     0.116 C 
BRANCH  25  26
ATOM     26  N   UNL     1       1.958   9.831   1.882  1.00  0.00    -0.352 N 
ATOM     27  C   UNL     1       3.167  10.467   1.575  1.00  0.00     0.251 C 
ATOM     28  H   UNL     1       1.506  10.134   2.702  1.00  0.00     0.163 HD
ATOM     29  O   UNL     1       3.757  11.171   2.335  1.00  0.00    -0.269 OA
BRANCH  27  30
ATOM     30  C   UNL     1       3.621  10.300   0.177  1.00  0.00     0.039 A 
ATOM     31  C   UNL     1       3.400  11.379  -0.688  1.00  0.00     0.014 A 
ATOM     32  C   UNL     1       3.933   9.032  -0.302  1.00  0.00     0.014 A 
ATOM     33  C   UNL     1       3.304  11.141  -2.055  1.00  0.00     0.010 A 
ATOM     34  C   UNL     1       3.747   8.782  -1.648  1.00  0.00     0.010 A 
ATOM     35  C   UNL     1       3.380   9.825  -2.511  1.00  0.00    -0.014 A 
BRANCH  35  36
ATOM     36  C   UNL     1       2.989   9.426  -3.857  1.00  0.00     0.031 A 
ATOM     37  C   UNL     1       4.023   9.090  -4.857  1.00  0.00     0.074 A 
ATOM     38  C   UNL     1       1.682   9.293  -4.176  1.00  0.00     0.049 A 
ATOM     39  N   UNL     1       3.844   9.168  -6.133  1.00  0.00    -0.248 NA
ATOM     40  C   UNL     1       5.373   8.674  -4.488  1.00  0.00     0.031 C 
ATOM     41  C   UNL     1       1.134   8.645  -5.366  1.00  0.00     0.029 A 
ATOM     42  N   UNL     1       0.573   9.910  -3.592  1.00  0.00    -0.354 N 
ATOM     43  C   UNL     1       4.900   8.522  -6.730  1.00  0.00     0.074 A 
ATOM     44  C   UNL     1       5.867   8.313  -5.677  1.00  0.00     0.031 C 
ATOM     45  C   UNL     1      -0.093   9.138  -5.594  1.00  0.00     0.029 A 
ATOM     46  C   UNL     1      -0.302  10.220  -4.647  1.00  0.00     0.049 A 
ATOM     47  H   UNL     1       0.433  10.092  -2.635  1.00  0.00     0.167 HD
ATOM     48  C   UNL     1       4.792   8.089  -8.017  1.00  0.00     0.031 A 
ATOM     49  C   UNL     1      -0.682  11.491  -4.970  1.00  0.00     0.031 A 
ATOM     50  C   UNL     1       3.511   8.454  -8.618  1.00  0.00     0.049 A 
ATOM     51  C   UNL     1      -0.332  11.887  -6.396  1.00  0.00     0.074 A 
ATOM     52  C   UNL     1       2.348   7.758  -8.906  1.00  0.00     0.029 A 
ATOM     53  N   UNL     1       3.195   9.797  -8.753  1.00  0.00    -0.354 N 
ATOM     54  N   UNL     1       0.340  11.142  -7.230  1.00  0.00    -0.248 NA
ATOM     55  C   UNL     1      -0.631  13.201  -6.960  1.00  0.00     0.031 C 
ATOM     56  C   UNL     1       1.329   8.701  -9.221  1.00  0.00     0.029 A 
ATOM     57  C   UNL     1       1.878   9.966  -9.139  1.00  0.00     0.049 A 
ATOM     58  H   UNL     1       3.826  10.536  -8.593  1.00  0.00     0.167 HD
ATOM     59  C   UNL     1       0.616  11.846  -8.378  1.00  0.00     0.074 A 
ATOM     60  C   UNL     1      -0.020  13.133  -8.157  1.00  0.00     0.031 C 
ATOM     61  C   UNL     1       1.382  11.316  -9.382  1.00  0.00     0.031 A 
BRANCH  48  62
ATOM     62  C   UNL     1       5.755   7.092  -8.616  1.00  0.00    -0.014 A 
ATOM     63  C   UNL     1       5.284   6.124  -9.525  1.00  0.00     0.010 A 
ATOM     64  C   UNL     1       7.124   7.031  -8.290  1.00  0.00     0.010 A 
ATOM     65  C   UNL     1       6.101   5.087  -9.996  1.00  0.00     0.020 A 
ATOM     66  C   UNL     1       7.945   5.977  -8.723  1.00  0.00     0.020 A 
ATOM     67  C   UNL     1       7.422   5.001  -9.566  1.00  0.00     0.054 A 
BRANCH  67  68
ATOM     68  S   UNL     1       8.432   3.596 -10.108  1.00  0.00     0.124 S 
ATOM     69  O   UNL     1       7.618   2.450  -9.710  1.00  0.00    -0.237 OA
ATOM     70  O   UNL     1       8.538   3.824 -11.546  1.00  0.00    -0.237 OA
ATOM     71  O   UNL     1       9.677   3.755  -9.359  1.00  0.00    -0.744 OA
ENDBRANCH  67  68
ENDBRANCH  48  62
BRANCH  49  72
ATOM     72  C   UNL     1      -0.728  12.425  -3.808  1.00  0.00    -0.014 A 
ATOM     73  C   UNL     1      -1.733  12.213  -2.838  1.00  0.00     0.010 A 
ATOM     74  C   UNL     1       0.397  13.192  -3.461  1.00  0.00     0.010 A 
ATOM     75  C   UNL     1      -1.543  12.616  -1.513  1.00  0.00     0.020 A 
ATOM     76  C   UNL     1       0.587  13.602  -2.132  1.00  0.00     0.020 A 
ATOM     77  C   UNL     1      -0.355  13.256  -1.158  1.00  0.00     0.054 A 
BRANCH  77  78
ATOM     78  S   UNL     1       0.017  13.450   0.612  1.00  0.00     0.124 S 
ATOM     79  O   UNL     1      -1.047  14.344   1.057  1.00  0.00    -0.237 OA
ATOM     80  O   UNL     1      -0.073  12.073   1.099  1.00  0.00    -0.237 OA
ATOM     81  O   UNL     1       1.360  14.020   0.610  1.00  0.00    -0.744 OA
ENDBRANCH  77  78
ENDBRANCH  49  72
BRANCH  61  82
ATOM     82  C   UNL     1       1.802  11.991 -10.679  1.00  0.00    -0.014 A 
ATOM     83  C   UNL     1       1.167  13.100 -11.255  1.00  0.00     0.010 A 
ATOM     84  C   UNL     1       2.880  11.438 -11.420  1.00  0.00     0.010 A 
ATOM     85  C   UNL     1       1.637  13.675 -12.451  1.00  0.00     0.020 A 
ATOM     86  C   UNL     1       3.350  11.989 -12.615  1.00  0.00     0.020 A 
ATOM     87  C   UNL     1       2.732  13.122 -13.116  1.00  0.00     0.054 A 
BRANCH  87  88
ATOM     88  S   UNL     1       3.322  13.888 -14.646  1.00  0.00     0.124 S 
ATOM     89  O   UNL     1       2.154  13.783 -15.515  1.00  0.00    -0.237 OA
ATOM     90  O   UNL     1       3.657  15.240 -14.204  1.00  0.00    -0.237 OA
ATOM     91  O   UNL     1       4.463  13.064 -15.036  1.00  0.00    -0.744 OA
ENDBRANCH  87  88
ENDBRANCH  61  82
ENDBRANCH  35  36
ENDBRANCH  27  30
ENDBRANCH  25  26
ENDBRANCH  24  25
ENDBRANCH   1  24
TORSDOF 20
