REMARK SMILES CC[C@H](C)C[C@@H](CC)[N@@H+]1CCO[C@H](CC(=O)NCCCCCCNC(=O)c2ccc(-c3c4nc(c(-c5ccc(S(=O)(=O)[O-])cc5)c5ccc([nH]5)c(-c5ccc(S(=O)(=O)[O-])cc5)c5nc(c(-c6ccc(S(=O)(=O)[O-])cc6)c6ccc3[nH]6)C=C5)C=C4)cc2)C1
REMARK SMILES IDX 19 1 18 2 17 3 15 4 16 5 14 7 13 8 9 9 10 10 87 11 11 13
REMARK SMILES IDX 12 14 6 15 5 16 3 17 4 18 2 19 1 20 7 21 8 22 20 23 21 24
REMARK SMILES IDX 22 25 23 26 24 27 25 28 26 30 27 31 28 32 86 33 29 34 85 35
REMARK SMILES IDX 30 36 31 37 32 38 79 39 33 40 84 41 78 42 80 43 34 44 83 45
REMARK SMILES IDX 77 46 76 47 35 49 65 50 46 51 64 52 47 53 50 54 63 55 81 56
REMARK SMILES IDX 48 57 49 58 62 60 82 61 51 62 36 63 37 64 45 65 38 66 44 67
REMARK SMILES IDX 39 68 40 69 41 70 42 71 43 72 66 73 67 74 75 75 68 76 74 77
REMARK SMILES IDX 69 78 70 79 71 80 72 81 73 82 52 83 53 84 61 85 54 86 60 87
REMARK SMILES IDX 55 88 56 89 57 90 58 91 59 92
REMARK H PARENT 17 6 9 12 24 29 80 48 50 59
REMARK Flexibility Score: inf
ROOT
ATOM      1  C   UNL     1       2.548  -6.425   2.224  1.00  0.00     0.021 C 
ENDROOT
BRANCH   1   2
ATOM      2  C   UNL     1       1.985  -5.140   1.583  1.00  0.00     0.116 C 
BRANCH   2   3
ATOM      3  N   UNL     1       0.933  -5.430   0.616  1.00  0.00    -0.356 N 
ATOM      4  C   UNL     1      -0.371  -5.054   0.491  1.00  0.00     0.222 C 
ATOM      5  O   UNL     1      -0.978  -5.526  -0.479  1.00  0.00    -0.275 OA
ATOM      6  H   UNL     1       1.231  -6.029  -0.106  1.00  0.00     0.163 HD
BRANCH   4   7
ATOM      7  C   UNL     1      -1.053  -4.002   1.350  1.00  0.00     0.138 C 
BRANCH   7   8
ATOM      8  C   UNL     1      -1.742  -4.325   2.690  1.00  0.00     0.182 C 
ATOM      9  N   UNL     1      -0.179  -3.246   4.414  1.00  0.00    -0.328 N 
ATOM     10  C   UNL     1       0.184  -4.626   4.786  1.00  0.00     0.291 C 
ATOM     11  C   UNL     1      -1.536  -3.295   3.826  1.00  0.00     0.295 C 
ATOM     12  H   UNL     1      -0.155  -2.712   5.283  1.00  0.00     0.348 HD
ATOM     13  C   UNL     1      -0.374  -5.819   3.953  1.00  0.00     0.222 C 
ATOM     14  O   UNL     1      -1.575  -5.633   3.215  1.00  0.00    -0.366 OA
BRANCH   9  15
ATOM     15  C   UNL     1       0.792  -2.378   3.702  1.00  0.00     0.184 C 
BRANCH  15  16
ATOM     16  C   UNL     1       0.322  -0.895   3.725  1.00  0.00     0.068 C 
BRANCH  16  17
ATOM     17  C   UNL     1       0.893   0.047   2.637  1.00  0.00    -0.009 C 
ATOM     18  C   UNL     1       0.787  -0.514   1.212  1.00  0.00     0.008 C 
BRANCH  17  19
ATOM     19  C   UNL     1       0.207   1.436   2.699  1.00  0.00    -0.000 C 
ATOM     20  C   UNL     1      -1.321   1.413   2.723  1.00  0.00     0.004 C 
ENDBRANCH  17  19
ENDBRANCH  16  17
ENDBRANCH  15  16
BRANCH  15  21
ATOM     21  C   UNL     1       2.289  -2.470   4.087  1.00  0.00     0.061 C 
ATOM     22  C   UNL     1       2.674  -2.045   5.490  1.00  0.00     0.010 C 
ENDBRANCH  15  21
ENDBRANCH   9  15
ENDBRANCH   7   8
ENDBRANCH   4   7
ENDBRANCH   2   3
ENDBRANCH   1   2
BRANCH   1  23
ATOM     23  C   UNL     1       4.033  -6.705   2.010  1.00  0.00     0.002 C 
BRANCH  23  24
ATOM     24  C   UNL     1       5.007  -5.723   2.665  1.00  0.00     0.002 C 
BRANCH  24  25
ATOM     25  C   UNL     1       4.901  -5.516   4.182  1.00  0.00     0.021 C 
BRANCH  25  26
ATOM     26  C   UNL     1       4.899  -6.755   5.075  1.00  0.00     0.116 C 
BRANCH  26  27
ATOM     27  N   UNL     1       6.010  -7.646   4.816  1.00  0.00    -0.352 N 
ATOM     28  C   UNL     1       7.029  -8.093   5.617  1.00  0.00     0.251 C 
ATOM     29  H   UNL     1       6.039  -7.996   3.896  1.00  0.00     0.163 HD
ATOM     30  O   UNL     1       7.932  -8.747   5.096  1.00  0.00    -0.269 OA
BRANCH  28  31
ATOM     31  C   UNL     1       7.089  -7.801   7.071  1.00  0.00     0.039 A 
ATOM     32  C   UNL     1       8.351  -7.579   7.636  1.00  0.00     0.014 A 
ATOM     33  C   UNL     1       5.964  -7.822   7.901  1.00  0.00     0.014 A 
ATOM     34  C   UNL     1       8.479  -7.342   9.008  1.00  0.00     0.010 A 
ATOM     35  C   UNL     1       6.085  -7.518   9.262  1.00  0.00     0.010 A 
ATOM     36  C   UNL     1       7.345  -7.284   9.833  1.00  0.00    -0.014 A 
BRANCH  36  37
ATOM     37  C   UNL     1       7.489  -6.970  11.281  1.00  0.00     0.031 A 
ATOM     38  C   UNL     1       7.157  -7.993  12.336  1.00  0.00     0.074 A 
ATOM     39  C   UNL     1       7.921  -5.747  11.649  1.00  0.00     0.049 A 
ATOM     40  N   UNL     1       7.282  -7.905  13.637  1.00  0.00    -0.248 NA
ATOM     41  C   UNL     1       6.596  -9.273  11.875  1.00  0.00     0.031 C 
ATOM     42  C   UNL     1       8.231  -4.649  10.730  1.00  0.00     0.029 A 
ATOM     43  N   UNL     1       8.185  -5.223  12.890  1.00  0.00    -0.354 N 
ATOM     44  C   UNL     1       6.812  -9.109  14.149  1.00  0.00     0.074 A 
ATOM     45  C   UNL     1       6.354  -9.893  13.022  1.00  0.00     0.031 C 
ATOM     46  C   UNL     1       8.678  -3.597  11.435  1.00  0.00     0.029 A 
ATOM     47  C   UNL     1       8.660  -3.933  12.855  1.00  0.00     0.049 A 
ATOM     48  H   UNL     1       8.048  -5.724  13.727  1.00  0.00     0.167 HD
ATOM     49  C   UNL     1       6.779  -9.533  15.437  1.00  0.00     0.031 A 
ATOM     50  C   UNL     1       9.045  -3.110  13.850  1.00  0.00     0.031 A 
ATOM     51  C   UNL     1       7.238  -8.754  16.558  1.00  0.00     0.049 A 
ATOM     52  C   UNL     1       9.014  -3.608  15.268  1.00  0.00     0.074 A 
ATOM     53  C   UNL     1       7.298  -9.118  17.893  1.00  0.00     0.029 A 
ATOM     54  N   UNL     1       7.713  -7.453  16.480  1.00  0.00    -0.354 N 
ATOM     55  N   UNL     1       8.635  -4.779  15.722  1.00  0.00    -0.248 NA
ATOM     56  C   UNL     1       9.482  -2.679  16.305  1.00  0.00     0.031 C 
ATOM     57  C   UNL     1       7.761  -8.020  18.628  1.00  0.00     0.029 A 
ATOM     58  C   UNL     1       8.044  -6.991  17.744  1.00  0.00     0.049 A 
ATOM     59  H   UNL     1       7.801  -6.934  15.648  1.00  0.00     0.167 HD
ATOM     60  C   UNL     1       8.836  -4.734  17.097  1.00  0.00     0.074 A 
ATOM     61  C   UNL     1       9.394  -3.430  17.395  1.00  0.00     0.031 C 
ATOM     62  C   UNL     1       8.580  -5.685  18.030  1.00  0.00     0.031 A 
BRANCH  49  63
ATOM     63  C   UNL     1       6.218 -10.906  15.706  1.00  0.00    -0.014 A 
ATOM     64  C   UNL     1       6.917 -12.065  15.322  1.00  0.00     0.010 A 
ATOM     65  C   UNL     1       4.999 -11.043  16.395  1.00  0.00     0.010 A 
ATOM     66  C   UNL     1       6.389 -13.333  15.585  1.00  0.00     0.020 A 
ATOM     67  C   UNL     1       4.480 -12.309  16.684  1.00  0.00     0.020 A 
ATOM     68  C   UNL     1       5.171 -13.446  16.262  1.00  0.00     0.054 A 
BRANCH  68  69
ATOM     69  S   UNL     1       4.521 -15.104  16.609  1.00  0.00     0.124 S 
ATOM     70  O   UNL     1       4.071 -15.534  15.288  1.00  0.00    -0.237 OA
ATOM     71  O   UNL     1       5.689 -15.804  17.134  1.00  0.00    -0.237 OA
ATOM     72  O   UNL     1       3.455 -14.862  17.581  1.00  0.00    -0.744 OA
ENDBRANCH  68  69
ENDBRANCH  49  63
BRANCH  50  73
ATOM     73  C   UNL     1       9.518  -1.734  13.533  1.00  0.00    -0.014 A 
ATOM     74  C   UNL     1      10.874  -1.392  13.671  1.00  0.00     0.010 A 
ATOM     75  C   UNL     1       8.610  -0.762  13.076  1.00  0.00     0.010 A 
ATOM     76  C   UNL     1      11.312  -0.098  13.375  1.00  0.00     0.020 A 
ATOM     77  C   UNL     1       9.048   0.525  12.752  1.00  0.00     0.020 A 
ATOM     78  C   UNL     1      10.396   0.852  12.915  1.00  0.00     0.054 A 
BRANCH  78  79
ATOM     79  S   UNL     1      10.993   2.510  12.481  1.00  0.00     0.124 S 
ATOM     80  O   UNL     1      11.208   3.108  13.795  1.00  0.00    -0.237 OA
ATOM     81  O   UNL     1      12.200   2.220  11.711  1.00  0.00    -0.237 OA
ATOM     82  O   UNL     1       9.892   3.077  11.706  1.00  0.00    -0.744 OA
ENDBRANCH  78  79
ENDBRANCH  50  73
BRANCH  62  83
ATOM     83  C   UNL     1       8.920  -5.350  19.459  1.00  0.00    -0.014 A 
ATOM     84  C   UNL     1       8.173  -4.403  20.183  1.00  0.00     0.010 A 
ATOM     85  C   UNL     1       9.999  -5.997  20.088  1.00  0.00     0.010 A 
ATOM     86  C   UNL     1       8.533  -4.069  21.491  1.00  0.00     0.020 A 
ATOM     87  C   UNL     1      10.344  -5.687  21.406  1.00  0.00     0.020 A 
ATOM     88  C   UNL     1       9.622  -4.708  22.091  1.00  0.00     0.054 A 
BRANCH  88  89
ATOM     89  S   UNL     1      10.072  -4.259  23.790  1.00  0.00     0.124 S 
ATOM     90  O   UNL     1      10.730  -2.969  23.599  1.00  0.00    -0.237 OA
ATOM     91  O   UNL     1       8.777  -4.210  24.465  1.00  0.00    -0.237 OA
ATOM     92  O   UNL     1      10.948  -5.349  24.215  1.00  0.00    -0.744 OA
ENDBRANCH  88  89
ENDBRANCH  62  83
ENDBRANCH  36  37
ENDBRANCH  28  31
ENDBRANCH  26  27
ENDBRANCH  25  26
ENDBRANCH  24  25
ENDBRANCH  23  24
ENDBRANCH   1  23
TORSDOF 22
