REMARK SMILES O=C(NCCCCCCNC(=O)c1cn(C2C[NH+](Cc3cc(F)ccc3F)C2)nn1)c1ccc(-c2c3nc(c(-c4ccc(S(=O)(=O)[O-])cc4)c4ccc([nH]4)c(-c4ccc(S(=O)(=O)[O-])cc4)c4nc(c(-c5ccc(S(=O)(=O)[O-])cc5)c5ccc2[nH]5)C=C4)C=C3)cc1
REMARK SMILES IDX 6 1 5 2 4 3 3 4 1 5 2 6 31 8 32 9 90 10 33 11 89 12 34 13
REMARK SMILES IDX 35 14 36 15 83 16 37 17 88 18 82 19 84 20 38 21 87 22 81 23
REMARK SMILES IDX 80 24 39 26 69 27 50 28 68 29 51 30 54 31 67 32 85 33 52 34
REMARK SMILES IDX 53 35 66 37 86 38 55 39 40 40 41 41 49 42 42 43 48 44 43 45
REMARK SMILES IDX 44 46 45 47 46 48 47 49 70 50 71 51 79 52 72 53 78 54 73 55
REMARK SMILES IDX 74 56 75 57 76 58 77 59 56 60 57 61 65 62 58 63 64 64 59 65
REMARK SMILES IDX 60 66 61 67 62 68 63 69 7 70 8 71 9 72 10 73 11 74 12 76
REMARK SMILES IDX 13 77 14 78 30 79 15 80 29 81 16 82 17 83 28 84 18 85 19 87
REMARK SMILES IDX 20 88 21 89 26 90 22 91 25 92 27 93 23 94 24 95
REMARK H PARENT 3 7 84 25 54 36 10 75 18 86
REMARK Flexibility Score: inf
ROOT
ATOM      1  C   UNL     1       4.345   1.873  -2.922  1.00  0.00     0.002 C 
ENDROOT
BRANCH   1   2
ATOM      2  C   UNL     1       4.857   0.680  -2.105  1.00  0.00     0.021 C 
BRANCH   2   3
ATOM      3  C   UNL     1       4.658   0.811  -0.595  1.00  0.00     0.116 C 
BRANCH   3   4
ATOM      4  N   UNL     1       3.275   0.961  -0.200  1.00  0.00    -0.352 N 
ATOM      5  O   UNL     1       1.244   0.606   0.573  1.00  0.00    -0.269 OA
ATOM      6  C   UNL     1       2.267   0.093   0.110  1.00  0.00     0.251 C 
ATOM      7  H   UNL     1       2.997   1.903  -0.141  1.00  0.00     0.163 HD
BRANCH   6   8
ATOM      8  C   UNL     1       2.287  -1.375  -0.138  1.00  0.00     0.039 A 
ATOM      9  C   UNL     1       3.385  -2.127  -0.560  1.00  0.00     0.014 A 
ATOM     10  C   UNL     1       1.048  -2.028   0.019  1.00  0.00     0.014 A 
ATOM     11  C   UNL     1       3.228  -3.465  -0.915  1.00  0.00     0.010 A 
ATOM     12  C   UNL     1       0.886  -3.362  -0.327  1.00  0.00     0.010 A 
ATOM     13  C   UNL     1       1.969  -4.067  -0.839  1.00  0.00    -0.014 A 
BRANCH  13  14
ATOM     14  C   UNL     1       1.854  -5.491  -1.141  1.00  0.00     0.031 A 
ATOM     15  C   UNL     1       2.581  -6.368  -0.177  1.00  0.00     0.074 A 
ATOM     16  C   UNL     1       1.046  -5.988  -2.101  1.00  0.00     0.049 A 
ATOM     17  N   UNL     1       3.589  -7.144  -0.408  1.00  0.00    -0.248 NA
ATOM     18  C   UNL     1       2.235  -6.253   1.251  1.00  0.00     0.031 C 
ATOM     19  C   UNL     1       0.075  -5.263  -2.926  1.00  0.00     0.029 A 
ATOM     20  N   UNL     1       0.839  -7.284  -2.468  1.00  0.00    -0.354 N 
ATOM     21  C   UNL     1       3.865  -7.783   0.800  1.00  0.00     0.074 A 
ATOM     22  C   UNL     1       3.124  -7.074   1.810  1.00  0.00     0.031 C 
ATOM     23  C   UNL     1      -0.774  -6.147  -3.502  1.00  0.00     0.029 A 
ATOM     24  C   UNL     1      -0.325  -7.497  -3.204  1.00  0.00     0.049 A 
ATOM     25  H   UNL     1       1.461  -8.010  -2.233  1.00  0.00     0.167 HD
ATOM     26  C   UNL     1       4.486  -8.996   0.843  1.00  0.00     0.031 A 
ATOM     27  C   UNL     1      -0.907  -8.693  -3.494  1.00  0.00     0.031 A 
ATOM     28  C   UNL     1       5.141  -9.300  -0.402  1.00  0.00     0.049 A 
ATOM     29  C   UNL     1       0.135  -9.735  -3.331  1.00  0.00     0.074 A 
ATOM     30  C   UNL     1       6.150  -8.719  -1.143  1.00  0.00     0.029 A 
ATOM     31  N   UNL     1       4.489 -10.157  -1.257  1.00  0.00    -0.354 N 
ATOM     32  N   UNL     1       1.188  -9.817  -4.094  1.00  0.00    -0.248 NA
ATOM     33  C   UNL     1       0.249 -10.384  -2.035  1.00  0.00     0.031 C 
ATOM     34  C   UNL     1       5.741  -8.876  -2.500  1.00  0.00     0.029 A 
ATOM     35  C   UNL     1       4.554  -9.611  -2.511  1.00  0.00     0.049 A 
ATOM     36  H   UNL     1       4.054 -11.006  -1.012  1.00  0.00     0.167 HD
ATOM     37  C   UNL     1       2.227 -10.126  -3.229  1.00  0.00     0.074 A 
ATOM     38  C   UNL     1       1.574 -10.543  -1.987  1.00  0.00     0.031 C 
ATOM     39  C   UNL     1       3.511  -9.751  -3.504  1.00  0.00     0.031 A 
BRANCH  26  40
ATOM     40  C   UNL     1       4.125 -10.081   1.835  1.00  0.00    -0.014 A 
ATOM     41  C   UNL     1       4.783 -11.327   1.738  1.00  0.00     0.010 A 
ATOM     42  C   UNL     1       2.969 -10.035   2.640  1.00  0.00     0.010 A 
ATOM     43  C   UNL     1       4.245 -12.482   2.319  1.00  0.00     0.020 A 
ATOM     44  C   UNL     1       2.449 -11.172   3.260  1.00  0.00     0.020 A 
ATOM     45  C   UNL     1       3.067 -12.398   3.059  1.00  0.00     0.054 A 
BRANCH  45  46
ATOM     46  S   UNL     1       2.308 -13.914   3.690  1.00  0.00     0.124 S 
ATOM     47  O   UNL     1       1.933 -14.597   2.456  1.00  0.00    -0.237 OA
ATOM     48  O   UNL     1       3.404 -14.516   4.442  1.00  0.00    -0.237 OA
ATOM     49  O   UNL     1       1.195 -13.426   4.501  1.00  0.00    -0.744 OA
ENDBRANCH  45  46
ENDBRANCH  26  40
BRANCH  27  50
ATOM     50  C   UNL     1      -2.360  -9.023  -3.544  1.00  0.00    -0.014 A 
ATOM     51  C   UNL     1      -2.825 -10.241  -4.079  1.00  0.00     0.010 A 
ATOM     52  C   UNL     1      -3.273  -8.256  -2.792  1.00  0.00     0.010 A 
ATOM     53  C   UNL     1      -4.134 -10.698  -3.825  1.00  0.00     0.020 A 
ATOM     54  C   UNL     1      -4.578  -8.702  -2.537  1.00  0.00     0.020 A 
ATOM     55  C   UNL     1      -4.998  -9.931  -3.038  1.00  0.00     0.054 A 
BRANCH  55  56
ATOM     56  S   UNL     1      -6.626 -10.597  -2.567  1.00  0.00     0.124 S 
ATOM     57  O   UNL     1      -7.356 -10.557  -3.831  1.00  0.00    -0.237 OA
ATOM     58  O   UNL     1      -6.296 -11.929  -2.070  1.00  0.00    -0.237 OA
ATOM     59  O   UNL     1      -7.100  -9.660  -1.550  1.00  0.00    -0.744 OA
ENDBRANCH  55  56
ENDBRANCH  27  50
BRANCH  39  60
ATOM     60  C   UNL     1       3.837  -9.234  -4.885  1.00  0.00    -0.014 A 
ATOM     61  C   UNL     1       3.286  -8.061  -5.440  1.00  0.00     0.010 A 
ATOM     62  C   UNL     1       4.875  -9.879  -5.578  1.00  0.00     0.010 A 
ATOM     63  C   UNL     1       3.757  -7.560  -6.665  1.00  0.00     0.020 A 
ATOM     64  C   UNL     1       5.359  -9.377  -6.786  1.00  0.00     0.020 A 
ATOM     65  C   UNL     1       4.794  -8.223  -7.329  1.00  0.00     0.054 A 
BRANCH  65  66
ATOM     66  S   UNL     1       5.442  -7.547  -8.884  1.00  0.00     0.124 S 
ATOM     67  O   UNL     1       4.331  -7.752  -9.808  1.00  0.00    -0.237 OA
ATOM     68  O   UNL     1       5.727  -6.156  -8.539  1.00  0.00    -0.237 OA
ATOM     69  O   UNL     1       6.627  -8.363  -9.151  1.00  0.00    -0.744 OA
ENDBRANCH  65  66
ENDBRANCH  39  60
ENDBRANCH  13  14
ENDBRANCH   6   8
ENDBRANCH   3   4
ENDBRANCH   2   3
ENDBRANCH   1   2
BRANCH   1  70
ATOM     70  C   UNL     1       4.895   3.241  -2.505  1.00  0.00     0.002 C 
BRANCH  70  71
ATOM     71  C   UNL     1       6.422   3.358  -2.513  1.00  0.00     0.021 C 
BRANCH  71  72
ATOM     72  C   UNL     1       7.076   3.097  -3.869  1.00  0.00     0.116 C 
BRANCH  72  73
ATOM     73  N   UNL     1       6.678   4.085  -4.856  1.00  0.00    -0.351 N 
ATOM     74  C   UNL     1       7.458   4.956  -5.585  1.00  0.00     0.273 C 
ATOM     75  H   UNL     1       5.710   4.141  -5.030  1.00  0.00     0.163 HD
ATOM     76  O   UNL     1       6.919   5.883  -6.174  1.00  0.00    -0.267 OA
BRANCH  74  77
ATOM     77  C   UNL     1       8.895   4.746  -5.601  1.00  0.00     0.170 A 
ATOM     78  C   UNL     1       9.599   3.568  -5.778  1.00  0.00     0.145 A 
ATOM     79  N   UNL     1       9.784   5.775  -5.424  1.00  0.00    -0.125 NA
ATOM     80  N   UNL     1      10.893   3.927  -5.543  1.00  0.00    -0.237 N 
ATOM     81  N   UNL     1      11.003   5.260  -5.384  1.00  0.00    -0.066 NA
BRANCH  80  82
ATOM     82  C   UNL     1      12.012   3.094  -5.249  1.00  0.00     0.218 C 
ATOM     83  C   UNL     1      11.689   1.839  -4.390  1.00  0.00     0.296 C 
ATOM     84  C   UNL     1      12.426   2.057  -6.315  1.00  0.00     0.296 C 
ATOM     85  N   UNL     1      12.607   1.053  -5.236  1.00  0.00    -0.327 N 
ATOM     86  H   UNL     1      12.447   0.064  -5.424  1.00  0.00     0.348 HD
BRANCH  85  87
ATOM     87  C   UNL     1      13.983   0.925  -4.691  1.00  0.00     0.302 C 
BRANCH  87  88
ATOM     88  C   UNL     1      14.800   2.168  -4.397  1.00  0.00     0.045 A 
ATOM     89  C   UNL     1      14.550   2.965  -3.265  1.00  0.00     0.051 A 
ATOM     90  C   UNL     1      15.776   2.603  -5.301  1.00  0.00     0.132 A 
ATOM     91  C   UNL     1      15.149   4.218  -3.147  1.00  0.00     0.123 A 
ATOM     92  C   UNL     1      16.410   3.837  -5.154  1.00  0.00     0.043 A 
ATOM     93  F   UNL     1      16.096   1.845  -6.359  1.00  0.00    -0.206 F 
ATOM     94  F   UNL     1      14.795   5.021  -2.136  1.00  0.00    -0.207 F 
ATOM     95  C   UNL     1      16.066   4.667  -4.089  1.00  0.00     0.042 A 
ENDBRANCH  87  88
ENDBRANCH  85  87
ENDBRANCH  80  82
ENDBRANCH  74  77
ENDBRANCH  72  73
ENDBRANCH  71  72
ENDBRANCH  70  71
ENDBRANCH   1  70
TORSDOF 19
