REMARK SMILES O=C(NCCCCCCNC(=O)c1ccc(-c2c3nc(c(-c4ccc(S(=O)(=O)[O-])cc4)c4ccc([nH]4)c(-c4ccc(S(=O)(=O)[O-])cc4)c4nc(c(-c5ccc(S(=O)(=O)[O-])cc5)c5ccc2[nH]5)C=C4)C=C3)cc1)C1=C(C(=O)NCCC2=CCCCC2)CCCC1
REMARK SMILES IDX 6 1 5 2 4 3 3 4 1 5 2 6 73 8 74 9 89 10 86 11 88 12 87 13
REMARK SMILES IDX 75 14 76 15 77 16 78 18 79 19 80 20 81 21 85 22 82 23 84 24
REMARK SMILES IDX 83 25 7 26 8 27 9 28 10 29 11 30 12 32 13 33 14 34 72 35
REMARK SMILES IDX 15 36 71 37 16 38 17 39 18 40 65 41 19 42 70 43 64 44 66 45
REMARK SMILES IDX 20 46 69 47 63 48 62 49 21 51 51 52 32 53 50 54 33 55 36 56
REMARK SMILES IDX 49 57 67 58 34 59 35 60 48 62 68 63 37 64 22 65 23 66 31 67
REMARK SMILES IDX 24 68 30 69 25 70 26 71 27 72 28 73 29 74 52 75 53 76 61 77
REMARK SMILES IDX 54 78 60 79 55 80 56 81 57 82 58 83 59 84 38 85 39 86 47 87
REMARK SMILES IDX 40 88 46 89 41 90 42 91 43 92 44 93 45 94
REMARK H PARENT 3 7 77 17 10 31 66 50 36 61
REMARK Flexibility Score: inf
ROOT
ATOM      1  C   UNL     1       4.432   1.279   3.694  1.00  0.00     0.002 C 
ENDROOT
BRANCH   1   2
ATOM      2  C   UNL     1       5.082   1.825   2.412  1.00  0.00     0.021 C 
BRANCH   2   3
ATOM      3  C   UNL     1       4.615   1.138   1.134  1.00  0.00     0.116 C 
BRANCH   3   4
ATOM      4  N   UNL     1       3.217   1.419   0.873  1.00  0.00    -0.352 N 
ATOM      5  O   UNL     1       1.285   1.528  -0.234  1.00  0.00    -0.270 OA
ATOM      6  C   UNL     1       2.473   1.208  -0.239  1.00  0.00     0.247 C 
ATOM      7  H   UNL     1       2.730   1.828   1.625  1.00  0.00     0.163 HD
BRANCH   6   8
ATOM      8  C   UNL     1       3.098   0.670  -1.475  1.00  0.00     0.026 C 
ATOM      9  C   UNL     1       3.809  -0.474  -1.598  1.00  0.00     0.026 C 
ATOM     10  C   UNL     1       2.789   1.576  -2.653  1.00  0.00     0.042 C 
ATOM     11  C   UNL     1       4.600  -0.734  -2.878  1.00  0.00     0.042 C 
ATOM     12  C   UNL     1       3.305   1.074  -3.997  1.00  0.00     0.005 C 
ATOM     13  C   UNL     1       4.683   0.469  -3.822  1.00  0.00     0.005 C 
BRANCH   9  14
ATOM     14  C   UNL     1       4.035  -1.570  -0.587  1.00  0.00     0.247 C 
ATOM     15  O   UNL     1       5.122  -2.150  -0.567  1.00  0.00    -0.270 OA
ATOM     16  N   UNL     1       3.069  -2.032   0.253  1.00  0.00    -0.352 N 
ATOM     17  H   UNL     1       3.298  -2.873   0.712  1.00  0.00     0.163 HD
BRANCH  16  18
ATOM     18  C   UNL     1       1.764  -1.502   0.588  1.00  0.00     0.120 C 
BRANCH  18  19
ATOM     19  C   UNL     1       0.768  -2.513   1.151  1.00  0.00     0.052 C 
BRANCH  19  20
ATOM     20  C   UNL     1       1.122  -3.100   2.500  1.00  0.00    -0.072 C 
ATOM     21  C   UNL     1       1.471  -4.394   2.615  1.00  0.00    -0.028 C 
ATOM     22  C   UNL     1       0.960  -2.207   3.714  1.00  0.00     0.031 C 
ATOM     23  C   UNL     1       1.675  -5.088   3.928  1.00  0.00     0.027 C 
ATOM     24  C   UNL     1       1.444  -2.840   5.024  1.00  0.00     0.005 C 
ATOM     25  C   UNL     1       1.069  -4.316   5.099  1.00  0.00     0.004 C 
ENDBRANCH  19  20
ENDBRANCH  18  19
ENDBRANCH  16  18
ENDBRANCH   9  14
ENDBRANCH   6   8
ENDBRANCH   3   4
ENDBRANCH   2   3
ENDBRANCH   1   2
BRANCH   1  26
ATOM     26  C   UNL     1       4.790  -0.164   4.066  1.00  0.00     0.002 C 
BRANCH  26  27
ATOM     27  C   UNL     1       6.285  -0.472   4.161  1.00  0.00     0.021 C 
BRANCH  27  28
ATOM     28  C   UNL     1       7.112   0.516   4.975  1.00  0.00     0.116 C 
BRANCH  28  29
ATOM     29  N   UNL     1       6.698   0.609   6.365  1.00  0.00    -0.352 N 
ATOM     30  C   UNL     1       7.489   0.727   7.484  1.00  0.00     0.251 C 
ATOM     31  H   UNL     1       5.728   0.583   6.527  1.00  0.00     0.163 HD
ATOM     32  O   UNL     1       6.985   0.695   8.603  1.00  0.00    -0.269 OA
BRANCH  30  33
ATOM     33  C   UNL     1       8.955   0.853   7.329  1.00  0.00     0.039 A 
ATOM     34  C   UNL     1       9.784   0.025   8.089  1.00  0.00     0.014 A 
ATOM     35  C   UNL     1       9.508   1.754   6.414  1.00  0.00     0.014 A 
ATOM     36  C   UNL     1      11.166   0.054   7.883  1.00  0.00     0.010 A 
ATOM     37  C   UNL     1      10.877   1.727   6.157  1.00  0.00     0.010 A 
ATOM     38  C   UNL     1      11.721   0.878   6.890  1.00  0.00    -0.014 A 
BRANCH  38  39
ATOM     39  C   UNL     1      13.179   0.858   6.601  1.00  0.00     0.031 A 
ATOM     40  C   UNL     1      14.012   2.093   6.815  1.00  0.00     0.074 A 
ATOM     41  C   UNL     1      13.744  -0.255   6.090  1.00  0.00     0.049 A 
ATOM     42  N   UNL     1      15.284   2.281   6.576  1.00  0.00    -0.248 NA
ATOM     43  C   UNL     1      13.319   3.279   7.345  1.00  0.00     0.031 C 
ATOM     44  C   UNL     1      13.038  -1.504   5.793  1.00  0.00     0.029 A 
ATOM     45  N   UNL     1      15.041  -0.514   5.723  1.00  0.00    -0.354 N 
ATOM     46  C   UNL     1      15.542   3.604   6.916  1.00  0.00     0.074 A 
ATOM     47  C   UNL     1      14.282   4.188   7.321  1.00  0.00     0.031 C 
ATOM     48  C   UNL     1      13.913  -2.401   5.312  1.00  0.00     0.029 A 
ATOM     49  C   UNL     1      15.233  -1.782   5.226  1.00  0.00     0.049 A 
ATOM     50  H   UNL     1      15.767   0.146   5.808  1.00  0.00     0.167 HD
ATOM     51  C   UNL     1      16.723   4.268   6.915  1.00  0.00     0.031 A 
ATOM     52  C   UNL     1      16.340  -2.380   4.745  1.00  0.00     0.031 A 
ATOM     53  C   UNL     1      17.975   3.686   6.508  1.00  0.00     0.049 A 
ATOM     54  C   UNL     1      17.638  -1.618   4.734  1.00  0.00     0.074 A 
ATOM     55  C   UNL     1      19.233   4.261   6.510  1.00  0.00     0.029 A 
ATOM     56  N   UNL     1      18.127   2.395   6.021  1.00  0.00    -0.354 N 
ATOM     57  N   UNL     1      17.874  -0.387   5.123  1.00  0.00    -0.248 NA
ATOM     58  C   UNL     1      18.822  -2.330   4.233  1.00  0.00     0.031 C 
ATOM     59  C   UNL     1      20.137   3.339   5.972  1.00  0.00     0.029 A 
ATOM     60  C   UNL     1      19.454   2.165   5.697  1.00  0.00     0.049 A 
ATOM     61  H   UNL     1      17.399   1.740   5.921  1.00  0.00     0.167 HD
ATOM     62  C   UNL     1      19.237  -0.186   4.937  1.00  0.00     0.074 A 
ATOM     63  C   UNL     1      19.776  -1.427   4.419  1.00  0.00     0.031 C 
ATOM     64  C   UNL     1      19.976   0.926   5.177  1.00  0.00     0.031 A 
BRANCH  51  65
ATOM     65  C   UNL     1      16.709   5.708   7.363  1.00  0.00    -0.014 A 
ATOM     66  C   UNL     1      16.444   6.049   8.702  1.00  0.00     0.010 A 
ATOM     67  C   UNL     1      16.988   6.733   6.441  1.00  0.00     0.010 A 
ATOM     68  C   UNL     1      16.406   7.388   9.099  1.00  0.00     0.020 A 
ATOM     69  C   UNL     1      16.984   8.073   6.841  1.00  0.00     0.020 A 
ATOM     70  C   UNL     1      16.671   8.393   8.164  1.00  0.00     0.054 A 
BRANCH  70  71
ATOM     71  S   UNL     1      16.621  10.121   8.709  1.00  0.00     0.124 S 
ATOM     72  O   UNL     1      15.188  10.336   8.896  1.00  0.00    -0.237 OA
ATOM     73  O   UNL     1      17.417  10.094   9.934  1.00  0.00    -0.237 OA
ATOM     74  O   UNL     1      17.219  10.855   7.596  1.00  0.00    -0.744 OA
ENDBRANCH  70  71
ENDBRANCH  51  65
BRANCH  52  75
ATOM     75  C   UNL     1      16.266  -3.779   4.239  1.00  0.00    -0.014 A 
ATOM     76  C   UNL     1      16.875  -4.831   4.945  1.00  0.00     0.010 A 
ATOM     77  C   UNL     1      15.563  -4.068   3.055  1.00  0.00     0.010 A 
ATOM     78  C   UNL     1      16.794  -6.144   4.469  1.00  0.00     0.020 A 
ATOM     79  C   UNL     1      15.455  -5.383   2.592  1.00  0.00     0.020 A 
ATOM     80  C   UNL     1      16.080  -6.412   3.298  1.00  0.00     0.054 A 
BRANCH  80  81
ATOM     81  S   UNL     1      15.940  -8.130   2.732  1.00  0.00     0.124 S 
ATOM     82  O   UNL     1      17.288  -8.400   2.244  1.00  0.00    -0.237 OA
ATOM     83  O   UNL     1      15.555  -8.833   3.954  1.00  0.00    -0.237 OA
ATOM     84  O   UNL     1      14.902  -8.068   1.705  1.00  0.00    -0.744 OA
ENDBRANCH  80  81
ENDBRANCH  52  75
BRANCH  64  85
ATOM     85  C   UNL     1      21.457   0.846   4.912  1.00  0.00    -0.014 A 
ATOM     86  C   UNL     1      21.965   0.790   3.602  1.00  0.00     0.010 A 
ATOM     87  C   UNL     1      22.357   0.885   5.994  1.00  0.00     0.010 A 
ATOM     88  C   UNL     1      23.345   0.743   3.380  1.00  0.00     0.020 A 
ATOM     89  C   UNL     1      23.737   0.869   5.775  1.00  0.00     0.020 A 
ATOM     90  C   UNL     1      24.222   0.784   4.469  1.00  0.00     0.054 A 
BRANCH  90  91
ATOM     91  S   UNL     1      26.008   0.767   4.152  1.00  0.00     0.124 S 
ATOM     92  O   UNL     1      26.230  -0.614   3.733  1.00  0.00    -0.237 OA
ATOM     93  O   UNL     1      26.155   1.774   3.103  1.00  0.00    -0.237 OA
ATOM     94  O   UNL     1      26.593   1.129   5.441  1.00  0.00    -0.744 OA
ENDBRANCH  90  91
ENDBRANCH  64  85
ENDBRANCH  38  39
ENDBRANCH  30  33
ENDBRANCH  28  29
ENDBRANCH  27  28
ENDBRANCH  26  27
ENDBRANCH   1  26
TORSDOF 20
