REMARK SMILES CCS(=O)(=O)N[C@H]1C=C[C@@H](C(=O)NCCCCCCNC(=O)c2ccc(-c3c4nc(c(-c5ccc(S(=O)(=O)[O-])cc5)c5ccc([nH]5)c(-c5ccc(S(=O)(=O)[O-])cc5)c5nc(c(-c6ccc(S(=O)(=O)[O-])cc6)c6ccc3[nH]6)C=C5)C=C4)cc2)C1
REMARK SMILES IDX 16 1 15 2 14 3 13 4 11 5 12 6 10 8 7 9 8 10 83 11 9 12 6 13
REMARK SMILES IDX 3 15 4 16 5 17 2 18 1 19 17 20 18 21 19 22 20 23 21 24 22 26
REMARK SMILES IDX 23 27 24 28 82 29 25 30 81 31 26 32 27 33 28 34 75 35 29 36
REMARK SMILES IDX 80 37 74 38 76 39 30 40 79 41 73 42 72 43 31 45 61 46 42 47
REMARK SMILES IDX 60 48 43 49 46 50 59 51 77 52 44 53 45 54 58 56 78 57 47 58
REMARK SMILES IDX 32 59 33 60 41 61 34 62 40 63 35 64 36 65 37 66 38 67 39 68
REMARK SMILES IDX 62 69 63 70 71 71 64 72 70 73 65 74 66 75 67 76 68 77 69 78
REMARK SMILES IDX 48 79 49 80 57 81 50 82 56 83 51 84 52 85 53 86 54 87 55 88
REMARK H PARENT 13 7 6 14 20 25 76 44 46 55
REMARK Flexibility Score: inf
ROOT
ATOM      1  C   UNL     1       0.285  -0.030   3.928  1.00  0.00     0.002 C 
ENDROOT
BRANCH   1   2
ATOM      2  C   UNL     1       0.781   0.494   2.579  1.00  0.00     0.021 C 
BRANCH   2   3
ATOM      3  C   UNL     1       2.248   0.217   2.244  1.00  0.00     0.116 C 
BRANCH   3   4
ATOM      4  N   UNL     1       2.414  -1.141   1.764  1.00  0.00    -0.356 N 
ATOM      5  C   UNL     1       3.062  -1.659   0.691  1.00  0.00     0.226 C 
ATOM      6  O   UNL     1       2.892  -2.870   0.493  1.00  0.00    -0.274 OA
ATOM      7  H   UNL     1       1.971  -1.817   2.326  1.00  0.00     0.163 HD
BRANCH   5   8
ATOM      8  C   UNL     1       3.950  -0.864  -0.281  1.00  0.00     0.103 C 
ATOM      9  C   UNL     1       3.549   1.342  -1.333  1.00  0.00     0.093 C 
ATOM     10  C   UNL     1       4.665   1.367  -0.330  1.00  0.00    -0.011 C 
ATOM     11  C   UNL     1       3.218  -0.152  -1.427  1.00  0.00     0.042 C 
ATOM     12  C   UNL     1       4.851   0.188   0.273  1.00  0.00    -0.016 C 
BRANCH   9  13
ATOM     13  N   UNL     1       2.468   2.150  -0.752  1.00  0.00    -0.208 NA
ATOM     14  H   UNL     1       2.159   1.675   0.096  1.00  0.00     0.141 HD
BRANCH  13  15
ATOM     15  S   UNL     1       1.097   2.448  -1.683  1.00  0.00     0.211 S 
ATOM     16  O   UNL     1       1.200   1.720  -2.929  1.00  0.00    -0.212 OA
ATOM     17  O   UNL     1       0.951   3.884  -1.655  1.00  0.00    -0.212 OA
BRANCH  15  18
ATOM     18  C   UNL     1      -0.205   1.758  -0.668  1.00  0.00     0.150 C 
ATOM     19  C   UNL     1      -0.362   0.258  -0.786  1.00  0.00     0.022 C 
ENDBRANCH  15  18
ENDBRANCH  13  15
ENDBRANCH   9  13
ENDBRANCH   5   8
ENDBRANCH   3   4
ENDBRANCH   2   3
ENDBRANCH   1   2
BRANCH   1  20
ATOM     20  C   UNL     1       0.804   0.720   5.156  1.00  0.00     0.002 C 
BRANCH  20  21
ATOM     21  C   UNL     1       0.674   2.245   5.107  1.00  0.00     0.021 C 
BRANCH  21  22
ATOM     22  C   UNL     1      -0.715   2.777   4.758  1.00  0.00     0.116 C 
BRANCH  22  23
ATOM     23  N   UNL     1      -1.710   2.417   5.752  1.00  0.00    -0.352 N 
ATOM     24  C   UNL     1      -2.438   3.229   6.587  1.00  0.00     0.251 C 
ATOM     25  H   UNL     1      -1.889   1.453   5.840  1.00  0.00     0.163 HD
ATOM     26  O   UNL     1      -3.080   2.741   7.512  1.00  0.00    -0.269 OA
BRANCH  24  27
ATOM     27  C   UNL     1      -2.431   4.694   6.379  1.00  0.00     0.039 A 
ATOM     28  C   UNL     1      -2.240   5.534   7.478  1.00  0.00     0.014 A 
ATOM     29  C   UNL     1      -2.623   5.236   5.104  1.00  0.00     0.014 A 
ATOM     30  C   UNL     1      -2.185   6.918   7.290  1.00  0.00     0.010 A 
ATOM     31  C   UNL     1      -2.495   6.609   4.909  1.00  0.00     0.010 A 
ATOM     32  C   UNL     1      -2.281   7.466   6.000  1.00  0.00    -0.014 A 
BRANCH  32  33
ATOM     33  C   UNL     1      -2.167   8.931   5.772  1.00  0.00     0.031 A 
ATOM     34  C   UNL     1      -3.333   9.700   5.210  1.00  0.00     0.074 A 
ATOM     35  C   UNL     1      -0.998   9.557   6.012  1.00  0.00     0.049 A 
ATOM     36  N   UNL     1      -3.404  10.964   4.877  1.00  0.00    -0.248 NA
ATOM     37  C   UNL     1      -4.575   8.947   4.972  1.00  0.00     0.031 C 
ATOM     38  C   UNL     1       0.214   8.920   6.532  1.00  0.00     0.029 A 
ATOM     39  N   UNL     1      -0.633  10.870   5.842  1.00  0.00    -0.354 N 
ATOM     40  C   UNL     1      -4.687  11.152   4.376  1.00  0.00     0.074 A 
ATOM     41  C   UNL     1      -5.343   9.864   4.402  1.00  0.00     0.031 C 
ATOM     42  C   UNL     1       1.178   9.846   6.661  1.00  0.00     0.029 A 
ATOM     43  C   UNL     1       0.673  11.131   6.187  1.00  0.00     0.049 A 
ATOM     44  H   UNL     1      -1.249  11.561   5.505  1.00  0.00     0.167 HD
ATOM     45  C   UNL     1      -5.272  12.297   3.949  1.00  0.00     0.031 A 
ATOM     46  C   UNL     1       1.389  12.270   6.117  1.00  0.00     0.031 A 
ATOM     47  C   UNL     1      -4.614  13.577   3.925  1.00  0.00     0.049 A 
ATOM     48  C   UNL     1       0.728  13.522   5.606  1.00  0.00     0.074 A 
ATOM     49  C   UNL     1      -5.136  14.804   3.554  1.00  0.00     0.029 A 
ATOM     50  N   UNL     1      -3.292  13.797   4.281  1.00  0.00    -0.354 N 
ATOM     51  N   UNL     1      -0.505  13.692   5.192  1.00  0.00    -0.248 NA
ATOM     52  C   UNL     1       1.551  14.738   5.563  1.00  0.00     0.031 C 
ATOM     53  C   UNL     1      -4.112  15.753   3.623  1.00  0.00     0.029 A 
ATOM     54  C   UNL     1      -2.972  15.134   4.110  1.00  0.00     0.049 A 
ATOM     55  H   UNL     1      -2.672  13.105   4.606  1.00  0.00     0.167 HD
ATOM     56  C   UNL     1      -0.615  15.042   4.873  1.00  0.00     0.074 A 
ATOM     57  C   UNL     1       0.673  15.643   5.154  1.00  0.00     0.031 C 
ATOM     58  C   UNL     1      -1.687  15.722   4.397  1.00  0.00     0.031 A 
BRANCH  45  59
ATOM     59  C   UNL     1      -6.695  12.214   3.456  1.00  0.00    -0.014 A 
ATOM     60  C   UNL     1      -7.758  11.938   4.336  1.00  0.00     0.010 A 
ATOM     61  C   UNL     1      -6.980  12.462   2.100  1.00  0.00     0.010 A 
ATOM     62  C   UNL     1      -9.071  11.868   3.862  1.00  0.00     0.020 A 
ATOM     63  C   UNL     1      -8.295  12.427   1.628  1.00  0.00     0.020 A 
ATOM     64  C   UNL     1      -9.331  12.113   2.510  1.00  0.00     0.054 A 
BRANCH  64  65
ATOM     65  S   UNL     1     -11.048  12.040   1.930  1.00  0.00     0.124 S 
ATOM     66  O   UNL     1     -11.330  10.608   2.006  1.00  0.00    -0.237 OA
ATOM     67  O   UNL     1     -11.749  12.870   2.905  1.00  0.00    -0.237 OA
ATOM     68  O   UNL     1     -10.982  12.590   0.578  1.00  0.00    -0.744 OA
ENDBRANCH  64  65
ENDBRANCH  45  59
BRANCH  46  69
ATOM     69  C   UNL     1       2.817  12.280   6.545  1.00  0.00    -0.014 A 
ATOM     70  C   UNL     1       3.215  12.981   7.697  1.00  0.00     0.010 A 
ATOM     71  C   UNL     1       3.787  11.580   5.805  1.00  0.00     0.010 A 
ATOM     72  C   UNL     1       4.557  12.999   8.089  1.00  0.00     0.020 A 
ATOM     73  C   UNL     1       5.124  11.567   6.211  1.00  0.00     0.020 A 
ATOM     74  C   UNL     1       5.503  12.287   7.345  1.00  0.00     0.054 A 
BRANCH  74  75
ATOM     75  S   UNL     1       7.230  12.284   7.901  1.00  0.00     0.124 S 
ATOM     76  O   UNL     1       7.649  13.649   7.602  1.00  0.00    -0.237 OA
ATOM     77  O   UNL     1       7.102  11.956   9.319  1.00  0.00    -0.237 OA
ATOM     78  O   UNL     1       7.850  11.244   7.082  1.00  0.00    -0.744 OA
ENDBRANCH  74  75
ENDBRANCH  46  69
BRANCH  58  79
ATOM     79  C   UNL     1      -1.538  17.208   4.193  1.00  0.00    -0.014 A 
ATOM     80  C   UNL     1      -0.741  17.733   3.161  1.00  0.00     0.010 A 
ATOM     81  C   UNL     1      -2.262  18.091   5.015  1.00  0.00     0.010 A 
ATOM     82  C   UNL     1      -0.647  19.116   2.975  1.00  0.00     0.020 A 
ATOM     83  C   UNL     1      -2.198  19.472   4.811  1.00  0.00     0.020 A 
ATOM     84  C   UNL     1      -1.379  19.976   3.800  1.00  0.00     0.054 A 
BRANCH  84  85
ATOM     85  S   UNL     1      -1.278  21.763   3.506  1.00  0.00     0.124 S 
ATOM     86  O   UNL     1       0.074  22.071   3.962  1.00  0.00    -0.237 OA
ATOM     87  O   UNL     1      -1.494  21.861   2.064  1.00  0.00    -0.237 OA
ATOM     88  O   UNL     1      -2.353  22.312   4.329  1.00  0.00    -0.744 OA
ENDBRANCH  84  85
ENDBRANCH  58  79
ENDBRANCH  32  33
ENDBRANCH  24  27
ENDBRANCH  22  23
ENDBRANCH  21  22
ENDBRANCH  20  21
ENDBRANCH   1  20
TORSDOF 19
