REMARK SMILES CCN(CC(C)(C)O)C(=O)N1CCC(OCC(=O)NCCCCCCNC(=O)c2ccc(-c3c4nc(c(-c5ccc(S(=O)(=O)[O-])cc5)c5ccc([nH]5)c(-c5ccc(S(=O)(=O)[O-])cc5)c5nc(c(-c6ccc(S(=O)(=O)[O-])cc6)c6ccc3[nH]6)C=C5)C=C4)cc2)CC1
REMARK SMILES IDX 21 1 20 2 19 3 17 4 18 5 16 7 15 8 14 9 9 10 10 11 11 12
REMARK SMILES IDX 12 13 90 14 13 15 89 16 3 17 2 18 1 19 4 20 5 21 6 22 7 23
REMARK SMILES IDX 8 24 22 26 23 27 24 28 25 29 26 30 27 31 28 33 29 34 30 35
REMARK SMILES IDX 88 36 31 37 87 38 32 39 33 40 34 41 81 42 35 43 86 44 80 45
REMARK SMILES IDX 82 46 36 47 85 48 79 49 78 50 37 52 67 53 48 54 66 55 49 56
REMARK SMILES IDX 52 57 65 58 83 59 50 60 51 61 64 63 84 64 53 65 38 66 39 67
REMARK SMILES IDX 47 68 40 69 46 70 41 71 42 72 43 73 44 74 45 75 68 76 69 77
REMARK SMILES IDX 77 78 70 79 76 80 71 81 72 82 73 83 74 84 75 85 54 86 55 87
REMARK SMILES IDX 63 88 56 89 62 90 57 91 58 92 59 93 60 94 61 95
REMARK H PARENT 19 6 8 25 26 32 82 51 52 62
REMARK Flexibility Score: inf
ROOT
ATOM      1  C   UNL     1       4.266  -9.207  -2.805  1.00  0.00     0.021 C 
ENDROOT
BRANCH   1   2
ATOM      2  C   UNL     1       5.675  -8.621  -2.952  1.00  0.00     0.116 C 
BRANCH   2   3
ATOM      3  N   UNL     1       5.681  -7.253  -3.432  1.00  0.00    -0.354 N 
ATOM      4  C   UNL     1       6.257  -6.144  -2.881  1.00  0.00     0.246 C 
ATOM      5  O   UNL     1       6.259  -5.101  -3.539  1.00  0.00    -0.272 OA
ATOM      6  H   UNL     1       5.201  -7.101  -4.277  1.00  0.00     0.163 HD
BRANCH   4   7
ATOM      7  C   UNL     1       6.898  -6.207  -1.483  1.00  0.00     0.260 C 
BRANCH   7   8
ATOM      8  O   UNL     1       6.164  -6.720  -0.387  1.00  0.00    -0.368 OA
BRANCH   8   9
ATOM      9  C   UNL     1       5.064  -5.960   0.113  1.00  0.00     0.122 C 
ATOM     10  C   UNL     1       2.607  -2.716  -0.226  1.00  0.00     0.320 C 
ATOM     11  O   UNL     1       3.365  -1.742  -0.226  1.00  0.00    -0.248 OA
ATOM     12  N   UNL     1       3.038  -3.908   0.326  1.00  0.00    -0.324 N 
ATOM     13  C   UNL     1       4.161  -3.912   1.269  1.00  0.00     0.124 C 
ATOM     14  C   UNL     1       2.728  -5.197  -0.244  1.00  0.00     0.124 C 
ATOM     15  C   UNL     1       5.415  -4.582   0.689  1.00  0.00     0.054 C 
ATOM     16  C   UNL     1       3.939  -5.819  -0.897  1.00  0.00     0.054 C 
BRANCH  10  17
ATOM     17  N   UNL     1       1.305  -2.625  -0.734  1.00  0.00    -0.322 N 
BRANCH  17  18
ATOM     18  C   UNL     1       0.939  -1.307  -1.276  1.00  0.00     0.118 C 
ATOM     19  C   UNL     1       0.814  -0.223  -0.203  1.00  0.00     0.027 C 
ENDBRANCH  17  18
BRANCH  17  20
ATOM     20  C   UNL     1       0.166  -3.534  -0.433  1.00  0.00     0.155 C 
BRANCH  20  21
ATOM     21  C   UNL     1      -0.591  -4.216  -1.639  1.00  0.00     0.077 C 
ATOM     22  C   UNL     1       0.250  -5.120  -2.551  1.00  0.00     0.043 C 
ATOM     23  C   UNL     1      -1.734  -5.068  -1.062  1.00  0.00     0.043 C 
BRANCH  21  24
ATOM     24  O   UNL     1      -1.214  -3.214  -2.455  1.00  0.00    -0.389 OA
ATOM     25  H   UNL     1      -0.532  -2.646  -2.845  1.00  0.00     0.211 HD
ENDBRANCH  21  24
ENDBRANCH  20  21
ENDBRANCH  17  20
ENDBRANCH  10  17
ENDBRANCH   8   9
ENDBRANCH   7   8
ENDBRANCH   4   7
ENDBRANCH   2   3
ENDBRANCH   1   2
BRANCH   1  26
ATOM     26  C   UNL     1       3.364  -9.103  -4.041  1.00  0.00     0.002 C 
BRANCH  26  27
ATOM     27  C   UNL     1       3.901  -9.771  -5.310  1.00  0.00     0.002 C 
BRANCH  27  28
ATOM     28  C   UNL     1       4.302 -11.241  -5.162  1.00  0.00     0.021 C 
BRANCH  28  29
ATOM     29  C   UNL     1       3.203 -12.174  -4.662  1.00  0.00     0.116 C 
BRANCH  29  30
ATOM     30  N   UNL     1       2.100 -12.289  -5.600  1.00  0.00    -0.352 N 
ATOM     31  C   UNL     1       1.511 -13.412  -6.130  1.00  0.00     0.251 C 
ATOM     32  H   UNL     1       1.717 -11.434  -5.902  1.00  0.00     0.163 HD
ATOM     33  O   UNL     1       0.694 -13.292  -7.039  1.00  0.00    -0.269 OA
BRANCH  31  34
ATOM     34  C   UNL     1       1.869 -14.763  -5.634  1.00  0.00     0.039 A 
ATOM     35  C   UNL     1       2.043 -15.791  -6.564  1.00  0.00     0.014 A 
ATOM     36  C   UNL     1       2.007 -15.032  -4.269  1.00  0.00     0.014 A 
ATOM     37  C   UNL     1       2.410 -17.068  -6.131  1.00  0.00     0.010 A 
ATOM     38  C   UNL     1       2.440 -16.290  -3.843  1.00  0.00     0.010 A 
ATOM     39  C   UNL     1       2.645 -17.323  -4.769  1.00  0.00    -0.014 A 
BRANCH  39  40
ATOM     40  C   UNL     1       3.130 -18.656  -4.322  1.00  0.00     0.031 A 
ATOM     41  C   UNL     1       2.284 -19.531  -3.435  1.00  0.00     0.074 A 
ATOM     42  C   UNL     1       4.358 -19.071  -4.696  1.00  0.00     0.049 A 
ATOM     43  N   UNL     1       2.538 -20.733  -2.983  1.00  0.00    -0.248 NA
ATOM     44  C   UNL     1       0.999 -18.979  -2.979  1.00  0.00     0.031 C 
ATOM     45  C   UNL     1       5.300 -18.297  -5.509  1.00  0.00     0.029 A 
ATOM     46  N   UNL     1       5.022 -20.247  -4.450  1.00  0.00    -0.354 N 
ATOM     47  C   UNL     1       1.451 -21.080  -2.188  1.00  0.00     0.074 A 
ATOM     48  C   UNL     1       0.560 -19.939  -2.177  1.00  0.00     0.031 C 
ATOM     49  C   UNL     1       6.401 -19.033  -5.726  1.00  0.00     0.029 A 
ATOM     50  C   UNL     1       6.261 -20.315  -5.044  1.00  0.00     0.049 A 
ATOM     51  H   UNL     1       4.648 -20.972  -3.900  1.00  0.00     0.167 HD
ATOM     52  C   UNL     1       1.206 -22.246  -1.542  1.00  0.00     0.031 A 
ATOM     53  C   UNL     1       7.182 -21.299  -5.046  1.00  0.00     0.031 A 
ATOM     54  C   UNL     1       2.092 -23.381  -1.555  1.00  0.00     0.049 A 
ATOM     55  C   UNL     1       6.885 -22.585  -4.326  1.00  0.00     0.074 A 
ATOM     56  C   UNL     1       1.903 -24.626  -0.980  1.00  0.00     0.029 A 
ATOM     57  N   UNL     1       3.336 -23.410  -2.167  1.00  0.00    -0.354 N 
ATOM     58  N   UNL     1       5.814 -22.921  -3.647  1.00  0.00    -0.248 NA
ATOM     59  C   UNL     1       7.915 -23.630  -4.387  1.00  0.00     0.031 C 
ATOM     60  C   UNL     1       3.056 -25.389  -1.198  1.00  0.00     0.029 A 
ATOM     61  C   UNL     1       3.938 -24.641  -1.960  1.00  0.00     0.049 A 
ATOM     62  H   UNL     1       3.733 -22.665  -2.673  1.00  0.00     0.167 HD
ATOM     63  C   UNL     1       6.033 -24.225  -3.217  1.00  0.00     0.074 A 
ATOM     64  C   UNL     1       7.328 -24.622  -3.732  1.00  0.00     0.031 C 
ATOM     65  C   UNL     1       5.234 -25.021  -2.464  1.00  0.00     0.031 A 
BRANCH  52  66
ATOM     66  C   UNL     1      -0.078 -22.351  -0.758  1.00  0.00    -0.014 A 
ATOM     67  C   UNL     1      -1.324 -22.410  -1.408  1.00  0.00     0.010 A 
ATOM     68  C   UNL     1      -0.037 -22.438   0.646  1.00  0.00     0.010 A 
ATOM     69  C   UNL     1      -2.506 -22.508  -0.669  1.00  0.00     0.020 A 
ATOM     70  C   UNL     1      -1.215 -22.565   1.388  1.00  0.00     0.020 A 
ATOM     71  C   UNL     1      -2.444 -22.581   0.726  1.00  0.00     0.054 A 
BRANCH  71  72
ATOM     72  S   UNL     1      -3.994 -22.724   1.659  1.00  0.00     0.124 S 
ATOM     73  O   UNL     1      -4.548 -21.379   1.529  1.00  0.00    -0.237 OA
ATOM     74  O   UNL     1      -4.709 -23.770   0.933  1.00  0.00    -0.237 OA
ATOM     75  O   UNL     1      -3.557 -23.090   3.004  1.00  0.00    -0.744 OA
ENDBRANCH  71  72
ENDBRANCH  52  66
BRANCH  53  76
ATOM     76  C   UNL     1       8.464 -21.111  -5.779  1.00  0.00    -0.014 A 
ATOM     77  C   UNL     1       8.721 -21.823  -6.964  1.00  0.00     0.010 A 
ATOM     78  C   UNL     1       9.427 -20.202  -5.305  1.00  0.00     0.010 A 
ATOM     79  C   UNL     1       9.925 -21.641  -7.652  1.00  0.00     0.020 A 
ATOM     80  C   UNL     1      10.618 -19.996  -6.005  1.00  0.00     0.020 A 
ATOM     81  C   UNL     1      10.864 -20.726  -7.170  1.00  0.00     0.054 A 
BRANCH  81  82
ATOM     82  S   UNL     1      12.394 -20.462  -8.110  1.00  0.00     0.124 S 
ATOM     83  O   UNL     1      13.145 -21.677  -7.814  1.00  0.00    -0.237 OA
ATOM     84  O   UNL     1      11.904 -20.337  -9.481  1.00  0.00    -0.237 OA
ATOM     85  O   UNL     1      12.938 -19.233  -7.538  1.00  0.00    -0.744 OA
ENDBRANCH  81  82
ENDBRANCH  53  76
BRANCH  65  86
ATOM     86  C   UNL     1       5.731 -26.411  -2.167  1.00  0.00    -0.014 A 
ATOM     87  C   UNL     1       6.804 -26.629  -1.284  1.00  0.00     0.010 A 
ATOM     88  C   UNL     1       5.096 -27.518  -2.759  1.00  0.00     0.010 A 
ATOM     89  C   UNL     1       7.262 -27.925  -1.034  1.00  0.00     0.020 A 
ATOM     90  C   UNL     1       5.532 -28.818  -2.488  1.00  0.00     0.020 A 
ATOM     91  C   UNL     1       6.625 -29.012  -1.642  1.00  0.00     0.054 A 
BRANCH  91  92
ATOM     92  S   UNL     1       7.225 -30.686  -1.286  1.00  0.00     0.124 S 
ATOM     93  O   UNL     1       8.462 -30.736  -2.061  1.00  0.00    -0.237 OA
ATOM     94  O   UNL     1       7.393 -30.666   0.165  1.00  0.00    -0.237 OA
ATOM     95  O   UNL     1       6.150 -31.549  -1.771  1.00  0.00    -0.744 OA
ENDBRANCH  91  92
ENDBRANCH  65  86
ENDBRANCH  39  40
ENDBRANCH  31  34
ENDBRANCH  29  30
ENDBRANCH  28  29
ENDBRANCH  27  28
ENDBRANCH  26  27
ENDBRANCH   1  26
TORSDOF 23
