REMARK SMILES COc1ccc2c(c1)[C@@](NC=O)(C(=O)NCCCCCCNC(=O)c1ccc(-c3c4nc(c(-c5ccc(S(=O)(=O)[O-])cc5)c5ccc([nH]5)c(-c5ccc(S(=O)(=O)[O-])cc5)c5nc(c(-c6ccc(S(=O)(=O)[O-])cc6)c6ccc3[nH]6)C=C5)C=C4)cc1)CCC2
REMARK SMILES IDX 19 1 18 2 17 3 16 4 15 5 13 6 14 7 9 9 3 10 4 11 8 12 5 13
REMARK SMILES IDX 7 14 6 15 87 16 85 17 86 18 2 19 1 20 10 21 11 22 12 24
REMARK SMILES IDX 20 25 21 26 22 27 23 28 24 30 25 31 26 32 84 33 27 34 83 35
REMARK SMILES IDX 28 36 29 37 30 38 77 39 31 40 82 41 76 42 78 43 32 44 81 45
REMARK SMILES IDX 75 46 74 47 33 49 63 50 44 51 62 52 45 53 48 54 61 55 79 56
REMARK SMILES IDX 46 57 47 58 60 60 80 61 49 62 34 63 35 64 43 65 36 66 42 67
REMARK SMILES IDX 37 68 38 69 39 70 40 71 41 72 64 73 65 74 73 75 66 76 72 77
REMARK SMILES IDX 67 78 68 79 69 80 70 81 71 82 50 83 51 84 59 85 52 86 58 87
REMARK SMILES IDX 53 88 54 89 55 90 56 91 57 92
REMARK H PARENT 15 8 10 23 22 29 78 48 48 59
REMARK Flexibility Score: inf
ROOT
ATOM      1  C   UNL     1       6.595  -0.858   0.750  1.00  0.00     0.002 C 
ENDROOT
BRANCH   1   2
ATOM      2  C   UNL     1       5.810  -0.886  -0.564  1.00  0.00     0.002 C 
BRANCH   2   3
ATOM      3  C   UNL     1       4.569   0.013  -0.584  1.00  0.00     0.021 C 
BRANCH   3   4
ATOM      4  C   UNL     1       4.881   1.512  -0.465  1.00  0.00     0.116 C 
BRANCH   4   5
ATOM      5  N   UNL     1       5.388   2.001  -1.740  1.00  0.00    -0.354 N 
ATOM      6  C   UNL     1       4.805   2.769  -2.712  1.00  0.00     0.250 C 
ATOM      7  O   UNL     1       5.192   2.535  -3.864  1.00  0.00    -0.272 OA
ATOM      8  H   UNL     1       6.314   1.731  -1.938  1.00  0.00     0.163 HD
BRANCH   6   9
ATOM      9  C   UNL     1       3.700   3.860  -2.404  1.00  0.00     0.144 C 
ATOM     10  C   UNL     1       0.515   1.697  -2.099  1.00  0.00     0.119 A 
ATOM     11  C   UNL     1      -0.426   2.459  -2.770  1.00  0.00     0.047 A 
ATOM     12  C   UNL     1       1.842   2.126  -2.045  1.00  0.00     0.053 A 
ATOM     13  C   UNL     1      -0.042   3.662  -3.357  1.00  0.00     0.008 A 
ATOM     14  C   UNL     1       2.263   3.348  -2.601  1.00  0.00    -0.006 A 
ATOM     15  C   UNL     1       1.288   4.120  -3.273  1.00  0.00    -0.042 A 
ATOM     16  C   UNL     1       1.629   5.396  -4.002  1.00  0.00     0.036 C 
ATOM     17  C   UNL     1       4.024   5.021  -3.395  1.00  0.00     0.044 C 
ATOM     18  C   UNL     1       2.914   6.053  -3.526  1.00  0.00     0.008 C 
BRANCH  10  19
ATOM     19  O   UNL     1       0.106   0.495  -1.590  1.00  0.00    -0.497 OA
ATOM     20  C   UNL     1       0.427   0.331  -0.209  1.00  0.00     0.278 C 
ENDBRANCH  10  19
BRANCH   9  21
ATOM     21  N   UNL     1       3.918   4.340  -1.027  1.00  0.00    -0.341 N 
ATOM     22  C   UNL     1       3.135   5.178  -0.301  1.00  0.00     0.338 C 
ATOM     23  H   UNL     1       4.731   4.012  -0.579  1.00  0.00     0.164 HD
ATOM     24  O   UNL     1       3.504   5.649   0.765  1.00  0.00    -0.279 OA
ENDBRANCH   9  21
ENDBRANCH   6   9
ENDBRANCH   4   5
ENDBRANCH   3   4
ENDBRANCH   2   3
ENDBRANCH   1   2
BRANCH   1  25
ATOM     25  C   UNL     1       5.770  -1.177   2.000  1.00  0.00     0.021 C 
BRANCH  25  26
ATOM     26  C   UNL     1       5.078  -2.537   1.972  1.00  0.00     0.116 C 
BRANCH  26  27
ATOM     27  N   UNL     1       6.040  -3.627   1.928  1.00  0.00    -0.352 N 
ATOM     28  C   UNL     1       6.221  -4.658   2.816  1.00  0.00     0.251 C 
ATOM     29  H   UNL     1       6.646  -3.625   1.153  1.00  0.00     0.163 HD
ATOM     30  O   UNL     1       7.233  -5.349   2.756  1.00  0.00    -0.269 OA
BRANCH  28  31
ATOM     31  C   UNL     1       5.197  -4.924   3.849  1.00  0.00     0.039 A 
ATOM     32  C   UNL     1       5.606  -5.168   5.162  1.00  0.00     0.014 A 
ATOM     33  C   UNL     1       3.839  -4.951   3.516  1.00  0.00     0.014 A 
ATOM     34  C   UNL     1       4.647  -5.388   6.154  1.00  0.00     0.010 A 
ATOM     35  C   UNL     1       2.884  -5.107   4.517  1.00  0.00     0.010 A 
ATOM     36  C   UNL     1       3.278  -5.333   5.844  1.00  0.00    -0.014 A 
BRANCH  36  37
ATOM     37  C   UNL     1       2.244  -5.518   6.894  1.00  0.00     0.031 A 
ATOM     38  C   UNL     1       1.319  -6.705   6.842  1.00  0.00     0.074 A 
ATOM     39  C   UNL     1       2.100  -4.590   7.861  1.00  0.00     0.049 A 
ATOM     40  N   UNL     1       0.316  -7.003   7.628  1.00  0.00    -0.248 NA
ATOM     41  C   UNL     1       1.535  -7.670   5.752  1.00  0.00     0.031 C 
ATOM     42  C   UNL     1       2.912  -3.378   8.000  1.00  0.00     0.029 A 
ATOM     43  N   UNL     1       1.215  -4.518   8.907  1.00  0.00    -0.354 N 
ATOM     44  C   UNL     1      -0.222  -8.182   7.124  1.00  0.00     0.074 A 
ATOM     45  C   UNL     1       0.530  -8.514   5.934  1.00  0.00     0.031 C 
ATOM     46  C   UNL     1       2.500  -2.695   9.080  1.00  0.00     0.029 A 
ATOM     47  C   UNL     1       1.373  -3.397   9.688  1.00  0.00     0.049 A 
ATOM     48  H   UNL     1       0.531  -5.204   9.082  1.00  0.00     0.167 HD
ATOM     49  C   UNL     1      -1.237  -8.931   7.618  1.00  0.00     0.031 A 
ATOM     50  C   UNL     1       0.684  -2.976  10.766  1.00  0.00     0.031 A 
ATOM     51  C   UNL     1      -1.980  -8.601   8.805  1.00  0.00     0.049 A 
ATOM     52  C   UNL     1      -0.451  -3.817  11.285  1.00  0.00     0.074 A 
ATOM     53  C   UNL     1      -3.002  -9.315   9.406  1.00  0.00     0.029 A 
ATOM     54  N   UNL     1      -1.781  -7.464   9.572  1.00  0.00    -0.354 N 
ATOM     55  N   UNL     1      -0.910  -4.955  10.823  1.00  0.00    -0.248 NA
ATOM     56  C   UNL     1      -1.152  -3.321  12.477  1.00  0.00     0.031 C 
ATOM     57  C   UNL     1      -3.451  -8.586  10.514  1.00  0.00     0.029 A 
ATOM     58  C   UNL     1      -2.671  -7.447  10.633  1.00  0.00     0.049 A 
ATOM     59  H   UNL     1      -1.106  -6.771   9.390  1.00  0.00     0.167 HD
ATOM     60  C   UNL     1      -1.936  -5.326  11.686  1.00  0.00     0.074 A 
ATOM     61  C   UNL     1      -2.019  -4.299  12.704  1.00  0.00     0.031 C 
ATOM     62  C   UNL     1      -2.737  -6.419  11.640  1.00  0.00     0.031 A 
BRANCH  49  63
ATOM     63  C   UNL     1      -1.598 -10.188   6.871  1.00  0.00    -0.014 A 
ATOM     64  C   UNL     1      -0.737 -11.301   6.868  1.00  0.00     0.010 A 
ATOM     65  C   UNL     1      -2.828 -10.275   6.193  1.00  0.00     0.010 A 
ATOM     66  C   UNL     1      -1.077 -12.460   6.166  1.00  0.00     0.020 A 
ATOM     67  C   UNL     1      -3.186 -11.444   5.513  1.00  0.00     0.020 A 
ATOM     68  C   UNL     1      -2.299 -12.522   5.490  1.00  0.00     0.054 A 
BRANCH  68  69
ATOM     69  S   UNL     1      -2.723 -14.046   4.602  1.00  0.00     0.124 S 
ATOM     70  O   UNL     1      -1.840 -13.973   3.441  1.00  0.00    -0.237 OA
ATOM     71  O   UNL     1      -2.395 -15.086   5.575  1.00  0.00    -0.237 OA
ATOM     72  O   UNL     1      -4.147 -13.895   4.313  1.00  0.00    -0.744 OA
ENDBRANCH  68  69
ENDBRANCH  49  63
BRANCH  50  73
ATOM     73  C   UNL     1       1.053  -1.699  11.435  1.00  0.00    -0.014 A 
ATOM     74  C   UNL     1       1.646  -1.704  12.710  1.00  0.00     0.010 A 
ATOM     75  C   UNL     1       0.810  -0.467  10.800  1.00  0.00     0.010 A 
ATOM     76  C   UNL     1       1.963  -0.502  13.350  1.00  0.00     0.020 A 
ATOM     77  C   UNL     1       1.153   0.736  11.424  1.00  0.00     0.020 A 
ATOM     78  C   UNL     1       1.713   0.711  12.702  1.00  0.00     0.054 A 
BRANCH  78  79
ATOM     79  S   UNL     1       2.164   2.258  13.535  1.00  0.00     0.124 S 
ATOM     80  O   UNL     1       1.114   2.378  14.540  1.00  0.00    -0.237 OA
ATOM     81  O   UNL     1       3.501   1.964  14.046  1.00  0.00    -0.237 OA
ATOM     82  O   UNL     1       2.121   3.248  12.461  1.00  0.00    -0.744 OA
ENDBRANCH  78  79
ENDBRANCH  50  73
BRANCH  62  83
ATOM     83  C   UNL     1      -3.749  -6.582  12.742  1.00  0.00    -0.014 A 
ATOM     84  C   UNL     1      -4.897  -5.772  12.805  1.00  0.00     0.010 A 
ATOM     85  C   UNL     1      -3.572  -7.598  13.700  1.00  0.00     0.010 A 
ATOM     86  C   UNL     1      -5.835  -5.956  13.824  1.00  0.00     0.020 A 
ATOM     87  C   UNL     1      -4.521  -7.802  14.704  1.00  0.00     0.020 A 
ATOM     88  C   UNL     1      -5.641  -6.970  14.768  1.00  0.00     0.054 A 
BRANCH  88  89
ATOM     89  S   UNL     1      -6.895  -7.218  16.055  1.00  0.00     0.124 S 
ATOM     90  O   UNL     1      -6.644  -6.088  16.945  1.00  0.00    -0.237 OA
ATOM     91  O   UNL     1      -8.145  -7.158  15.300  1.00  0.00    -0.237 OA
ATOM     92  O   UNL     1      -6.570  -8.531  16.606  1.00  0.00    -0.744 OA
ENDBRANCH  88  89
ENDBRANCH  62  83
ENDBRANCH  36  37
ENDBRANCH  28  31
ENDBRANCH  26  27
ENDBRANCH  25  26
ENDBRANCH   1  25
TORSDOF 18
