REMARK SMILES CCOc1ccccc1NS(=O)(=O)c1ccc(C(=O)NCCCCCCNC(=O)c2ccc(-c3c4nc(c(-c5ccc(S(=O)(=O)[O-])cc5)c5ccc([nH]5)c(-c5ccc(S(=O)(=O)[O-])cc5)c5nc(c(-c6ccc(S(=O)(=O)[O-])cc6)c6ccc3[nH]6)C=C5)C=C4)cc2)cc1
REMARK SMILES IDX 22 1 21 2 20 3 18 4 19 5 17 7 14 8 15 9 91 10 16 11 90 12
REMARK SMILES IDX 11 13 12 14 13 15 10 16 9 18 4 19 5 20 6 21 8 22 7 23 3 24
REMARK SMILES IDX 2 25 1 26 23 27 24 28 25 29 26 30 27 31 28 32 29 34 30 35
REMARK SMILES IDX 31 36 89 37 32 38 88 39 33 40 34 41 35 42 82 43 36 44 87 45
REMARK SMILES IDX 81 46 83 47 37 48 86 49 80 50 79 51 38 53 68 54 49 55 67 56
REMARK SMILES IDX 50 57 53 58 66 59 84 60 51 61 52 62 65 64 85 65 54 66 39 67
REMARK SMILES IDX 40 68 48 69 41 70 47 71 42 72 43 73 44 74 45 75 46 76 69 77
REMARK SMILES IDX 70 78 78 79 71 80 77 81 72 82 73 83 74 84 75 85 76 86 55 87
REMARK SMILES IDX 56 88 64 89 57 90 63 91 58 92 59 93 60 94 61 95 62 96
REMARK H PARENT 20 6 10 17 27 33 83 52 53 63
REMARK Flexibility Score: inf
ROOT
ATOM      1  C   UNL     1      10.624   1.065  -0.140  1.00  0.00     0.021 C 
ENDROOT
BRANCH   1   2
ATOM      2  C   UNL     1       9.788   0.233  -1.115  1.00  0.00     0.116 C 
BRANCH   2   3
ATOM      3  N   UNL     1      10.046  -1.184  -0.913  1.00  0.00    -0.352 N 
ATOM      4  C   UNL     1       9.348  -2.171  -0.266  1.00  0.00     0.251 C 
ATOM      5  O   UNL     1       9.821  -3.307  -0.255  1.00  0.00    -0.269 OA
ATOM      6  H   UNL     1      10.887  -1.495  -1.321  1.00  0.00     0.163 HD
BRANCH   4   7
ATOM      7  C   UNL     1       8.004  -1.946   0.328  1.00  0.00     0.039 A 
ATOM      8  C   UNL     1       5.339  -1.564   1.038  1.00  0.00     0.087 A 
ATOM      9  C   UNL     1       5.750  -2.824   0.598  1.00  0.00     0.023 A 
ATOM     10  C   UNL     1       6.264  -0.541   1.257  1.00  0.00     0.023 A 
ATOM     11  C   UNL     1       7.084  -3.006   0.233  1.00  0.00     0.015 A 
ATOM     12  C   UNL     1       7.605  -0.748   0.928  1.00  0.00     0.015 A 
BRANCH   8  13
ATOM     13  S   UNL     1       3.608  -1.189   1.101  1.00  0.00     0.262 S 
ATOM     14  O   UNL     1       3.459   0.246   1.175  1.00  0.00    -0.201 OA
ATOM     15  O   UNL     1       3.027  -2.061   2.101  1.00  0.00    -0.201 OA
BRANCH  13  16
ATOM     16  N   UNL     1       3.037  -1.723  -0.398  1.00  0.00    -0.276 N 
ATOM     17  H   UNL     1       2.515  -2.556  -0.455  1.00  0.00     0.180 HD
BRANCH  16  18
ATOM     18  C   UNL     1       3.310  -0.968  -1.588  1.00  0.00     0.091 A 
ATOM     19  C   UNL     1       2.241  -0.379  -2.275  1.00  0.00     0.143 A 
ATOM     20  C   UNL     1       2.444   0.243  -3.510  1.00  0.00     0.049 A 
ATOM     21  C   UNL     1       3.731   0.321  -4.042  1.00  0.00     0.004 A 
ATOM     22  C   UNL     1       4.594  -0.875  -2.125  1.00  0.00     0.031 A 
ATOM     23  C   UNL     1       4.806  -0.228  -3.345  1.00  0.00     0.002 A 
BRANCH  19  24
ATOM     24  O   UNL     1       0.979  -0.522  -1.758  1.00  0.00    -0.492 OA
BRANCH  24  25
ATOM     25  C   UNL     1       0.395   0.737  -1.396  1.00  0.00     0.226 C 
ATOM     26  C   UNL     1       0.162   0.744   0.104  1.00  0.00     0.049 C 
ENDBRANCH  24  25
ENDBRANCH  19  24
ENDBRANCH  16  18
ENDBRANCH  13  16
ENDBRANCH   8  13
ENDBRANCH   4   7
ENDBRANCH   2   3
ENDBRANCH   1   2
BRANCH   1  27
ATOM     27  C   UNL     1      12.115   1.114  -0.501  1.00  0.00     0.002 C 
BRANCH  27  28
ATOM     28  C   UNL     1      12.442   1.847  -1.807  1.00  0.00     0.002 C 
BRANCH  28  29
ATOM     29  C   UNL     1      11.953   3.297  -1.880  1.00  0.00     0.021 C 
BRANCH  29  30
ATOM     30  C   UNL     1      12.509   4.215  -0.794  1.00  0.00     0.116 C 
BRANCH  30  31
ATOM     31  N   UNL     1      13.949   4.382  -0.906  1.00  0.00    -0.352 N 
ATOM     32  C   UNL     1      14.688   5.536  -0.983  1.00  0.00     0.251 C 
ATOM     33  H   UNL     1      14.469   3.546  -0.931  1.00  0.00     0.163 HD
ATOM     34  O   UNL     1      15.877   5.482  -1.283  1.00  0.00    -0.269 OA
BRANCH  32  35
ATOM     35  C   UNL     1      14.049   6.845  -0.720  1.00  0.00     0.039 A 
ATOM     36  C   UNL     1      14.319   7.913  -1.579  1.00  0.00     0.014 A 
ATOM     37  C   UNL     1      13.203   7.024   0.379  1.00  0.00     0.014 A 
ATOM     38  C   UNL     1      13.698   9.147  -1.368  1.00  0.00     0.010 A 
ATOM     39  C   UNL     1      12.539   8.237   0.553  1.00  0.00     0.010 A 
ATOM     40  C   UNL     1      12.781   9.310  -0.317  1.00  0.00    -0.014 A 
BRANCH  40  41
ATOM     41  C   UNL     1      12.059  10.594  -0.123  1.00  0.00     0.031 A 
ATOM     42  C   UNL     1      12.301  11.425   1.108  1.00  0.00     0.074 A 
ATOM     43  C   UNL     1      11.139  10.981  -1.028  1.00  0.00     0.049 A 
ATOM     44  N   UNL     1      11.735  12.549   1.467  1.00  0.00    -0.248 NA
ATOM     45  C   UNL     1      13.293  10.917   2.070  1.00  0.00     0.031 C 
ATOM     46  C   UNL     1      10.780  10.241  -2.240  1.00  0.00     0.029 A 
ATOM     47  N   UNL     1      10.332  12.090  -1.065  1.00  0.00    -0.354 N 
ATOM     48  C   UNL     1      12.286  12.874   2.701  1.00  0.00     0.074 A 
ATOM     49  C   UNL     1      13.200  11.807   3.048  1.00  0.00     0.031 C 
ATOM     50  C   UNL     1       9.842  10.928  -2.913  1.00  0.00     0.029 A 
ATOM     51  C   UNL     1       9.509  12.137  -2.166  1.00  0.00     0.049 A 
ATOM     52  H   UNL     1      10.341  12.787  -0.370  1.00  0.00     0.167 HD
ATOM     53  C   UNL     1      12.065  13.969   3.468  1.00  0.00     0.031 A 
ATOM     54  C   UNL     1       8.587  13.047  -2.533  1.00  0.00     0.031 A 
ATOM     55  C   UNL     1      11.164  15.034   3.116  1.00  0.00     0.049 A 
ATOM     56  C   UNL     1       8.362  14.257  -1.669  1.00  0.00     0.074 A 
ATOM     57  C   UNL     1      10.915  16.212   3.799  1.00  0.00     0.029 A 
ATOM     58  N   UNL     1      10.361  15.050   1.986  1.00  0.00    -0.354 N 
ATOM     59  N   UNL     1       8.943  14.578  -0.538  1.00  0.00    -0.248 NA
ATOM     60  C   UNL     1       7.368  15.231  -2.138  1.00  0.00     0.031 C 
ATOM     61  C   UNL     1       9.930  16.921   3.103  1.00  0.00     0.029 A 
ATOM     62  C   UNL     1       9.601  16.208   1.962  1.00  0.00     0.049 A 
ATOM     63  H   UNL     1      10.335  14.343   1.301  1.00  0.00     0.167 HD
ATOM     64  C   UNL     1       8.399  15.803  -0.170  1.00  0.00     0.074 A 
ATOM     65  C   UNL     1       7.455  16.171  -1.206  1.00  0.00     0.031 C 
ATOM     66  C   UNL     1       8.660  16.557   0.927  1.00  0.00     0.031 A 
BRANCH  53  67
ATOM     67  C   UNL     1      12.811  14.062   4.773  1.00  0.00    -0.014 A 
ATOM     68  C   UNL     1      14.197  14.302   4.801  1.00  0.00     0.010 A 
ATOM     69  C   UNL     1      12.114  13.939   5.989  1.00  0.00     0.010 A 
ATOM     70  C   UNL     1      14.880  14.368   6.018  1.00  0.00     0.020 A 
ATOM     71  C   UNL     1      12.790  14.032   7.209  1.00  0.00     0.020 A 
ATOM     72  C   UNL     1      14.173  14.226   7.215  1.00  0.00     0.054 A 
BRANCH  72  73
ATOM     73  S   UNL     1      15.082  14.326   8.781  1.00  0.00     0.124 S 
ATOM     74  O   UNL     1      15.757  13.031   8.819  1.00  0.00    -0.237 OA
ATOM     75  O   UNL     1      15.952  15.482   8.576  1.00  0.00    -0.237 OA
ATOM     76  O   UNL     1      14.032  14.511   9.780  1.00  0.00    -0.744 OA
ENDBRANCH  72  73
ENDBRANCH  53  67
BRANCH  54  77
ATOM     77  C   UNL     1       7.822  12.855  -3.795  1.00  0.00    -0.014 A 
ATOM     78  C   UNL     1       8.096  13.650  -4.921  1.00  0.00     0.010 A 
ATOM     79  C   UNL     1       6.837  11.856  -3.884  1.00  0.00     0.010 A 
ATOM     80  C   UNL     1       7.390  13.457  -6.112  1.00  0.00     0.020 A 
ATOM     81  C   UNL     1       6.146  11.643  -5.081  1.00  0.00     0.020 A 
ATOM     82  C   UNL     1       6.422  12.451  -6.185  1.00  0.00     0.054 A 
BRANCH  82  83
ATOM     83  S   UNL     1       5.566  12.171  -7.761  1.00  0.00     0.124 S 
ATOM     84  O   UNL     1       4.624  13.285  -7.797  1.00  0.00    -0.237 OA
ATOM     85  O   UNL     1       6.657  12.231  -8.730  1.00  0.00    -0.237 OA
ATOM     86  O   UNL     1       4.968  10.848  -7.591  1.00  0.00    -0.744 OA
ENDBRANCH  82  83
ENDBRANCH  54  77
BRANCH  66  87
ATOM     87  C   UNL     1       7.932  17.867   1.053  1.00  0.00    -0.014 A 
ATOM     88  C   UNL     1       6.568  17.911   1.391  1.00  0.00     0.010 A 
ATOM     89  C   UNL     1       8.635  19.073   0.877  1.00  0.00     0.010 A 
ATOM     90  C   UNL     1       5.913  19.138   1.522  1.00  0.00     0.020 A 
ATOM     91  C   UNL     1       7.989  20.302   1.031  1.00  0.00     0.020 A 
ATOM     92  C   UNL     1       6.627  20.326   1.338  1.00  0.00     0.054 A 
BRANCH  92  93
ATOM     93  S   UNL     1       5.765  21.908   1.553  1.00  0.00     0.124 S 
ATOM     94  O   UNL     1       4.992  22.002   0.317  1.00  0.00    -0.237 OA
ATOM     95  O   UNL     1       4.984  21.687   2.767  1.00  0.00    -0.237 OA
ATOM     96  O   UNL     1       6.850  22.878   1.685  1.00  0.00    -0.744 OA
ENDBRANCH  92  93
ENDBRANCH  66  87
ENDBRANCH  40  41
ENDBRANCH  32  35
ENDBRANCH  30  31
ENDBRANCH  29  30
ENDBRANCH  28  29
ENDBRANCH  27  28
ENDBRANCH   1  27
TORSDOF 21
