REMARK SMILES CCC[NH2+][C@@]1(C(=O)NCCCCCCNC(=O)c2ccc(-c3c4nc(c(-c5ccc(S(=O)(=O)[O-])cc5)c5ccc([nH]5)c(-c5ccc(S(=O)(=O)[O-])cc5)c5nc(c(-c6ccc(S(=O)(=O)[O-])cc6)c6ccc3[nH]6)C=C5)C=C4)cc2)CCC[C@H](n2nc(C)c(C)c2C)C1
REMARK SMILES IDX 11 1 10 2 9 3 8 4 6 5 7 6 5 8 78 9 90 10 79 11 81 12 80 13
REMARK SMILES IDX 4 14 3 17 2 18 1 19 82 20 83 21 88 22 84 23 86 24 89 25
REMARK SMILES IDX 85 26 87 27 12 28 13 29 14 30 15 31 16 32 17 34 18 35 19 36
REMARK SMILES IDX 77 37 20 38 76 39 21 40 22 41 23 42 70 43 24 44 75 45 69 46
REMARK SMILES IDX 71 47 25 48 74 49 68 50 67 51 26 53 56 54 37 55 55 56 38 57
REMARK SMILES IDX 41 58 54 59 72 60 39 61 40 62 53 64 73 65 42 66 27 67 28 68
REMARK SMILES IDX 36 69 29 70 35 71 30 72 31 73 32 74 33 75 34 76 57 77 58 78
REMARK SMILES IDX 66 79 59 80 65 81 60 82 61 83 62 84 63 85 64 86 43 87 44 88
REMARK SMILES IDX 52 89 45 90 51 91 46 92 47 93 48 94 49 95 50 96
REMARK H PARENT 8 7 4 15 4 16 15 33 71 52 41 63
REMARK Flexibility Score: inf
ROOT
ATOM      1  C   UNL     1       1.801   2.406  -9.280  1.00  0.00     0.002 C 
ENDROOT
BRANCH   1   2
ATOM      2  C   UNL     1       1.866   3.082  -7.915  1.00  0.00     0.021 C 
BRANCH   2   3
ATOM      3  C   UNL     1       0.615   3.473  -7.099  1.00  0.00     0.116 C 
BRANCH   3   4
ATOM      4  N   UNL     1      -0.099   2.436  -6.338  1.00  0.00    -0.351 N 
ATOM      5  C   UNL     1      -0.263   2.059  -5.032  1.00  0.00     0.281 C 
ATOM      6  O   UNL     1      -1.344   1.478  -4.808  1.00  0.00    -0.268 OA
ATOM      7  H   UNL     1      -0.604   1.843  -6.941  1.00  0.00     0.163 HD
BRANCH   5   8
ATOM      8  C   UNL     1       0.798   2.133  -3.828  1.00  0.00     0.177 C 
ATOM      9  C   UNL     1       1.786   3.281  -3.945  1.00  0.00     0.079 C 
ATOM     10  C   UNL     1       1.592   0.820  -3.660  1.00  0.00     0.106 C 
ATOM     11  C   UNL     1       2.980   2.983  -4.860  1.00  0.00     0.009 C 
ATOM     12  C   UNL     1       2.301   0.355  -4.923  1.00  0.00     0.114 C 
ATOM     13  C   UNL     1       3.318   1.502  -5.237  1.00  0.00     0.028 C 
BRANCH   8  14
ATOM     14  N   UNL     1      -0.035   2.249  -2.571  1.00  0.00    -0.334 N 
ATOM     15  H   UNL     1      -0.597   3.096  -2.660  1.00  0.00     0.347 HD
ATOM     16  H   UNL     1      -0.549   1.369  -2.532  1.00  0.00     0.347 HD
BRANCH  14  17
ATOM     17  C   UNL     1       0.650   2.320  -1.277  1.00  0.00     0.261 C 
BRANCH  17  18
ATOM     18  C   UNL     1       0.068   1.414  -0.174  1.00  0.00     0.058 C 
ATOM     19  C   UNL     1       0.644   0.002  -0.153  1.00  0.00     0.010 C 
ENDBRANCH  17  18
ENDBRANCH  14  17
ENDBRANCH   8  14
BRANCH  12  20
ATOM     20  N   UNL     1       1.377  -0.254  -5.894  1.00  0.00    -0.266 N 
ATOM     21  N   UNL     1       1.491  -0.077  -7.233  1.00  0.00    -0.178 NA
ATOM     22  C   UNL     1       0.326  -1.128  -5.615  1.00  0.00     0.039 A 
ATOM     23  C   UNL     1       0.334  -0.554  -7.736  1.00  0.00     0.063 A 
ATOM     24  C   UNL     1      -0.474  -1.131  -6.739  1.00  0.00    -0.007 A 
ATOM     25  C   UNL     1       0.067  -1.823  -4.332  1.00  0.00     0.066 C 
ATOM     26  C   UNL     1      -0.044  -0.452  -9.175  1.00  0.00     0.069 C 
ATOM     27  C   UNL     1      -1.852  -1.658  -6.895  1.00  0.00     0.048 C 
ENDBRANCH  12  20
ENDBRANCH   5   8
ENDBRANCH   3   4
ENDBRANCH   2   3
ENDBRANCH   1   2
BRANCH   1  28
ATOM     28  C   UNL     1       0.989   3.081 -10.369  1.00  0.00     0.002 C 
BRANCH  28  29
ATOM     29  C   UNL     1       1.787   4.123 -11.144  1.00  0.00     0.021 C 
BRANCH  29  30
ATOM     30  C   UNL     1       2.948   3.555 -11.955  1.00  0.00     0.116 C 
BRANCH  30  31
ATOM     31  N   UNL     1       2.541   2.581 -12.963  1.00  0.00    -0.352 N 
ATOM     32  C   UNL     1       3.192   2.319 -14.146  1.00  0.00     0.251 C 
ATOM     33  H   UNL     1       1.724   2.063 -12.779  1.00  0.00     0.163 HD
ATOM     34  O   UNL     1       2.760   1.529 -14.976  1.00  0.00    -0.269 OA
BRANCH  32  35
ATOM     35  C   UNL     1       4.446   3.052 -14.367  1.00  0.00     0.039 A 
ATOM     36  C   UNL     1       4.458   4.131 -15.251  1.00  0.00     0.014 A 
ATOM     37  C   UNL     1       5.516   2.794 -13.505  1.00  0.00     0.014 A 
ATOM     38  C   UNL     1       5.553   4.991 -15.245  1.00  0.00     0.010 A 
ATOM     39  C   UNL     1       6.570   3.693 -13.455  1.00  0.00     0.010 A 
ATOM     40  C   UNL     1       6.602   4.789 -14.332  1.00  0.00    -0.014 A 
BRANCH  40  41
ATOM     41  C   UNL     1       7.782   5.681 -14.322  1.00  0.00     0.031 A 
ATOM     42  C   UNL     1       9.112   5.120 -14.741  1.00  0.00     0.074 A 
ATOM     43  C   UNL     1       7.666   6.956 -13.904  1.00  0.00     0.049 A 
ATOM     44  N   UNL     1      10.280   5.704 -14.776  1.00  0.00    -0.248 NA
ATOM     45  C   UNL     1       9.136   3.703 -15.145  1.00  0.00     0.031 C 
ATOM     46  C   UNL     1       6.430   7.588 -13.433  1.00  0.00     0.029 A 
ATOM     47  N   UNL     1       8.602   7.953 -13.813  1.00  0.00    -0.354 N 
ATOM     48  C   UNL     1      11.173   4.724 -15.191  1.00  0.00     0.074 A 
ATOM     49  C   UNL     1      10.430   3.494 -15.325  1.00  0.00     0.031 C 
ATOM     50  C   UNL     1       6.680   8.876 -13.137  1.00  0.00     0.029 A 
ATOM     51  C   UNL     1       8.093   9.152 -13.372  1.00  0.00     0.049 A 
ATOM     52  H   UNL     1       9.551   7.823 -14.041  1.00  0.00     0.167 HD
ATOM     53  C   UNL     1      12.491   4.846 -15.470  1.00  0.00     0.031 A 
ATOM     54  C   UNL     1       8.703  10.340 -13.191  1.00  0.00     0.031 A 
ATOM     55  C   UNL     1      13.214   6.081 -15.357  1.00  0.00     0.049 A 
ATOM     56  C   UNL     1      10.169  10.453 -13.516  1.00  0.00     0.074 A 
ATOM     57  C   UNL     1      14.541   6.335 -15.650  1.00  0.00     0.029 A 
ATOM     58  N   UNL     1      12.660   7.277 -14.923  1.00  0.00    -0.354 N 
ATOM     59  N   UNL     1      10.989   9.529 -13.959  1.00  0.00    -0.248 NA
ATOM     60  C   UNL     1      10.789  11.773 -13.332  1.00  0.00     0.031 C 
ATOM     61  C   UNL     1      14.798   7.679 -15.361  1.00  0.00     0.029 A 
ATOM     62  C   UNL     1      13.619   8.272 -14.933  1.00  0.00     0.049 A 
ATOM     63  H   UNL     1      11.722   7.398 -14.648  1.00  0.00     0.167 HD
ATOM     64  C   UNL     1      12.214  10.162 -14.135  1.00  0.00     0.074 A 
ATOM     65  C   UNL     1      12.023  11.550 -13.764  1.00  0.00     0.031 C 
ATOM     66  C   UNL     1      13.392   9.646 -14.565  1.00  0.00     0.031 A 
BRANCH  53  67
ATOM     67  C   UNL     1      13.212   3.612 -15.938  1.00  0.00    -0.014 A 
ATOM     68  C   UNL     1      12.939   3.052 -17.201  1.00  0.00     0.010 A 
ATOM     69  C   UNL     1      14.174   3.002 -15.114  1.00  0.00     0.010 A 
ATOM     70  C   UNL     1      13.578   1.880 -17.610  1.00  0.00     0.020 A 
ATOM     71  C   UNL     1      14.838   1.845 -15.533  1.00  0.00     0.020 A 
ATOM     72  C   UNL     1      14.521   1.281 -16.771  1.00  0.00     0.054 A 
BRANCH  72  73
ATOM     73  S   UNL     1      15.349  -0.230 -17.336  1.00  0.00     0.124 S 
ATOM     74  O   UNL     1      14.292  -1.228 -17.182  1.00  0.00    -0.237 OA
ATOM     75  O   UNL     1      15.708   0.096 -18.713  1.00  0.00    -0.237 OA
ATOM     76  O   UNL     1      16.477  -0.371 -16.418  1.00  0.00    -0.744 OA
ENDBRANCH  72  73
ENDBRANCH  53  67
BRANCH  54  77
ATOM     77  C   UNL     1       7.929  11.521 -12.718  1.00  0.00    -0.014 A 
ATOM     78  C   UNL     1       7.660  12.591 -13.590  1.00  0.00     0.010 A 
ATOM     79  C   UNL     1       7.461  11.587 -11.393  1.00  0.00     0.010 A 
ATOM     80  C   UNL     1       6.961  13.716 -13.141  1.00  0.00     0.020 A 
ATOM     81  C   UNL     1       6.740  12.700 -10.947  1.00  0.00     0.020 A 
ATOM     82  C   UNL     1       6.507  13.764 -11.820  1.00  0.00     0.054 A 
BRANCH  82  83
ATOM     83  S   UNL     1       5.574  15.219 -11.266  1.00  0.00     0.124 S 
ATOM     84  O   UNL     1       6.628  16.219 -11.125  1.00  0.00    -0.237 OA
ATOM     85  O   UNL     1       4.639  15.435 -12.368  1.00  0.00    -0.237 OA
ATOM     86  O   UNL     1       4.960  14.774 -10.017  1.00  0.00    -0.744 OA
ENDBRANCH  82  83
ENDBRANCH  54  77
BRANCH  66  87
ATOM     87  C   UNL     1      14.553  10.593 -14.691  1.00  0.00    -0.014 A 
ATOM     88  C   UNL     1      15.224  11.073 -13.553  1.00  0.00     0.010 A 
ATOM     89  C   UNL     1      15.016  10.952 -15.970  1.00  0.00     0.010 A 
ATOM     90  C   UNL     1      16.325  11.921 -13.693  1.00  0.00     0.020 A 
ATOM     91  C   UNL     1      16.132  11.778 -16.113  1.00  0.00     0.020 A 
ATOM     92  C   UNL     1      16.771  12.267 -14.973  1.00  0.00     0.054 A 
BRANCH  92  93
ATOM     93  S   UNL     1      18.233  13.328 -15.128  1.00  0.00     0.124 S 
ATOM     94  O   UNL     1      17.695  14.640 -14.779  1.00  0.00    -0.237 OA
ATOM     95  O   UNL     1      19.156  12.749 -14.155  1.00  0.00    -0.237 OA
ATOM     96  O   UNL     1      18.630  13.168 -16.525  1.00  0.00    -0.744 OA
ENDBRANCH  92  93
ENDBRANCH  66  87
ENDBRANCH  40  41
ENDBRANCH  32  35
ENDBRANCH  30  31
ENDBRANCH  29  30
ENDBRANCH  28  29
ENDBRANCH   1  28
TORSDOF 20
