REMARK SMILES C[C@H](Cc1ccco1)[NH2+]Cc1cc(C(=O)NCCCCCCNC(=O)c2ccc(-c3c4nc(c(-c5ccc(S(=O)(=O)[O-])cc5)c5ccc([nH]5)c(-c5ccc(S(=O)(=O)[O-])cc5)c5nc(c(-c6ccc(S(=O)(=O)[O-])cc6)c6ccc3[nH]6)C=C5)C=C4)cc2)cs1
REMARK SMILES IDX 18 1 17 2 16 3 14 4 15 5 13 7 11 8 12 9 87 10 86 11 10 12
REMARK SMILES IDX 9 13 2 16 1 17 3 18 4 19 5 20 8 21 6 22 7 23 19 24 20 25
REMARK SMILES IDX 21 26 22 27 23 28 24 29 25 31 26 32 27 33 85 34 28 35 84 36
REMARK SMILES IDX 29 37 30 38 31 39 78 40 32 41 83 42 77 43 79 44 33 45 82 46
REMARK SMILES IDX 76 47 75 48 34 50 64 51 45 52 63 53 46 54 49 55 62 56 80 57
REMARK SMILES IDX 47 58 48 59 61 61 81 62 50 63 35 64 36 65 44 66 37 67 43 68
REMARK SMILES IDX 38 69 39 70 40 71 41 72 42 73 65 74 66 75 74 76 67 77 73 78
REMARK SMILES IDX 68 79 69 80 70 81 71 82 72 83 51 84 52 85 60 86 53 87 59 88
REMARK SMILES IDX 54 89 55 90 56 91 57 92 58 93
REMARK H PARENT 16 6 9 14 9 15 23 30 79 49 49 60
REMARK Flexibility Score: inf
ROOT
ATOM      1  C   UNL     1       0.131  -2.098   4.622  1.00  0.00     0.021 C 
ENDROOT
BRANCH   1   2
ATOM      2  C   UNL     1       0.868  -3.195   3.849  1.00  0.00     0.116 C 
BRANCH   2   3
ATOM      3  N   UNL     1       0.358  -4.514   4.193  1.00  0.00    -0.352 N 
ATOM      4  C   UNL     1      -0.259  -5.468   3.420  1.00  0.00     0.252 C 
ATOM      5  O   UNL     1      -0.415  -6.590   3.900  1.00  0.00    -0.269 OA
ATOM      6  H   UNL     1       0.475  -4.765   5.138  1.00  0.00     0.163 HD
BRANCH   4   7
ATOM      7  C   UNL     1      -0.666  -5.158   2.051  1.00  0.00     0.051 A 
ATOM      8  C   UNL     1      -1.294  -3.921   0.152  1.00  0.00     0.059 A 
ATOM      9  C   UNL     1      -1.186  -3.928   1.531  1.00  0.00     0.035 A 
ATOM     10  S   UNL     1      -1.065  -5.494  -0.483  1.00  0.00    -0.142 S 
ATOM     11  C   UNL     1      -0.642  -6.115   1.051  1.00  0.00     0.079 A 
BRANCH   8  12
ATOM     12  C   UNL     1      -1.588  -2.761  -0.758  1.00  0.00     0.308 C 
BRANCH  12  13
ATOM     13  N   UNL     1      -0.867  -1.548  -0.366  1.00  0.00    -0.339 N 
ATOM     14  H   UNL     1      -1.446  -0.748  -0.619  1.00  0.00     0.346 HD
ATOM     15  H   UNL     1      -0.695  -1.647   0.635  1.00  0.00     0.346 HD
BRANCH  13  16
ATOM     16  C   UNL     1       0.464  -1.349  -0.973  1.00  0.00     0.187 C 
ATOM     17  C   UNL     1       1.425  -2.535  -0.831  1.00  0.00     0.075 C 
BRANCH  16  18
ATOM     18  C   UNL     1       1.038   0.013  -0.485  1.00  0.00     0.140 C 
BRANCH  18  19
ATOM     19  C   UNL     1       2.187  -0.022   0.465  1.00  0.00     0.109 A 
ATOM     20  C   UNL     1       3.364   0.699   0.509  1.00  0.00     0.046 A 
ATOM     21  O   UNL     1       2.138  -0.891   1.516  1.00  0.00    -0.469 OA
ATOM     22  C   UNL     1       4.098   0.208   1.612  1.00  0.00     0.042 A 
ATOM     23  C   UNL     1       3.323  -0.778   2.172  1.00  0.00     0.195 A 
ENDBRANCH  18  19
ENDBRANCH  16  18
ENDBRANCH  13  16
ENDBRANCH  12  13
ENDBRANCH   8  12
ENDBRANCH   4   7
ENDBRANCH   2   3
ENDBRANCH   1   2
BRANCH   1  24
ATOM     24  C   UNL     1       0.734  -1.806   6.005  1.00  0.00     0.002 C 
BRANCH  24  25
ATOM     25  C   UNL     1       2.097  -1.097   5.994  1.00  0.00     0.002 C 
BRANCH  25  26
ATOM     26  C   UNL     1       2.130   0.265   5.292  1.00  0.00     0.021 C 
BRANCH  26  27
ATOM     27  C   UNL     1       1.280   1.354   5.937  1.00  0.00     0.116 C 
BRANCH  27  28
ATOM     28  N   UNL     1       1.858   1.834   7.182  1.00  0.00    -0.352 N 
ATOM     29  C   UNL     1       2.405   3.055   7.497  1.00  0.00     0.251 C 
ATOM     30  H   UNL     1       1.856   1.180   7.918  1.00  0.00     0.163 HD
ATOM     31  O   UNL     1       3.028   3.176   8.550  1.00  0.00    -0.269 OA
BRANCH  29  32
ATOM     32  C   UNL     1       2.276   4.219   6.585  1.00  0.00     0.039 A 
ATOM     33  C   UNL     1       3.371   5.077   6.431  1.00  0.00     0.014 A 
ATOM     34  C   UNL     1       1.078   4.508   5.926  1.00  0.00     0.014 A 
ATOM     35  C   UNL     1       3.285   6.180   5.575  1.00  0.00     0.010 A 
ATOM     36  C   UNL     1       1.016   5.567   5.019  1.00  0.00     0.010 A 
ATOM     37  C   UNL     1       2.116   6.418   4.835  1.00  0.00    -0.014 A 
BRANCH  37  38
ATOM     38  C   UNL     1       2.020   7.550   3.874  1.00  0.00     0.031 A 
ATOM     39  C   UNL     1       1.037   8.666   4.108  1.00  0.00     0.074 A 
ATOM     40  C   UNL     1       2.771   7.547   2.755  1.00  0.00     0.049 A 
ATOM     41  N   UNL     1       0.743   9.683   3.338  1.00  0.00    -0.248 NA
ATOM     42  C   UNL     1       0.268   8.620   5.362  1.00  0.00     0.031 C 
ATOM     43  C   UNL     1       3.749   6.519   2.391  1.00  0.00     0.029 A 
ATOM     44  N   UNL     1       2.822   8.437   1.710  1.00  0.00    -0.354 N 
ATOM     45  C   UNL     1      -0.258  10.384   4.000  1.00  0.00     0.074 A 
ATOM     46  C   UNL     1      -0.547   9.656   5.217  1.00  0.00     0.031 C 
ATOM     47  C   UNL     1       4.318   6.849   1.220  1.00  0.00     0.029 A 
ATOM     48  C   UNL     1       3.717   8.085   0.728  1.00  0.00     0.049 A 
ATOM     49  H   UNL     1       2.269   9.251   1.669  1.00  0.00     0.167 HD
ATOM     50  C   UNL     1      -0.873  11.537   3.639  1.00  0.00     0.031 A 
ATOM     51  C   UNL     1       4.013   8.679  -0.445  1.00  0.00     0.031 A 
ATOM     52  C   UNL     1      -0.579  12.274   2.439  1.00  0.00     0.049 A 
ATOM     53  C   UNL     1       3.301   9.942  -0.839  1.00  0.00     0.074 A 
ATOM     54  C   UNL     1      -1.110  13.481   2.018  1.00  0.00     0.029 A 
ATOM     55  N   UNL     1       0.325  11.874   1.467  1.00  0.00    -0.354 N 
ATOM     56  N   UNL     1       2.386  10.610  -0.178  1.00  0.00    -0.248 NA
ATOM     57  C   UNL     1       3.659  10.529  -2.138  1.00  0.00     0.031 C 
ATOM     58  C   UNL     1      -0.557  13.790   0.769  1.00  0.00     0.029 A 
ATOM     59  C   UNL     1       0.348  12.796   0.434  1.00  0.00     0.049 A 
ATOM     60  H   UNL     1       0.869  11.055   1.505  1.00  0.00     0.167 HD
ATOM     61  C   UNL     1       2.067  11.703  -0.976  1.00  0.00     0.074 A 
ATOM     62  C   UNL     1       2.897  11.615  -2.161  1.00  0.00     0.031 C 
ATOM     63  C   UNL     1       1.167  12.690  -0.746  1.00  0.00     0.031 A 
BRANCH  50  64
ATOM     64  C   UNL     1      -1.943  12.062   4.559  1.00  0.00    -0.014 A 
ATOM     65  C   UNL     1      -1.614  12.630   5.803  1.00  0.00     0.010 A 
ATOM     66  C   UNL     1      -3.293  11.996   4.170  1.00  0.00     0.010 A 
ATOM     67  C   UNL     1      -2.620  13.072   6.666  1.00  0.00     0.020 A 
ATOM     68  C   UNL     1      -4.301  12.460   5.021  1.00  0.00     0.020 A 
ATOM     69  C   UNL     1      -3.958  12.973   6.274  1.00  0.00     0.054 A 
BRANCH  69  70
ATOM     70  S   UNL     1      -5.247  13.544   7.416  1.00  0.00     0.124 S 
ATOM     71  O   UNL     1      -5.310  12.440   8.371  1.00  0.00    -0.237 OA
ATOM     72  O   UNL     1      -4.692  14.791   7.935  1.00  0.00    -0.237 OA
ATOM     73  O   UNL     1      -6.422  13.697   6.562  1.00  0.00    -0.744 OA
ENDBRANCH  69  70
ENDBRANCH  50  64
BRANCH  51  74
ATOM     74  C   UNL     1       5.044   8.079  -1.332  1.00  0.00    -0.014 A 
ATOM     75  C   UNL     1       6.317   8.666  -1.436  1.00  0.00     0.010 A 
ATOM     76  C   UNL     1       4.770   6.902  -2.050  1.00  0.00     0.010 A 
ATOM     77  C   UNL     1       7.299   8.087  -2.244  1.00  0.00     0.020 A 
ATOM     78  C   UNL     1       5.756   6.308  -2.843  1.00  0.00     0.020 A 
ATOM     79  C   UNL     1       7.013   6.908  -2.939  1.00  0.00     0.054 A 
BRANCH  79  80
ATOM     80  S   UNL     1       8.326   6.125  -3.918  1.00  0.00     0.124 S 
ATOM     81  O   UNL     1       8.346   6.956  -5.117  1.00  0.00    -0.237 OA
ATOM     82  O   UNL     1       9.489   6.245  -3.043  1.00  0.00    -0.237 OA
ATOM     83  O   UNL     1       7.838   4.760  -4.106  1.00  0.00    -0.744 OA
ENDBRANCH  79  80
ENDBRANCH  51  74
BRANCH  63  84
ATOM     84  C   UNL     1       1.033  13.760  -1.794  1.00  0.00    -0.014 A 
ATOM     85  C   UNL     1       0.342  13.511  -2.993  1.00  0.00     0.010 A 
ATOM     86  C   UNL     1       1.553  15.044  -1.553  1.00  0.00     0.010 A 
ATOM     87  C   UNL     1       0.190  14.524  -3.943  1.00  0.00     0.020 A 
ATOM     88  C   UNL     1       1.385  16.066  -2.492  1.00  0.00     0.020 A 
ATOM     89  C   UNL     1       0.713  15.796  -3.687  1.00  0.00     0.054 A 
BRANCH  89  90
ATOM     90  S   UNL     1       0.456  17.111  -4.910  1.00  0.00     0.124 S 
ATOM     91  O   UNL     1       1.438  16.769  -5.934  1.00  0.00    -0.237 OA
ATOM     92  O   UNL     1      -0.942  16.927  -5.293  1.00  0.00    -0.237 OA
ATOM     93  O   UNL     1       0.734  18.336  -4.163  1.00  0.00    -0.744 OA
ENDBRANCH  89  90
ENDBRANCH  63  84
ENDBRANCH  37  38
ENDBRANCH  29  32
ENDBRANCH  27  28
ENDBRANCH  26  27
ENDBRANCH  25  26
ENDBRANCH  24  25
ENDBRANCH   1  24
TORSDOF 21
