REMARK SMILES CC(C)c1ccc(-c2cnc([C@@H]3[NH2+][C@H](C(=O)NCCCCCCNC(=O)c4ccc(-c5c6nc(c(-c7ccc(S(=O)(=O)[O-])cc7)c7ccc([nH]7)c(-c7ccc(S(=O)(=O)[O-])cc7)c7nc(c(-c8ccc(S(=O)(=O)[O-])cc8)c8ccc5[nH]8)C=C7)C=C6)cc4)C(C)(C)S3)s2)cc1
REMARK SMILES IDX 20 1 19 2 18 3 17 4 15 5 16 6 14 8 12 9 13 10 90 11 87 14
REMARK SMILES IDX 88 15 89 16 11 17 8 18 9 19 91 20 10 21 7 22 4 23 5 24 93 25
REMARK SMILES IDX 6 26 92 27 2 28 1 29 3 30 21 31 22 32 23 33 24 34 25 35
REMARK SMILES IDX 26 37 27 38 28 39 86 40 29 41 85 42 30 43 31 44 32 45 79 46
REMARK SMILES IDX 33 47 84 48 78 49 80 50 34 51 83 52 77 53 76 54 35 56 65 57
REMARK SMILES IDX 46 58 64 59 47 60 50 61 63 62 81 63 48 64 49 65 62 67 82 68
REMARK SMILES IDX 51 69 36 70 37 71 45 72 38 73 44 74 39 75 40 76 41 77 42 78
REMARK SMILES IDX 43 79 66 80 67 81 75 82 68 83 74 84 69 85 70 86 71 87 72 88
REMARK SMILES IDX 73 89 52 90 53 91 61 92 54 93 60 94 55 95 56 96 57 97 58 98
REMARK SMILES IDX 59 99
REMARK H PARENT 17 7 13 12 13 13 24 36 80 55 50 66
REMARK Flexibility Score: inf
ROOT
ATOM      1  C   UNL     1     -16.040   1.109  -1.424  1.00  0.00     0.002 C 
ENDROOT
BRANCH   1   2
ATOM      2  C   UNL     1     -15.389   0.397  -0.228  1.00  0.00     0.021 C 
BRANCH   2   3
ATOM      3  C   UNL     1     -14.169  -0.470  -0.569  1.00  0.00     0.116 C 
BRANCH   3   4
ATOM      4  N   UNL     1     -13.173   0.301  -1.281  1.00  0.00    -0.351 N 
ATOM      5  C   UNL     1     -12.314   1.181  -0.675  1.00  0.00     0.279 C 
ATOM      6  O   UNL     1     -12.329   2.333  -1.094  1.00  0.00    -0.268 OA
ATOM      7  H   UNL     1     -13.108   0.188  -2.257  1.00  0.00     0.163 HD
BRANCH   5   8
ATOM      8  C   UNL     1     -11.384   0.633   0.435  1.00  0.00     0.289 C 
ATOM      9  C   UNL     1      -9.216   1.679   0.153  1.00  0.00     0.304 C 
ATOM     10  N   UNL     1      -9.992   0.444  -0.090  1.00  0.00    -0.318 N 
ATOM     11  S   UNL     1      -9.876   2.495   1.639  1.00  0.00    -0.079 SA
ATOM     12  H   UNL     1      -9.549  -0.339   0.390  1.00  0.00     0.348 HD
ATOM     13  H   UNL     1     -10.024   0.248  -1.091  1.00  0.00     0.348 HD
ATOM     14  C   UNL     1     -11.337   1.413   1.766  1.00  0.00     0.078 C 
ATOM     15  C   UNL     1     -11.068   0.449   2.938  1.00  0.00     0.030 C 
ATOM     16  C   UNL     1     -12.588   2.234   2.080  1.00  0.00     0.030 C 
BRANCH   9  17
ATOM     17  C   UNL     1      -9.132   2.618  -1.035  1.00  0.00     0.162 A 
ATOM     18  C   UNL     1      -8.454   3.855  -3.037  1.00  0.00     0.055 A 
ATOM     19  C   UNL     1      -9.685   4.176  -2.497  1.00  0.00     0.132 A 
ATOM     20  S   UNL     1      -7.773   2.577  -2.105  1.00  0.00    -0.112 S 
ATOM     21  N   UNL     1     -10.014   3.548  -1.327  1.00  0.00    -0.242 NA
BRANCH  18  22
ATOM     22  C   UNL     1      -7.774   4.488  -4.174  1.00  0.00    -0.007 A 
ATOM     23  C   UNL     1      -6.513   5.840  -6.354  1.00  0.00    -0.045 A 
ATOM     24  C   UNL     1      -6.223   4.498  -6.055  1.00  0.00     0.004 A 
ATOM     25  C   UNL     1      -7.474   6.477  -5.559  1.00  0.00     0.004 A 
ATOM     26  C   UNL     1      -6.842   3.833  -4.982  1.00  0.00     0.010 A 
ATOM     27  C   UNL     1      -8.078   5.821  -4.484  1.00  0.00     0.010 A 
BRANCH  23  28
ATOM     28  C   UNL     1      -5.882   6.591  -7.524  1.00  0.00     0.013 C 
ATOM     29  C   UNL     1      -5.483   8.031  -7.153  1.00  0.00     0.012 C 
ATOM     30  C   UNL     1      -4.657   5.905  -8.143  1.00  0.00     0.012 C 
ENDBRANCH  23  28
ENDBRANCH  18  22
ENDBRANCH   9  17
ENDBRANCH   5   8
ENDBRANCH   3   4
ENDBRANCH   2   3
ENDBRANCH   1   2
BRANCH   1  31
ATOM     31  C   UNL     1     -16.444   0.207  -2.593  1.00  0.00     0.002 C 
BRANCH  31  32
ATOM     32  C   UNL     1     -17.340  -0.975  -2.223  1.00  0.00     0.021 C 
BRANCH  32  33
ATOM     33  C   UNL     1     -18.641  -0.603  -1.523  1.00  0.00     0.116 C 
BRANCH  33  34
ATOM     34  N   UNL     1     -19.542   0.144  -2.384  1.00  0.00    -0.352 N 
ATOM     35  C   UNL     1     -20.881  -0.059  -2.608  1.00  0.00     0.251 C 
ATOM     36  H   UNL     1     -19.138   0.898  -2.872  1.00  0.00     0.163 HD
ATOM     37  O   UNL     1     -21.458   0.572  -3.494  1.00  0.00    -0.269 OA
BRANCH  35  38
ATOM     38  C   UNL     1     -21.624  -1.054  -1.804  1.00  0.00     0.039 A 
ATOM     39  C   UNL     1     -22.487  -1.940  -2.455  1.00  0.00     0.014 A 
ATOM     40  C   UNL     1     -21.477  -1.113  -0.414  1.00  0.00     0.014 A 
ATOM     41  C   UNL     1     -23.163  -2.917  -1.720  1.00  0.00     0.010 A 
ATOM     42  C   UNL     1     -22.102  -2.127   0.308  1.00  0.00     0.010 A 
ATOM     43  C   UNL     1     -22.958  -3.034  -0.336  1.00  0.00    -0.014 A 
BRANCH  43  44
ATOM     44  C   UNL     1     -23.647  -4.083   0.458  1.00  0.00     0.031 A 
ATOM     45  C   UNL     1     -24.662  -3.697   1.500  1.00  0.00     0.074 A 
ATOM     46  C   UNL     1     -23.323  -5.380   0.281  1.00  0.00     0.049 A 
ATOM     47  N   UNL     1     -25.328  -4.462   2.326  1.00  0.00    -0.248 NA
ATOM     48  C   UNL     1     -24.945  -2.260   1.649  1.00  0.00     0.031 C 
ATOM     49  C   UNL     1     -22.328  -5.885  -0.667  1.00  0.00     0.029 A 
ATOM     50  N   UNL     1     -23.795  -6.510   0.900  1.00  0.00    -0.354 N 
ATOM     51  C   UNL     1     -26.091  -3.601   3.106  1.00  0.00     0.074 A 
ATOM     52  C   UNL     1     -25.773  -2.254   2.683  1.00  0.00     0.031 C 
ATOM     53  C   UNL     1     -22.284  -7.225  -0.585  1.00  0.00     0.029 A 
ATOM     54  C   UNL     1     -23.221  -7.671   0.441  1.00  0.00     0.049 A 
ATOM     55  H   UNL     1     -24.481  -6.491   1.607  1.00  0.00     0.167 HD
ATOM     56  C   UNL     1     -26.989  -3.901   4.075  1.00  0.00     0.031 A 
ATOM     57  C   UNL     1     -23.426  -8.953   0.804  1.00  0.00     0.031 A 
ATOM     58  C   UNL     1     -27.322  -5.240   4.483  1.00  0.00     0.049 A 
ATOM     59  C   UNL     1     -24.444  -9.265   1.865  1.00  0.00     0.074 A 
ATOM     60  C   UNL     1     -28.253  -5.649   5.422  1.00  0.00     0.029 A 
ATOM     61  N   UNL     1     -26.738  -6.389   3.972  1.00  0.00    -0.354 N 
ATOM     62  N   UNL     1     -25.191  -8.439   2.558  1.00  0.00    -0.248 NA
ATOM     63  C   UNL     1     -24.657 -10.684   2.182  1.00  0.00     0.031 C 
ATOM     64  C   UNL     1     -28.209  -7.046   5.501  1.00  0.00     0.029 A 
ATOM     65  C   UNL     1     -27.282  -7.507   4.582  1.00  0.00     0.049 A 
ATOM     66  H   UNL     1     -26.039  -6.407   3.279  1.00  0.00     0.167 HD
ATOM     67  C   UNL     1     -25.983  -9.239   3.373  1.00  0.00     0.074 A 
ATOM     68  C   UNL     1     -25.630 -10.614   3.081  1.00  0.00     0.031 C 
ATOM     69  C   UNL     1     -26.921  -8.868   4.279  1.00  0.00     0.031 A 
BRANCH  56  70
ATOM     70  C   UNL     1     -27.671  -2.749   4.762  1.00  0.00    -0.014 A 
ATOM     71  C   UNL     1     -28.635  -1.973   4.092  1.00  0.00     0.010 A 
ATOM     72  C   UNL     1     -27.353  -2.443   6.098  1.00  0.00     0.010 A 
ATOM     73  C   UNL     1     -29.230  -0.881   4.728  1.00  0.00     0.020 A 
ATOM     74  C   UNL     1     -27.966  -1.366   6.745  1.00  0.00     0.020 A 
ATOM     75  C   UNL     1     -28.884  -0.578   6.048  1.00  0.00     0.054 A 
BRANCH  75  76
ATOM     76  S   UNL     1     -29.669   0.845   6.852  1.00  0.00     0.124 S 
ATOM     77  O   UNL     1     -28.937   1.963   6.262  1.00  0.00    -0.237 OA
ATOM     78  O   UNL     1     -31.065   0.722   6.439  1.00  0.00    -0.237 OA
ATOM     79  O   UNL     1     -29.422   0.619   8.274  1.00  0.00    -0.744 OA
ENDBRANCH  75  76
ENDBRANCH  56  70
BRANCH  57  80
ATOM     80  C   UNL     1     -22.671 -10.041   0.127  1.00  0.00    -0.014 A 
ATOM     81  C   UNL     1     -23.310 -10.870  -0.811  1.00  0.00     0.010 A 
ATOM     82  C   UNL     1     -21.306 -10.238   0.400  1.00  0.00     0.010 A 
ATOM     83  C   UNL     1     -22.601 -11.885  -1.458  1.00  0.00     0.020 A 
ATOM     84  C   UNL     1     -20.587 -11.238  -0.262  1.00  0.00     0.020 A 
ATOM     85  C   UNL     1     -21.242 -12.062  -1.180  1.00  0.00     0.054 A 
BRANCH  85  86
ATOM     86  S   UNL     1     -20.322 -13.344  -2.077  1.00  0.00     0.124 S 
ATOM     87  O   UNL     1     -20.747 -14.559  -1.389  1.00  0.00    -0.237 OA
ATOM     88  O   UNL     1     -20.810 -13.186  -3.445  1.00  0.00    -0.237 OA
ATOM     89  O   UNL     1     -18.926 -12.963  -1.875  1.00  0.00    -0.744 OA
ENDBRANCH  85  86
ENDBRANCH  57  80
BRANCH  69  90
ATOM     90  C   UNL     1     -27.660  -9.966   4.995  1.00  0.00    -0.014 A 
ATOM     91  C   UNL     1     -27.046 -10.710   6.017  1.00  0.00     0.010 A 
ATOM     92  C   UNL     1     -29.003 -10.222   4.668  1.00  0.00     0.010 A 
ATOM     93  C   UNL     1     -27.755 -11.716   6.680  1.00  0.00     0.020 A 
ATOM     94  C   UNL     1     -29.722 -11.212   5.344  1.00  0.00     0.020 A 
ATOM     95  C   UNL     1     -29.088 -11.963   6.336  1.00  0.00     0.054 A 
BRANCH  95  96
ATOM     96  S   UNL     1     -30.002 -13.246   7.234  1.00  0.00     0.124 S 
ATOM     97  O   UNL     1     -29.495 -14.468   6.615  1.00  0.00    -0.237 OA
ATOM     98  O   UNL     1     -29.592 -13.027   8.619  1.00  0.00    -0.237 OA
ATOM     99  O   UNL     1     -31.401 -12.937   6.949  1.00  0.00    -0.744 OA
ENDBRANCH  95  96
ENDBRANCH  69  90
ENDBRANCH  43  44
ENDBRANCH  35  38
ENDBRANCH  33  34
ENDBRANCH  32  33
ENDBRANCH  31  32
ENDBRANCH   1  31
TORSDOF 19
