REMARK SMILES CS(=O)(=O)c1ccc(C2=NN(c3ccc(C(=O)NCCCCCCNC(=O)c4ccc(-c5c6nc(c(-c7ccc(S(=O)(=O)[O-])cc7)c7ccc([nH]7)c(-c7ccc(S(=O)(=O)[O-])cc7)c7nc(c(-c8ccc(S(=O)(=O)[O-])cc8)c8ccc5[nH]8)C=C7)C=C6)cc4)cc3)[C@H](c3cccs3)C2)cc1
REMARK SMILES IDX 21 1 20 2 19 3 18 4 16 5 17 6 15 8 12 9 13 10 89 11 14 12
REMARK SMILES IDX 88 13 11 14 9 15 10 16 96 17 90 18 8 19 5 20 6 21 98 22 7 23
REMARK SMILES IDX 97 24 2 25 1 26 3 27 4 28 91 29 92 30 95 31 93 32 94 33
REMARK SMILES IDX 22 34 23 35 24 36 25 37 26 38 27 40 28 41 29 42 87 43 30 44
REMARK SMILES IDX 86 45 31 46 32 47 33 48 80 49 34 50 85 51 79 52 81 53 35 54
REMARK SMILES IDX 84 55 78 56 77 57 36 59 66 60 47 61 65 62 48 63 51 64 64 65
REMARK SMILES IDX 82 66 49 67 50 68 63 70 83 71 52 72 37 73 38 74 46 75 39 76
REMARK SMILES IDX 45 77 40 78 41 79 42 80 43 81 44 82 67 83 68 84 76 85 69 86
REMARK SMILES IDX 75 87 70 88 71 89 72 90 73 91 74 92 53 93 54 94 62 95 55 96
REMARK SMILES IDX 61 97 56 98 57 99 58 100 59 101 60 102
REMARK H PARENT 18 7 25 39 81 58 51 69
REMARK Flexibility Score: inf
ROOT
ATOM      1  C   UNL     1       1.398  -9.859 -14.016  1.00  0.00     0.002 C 
ENDROOT
BRANCH   1   2
ATOM      2  C   UNL     1       1.721  -8.992 -12.792  1.00  0.00     0.021 C 
BRANCH   2   3
ATOM      3  C   UNL     1       2.120  -7.563 -13.164  1.00  0.00     0.116 C 
BRANCH   3   4
ATOM      4  N   UNL     1       0.936  -6.795 -13.501  1.00  0.00    -0.352 N 
ATOM      5  C   UNL     1       0.239  -5.841 -12.807  1.00  0.00     0.251 C 
ATOM      6  O   UNL     1      -0.753  -5.342 -13.338  1.00  0.00    -0.269 OA
ATOM      7  H   UNL     1       0.566  -6.997 -14.391  1.00  0.00     0.163 HD
BRANCH   5   8
ATOM      8  C   UNL     1       0.695  -5.331 -11.488  1.00  0.00     0.039 A 
ATOM      9  C   UNL     1       1.726  -4.155  -9.148  1.00  0.00     0.060 A 
ATOM     10  C   UNL     1       0.992  -3.393 -10.060  1.00  0.00     0.029 A 
ATOM     11  C   UNL     1       1.847  -5.528  -9.370  1.00  0.00     0.029 A 
ATOM     12  C   UNL     1       0.483  -3.972 -11.224  1.00  0.00     0.016 A 
ATOM     13  C   UNL     1       1.314  -6.119 -10.517  1.00  0.00     0.016 A 
BRANCH   9  14
ATOM     14  N   UNL     1       2.306  -3.566  -8.045  1.00  0.00    -0.257 N 
ATOM     15  C   UNL     1       2.361  -2.781  -6.088  1.00  0.00     0.071 C 
ATOM     16  N   UNL     1       1.606  -3.454  -6.897  1.00  0.00    -0.176 NA
ATOM     17  C   UNL     1       3.670  -2.301  -6.658  1.00  0.00     0.091 C 
ATOM     18  C   UNL     1       3.697  -3.112  -7.965  1.00  0.00     0.154 C 
BRANCH  15  19
ATOM     19  C   UNL     1       1.941  -2.472  -4.718  1.00  0.00    -0.002 A 
ATOM     20  C   UNL     1       0.950  -1.907  -2.187  1.00  0.00     0.067 A 
ATOM     21  C   UNL     1       0.877  -3.213  -2.683  1.00  0.00     0.021 A 
ATOM     22  C   UNL     1       1.526  -0.883  -2.948  1.00  0.00     0.021 A 
ATOM     23  C   UNL     1       1.361  -3.492  -3.958  1.00  0.00     0.011 A 
ATOM     24  C   UNL     1       2.034  -1.171  -4.219  1.00  0.00     0.011 A 
BRANCH  20  25
ATOM     25  S   UNL     1       0.274  -1.611  -0.570  1.00  0.00     0.175 S 
ATOM     26  C   UNL     1       0.911  -0.056  -0.018  1.00  0.00     0.163 C 
ATOM     27  O   UNL     1       0.831  -2.628   0.304  1.00  0.00    -0.224 OA
ATOM     28  O   UNL     1      -1.157  -1.465  -0.740  1.00  0.00    -0.224 OA
ENDBRANCH  20  25
ENDBRANCH  15  19
BRANCH  18  29
ATOM     29  C   UNL     1       4.750  -4.207  -8.062  1.00  0.00     0.030 A 
ATOM     30  C   UNL     1       5.191  -4.814  -9.229  1.00  0.00     0.017 A 
ATOM     31  S   UNL     1       5.530  -4.898  -6.698  1.00  0.00    -0.147 S 
ATOM     32  C   UNL     1       6.168  -5.824  -9.000  1.00  0.00     0.012 A 
ATOM     33  C   UNL     1       6.467  -5.950  -7.664  1.00  0.00     0.065 A 
ENDBRANCH  18  29
ENDBRANCH   9  14
ENDBRANCH   5   8
ENDBRANCH   3   4
ENDBRANCH   2   3
ENDBRANCH   1   2
BRANCH   1  34
ATOM     34  C   UNL     1       2.579 -10.075 -14.971  1.00  0.00     0.002 C 
BRANCH  34  35
ATOM     35  C   UNL     1       3.829 -10.669 -14.317  1.00  0.00     0.021 C 
BRANCH  35  36
ATOM     36  C   UNL     1       3.612 -12.046 -13.699  1.00  0.00     0.116 C 
BRANCH  36  37
ATOM     37  N   UNL     1       3.251 -13.030 -14.708  1.00  0.00    -0.352 N 
ATOM     38  C   UNL     1       3.875 -14.206 -15.039  1.00  0.00     0.251 C 
ATOM     39  H   UNL     1       2.441 -12.822 -15.227  1.00  0.00     0.163 HD
ATOM     40  O   UNL     1       3.583 -14.779 -16.084  1.00  0.00    -0.269 OA
BRANCH  38  41
ATOM     41  C   UNL     1       4.902 -14.772 -14.140  1.00  0.00     0.039 A 
ATOM     42  C   UNL     1       6.061 -15.317 -14.697  1.00  0.00     0.014 A 
ATOM     43  C   UNL     1       4.715 -14.785 -12.754  1.00  0.00     0.014 A 
ATOM     44  C   UNL     1       7.052 -15.832 -13.859  1.00  0.00     0.010 A 
ATOM     45  C   UNL     1       5.738 -15.224 -11.919  1.00  0.00     0.010 A 
ATOM     46  C   UNL     1       6.913 -15.762 -12.463  1.00  0.00    -0.014 A 
BRANCH  46  47
ATOM     47  C   UNL     1       7.995 -16.242 -11.565  1.00  0.00     0.031 A 
ATOM     48  C   UNL     1       7.755 -17.393 -10.626  1.00  0.00     0.074 A 
ATOM     49  C   UNL     1       9.182 -15.605 -11.565  1.00  0.00     0.049 A 
ATOM     50  N   UNL     1       8.580 -17.942  -9.771  1.00  0.00    -0.248 NA
ATOM     51  C   UNL     1       6.409 -17.988 -10.626  1.00  0.00     0.031 C 
ATOM     52  C   UNL     1       9.518 -14.441 -12.390  1.00  0.00     0.029 A 
ATOM     53  N   UNL     1      10.328 -15.843 -10.848  1.00  0.00    -0.354 N 
ATOM     54  C   UNL     1       7.851 -18.933  -9.123  1.00  0.00     0.074 A 
ATOM     55  C   UNL     1       6.504 -18.875  -9.646  1.00  0.00     0.031 C 
ATOM     56  C   UNL     1      10.791 -14.088 -12.156  1.00  0.00     0.029 A 
ATOM     57  C   UNL     1      11.350 -14.969 -11.135  1.00  0.00     0.049 A 
ATOM     58  H   UNL     1      10.409 -16.570 -10.189  1.00  0.00     0.167 HD
ATOM     59  C   UNL     1       8.270 -19.822  -8.190  1.00  0.00     0.031 A 
ATOM     60  C   UNL     1      12.596 -14.880 -10.631  1.00  0.00     0.031 A 
ATOM     61  C   UNL     1       9.614 -19.875  -7.676  1.00  0.00     0.049 A 
ATOM     62  C   UNL     1      13.040 -15.879  -9.600  1.00  0.00     0.074 A 
ATOM     63  C   UNL     1      10.157 -20.781  -6.782  1.00  0.00     0.029 A 
ATOM     64  N   UNL     1      10.623 -18.979  -7.999  1.00  0.00    -0.354 N 
ATOM     65  N   UNL     1      12.362 -16.867  -9.065  1.00  0.00    -0.248 NA
ATOM     66  C   UNL     1      14.422 -15.762  -9.116  1.00  0.00     0.031 C 
ATOM     67  C   UNL     1      11.473 -20.392  -6.511  1.00  0.00     0.029 A 
ATOM     68  C   UNL     1      11.775 -19.288  -7.294  1.00  0.00     0.049 A 
ATOM     69  H   UNL     1      10.534 -18.234  -8.636  1.00  0.00     0.167 HD
ATOM     70  C   UNL     1      13.242 -17.503  -8.196  1.00  0.00     0.074 A 
ATOM     71  C   UNL     1      14.506 -16.801  -8.297  1.00  0.00     0.031 C 
ATOM     72  C   UNL     1      13.023 -18.571  -7.389  1.00  0.00     0.031 A 
BRANCH  59  73
ATOM     73  C   UNL     1       7.255 -20.797  -7.648  1.00  0.00    -0.014 A 
ATOM     74  C   UNL     1       6.709 -21.812  -8.455  1.00  0.00     0.010 A 
ATOM     75  C   UNL     1       6.868 -20.720  -6.297  1.00  0.00     0.010 A 
ATOM     76  C   UNL     1       5.761 -22.699  -7.936  1.00  0.00     0.020 A 
ATOM     77  C   UNL     1       5.946 -21.625  -5.765  1.00  0.00     0.020 A 
ATOM     78  C   UNL     1       5.383 -22.597  -6.593  1.00  0.00     0.054 A 
BRANCH  78  79
ATOM     79  S   UNL     1       4.163 -23.771  -5.943  1.00  0.00     0.124 S 
ATOM     80  O   UNL     1       2.935 -23.321  -6.593  1.00  0.00    -0.237 OA
ATOM     81  O   UNL     1       4.682 -25.058  -6.402  1.00  0.00    -0.237 OA
ATOM     82  O   UNL     1       4.215 -23.562  -4.498  1.00  0.00    -0.744 OA
ENDBRANCH  78  79
ENDBRANCH  59  73
BRANCH  60  83
ATOM     83  C   UNL     1      13.508 -13.803 -11.107  1.00  0.00    -0.014 A 
ATOM     84  C   UNL     1      14.626 -14.104 -11.904  1.00  0.00     0.010 A 
ATOM     85  C   UNL     1      13.237 -12.459 -10.790  1.00  0.00     0.010 A 
ATOM     86  C   UNL     1      15.463 -13.082 -12.364  1.00  0.00     0.020 A 
ATOM     87  C   UNL     1      14.052 -11.433 -11.274  1.00  0.00     0.020 A 
ATOM     88  C   UNL     1      15.166 -11.752 -12.052  1.00  0.00     0.054 A 
BRANCH  88  89
ATOM     89  S   UNL     1      16.226 -10.438 -12.717  1.00  0.00     0.124 S 
ATOM     90  O   UNL     1      17.444 -10.602 -11.931  1.00  0.00    -0.237 OA
ATOM     91  O   UNL     1      16.328 -10.802 -14.128  1.00  0.00    -0.237 OA
ATOM     92  O   UNL     1      15.466  -9.219 -12.450  1.00  0.00    -0.744 OA
ENDBRANCH  88  89
ENDBRANCH  60  83
BRANCH  72  93
ATOM     93  C   UNL     1      14.184 -19.063  -6.564  1.00  0.00    -0.014 A 
ATOM     94  C   UNL     1      14.690 -18.312  -5.488  1.00  0.00     0.010 A 
ATOM     95  C   UNL     1      14.755 -20.318  -6.849  1.00  0.00     0.010 A 
ATOM     96  C   UNL     1      15.772 -18.785  -4.742  1.00  0.00     0.020 A 
ATOM     97  C   UNL     1      15.814 -20.811  -6.084  1.00  0.00     0.020 A 
ATOM     98  C   UNL     1      16.328 -20.032  -5.046  1.00  0.00     0.054 A 
BRANCH  98  99
ATOM     99  S   UNL     1      17.716 -20.634  -4.046  1.00  0.00     0.124 S 
ATOM    100  O   UNL     1      18.807 -19.772  -4.490  1.00  0.00    -0.237 OA
ATOM    101  O   UNL     1      17.250 -20.405  -2.681  1.00  0.00    -0.237 OA
ATOM    102  O   UNL     1      17.836 -22.039  -4.430  1.00  0.00    -0.744 OA
ENDBRANCH  98  99
ENDBRANCH  72  93
ENDBRANCH  46  47
ENDBRANCH  38  41
ENDBRANCH  36  37
ENDBRANCH  35  36
ENDBRANCH  34  35
ENDBRANCH   1  34
TORSDOF 20
