REMARK SMILES Cc1nn([C@H]2CCS(=O)(=O)C2)c(C)c1/C=C(\CC(=O)NCCCCCCNC(=O)c1ccc(-c2c3nc(c(-c4ccc(S(=O)(=O)[O-])cc4)c4ccc([nH]4)c(-c4ccc(S(=O)(=O)[O-])cc4)c4nc(c(-c5ccc(S(=O)(=O)[O-])cc5)c5ccc2[nH]5)C=C4)C=C3)cc1)c1nc2ccccc2s1
REMARK SMILES IDX 23 1 22 2 21 3 20 4 18 5 19 6 17 8 16 9 15 10 14 11 1 12
REMARK SMILES IDX 2 13 3 14 4 15 12 16 13 17 5 18 6 19 11 20 7 21 8 22 9 23
REMARK SMILES IDX 10 24 90 25 91 26 98 27 92 28 97 29 93 30 96 31 94 32 95 33
REMARK SMILES IDX 24 34 25 35 26 36 27 37 28 38 29 40 30 41 31 42 89 43 32 44
REMARK SMILES IDX 88 45 33 46 34 47 35 48 82 49 36 50 87 51 81 52 83 53 37 54
REMARK SMILES IDX 86 55 80 56 79 57 38 59 68 60 49 61 67 62 50 63 53 64 66 65
REMARK SMILES IDX 84 66 51 67 52 68 65 70 85 71 54 72 39 73 40 74 48 75 41 76
REMARK SMILES IDX 47 77 42 78 43 79 44 80 45 81 46 82 69 83 70 84 78 85 71 86
REMARK SMILES IDX 77 87 72 88 73 89 74 90 75 91 76 92 55 93 56 94 64 95 57 96
REMARK SMILES IDX 63 97 58 98 59 99 60 100 61 101 62 102
REMARK H PARENT 20 7 27 39 83 58 53 69
REMARK Flexibility Score: inf
ROOT
ATOM      1  C   UNL     1       5.118  -8.112  -4.924  1.00  0.00     0.002 C 
ENDROOT
BRANCH   1   2
ATOM      2  C   UNL     1       4.004  -7.062  -4.985  1.00  0.00     0.021 C 
BRANCH   2   3
ATOM      3  C   UNL     1       3.707  -6.433  -3.628  1.00  0.00     0.116 C 
BRANCH   3   4
ATOM      4  N   UNL     1       4.845  -5.664  -3.170  1.00  0.00    -0.356 N 
ATOM      5  C   UNL     1       5.007  -4.309  -3.176  1.00  0.00     0.224 C 
ATOM      6  O   UNL     1       6.130  -3.848  -2.963  1.00  0.00    -0.275 OA
ATOM      7  H   UNL     1       5.598  -6.185  -2.808  1.00  0.00     0.163 HD
BRANCH   5   8
ATOM      8  C   UNL     1       3.773  -3.421  -3.205  1.00  0.00     0.138 C 
BRANCH   8   9
ATOM      9  C   UNL     1       2.962  -3.315  -4.474  1.00  0.00    -0.002 C 
ATOM     10  C   UNL     1       1.637  -3.586  -4.584  1.00  0.00     0.019 C 
BRANCH  10  11
ATOM     11  C   UNL     1       0.696  -4.168  -3.654  1.00  0.00     0.019 A 
ATOM     12  C   UNL     1      -0.930  -5.249  -5.439  1.00  0.00     0.069 C 
ATOM     13  C   UNL     1      -0.429  -4.942  -4.074  1.00  0.00     0.067 A 
ATOM     14  N   UNL     1      -1.069  -5.474  -3.038  1.00  0.00    -0.177 NA
ATOM     15  N   UNL     1      -0.350  -5.114  -1.965  1.00  0.00    -0.265 N 
ATOM     16  C   UNL     1       0.590  -4.151  -2.259  1.00  0.00     0.043 A 
ATOM     17  C   UNL     1       1.238  -3.332  -1.200  1.00  0.00     0.067 C 
BRANCH  15  18
ATOM     18  C   UNL     1      -0.717  -5.823  -0.756  1.00  0.00     0.123 C 
ATOM     19  C   UNL     1      -0.453  -7.341  -0.904  1.00  0.00     0.044 C 
ATOM     20  C   UNL     1      -0.095  -5.485   0.593  1.00  0.00     0.164 C 
ATOM     21  C   UNL     1      -1.048  -7.975   0.342  1.00  0.00     0.139 C 
ATOM     22  S   UNL     1      -0.721  -6.796   1.644  1.00  0.00     0.152 S 
ATOM     23  O   UNL     1      -1.977  -6.371   2.210  1.00  0.00    -0.229 OA
ATOM     24  O   UNL     1       0.368  -7.296   2.467  1.00  0.00    -0.229 OA
ENDBRANCH  15  18
ENDBRANCH  10  11
BRANCH   9  25
ATOM     25  C   UNL     1       3.672  -2.924  -5.664  1.00  0.00     0.121 A 
ATOM     26  N   UNL     1       4.717  -3.578  -6.129  1.00  0.00    -0.236 NA
ATOM     27  S   UNL     1       3.400  -1.393  -6.413  1.00  0.00    -0.114 S 
ATOM     28  C   UNL     1       5.528  -2.716  -6.843  1.00  0.00     0.082 A 
ATOM     29  C   UNL     1       4.993  -1.448  -7.068  1.00  0.00     0.055 A 
ATOM     30  C   UNL     1       6.844  -2.989  -7.267  1.00  0.00     0.030 A 
ATOM     31  C   UNL     1       5.734  -0.433  -7.693  1.00  0.00     0.021 A 
ATOM     32  C   UNL     1       7.616  -1.962  -7.818  1.00  0.00     0.002 A 
ATOM     33  C   UNL     1       7.067  -0.700  -8.022  1.00  0.00     0.002 A 
ENDBRANCH   9  25
ENDBRANCH   8   9
ENDBRANCH   5   8
ENDBRANCH   3   4
ENDBRANCH   2   3
ENDBRANCH   1   2
BRANCH   1  34
ATOM     34  C   UNL     1       4.889  -9.242  -3.910  1.00  0.00     0.002 C 
BRANCH  34  35
ATOM     35  C   UNL     1       3.578 -10.025  -4.071  1.00  0.00     0.021 C 
BRANCH  35  36
ATOM     36  C   UNL     1       3.511 -10.834  -5.357  1.00  0.00     0.116 C 
BRANCH  36  37
ATOM     37  N   UNL     1       4.536 -11.878  -5.394  1.00  0.00    -0.352 N 
ATOM     38  C   UNL     1       4.904 -12.698  -6.441  1.00  0.00     0.251 C 
ATOM     39  H   UNL     1       5.033 -12.015  -4.555  1.00  0.00     0.163 HD
ATOM     40  O   UNL     1       5.511 -13.741  -6.235  1.00  0.00    -0.269 OA
BRANCH  38  41
ATOM     41  C   UNL     1       4.561 -12.288  -7.812  1.00  0.00     0.039 A 
ATOM     42  C   UNL     1       4.106 -13.207  -8.764  1.00  0.00     0.014 A 
ATOM     43  C   UNL     1       4.686 -10.939  -8.125  1.00  0.00     0.014 A 
ATOM     44  C   UNL     1       3.707 -12.739 -10.015  1.00  0.00     0.010 A 
ATOM     45  C   UNL     1       4.141 -10.462  -9.284  1.00  0.00     0.010 A 
ATOM     46  C   UNL     1       3.719 -11.361 -10.260  1.00  0.00    -0.014 A 
BRANCH  46  47
ATOM     47  C   UNL     1       3.227 -10.790 -11.507  1.00  0.00     0.031 A 
ATOM     48  C   UNL     1       1.769 -10.966 -11.753  1.00  0.00     0.074 A 
ATOM     49  C   UNL     1       3.966  -9.887 -12.187  1.00  0.00     0.049 A 
ATOM     50  N   UNL     1       1.188 -11.613 -12.708  1.00  0.00    -0.248 NA
ATOM     51  C   UNL     1       0.839 -10.452 -10.732  1.00  0.00     0.031 C 
ATOM     52  C   UNL     1       5.288  -9.352 -11.821  1.00  0.00     0.029 A 
ATOM     53  N   UNL     1       3.624  -9.123 -13.255  1.00  0.00    -0.354 N 
ATOM     54  C   UNL     1      -0.179 -11.398 -12.535  1.00  0.00     0.074 A 
ATOM     55  C   UNL     1      -0.335 -10.876 -11.202  1.00  0.00     0.031 C 
ATOM     56  C   UNL     1       5.505  -8.195 -12.482  1.00  0.00     0.029 A 
ATOM     57  C   UNL     1       4.435  -8.008 -13.443  1.00  0.00     0.049 A 
ATOM     58  H   UNL     1       2.866  -9.339 -13.846  1.00  0.00     0.167 HD
ATOM     59  C   UNL     1      -1.048 -11.398 -13.586  1.00  0.00     0.031 A 
ATOM     60  C   UNL     1       4.217  -6.978 -14.297  1.00  0.00     0.031 A 
ATOM     61  C   UNL     1      -0.440 -11.933 -14.777  1.00  0.00     0.049 A 
ATOM     62  C   UNL     1       3.246  -7.463 -15.308  1.00  0.00     0.074 A 
ATOM     63  C   UNL     1       0.127 -13.140 -15.130  1.00  0.00     0.029 A 
ATOM     64  N   UNL     1       0.005 -11.017 -15.704  1.00  0.00    -0.354 N 
ATOM     65  N   UNL     1       3.499  -8.435 -16.141  1.00  0.00    -0.248 NA
ATOM     66  C   UNL     1       1.835  -7.174 -15.104  1.00  0.00     0.031 C 
ATOM     67  C   UNL     1       1.238 -12.798 -15.956  1.00  0.00     0.029 A 
ATOM     68  C   UNL     1       1.251 -11.409 -16.118  1.00  0.00     0.049 A 
ATOM     69  H   UNL     1      -0.486 -10.222 -16.014  1.00  0.00     0.167 HD
ATOM     70  C   UNL     1       2.314  -9.151 -16.227  1.00  0.00     0.074 A 
ATOM     71  C   UNL     1       1.298  -8.261 -15.667  1.00  0.00     0.031 C 
ATOM     72  C   UNL     1       2.317 -10.494 -16.478  1.00  0.00     0.031 A 
BRANCH  59  73
ATOM     73  C   UNL     1      -2.289 -10.531 -13.656  1.00  0.00    -0.014 A 
ATOM     74  C   UNL     1      -3.129 -10.634 -14.786  1.00  0.00     0.010 A 
ATOM     75  C   UNL     1      -2.513  -9.432 -12.801  1.00  0.00     0.010 A 
ATOM     76  C   UNL     1      -4.080  -9.647 -15.082  1.00  0.00     0.020 A 
ATOM     77  C   UNL     1      -3.489  -8.469 -13.060  1.00  0.00     0.020 A 
ATOM     78  C   UNL     1      -4.241  -8.561 -14.222  1.00  0.00     0.054 A 
BRANCH  78  79
ATOM     79  S   UNL     1      -5.379  -7.228 -14.669  1.00  0.00     0.124 S 
ATOM     80  O   UNL     1      -4.725  -6.658 -15.842  1.00  0.00    -0.237 OA
ATOM     81  O   UNL     1      -6.621  -7.953 -14.922  1.00  0.00    -0.237 OA
ATOM     82  O   UNL     1      -5.391  -6.377 -13.481  1.00  0.00    -0.744 OA
ENDBRANCH  78  79
ENDBRANCH  59  73
BRANCH  60  83
ATOM     83  C   UNL     1       4.561  -5.545 -14.119  1.00  0.00    -0.014 A 
ATOM     84  C   UNL     1       4.526  -4.651 -15.204  1.00  0.00     0.010 A 
ATOM     85  C   UNL     1       4.661  -4.996 -12.823  1.00  0.00     0.010 A 
ATOM     86  C   UNL     1       4.524  -3.260 -14.997  1.00  0.00     0.020 A 
ATOM     87  C   UNL     1       4.667  -3.611 -12.608  1.00  0.00     0.020 A 
ATOM     88  C   UNL     1       4.572  -2.748 -13.697  1.00  0.00     0.054 A 
BRANCH  88  89
ATOM     89  S   UNL     1       4.378  -0.959 -13.432  1.00  0.00     0.124 S 
ATOM     90  O   UNL     1       5.639  -0.430 -13.943  1.00  0.00    -0.237 OA
ATOM     91  O   UNL     1       3.194  -0.646 -14.227  1.00  0.00    -0.237 OA
ATOM     92  O   UNL     1       4.197  -0.840 -11.986  1.00  0.00    -0.744 OA
ENDBRANCH  88  89
ENDBRANCH  60  83
BRANCH  72  93
ATOM     93  C   UNL     1       3.610 -11.135 -16.935  1.00  0.00    -0.014 A 
ATOM     94  C   UNL     1       4.759 -11.233 -16.124  1.00  0.00     0.010 A 
ATOM     95  C   UNL     1       3.597 -11.822 -18.161  1.00  0.00     0.010 A 
ATOM     96  C   UNL     1       5.865 -11.995 -16.533  1.00  0.00     0.020 A 
ATOM     97  C   UNL     1       4.689 -12.595 -18.567  1.00  0.00     0.020 A 
ATOM     98  C   UNL     1       5.819 -12.677 -17.753  1.00  0.00     0.054 A 
BRANCH  98  99
ATOM     99  S   UNL     1       7.216 -13.729 -18.242  1.00  0.00     0.124 S 
ATOM    100  O   UNL     1       8.262 -12.754 -18.537  1.00  0.00    -0.237 OA
ATOM    101  O   UNL     1       7.438 -14.550 -17.053  1.00  0.00    -0.237 OA
ATOM    102  O   UNL     1       6.710 -14.463 -19.402  1.00  0.00    -0.744 OA
ENDBRANCH  98  99
ENDBRANCH  72  93
ENDBRANCH  46  47
ENDBRANCH  38  41
ENDBRANCH  36  37
ENDBRANCH  35  36
ENDBRANCH  34  35
ENDBRANCH   1  34
TORSDOF 20
