REMARK SMILES C[C@@H]1[C@@H](C(=O)NCCCCCCNC(=O)c2ccc(-c3c4nc(c(-c5ccc(S(=O)(=O)[O-])cc5)c5ccc([nH]5)c(-c5ccc(S(=O)(=O)[O-])cc5)c5nc(c(-c6ccc(S(=O)(=O)[O-])cc6)c6ccc3[nH]6)C=C5)C=C4)cc2)CCN1C(=O)[C@@H]1C[C@@H]2CCCC[C@@H]2[NH2+]1
REMARK SMILES IDX 10 1 9 2 8 3 7 4 6 5 4 6 5 7 3 9 1 10 2 11 78 12 76 13 77 14
REMARK SMILES IDX 79 15 80 16 81 17 82 18 89 19 83 20 88 21 84 24 87 25 85 26
REMARK SMILES IDX 86 27 11 28 12 29 13 30 14 31 15 33 16 34 17 35 75 36 18 37
REMARK SMILES IDX 74 38 19 39 20 40 21 41 68 42 22 43 73 44 67 45 69 46 23 47
REMARK SMILES IDX 72 48 66 49 65 50 24 52 54 53 35 54 53 55 36 56 39 57 52 58
REMARK SMILES IDX 70 59 37 60 38 61 51 63 71 64 40 65 25 66 26 67 34 68 27 69
REMARK SMILES IDX 33 70 28 71 29 72 30 73 31 74 32 75 55 76 56 77 64 78 57 79
REMARK SMILES IDX 63 80 58 81 59 82 60 83 61 84 62 85 41 86 42 87 50 88 43 89
REMARK SMILES IDX 49 90 44 91 45 92 46 93 47 94 48 95
REMARK H PARENT 6 8 89 22 89 23 13 32 69 51 39 62
REMARK Flexibility Score: inf
ROOT
ATOM      1  C   UNL     1      -5.073   3.429  -2.611  1.00  0.00     0.002 C 
ENDROOT
BRANCH   1   2
ATOM      2  C   UNL     1      -3.797   4.263  -2.761  1.00  0.00     0.002 C 
BRANCH   2   3
ATOM      3  C   UNL     1      -2.868   4.326  -1.544  1.00  0.00     0.021 C 
BRANCH   3   4
ATOM      4  C   UNL     1      -2.487   2.985  -0.930  1.00  0.00     0.116 C 
BRANCH   4   5
ATOM      5  N   UNL     1      -1.678   2.155  -1.799  1.00  0.00    -0.356 N 
ATOM      6  C   UNL     1      -0.773   1.190  -1.449  1.00  0.00     0.225 C 
ATOM      7  O   UNL     1      -0.200   0.579  -2.350  1.00  0.00    -0.275 OA
ATOM      8  H   UNL     1      -1.794   2.305  -2.765  1.00  0.00     0.163 HD
BRANCH   6   9
ATOM      9  C   UNL     1      -0.464   0.968   0.033  1.00  0.00     0.102 C 
ATOM     10  C   UNL     1       1.397   0.161   1.526  1.00  0.00     0.032 C 
ATOM     11  C   UNL     1       0.586  -0.149   0.260  1.00  0.00     0.094 C 
ATOM     12  N   UNL     1      -0.208  -1.381   0.393  1.00  0.00    -0.334 N 
ATOM     13  C   UNL     1      -1.658   0.432   0.825  1.00  0.00     0.037 C 
ATOM     14  C   UNL     1      -1.619  -1.054   0.527  1.00  0.00     0.121 C 
BRANCH  12  15
ATOM     15  C   UNL     1       0.116  -2.644  -0.077  1.00  0.00     0.281 C 
ATOM     16  O   UNL     1      -0.765  -3.351  -0.592  1.00  0.00    -0.268 OA
BRANCH  15  17
ATOM     17  C   UNL     1       1.509  -3.289   0.210  1.00  0.00     0.273 C 
ATOM     18  C   UNL     1       2.796  -2.516   0.023  1.00  0.00     0.085 C 
ATOM     19  N   UNL     1       1.675  -4.510  -0.656  1.00  0.00    -0.333 N 
ATOM     20  C   UNL     1       3.287  -2.887  -1.356  1.00  0.00     0.054 C 
ATOM     21  C   UNL     1       2.901  -4.357  -1.454  1.00  0.00     0.186 C 
ATOM     22  H   UNL     1       0.871  -4.603  -1.276  1.00  0.00     0.347 HD
ATOM     23  H   UNL     1       1.741  -5.344  -0.072  1.00  0.00     0.347 HD
ATOM     24  C   UNL     1       2.647  -2.073  -2.482  1.00  0.00     0.010 C 
ATOM     25  C   UNL     1       2.776  -4.848  -2.904  1.00  0.00     0.065 C 
ATOM     26  C   UNL     1       3.188  -2.527  -3.839  1.00  0.00     0.001 C 
ATOM     27  C   UNL     1       3.628  -3.996  -3.848  1.00  0.00     0.006 C 
ENDBRANCH  15  17
ENDBRANCH  12  15
ENDBRANCH   6   9
ENDBRANCH   4   5
ENDBRANCH   3   4
ENDBRANCH   2   3
ENDBRANCH   1   2
BRANCH   1  28
ATOM     28  C   UNL     1      -5.953   3.726  -1.394  1.00  0.00     0.021 C 
BRANCH  28  29
ATOM     29  C   UNL     1      -6.349   5.184  -1.186  1.00  0.00     0.116 C 
BRANCH  29  30
ATOM     30  N   UNL     1      -7.072   5.746  -2.311  1.00  0.00    -0.352 N 
ATOM     31  C   UNL     1      -8.210   6.510  -2.327  1.00  0.00     0.251 C 
ATOM     32  H   UNL     1      -6.688   5.548  -3.196  1.00  0.00     0.163 HD
ATOM     33  O   UNL     1      -8.725   6.798  -3.411  1.00  0.00    -0.269 OA
BRANCH  31  34
ATOM     34  C   UNL     1      -8.844   6.968  -1.069  1.00  0.00     0.039 A 
ATOM     35  C   UNL     1     -10.238   6.919  -0.972  1.00  0.00     0.014 A 
ATOM     36  C   UNL     1      -8.093   7.474  -0.004  1.00  0.00     0.014 A 
ATOM     37  C   UNL     1     -10.873   7.327   0.204  1.00  0.00     0.010 A 
ATOM     38  C   UNL     1      -8.723   7.821   1.193  1.00  0.00     0.010 A 
ATOM     39  C   UNL     1     -10.120   7.759   1.308  1.00  0.00    -0.014 A 
BRANCH  39  40
ATOM     40  C   UNL     1     -10.786   8.156   2.576  1.00  0.00     0.031 A 
ATOM     41  C   UNL     1     -10.729   9.582   3.054  1.00  0.00     0.074 A 
ATOM     42  C   UNL     1     -11.417   7.224   3.318  1.00  0.00     0.049 A 
ATOM     43  N   UNL     1     -11.241  10.109   4.138  1.00  0.00    -0.248 NA
ATOM     44  C   UNL     1      -9.982  10.536   2.219  1.00  0.00     0.031 C 
ATOM     45  C   UNL     1     -11.513   5.800   2.988  1.00  0.00     0.029 A 
ATOM     46  N   UNL     1     -12.100   7.335   4.504  1.00  0.00    -0.354 N 
ATOM     47  C   UNL     1     -10.870  11.449   4.120  1.00  0.00     0.074 A 
ATOM     48  C   UNL     1     -10.050  11.644   2.944  1.00  0.00     0.031 C 
ATOM     49  C   UNL     1     -12.237   5.177   3.932  1.00  0.00     0.029 A 
ATOM     50  C   UNL     1     -12.630   6.148   4.949  1.00  0.00     0.049 A 
ATOM     51  H   UNL     1     -12.200   8.186   4.990  1.00  0.00     0.167 HD
ATOM     52  C   UNL     1     -11.198  12.434   4.991  1.00  0.00     0.031 A 
ATOM     53  C   UNL     1     -13.353   5.868   6.051  1.00  0.00     0.031 A 
ATOM     54  C   UNL     1     -12.024  12.245   6.154  1.00  0.00     0.049 A 
ATOM     55  C   UNL     1     -13.705   6.978   7.003  1.00  0.00     0.074 A 
ATOM     56  C   UNL     1     -12.456  13.193   7.066  1.00  0.00     0.029 A 
ATOM     57  N   UNL     1     -12.545  11.029   6.566  1.00  0.00    -0.354 N 
ATOM     58  N   UNL     1     -13.397   8.251   6.934  1.00  0.00    -0.248 NA
ATOM     59  C   UNL     1     -14.513   6.614   8.176  1.00  0.00     0.031 C 
ATOM     60  C   UNL     1     -13.203  12.542   8.054  1.00  0.00     0.029 A 
ATOM     61  C   UNL     1     -13.276  11.197   7.730  1.00  0.00     0.049 A 
ATOM     62  H   UNL     1     -12.414  10.171   6.100  1.00  0.00     0.167 HD
ATOM     63  C   UNL     1     -13.991   8.844   8.042  1.00  0.00     0.074 A 
ATOM     64  C   UNL     1     -14.690   7.794   8.755  1.00  0.00     0.031 C 
ATOM     65  C   UNL     1     -13.961  10.142   8.433  1.00  0.00     0.031 A 
BRANCH  52  66
ATOM     66  C   UNL     1     -10.654  13.811   4.717  1.00  0.00    -0.014 A 
ATOM     67  C   UNL     1     -11.140  14.582   3.645  1.00  0.00     0.010 A 
ATOM     68  C   UNL     1      -9.669  14.357   5.561  1.00  0.00     0.010 A 
ATOM     69  C   UNL     1     -10.619  15.854   3.395  1.00  0.00     0.020 A 
ATOM     70  C   UNL     1      -9.164  15.640   5.329  1.00  0.00     0.020 A 
ATOM     71  C   UNL     1      -9.630  16.373   4.235  1.00  0.00     0.054 A 
BRANCH  71  72
ATOM     72  S   UNL     1      -8.979  18.032   3.895  1.00  0.00     0.124 S 
ATOM     73  O   UNL     1      -8.124  17.787   2.737  1.00  0.00    -0.237 OA
ATOM     74  O   UNL     1     -10.190  18.804   3.628  1.00  0.00    -0.237 OA
ATOM     75  O   UNL     1      -8.276  18.387   5.125  1.00  0.00    -0.744 OA
ENDBRANCH  71  72
ENDBRANCH  52  66
BRANCH  53  76
ATOM     76  C   UNL     1     -13.812   4.476   6.304  1.00  0.00    -0.014 A 
ATOM     77  C   UNL     1     -15.168   4.134   6.154  1.00  0.00     0.010 A 
ATOM     78  C   UNL     1     -12.893   3.481   6.684  1.00  0.00     0.010 A 
ATOM     79  C   UNL     1     -15.599   2.826   6.397  1.00  0.00     0.020 A 
ATOM     80  C   UNL     1     -13.316   2.167   6.902  1.00  0.00     0.020 A 
ATOM     81  C   UNL     1     -14.669   1.851   6.768  1.00  0.00     0.054 A 
BRANCH  81  82
ATOM     82  S   UNL     1     -15.240   0.148   7.026  1.00  0.00     0.124 S 
ATOM     83  O   UNL     1     -15.887   0.239   8.331  1.00  0.00    -0.237 OA
ATOM     84  O   UNL     1     -16.133  -0.063   5.889  1.00  0.00    -0.237 OA
ATOM     85  O   UNL     1     -14.006  -0.633   6.991  1.00  0.00    -0.744 OA
ENDBRANCH  81  82
ENDBRANCH  53  76
BRANCH  65  86
ATOM     86  C   UNL     1     -14.723  10.505   9.679  1.00  0.00    -0.014 A 
ATOM     87  C   UNL     1     -14.248  10.142  10.952  1.00  0.00     0.010 A 
ATOM     88  C   UNL     1     -15.906  11.259   9.576  1.00  0.00     0.010 A 
ATOM     89  C   UNL     1     -14.961  10.500  12.099  1.00  0.00     0.020 A 
ATOM     90  C   UNL     1     -16.608  11.640  10.723  1.00  0.00     0.020 A 
ATOM     91  C   UNL     1     -16.138  11.245  11.977  1.00  0.00     0.054 A 
BRANCH  91  92
ATOM     92  S   UNL     1     -17.025  11.732  13.482  1.00  0.00     0.124 S 
ATOM     93  O   UNL     1     -17.676  10.482  13.868  1.00  0.00    -0.237 OA
ATOM     94  O   UNL     1     -15.947  12.177  14.362  1.00  0.00    -0.237 OA
ATOM     95  O   UNL     1     -17.925  12.789  13.027  1.00  0.00    -0.744 OA
ENDBRANCH  91  92
ENDBRANCH  65  86
ENDBRANCH  39  40
ENDBRANCH  31  34
ENDBRANCH  29  30
ENDBRANCH  28  29
ENDBRANCH   1  28
TORSDOF 18
