REMARK SMILES C[C@@H]1C(C(=O)NCCCCCCNC(=O)c2ccc(-c3c4nc(c(-c5ccc(S(=O)(=O)[O-])cc5)c5ccc([nH]5)c(-c5ccc(S(=O)(=O)[O-])cc5)c5nc(c(-c6ccc(S(=O)(=O)[O-])cc6)c6ccc3[nH]6)C=C5)C=C4)cc2)=NC2=C1C(=O)C[C@H](c1ccccc1)C2
REMARK SMILES IDX 10 1 9 2 8 3 7 4 6 5 4 6 5 7 3 9 1 10 2 11 78 12 76 13 77 14
REMARK SMILES IDX 79 15 89 16 80 17 81 18 82 19 83 20 84 21 88 22 85 23 87 24
REMARK SMILES IDX 86 25 11 26 12 27 13 28 14 29 15 31 16 32 17 33 75 34 18 35
REMARK SMILES IDX 74 36 19 37 20 38 21 39 68 40 22 41 73 42 67 43 69 44 23 45
REMARK SMILES IDX 72 46 66 47 65 48 24 50 54 51 35 52 53 53 36 54 39 55 52 56
REMARK SMILES IDX 70 57 37 58 38 59 51 61 71 62 40 63 25 64 26 65 34 66 27 67
REMARK SMILES IDX 33 68 28 69 29 70 30 71 31 72 32 73 55 74 56 75 64 76 57 77
REMARK SMILES IDX 63 78 58 79 59 80 60 81 61 82 62 83 41 84 42 85 50 86 43 87
REMARK SMILES IDX 49 88 44 89 45 90 46 91 47 92 48 93
REMARK H PARENT 6 8 13 30 69 49 39 60
REMARK Flexibility Score: inf
ROOT
ATOM      1  C   UNL     1       4.572   2.301  -0.773  1.00  0.00     0.002 C 
ENDROOT
BRANCH   1   2
ATOM      2  C   UNL     1       4.933   0.887  -1.237  1.00  0.00     0.002 C 
BRANCH   2   3
ATOM      3  C   UNL     1       4.189  -0.301  -0.630  1.00  0.00     0.021 C 
BRANCH   3   4
ATOM      4  C   UNL     1       2.664  -0.281  -0.531  1.00  0.00     0.116 C 
BRANCH   4   5
ATOM      5  N   UNL     1       1.897   0.076  -1.707  1.00  0.00    -0.351 N 
ATOM      6  C   UNL     1       0.535  -0.090  -1.942  1.00  0.00     0.266 C 
ATOM      7  O   UNL     1      -0.015   0.589  -2.804  1.00  0.00    -0.268 OA
ATOM      8  H   UNL     1       2.407   0.492  -2.438  1.00  0.00     0.163 HD
BRANCH   6   9
ATOM      9  C   UNL     1      -0.266  -1.201  -1.256  1.00  0.00     0.113 C 
ATOM     10  C   UNL     1      -1.345  -0.973   0.986  1.00  0.00     0.020 C 
ATOM     11  C   UNL     1      -0.157  -1.533   0.209  1.00  0.00     0.076 C 
ATOM     12  C   UNL     1      -0.312  -2.989  -0.072  1.00  0.00     0.026 C 
ATOM     13  N   UNL     1      -1.038  -2.013  -1.939  1.00  0.00    -0.251 NA
ATOM     14  C   UNL     1      -1.020  -3.174  -1.190  1.00  0.00     0.049 C 
ATOM     15  C   UNL     1       0.762  -3.970   0.188  1.00  0.00     0.161 C 
ATOM     16  C   UNL     1      -1.074  -4.523  -1.849  1.00  0.00     0.065 C 
ATOM     17  O   UNL     1       1.347  -3.917   1.269  1.00  0.00    -0.294 OA
ATOM     18  C   UNL     1       1.213  -4.916  -0.943  1.00  0.00     0.089 C 
ATOM     19  C   UNL     1       0.364  -4.898  -2.260  1.00  0.00     0.033 C 
BRANCH  19  20
ATOM     20  C   UNL     1       0.901  -4.033  -3.421  1.00  0.00    -0.044 A 
ATOM     21  C   UNL     1       0.024  -3.369  -4.307  1.00  0.00     0.004 A 
ATOM     22  C   UNL     1       2.271  -3.873  -3.662  1.00  0.00     0.004 A 
ATOM     23  C   UNL     1       0.478  -2.448  -5.252  1.00  0.00     0.000 A 
ATOM     24  C   UNL     1       2.733  -2.973  -4.633  1.00  0.00     0.000 A 
ATOM     25  C   UNL     1       1.838  -2.232  -5.400  1.00  0.00     0.000 A 
ENDBRANCH  19  20
ENDBRANCH   6   9
ENDBRANCH   4   5
ENDBRANCH   3   4
ENDBRANCH   2   3
ENDBRANCH   1   2
BRANCH   1  26
ATOM     26  C   UNL     1       4.572   2.599   0.732  1.00  0.00     0.021 C 
BRANCH  26  27
ATOM     27  C   UNL     1       5.890   2.347   1.449  1.00  0.00     0.116 C 
BRANCH  27  28
ATOM     28  N   UNL     1       6.969   3.252   1.044  1.00  0.00    -0.352 N 
ATOM     29  C   UNL     1       8.248   3.326   1.566  1.00  0.00     0.251 C 
ATOM     30  H   UNL     1       6.759   3.880   0.315  1.00  0.00     0.163 HD
ATOM     31  O   UNL     1       8.933   4.340   1.416  1.00  0.00    -0.269 OA
BRANCH  29  32
ATOM     32  C   UNL     1       8.790   2.164   2.292  1.00  0.00     0.039 A 
ATOM     33  C   UNL     1       9.591   2.289   3.434  1.00  0.00     0.014 A 
ATOM     34  C   UNL     1       8.455   0.908   1.799  1.00  0.00     0.014 A 
ATOM     35  C   UNL     1       9.984   1.135   4.114  1.00  0.00     0.010 A 
ATOM     36  C   UNL     1       8.681  -0.202   2.562  1.00  0.00     0.010 A 
ATOM     37  C   UNL     1       9.512  -0.107   3.673  1.00  0.00    -0.014 A 
BRANCH  37  38
ATOM     38  C   UNL     1       9.757  -1.349   4.400  1.00  0.00     0.031 A 
ATOM     39  C   UNL     1       9.167  -1.385   5.767  1.00  0.00     0.074 A 
ATOM     40  C   UNL     1      10.181  -2.453   3.740  1.00  0.00     0.049 A 
ATOM     41  N   UNL     1       9.783  -1.525   6.894  1.00  0.00    -0.248 NA
ATOM     42  C   UNL     1       7.731  -1.079   5.917  1.00  0.00     0.031 C 
ATOM     43  C   UNL     1      10.482  -2.576   2.304  1.00  0.00     0.029 A 
ATOM     44  N   UNL     1      10.263  -3.744   4.159  1.00  0.00    -0.354 N 
ATOM     45  C   UNL     1       8.789  -1.571   7.868  1.00  0.00     0.074 A 
ATOM     46  C   UNL     1       7.594  -1.067   7.243  1.00  0.00     0.031 C 
ATOM     47  C   UNL     1      10.434  -3.875   1.938  1.00  0.00     0.029 A 
ATOM     48  C   UNL     1      10.261  -4.686   3.128  1.00  0.00     0.049 A 
ATOM     49  H   UNL     1      10.319  -3.993   5.110  1.00  0.00     0.167 HD
ATOM     50  C   UNL     1       8.948  -2.291   9.015  1.00  0.00     0.031 A 
ATOM     51  C   UNL     1      10.075  -6.029   3.237  1.00  0.00     0.031 A 
ATOM     52  C   UNL     1      10.323  -2.682   9.200  1.00  0.00     0.049 A 
ATOM     53  C   UNL     1      10.324  -6.380   4.657  1.00  0.00     0.074 A 
ATOM     54  C   UNL     1      11.519  -2.000   9.306  1.00  0.00     0.029 A 
ATOM     55  N   UNL     1      10.649  -3.978   8.868  1.00  0.00    -0.354 N 
ATOM     56  N   UNL     1      11.493  -6.262   5.223  1.00  0.00    -0.248 NA
ATOM     57  C   UNL     1       9.190  -6.378   5.569  1.00  0.00     0.031 C 
ATOM     58  C   UNL     1      12.449  -2.781   8.560  1.00  0.00     0.029 A 
ATOM     59  C   UNL     1      11.802  -3.941   8.127  1.00  0.00     0.049 A 
ATOM     60  H   UNL     1      10.145  -4.786   9.117  1.00  0.00     0.167 HD
ATOM     61  C   UNL     1      11.227  -5.715   6.470  1.00  0.00     0.074 A 
ATOM     62  C   UNL     1       9.789  -5.907   6.668  1.00  0.00     0.031 C 
ATOM     63  C   UNL     1      12.129  -4.893   7.086  1.00  0.00     0.031 A 
BRANCH  50  64
ATOM     64  C   UNL     1       7.821  -3.008   9.726  1.00  0.00    -0.014 A 
ATOM     65  C   UNL     1       8.113  -3.719  10.909  1.00  0.00     0.010 A 
ATOM     66  C   UNL     1       6.564  -3.251   9.133  1.00  0.00     0.010 A 
ATOM     67  C   UNL     1       7.235  -4.687  11.414  1.00  0.00     0.020 A 
ATOM     68  C   UNL     1       5.662  -4.180   9.654  1.00  0.00     0.020 A 
ATOM     69  C   UNL     1       6.021  -4.922  10.769  1.00  0.00     0.054 A 
BRANCH  69  70
ATOM     70  S   UNL     1       4.947  -6.254  11.355  1.00  0.00     0.124 S 
ATOM     71  O   UNL     1       5.754  -7.436  11.068  1.00  0.00    -0.237 OA
ATOM     72  O   UNL     1       4.786  -5.922  12.767  1.00  0.00    -0.237 OA
ATOM     73  O   UNL     1       3.742  -6.104  10.542  1.00  0.00    -0.744 OA
ENDBRANCH  69  70
ENDBRANCH  50  64
BRANCH  51  74
ATOM     74  C   UNL     1       9.425  -6.962   2.275  1.00  0.00    -0.014 A 
ATOM     75  C   UNL     1       9.513  -8.361   2.430  1.00  0.00     0.010 A 
ATOM     76  C   UNL     1       8.480  -6.475   1.348  1.00  0.00     0.010 A 
ATOM     77  C   UNL     1       8.645  -9.229   1.736  1.00  0.00     0.020 A 
ATOM     78  C   UNL     1       7.619  -7.332   0.649  1.00  0.00     0.020 A 
ATOM     79  C   UNL     1       7.685  -8.705   0.866  1.00  0.00     0.054 A 
BRANCH  79  80
ATOM     80  S   UNL     1       6.437  -9.802   0.123  1.00  0.00     0.124 S 
ATOM     81  O   UNL     1       7.222 -10.561  -0.846  1.00  0.00    -0.237 OA
ATOM     82  O   UNL     1       5.950 -10.559   1.274  1.00  0.00    -0.237 OA
ATOM     83  O   UNL     1       5.466  -8.875  -0.458  1.00  0.00    -0.744 OA
ENDBRANCH  79  80
ENDBRANCH  51  74
BRANCH  63  84
ATOM     84  C   UNL     1      13.523  -4.788   6.506  1.00  0.00    -0.014 A 
ATOM     85  C   UNL     1      13.804  -4.305   5.211  1.00  0.00     0.010 A 
ATOM     86  C   UNL     1      14.600  -5.034   7.373  1.00  0.00     0.010 A 
ATOM     87  C   UNL     1      15.128  -4.104   4.790  1.00  0.00     0.020 A 
ATOM     88  C   UNL     1      15.919  -4.817   6.968  1.00  0.00     0.020 A 
ATOM     89  C   UNL     1      16.179  -4.364   5.675  1.00  0.00     0.054 A 
BRANCH  89  90
ATOM     90  S   UNL     1      17.890  -4.074   5.145  1.00  0.00     0.124 S 
ATOM     91  O   UNL     1      18.094  -5.121   4.147  1.00  0.00    -0.237 OA
ATOM     92  O   UNL     1      17.845  -2.710   4.625  1.00  0.00    -0.237 OA
ATOM     93  O   UNL     1      18.666  -4.233   6.374  1.00  0.00    -0.744 OA
ENDBRANCH  89  90
ENDBRANCH  63  84
ENDBRANCH  37  38
ENDBRANCH  29  32
ENDBRANCH  27  28
ENDBRANCH  26  27
ENDBRANCH   1  26
TORSDOF 17
