REMARK SMILES Nc1nonc1C(=O)N1[C@@H]2CC[C@H]1C[C@H](CC(=O)NCCCCCCNC(=O)c1ccc(-c3c4nc(c(-c5ccc(S(=O)(=O)[O-])cc5)c5ccc([nH]5)c(-c5ccc(S(=O)(=O)[O-])cc5)c5nc(c(-c6ccc(S(=O)(=O)[O-])cc6)c6ccc3[nH]6)C=C5)C=C4)cc1)C2
REMARK SMILES IDX 22 1 21 2 20 3 19 4 17 5 18 6 16 8 15 9 9 10 10 11 13 12
REMARK SMILES IDX 11 13 89 14 12 15 14 16 7 17 8 18 6 19 2 20 3 21 4 22 5 23
REMARK SMILES IDX 1 24 23 27 24 28 25 29 26 30 27 31 28 33 29 34 30 35 88 36
REMARK SMILES IDX 31 37 87 38 32 39 33 40 34 41 81 42 35 43 86 44 80 45 82 46
REMARK SMILES IDX 36 47 85 48 79 49 78 50 37 52 67 53 48 54 66 55 49 56 52 57
REMARK SMILES IDX 65 58 83 59 50 60 51 61 64 63 84 64 53 65 38 66 39 67 47 68
REMARK SMILES IDX 40 69 46 70 41 71 42 72 43 73 44 74 45 75 68 76 69 77 77 78
REMARK SMILES IDX 70 79 76 80 71 81 72 82 73 83 74 84 75 85 54 86 55 87 63 88
REMARK SMILES IDX 56 89 62 90 57 91 58 92 59 93 60 94 61 95
REMARK H PARENT 19 7 1 25 1 26 26 32 82 51 52 62
REMARK Flexibility Score: inf
ROOT
ATOM      1  C   UNL     1       6.299   0.521   2.853  1.00  0.00     0.002 C 
ENDROOT
BRANCH   1   2
ATOM      2  C   UNL     1       5.471  -0.152   1.758  1.00  0.00     0.021 C 
BRANCH   2   3
ATOM      3  C   UNL     1       5.588   0.509   0.378  1.00  0.00     0.116 C 
BRANCH   3   4
ATOM      4  N   UNL     1       6.515  -0.230  -0.468  1.00  0.00    -0.356 N 
ATOM      5  C   UNL     1       6.293  -1.119  -1.477  1.00  0.00     0.220 C 
ATOM      6  O   UNL     1       7.262  -1.706  -1.962  1.00  0.00    -0.275 OA
ATOM      7  H   UNL     1       7.465  -0.058  -0.278  1.00  0.00     0.163 HD
BRANCH   5   8
ATOM      8  C   UNL     1       4.894  -1.375  -2.006  1.00  0.00     0.103 C 
BRANCH   8   9
ATOM      9  C   UNL     1       4.238  -2.666  -1.467  1.00  0.00     0.002 C 
ATOM     10  N   UNL     1       1.586  -2.971  -0.423  1.00  0.00    -0.331 N 
ATOM     11  C   UNL     1       1.912  -3.773  -1.593  1.00  0.00     0.086 C 
ATOM     12  C   UNL     1       2.646  -3.270   0.518  1.00  0.00     0.086 C 
ATOM     13  C   UNL     1       2.426  -5.106  -1.023  1.00  0.00     0.027 C 
ATOM     14  C   UNL     1       3.007  -3.012  -2.347  1.00  0.00     0.029 C 
ATOM     15  C   UNL     1       2.820  -4.784   0.420  1.00  0.00     0.027 C 
ATOM     16  C   UNL     1       3.901  -2.530   0.038  1.00  0.00     0.029 C 
BRANCH  10  17
ATOM     17  C   UNL     1       0.256  -2.954  -0.001  1.00  0.00     0.280 C 
ATOM     18  O   UNL     1      -0.334  -4.000   0.263  1.00  0.00    -0.267 OA
BRANCH  17  19
ATOM     19  C   UNL     1      -0.394  -1.645  -0.029  1.00  0.00     0.216 A 
ATOM     20  C   UNL     1       0.111  -0.328   0.141  1.00  0.00     0.201 A 
ATOM     21  N   UNL     1      -0.869   0.553  -0.045  1.00  0.00    -0.032 NA
ATOM     22  O   UNL     1      -2.003  -0.204  -0.277  1.00  0.00    -0.242 OA
ATOM     23  N   UNL     1      -1.712  -1.558  -0.270  1.00  0.00    -0.042 NA
BRANCH  20  24
ATOM     24  N   UNL     1       1.359   0.048   0.472  1.00  0.00    -0.379 N 
ATOM     25  H   UNL     1       1.579   1.004   0.558  1.00  0.00     0.158 HD
ATOM     26  H   UNL     1       2.053  -0.633   0.629  1.00  0.00     0.158 HD
ENDBRANCH  20  24
ENDBRANCH  17  19
ENDBRANCH  10  17
ENDBRANCH   8   9
ENDBRANCH   5   8
ENDBRANCH   3   4
ENDBRANCH   2   3
ENDBRANCH   1   2
BRANCH   1  27
ATOM     27  C   UNL     1       5.715   1.834   3.381  1.00  0.00     0.002 C 
BRANCH  27  28
ATOM     28  C   UNL     1       4.304   1.752   3.980  1.00  0.00     0.021 C 
BRANCH  28  29
ATOM     29  C   UNL     1       4.100   0.695   5.067  1.00  0.00     0.116 C 
BRANCH  29  30
ATOM     30  N   UNL     1       4.971   0.899   6.211  1.00  0.00    -0.352 N 
ATOM     31  C   UNL     1       4.662   1.150   7.526  1.00  0.00     0.251 C 
ATOM     32  H   UNL     1       5.934   0.850   6.013  1.00  0.00     0.163 HD
ATOM     33  O   UNL     1       5.553   1.478   8.304  1.00  0.00    -0.269 OA
BRANCH  31  34
ATOM     34  C   UNL     1       3.266   1.045   8.008  1.00  0.00     0.039 A 
ATOM     35  C   UNL     1       2.765   2.051   8.841  1.00  0.00     0.014 A 
ATOM     36  C   UNL     1       2.467  -0.056   7.684  1.00  0.00     0.014 A 
ATOM     37  C   UNL     1       1.447   1.982   9.302  1.00  0.00     0.010 A 
ATOM     38  C   UNL     1       1.137  -0.097   8.102  1.00  0.00     0.010 A 
ATOM     39  C   UNL     1       0.614   0.920   8.916  1.00  0.00    -0.014 A 
BRANCH  39  40
ATOM     40  C   UNL     1      -0.804   0.856   9.354  1.00  0.00     0.031 A 
ATOM     41  C   UNL     1      -1.262  -0.224  10.295  1.00  0.00     0.074 A 
ATOM     42  C   UNL     1      -1.696   1.735   8.858  1.00  0.00     0.049 A 
ATOM     43  N   UNL     1      -2.465  -0.469  10.747  1.00  0.00    -0.248 NA
ATOM     44  C   UNL     1      -0.236  -1.163  10.773  1.00  0.00     0.031 C 
ATOM     45  C   UNL     1      -1.389   2.816   7.919  1.00  0.00     0.029 A 
ATOM     46  N   UNL     1      -3.047   1.856   9.072  1.00  0.00    -0.354 N 
ATOM     47  C   UNL     1      -2.348  -1.604  11.541  1.00  0.00     0.074 A 
ATOM     48  C   UNL     1      -0.961  -2.017  11.481  1.00  0.00     0.031 C 
ATOM     49  C   UNL     1      -2.511   3.507   7.662  1.00  0.00     0.029 A 
ATOM     50  C   UNL     1      -3.623   2.899   8.388  1.00  0.00     0.049 A 
ATOM     51  H   UNL     1      -3.555   1.251   9.661  1.00  0.00     0.167 HD
ATOM     52  C   UNL     1      -3.302  -2.241  12.264  1.00  0.00     0.031 A 
ATOM     53  C   UNL     1      -4.901   3.322   8.349  1.00  0.00     0.031 A 
ATOM     54  C   UNL     1      -4.676  -1.824  12.336  1.00  0.00     0.049 A 
ATOM     55  C   UNL     1      -5.944   2.599   9.153  1.00  0.00     0.074 A 
ATOM     56  C   UNL     1      -5.703  -2.365  13.092  1.00  0.00     0.029 A 
ATOM     57  N   UNL     1      -5.220  -0.767  11.623  1.00  0.00    -0.354 N 
ATOM     58  N   UNL     1      -5.801   1.561   9.942  1.00  0.00    -0.248 NA
ATOM     59  C   UNL     1      -7.319   3.108   9.063  1.00  0.00     0.031 C 
ATOM     60  C   UNL     1      -6.876  -1.655  12.807  1.00  0.00     0.029 A 
ATOM     61  C   UNL     1      -6.571  -0.650  11.904  1.00  0.00     0.049 A 
ATOM     62  H   UNL     1      -4.719  -0.185  11.007  1.00  0.00     0.167 HD
ATOM     63  C   UNL     1      -7.065   1.308  10.464  1.00  0.00     0.074 A 
ATOM     64  C   UNL     1      -7.957   2.304   9.904  1.00  0.00     0.031 C 
ATOM     65  C   UNL     1      -7.448   0.342  11.334  1.00  0.00     0.031 A 
BRANCH  52  66
ATOM     66  C   UNL     1      -2.878  -3.473  13.017  1.00  0.00    -0.014 A 
ATOM     67  C   UNL     1      -2.059  -3.382  14.158  1.00  0.00     0.010 A 
ATOM     68  C   UNL     1      -3.290  -4.741  12.569  1.00  0.00     0.010 A 
ATOM     69  C   UNL     1      -1.605  -4.540  14.796  1.00  0.00     0.020 A 
ATOM     70  C   UNL     1      -2.858  -5.900  13.220  1.00  0.00     0.020 A 
ATOM     71  C   UNL     1      -1.994  -5.792  14.312  1.00  0.00     0.054 A 
BRANCH  71  72
ATOM     72  S   UNL     1      -1.367  -7.283  15.133  1.00  0.00     0.124 S 
ATOM     73  O   UNL     1      -0.020  -7.386  14.576  1.00  0.00    -0.237 OA
ATOM     74  O   UNL     1      -1.433  -6.928  16.549  1.00  0.00    -0.237 OA
ATOM     75  O   UNL     1      -2.298  -8.326  14.712  1.00  0.00    -0.744 OA
ENDBRANCH  71  72
ENDBRANCH  52  66
BRANCH  53  76
ATOM     76  C   UNL     1      -5.251   4.525   7.550  1.00  0.00    -0.014 A 
ATOM     77  C   UNL     1      -5.491   5.750   8.197  1.00  0.00     0.010 A 
ATOM     78  C   UNL     1      -5.301   4.468   6.146  1.00  0.00     0.010 A 
ATOM     79  C   UNL     1      -5.773   6.899   7.454  1.00  0.00     0.020 A 
ATOM     80  C   UNL     1      -5.565   5.620   5.399  1.00  0.00     0.020 A 
ATOM     81  C   UNL     1      -5.803   6.828   6.059  1.00  0.00     0.054 A 
BRANCH  81  82
ATOM     82  S   UNL     1      -6.085   8.351   5.112  1.00  0.00     0.124 S 
ATOM     83  O   UNL     1      -7.523   8.541   5.264  1.00  0.00    -0.237 OA
ATOM     84  O   UNL     1      -5.241   9.319   5.809  1.00  0.00    -0.237 OA
ATOM     85  O   UNL     1      -5.635   8.003   3.766  1.00  0.00    -0.744 OA
ENDBRANCH  81  82
ENDBRANCH  53  76
BRANCH  65  86
ATOM     86  C   UNL     1      -8.891   0.330  11.756  1.00  0.00    -0.014 A 
ATOM     87  C   UNL     1      -9.894  -0.152  10.897  1.00  0.00     0.010 A 
ATOM     88  C   UNL     1      -9.241   0.763  13.048  1.00  0.00     0.010 A 
ATOM     89  C   UNL     1     -11.228  -0.176  11.314  1.00  0.00     0.020 A 
ATOM     90  C   UNL     1     -10.571   0.722  13.475  1.00  0.00     0.020 A 
ATOM     91  C   UNL     1     -11.558   0.264  12.600  1.00  0.00     0.054 A 
BRANCH  91  92
ATOM     92  S   UNL     1     -13.289   0.182  13.139  1.00  0.00     0.124 S 
ATOM     93  O   UNL     1     -13.866   1.353  12.484  1.00  0.00    -0.237 OA
ATOM     94  O   UNL     1     -13.730  -1.110  12.620  1.00  0.00    -0.237 OA
ATOM     95  O   UNL     1     -13.200   0.262  14.595  1.00  0.00    -0.744 OA
ENDBRANCH  91  92
ENDBRANCH  65  86
ENDBRANCH  39  40
ENDBRANCH  31  34
ENDBRANCH  29  30
ENDBRANCH  28  29
ENDBRANCH  27  28
ENDBRANCH   1  27
TORSDOF 20
