REMARK SMILES C[C@H](Nc1ccc2c(c1)OCCO2)[C@H](C)C(=O)NCCCCCCNC(=O)c1ccc(-c2c3nc(c(-c4ccc(S(=O)(=O)[O-])cc4)c4ccc([nH]4)c(-c4ccc(S(=O)(=O)[O-])cc4)c4nc(c(-c5ccc(S(=O)(=O)[O-])cc5)c5ccc2[nH]5)C=C4)C=C3)cc1
REMARK SMILES IDX 21 1 20 2 19 3 18 4 16 5 17 6 14 8 15 9 2 10 1 11 3 12 4 14
REMARK SMILES IDX 5 15 9 16 6 17 8 18 7 19 10 20 13 21 11 22 12 23 22 24 23 25
REMARK SMILES IDX 24 26 25 27 26 28 27 30 28 31 29 32 87 33 30 34 86 35 31 36
REMARK SMILES IDX 32 37 33 38 80 39 34 40 85 41 79 42 81 43 35 44 84 45 78 46
REMARK SMILES IDX 77 47 36 49 66 50 47 51 65 52 48 53 51 54 64 55 82 56 49 57
REMARK SMILES IDX 50 58 63 60 83 61 52 62 37 63 38 64 46 65 39 66 45 67 40 68
REMARK SMILES IDX 41 69 42 70 43 71 44 72 67 73 68 74 76 75 69 76 75 77 70 78
REMARK SMILES IDX 71 79 72 80 73 81 74 82 53 83 54 84 62 85 55 86 61 87 56 88
REMARK SMILES IDX 57 89 58 90 59 91 60 92
REMARK H PARENT 18 7 3 13 25 29 81 48 51 59
REMARK Flexibility Score: inf
ROOT
ATOM      1  C   UNL     1      -0.520   6.076  -2.767  1.00  0.00     0.002 C 
ENDROOT
BRANCH   1   2
ATOM      2  C   UNL     1      -0.262   5.002  -1.713  1.00  0.00     0.021 C 
BRANCH   2   3
ATOM      3  C   UNL     1      -1.470   4.163  -1.304  1.00  0.00     0.116 C 
BRANCH   3   4
ATOM      4  N   UNL     1      -1.817   3.134  -2.275  1.00  0.00    -0.356 N 
ATOM      5  C   UNL     1      -1.853   1.781  -2.286  1.00  0.00     0.224 C 
ATOM      6  O   UNL     1      -2.269   1.298  -3.353  1.00  0.00    -0.275 OA
ATOM      7  H   UNL     1      -2.093   3.518  -3.138  1.00  0.00     0.163 HD
BRANCH   5   8
ATOM      8  C   UNL     1      -1.486   0.797  -1.153  1.00  0.00     0.097 C 
ATOM      9  C   UNL     1      -0.666  -0.401  -1.702  1.00  0.00     0.020 C 
BRANCH   8  10
ATOM     10  C   UNL     1      -0.982   1.193   0.235  1.00  0.00     0.088 C 
ATOM     11  C   UNL     1      -2.080   1.907   1.049  1.00  0.00     0.031 C 
BRANCH  10  12
ATOM     12  N   UNL     1       0.327   1.845   0.418  1.00  0.00    -0.382 N 
ATOM     13  H   UNL     1       0.468   2.148   1.344  1.00  0.00     0.160 HD
BRANCH  12  14
ATOM     14  C   UNL     1       1.401   2.132  -0.397  1.00  0.00     0.038 A 
ATOM     15  C   UNL     1       2.581   2.625   0.192  1.00  0.00     0.030 A 
ATOM     16  C   UNL     1       1.397   2.082  -1.788  1.00  0.00     0.076 A 
ATOM     17  C   UNL     1       3.645   3.135  -0.570  1.00  0.00     0.052 A 
ATOM     18  C   UNL     1       2.399   2.675  -2.560  1.00  0.00     0.163 A 
ATOM     19  C   UNL     1       3.515   3.221  -1.948  1.00  0.00     0.161 A 
ATOM     20  O   UNL     1       2.120   2.801  -3.895  1.00  0.00    -0.486 OA
ATOM     21  O   UNL     1       4.460   3.915  -2.654  1.00  0.00    -0.486 OA
ATOM     22  C   UNL     1       3.017   3.660  -4.604  1.00  0.00     0.271 C 
ATOM     23  C   UNL     1       3.800   4.616  -3.714  1.00  0.00     0.271 C 
ENDBRANCH  12  14
ENDBRANCH  10  12
ENDBRANCH   8  10
ENDBRANCH   5   8
ENDBRANCH   3   4
ENDBRANCH   2   3
ENDBRANCH   1   2
BRANCH   1  24
ATOM     24  C   UNL     1      -0.929   7.435  -2.197  1.00  0.00     0.002 C 
BRANCH  24  25
ATOM     25  C   UNL     1       0.033   8.050  -1.170  1.00  0.00     0.021 C 
BRANCH  25  26
ATOM     26  C   UNL     1       1.505   8.070  -1.579  1.00  0.00     0.116 C 
BRANCH  26  27
ATOM     27  N   UNL     1       1.724   8.921  -2.738  1.00  0.00    -0.352 N 
ATOM     28  C   UNL     1       2.380  10.126  -2.801  1.00  0.00     0.251 C 
ATOM     29  H   UNL     1       1.354   8.590  -3.588  1.00  0.00     0.163 HD
ATOM     30  O   UNL     1       2.244  10.855  -3.777  1.00  0.00    -0.269 OA
BRANCH  28  31
ATOM     31  C   UNL     1       3.253  10.534  -1.681  1.00  0.00     0.039 A 
ATOM     32  C   UNL     1       3.111  11.809  -1.131  1.00  0.00     0.014 A 
ATOM     33  C   UNL     1       4.221   9.653  -1.188  1.00  0.00     0.014 A 
ATOM     34  C   UNL     1       3.918  12.188  -0.054  1.00  0.00     0.010 A 
ATOM     35  C   UNL     1       4.982  10.011  -0.079  1.00  0.00     0.010 A 
ATOM     36  C   UNL     1       4.848  11.287   0.492  1.00  0.00    -0.014 A 
BRANCH  36  37
ATOM     37  C   UNL     1       5.702  11.670   1.645  1.00  0.00     0.031 A 
ATOM     38  C   UNL     1       7.194  11.783   1.473  1.00  0.00     0.074 A 
ATOM     39  C   UNL     1       5.144  11.871   2.855  1.00  0.00     0.049 A 
ATOM     40  N   UNL     1       8.107  12.076   2.364  1.00  0.00    -0.248 NA
ATOM     41  C   UNL     1       7.732  11.507   0.131  1.00  0.00     0.031 C 
ATOM     42  C   UNL     1       3.716  11.752   3.160  1.00  0.00     0.029 A 
ATOM     43  N   UNL     1       5.712  12.213   4.057  1.00  0.00    -0.354 N 
ATOM     44  C   UNL     1       9.324  12.006   1.695  1.00  0.00     0.074 A 
ATOM     45  C   UNL     1       9.038  11.592   0.339  1.00  0.00     0.031 C 
ATOM     46  C   UNL     1       3.518  12.043   4.456  1.00  0.00     0.029 A 
ATOM     47  C   UNL     1       4.804  12.335   5.083  1.00  0.00     0.049 A 
ATOM     48  H   UNL     1       6.679  12.358   4.174  1.00  0.00     0.167 HD
ATOM     49  C   UNL     1      10.566  12.281   2.160  1.00  0.00     0.031 A 
ATOM     50  C   UNL     1       4.985  12.645   6.381  1.00  0.00     0.031 A 
ATOM     51  C   UNL     1      10.847  12.702   3.508  1.00  0.00     0.049 A 
ATOM     52  C   UNL     1       6.374  12.947   6.875  1.00  0.00     0.074 A 
ATOM     53  C   UNL     1      12.064  13.054   4.064  1.00  0.00     0.029 A 
ATOM     54  N   UNL     1       9.898  12.825   4.512  1.00  0.00    -0.354 N 
ATOM     55  N   UNL     1       7.505  12.939   6.211  1.00  0.00    -0.248 NA
ATOM     56  C   UNL     1       6.508  13.317   8.291  1.00  0.00     0.031 C 
ATOM     57  C   UNL     1      11.859  13.344   5.417  1.00  0.00     0.029 A 
ATOM     58  C   UNL     1      10.504  13.230   5.689  1.00  0.00     0.049 A 
ATOM     59  H   UNL     1       8.935  12.651   4.403  1.00  0.00     0.167 HD
ATOM     60  C   UNL     1       8.482  13.332   7.120  1.00  0.00     0.074 A 
ATOM     61  C   UNL     1       7.805  13.584   8.376  1.00  0.00     0.031 C 
ATOM     62  C   UNL     1       9.817  13.476   6.931  1.00  0.00     0.031 A 
BRANCH  49  63
ATOM     63  C   UNL     1      11.718  12.131   1.200  1.00  0.00    -0.014 A 
ATOM     64  C   UNL     1      11.883  13.015   0.118  1.00  0.00     0.010 A 
ATOM     65  C   UNL     1      12.669  11.114   1.401  1.00  0.00     0.010 A 
ATOM     66  C   UNL     1      12.950  12.858  -0.770  1.00  0.00     0.020 A 
ATOM     67  C   UNL     1      13.755  10.971   0.531  1.00  0.00     0.020 A 
ATOM     68  C   UNL     1      13.878  11.834  -0.560  1.00  0.00     0.054 A 
BRANCH  68  69
ATOM     69  S   UNL     1      15.264  11.666  -1.718  1.00  0.00     0.124 S 
ATOM     70  O   UNL     1      14.601  11.126  -2.903  1.00  0.00    -0.237 OA
ATOM     71  O   UNL     1      15.748  13.038  -1.840  1.00  0.00    -0.237 OA
ATOM     72  O   UNL     1      16.173  10.745  -1.040  1.00  0.00    -0.744 OA
ENDBRANCH  68  69
ENDBRANCH  49  63
BRANCH  50  73
ATOM     73  C   UNL     1       3.816  12.711   7.301  1.00  0.00    -0.014 A 
ATOM     74  C   UNL     1       3.366  13.947   7.798  1.00  0.00     0.010 A 
ATOM     75  C   UNL     1       3.138  11.536   7.675  1.00  0.00     0.010 A 
ATOM     76  C   UNL     1       2.272  14.006   8.667  1.00  0.00     0.020 A 
ATOM     77  C   UNL     1       2.027  11.594   8.521  1.00  0.00     0.020 A 
ATOM     78  C   UNL     1       1.608  12.828   9.022  1.00  0.00     0.054 A 
BRANCH  78  79
ATOM     79  S   UNL     1       0.160  12.933  10.110  1.00  0.00     0.124 S 
ATOM     80  O   UNL     1       0.772  13.213  11.405  1.00  0.00    -0.237 OA
ATOM     81  O   UNL     1      -0.601  14.030   9.518  1.00  0.00    -0.237 OA
ATOM     82  O   UNL     1      -0.459  11.615   9.981  1.00  0.00    -0.744 OA
ENDBRANCH  78  79
ENDBRANCH  50  73
BRANCH  62  83
ATOM     83  C   UNL     1      10.632  13.964   8.099  1.00  0.00    -0.014 A 
ATOM     84  C   UNL     1      10.882  13.144   9.213  1.00  0.00     0.010 A 
ATOM     85  C   UNL     1      11.195  15.254   8.058  1.00  0.00     0.010 A 
ATOM     86  C   UNL     1      11.648  13.618  10.282  1.00  0.00     0.020 A 
ATOM     87  C   UNL     1      11.985  15.721   9.111  1.00  0.00     0.020 A 
ATOM     88  C   UNL     1      12.192  14.905  10.225  1.00  0.00     0.054 A 
BRANCH  88  89
ATOM     89  S   UNL     1      13.209  15.486  11.610  1.00  0.00     0.124 S 
ATOM     90  O   UNL     1      12.203  15.749  12.635  1.00  0.00    -0.237 OA
ATOM     91  O   UNL     1      14.085  14.346  11.866  1.00  0.00    -0.237 OA
ATOM     92  O   UNL     1      13.878  16.670  11.075  1.00  0.00    -0.744 OA
ENDBRANCH  88  89
ENDBRANCH  62  83
ENDBRANCH  36  37
ENDBRANCH  28  31
ENDBRANCH  26  27
ENDBRANCH  25  26
ENDBRANCH  24  25
ENDBRANCH   1  24
TORSDOF 19
