REMARK SMILES Cc1cc(C)c2c(O[C@@H](C)C(=O)NCCCCCCNC(=O)c3ccc(-c4c5nc(c(-c6ccc(S(=O)(=O)[O-])cc6)c6ccc([nH]6)c(-c6ccc(S(=O)(=O)[O-])cc6)c6nc(c(-c7ccc(S(=O)(=O)[O-])cc7)c7ccc4[nH]7)C=C6)C=C5)cc3)nsc2n1
REMARK SMILES IDX 17 1 16 2 15 3 14 4 13 5 11 6 12 7 9 9 10 10 8 11 7 12 1 13
REMARK SMILES IDX 2 14 3 15 86 16 4 17 85 18 5 19 6 20 84 21 83 22 18 23 19 24
REMARK SMILES IDX 20 25 21 26 22 28 23 29 24 30 82 31 25 32 81 33 26 34 27 35
REMARK SMILES IDX 28 36 75 37 29 38 80 39 74 40 76 41 30 42 79 43 73 44 72 45
REMARK SMILES IDX 31 47 61 48 42 49 60 50 43 51 46 52 59 53 77 54 44 55 45 56
REMARK SMILES IDX 58 58 78 59 47 60 32 61 33 62 41 63 34 64 40 65 35 66 36 67
REMARK SMILES IDX 37 68 38 69 39 70 62 71 63 72 71 73 64 74 70 75 65 76 66 77
REMARK SMILES IDX 67 78 68 79 69 80 48 81 49 82 57 83 50 84 56 85 51 86 52 87
REMARK SMILES IDX 53 88 54 89 55 90
REMARK H PARENT 13 8 20 27 76 46 46 57
REMARK Flexibility Score: inf
ROOT
ATOM      1  C   UNL     1       3.469  -0.272   1.739  1.00  0.00     0.002 C 
ENDROOT
BRANCH   1   2
ATOM      2  C   UNL     1       3.660  -0.093   3.260  1.00  0.00     0.002 C 
BRANCH   2   3
ATOM      3  C   UNL     1       2.460  -0.372   4.169  1.00  0.00     0.021 C 
BRANCH   3   4
ATOM      4  C   UNL     1       1.797  -1.724   3.972  1.00  0.00     0.116 C 
BRANCH   4   5
ATOM      5  N   UNL     1       2.070  -2.770   4.924  1.00  0.00    -0.353 N 
ATOM      6  C   UNL     1       1.193  -3.748   5.326  1.00  0.00     0.260 C 
ATOM      7  O   UNL     1       1.689  -4.843   5.622  1.00  0.00    -0.271 OA
ATOM      8  H   UNL     1       2.970  -2.786   5.323  1.00  0.00     0.163 HD
BRANCH   6   9
ATOM      9  C   UNL     1      -0.363  -3.515   5.502  1.00  0.00     0.260 C 
ATOM     10  C   UNL     1      -1.262  -4.673   5.044  1.00  0.00     0.064 C 
BRANCH   9  11
ATOM     11  O   UNL     1      -1.058  -2.306   5.506  1.00  0.00    -0.463 OA
BRANCH  11  12
ATOM     12  C   UNL     1      -1.520  -1.651   4.415  1.00  0.00     0.235 A 
ATOM     13  C   UNL     1      -0.556  -0.285  -1.008  1.00  0.00     0.067 C 
ATOM     14  C   UNL     1      -0.917  -0.832   0.342  1.00  0.00     0.039 A 
ATOM     15  C   UNL     1      -0.566  -2.129   0.669  1.00  0.00     0.027 A 
ATOM     16  N   UNL     1      -1.521  -0.003   1.196  1.00  0.00    -0.240 NA
ATOM     17  C   UNL     1      -0.726  -2.625   1.984  1.00  0.00    -0.034 A 
ATOM     18  C   UNL     1      -1.698  -0.493   2.438  1.00  0.00     0.147 A 
ATOM     19  C   UNL     1      -0.233  -4.037   2.164  1.00  0.00     0.045 C 
ATOM     20  C   UNL     1      -1.310  -1.741   2.957  1.00  0.00     0.078 A 
ATOM     21  S   UNL     1      -2.427   0.470   3.631  1.00  0.00    -0.012 S 
ATOM     22  N   UNL     1      -2.178  -0.582   4.859  1.00  0.00    -0.153 NA
ENDBRANCH  11  12
ENDBRANCH   9  11
ENDBRANCH   6   9
ENDBRANCH   4   5
ENDBRANCH   3   4
ENDBRANCH   2   3
ENDBRANCH   1   2
BRANCH   1  23
ATOM     23  C   UNL     1       2.296   0.455   1.072  1.00  0.00     0.021 C 
BRANCH  23  24
ATOM     24  C   UNL     1       2.358   1.966   1.147  1.00  0.00     0.116 C 
BRANCH  24  25
ATOM     25  N   UNL     1       3.384   2.572   0.291  1.00  0.00    -0.352 N 
ATOM     26  C   UNL     1       3.533   3.912  -0.068  1.00  0.00     0.251 C 
ATOM     27  H   UNL     1       4.054   1.952  -0.078  1.00  0.00     0.163 HD
ATOM     28  O   UNL     1       4.215   4.225  -1.026  1.00  0.00    -0.269 OA
BRANCH  26  29
ATOM     29  C   UNL     1       2.847   4.942   0.750  1.00  0.00     0.039 A 
ATOM     30  C   UNL     1       2.392   6.163   0.245  1.00  0.00     0.014 A 
ATOM     31  C   UNL     1       2.637   4.634   2.084  1.00  0.00     0.014 A 
ATOM     32  C   UNL     1       1.710   7.025   1.111  1.00  0.00     0.010 A 
ATOM     33  C   UNL     1       1.689   5.293   2.797  1.00  0.00     0.010 A 
ATOM     34  C   UNL     1       1.371   6.569   2.397  1.00  0.00    -0.014 A 
BRANCH  34  35
ATOM     35  C   UNL     1       0.596   7.331   3.362  1.00  0.00     0.031 A 
ATOM     36  C   UNL     1      -0.745   7.673   2.853  1.00  0.00     0.074 A 
ATOM     37  C   UNL     1       0.948   7.467   4.663  1.00  0.00     0.049 A 
ATOM     38  N   UNL     1      -1.094   8.784   2.301  1.00  0.00    -0.248 NA
ATOM     39  C   UNL     1      -1.740   6.596   2.716  1.00  0.00     0.031 C 
ATOM     40  C   UNL     1       2.095   6.872   5.374  1.00  0.00     0.029 A 
ATOM     41  N   UNL     1       0.290   8.104   5.669  1.00  0.00    -0.354 N 
ATOM     42  C   UNL     1      -2.448   8.643   2.038  1.00  0.00     0.074 A 
ATOM     43  C   UNL     1      -2.707   7.226   2.044  1.00  0.00     0.031 C 
ATOM     44  C   UNL     1       1.933   7.006   6.713  1.00  0.00     0.029 A 
ATOM     45  C   UNL     1       0.779   7.852   6.953  1.00  0.00     0.049 A 
ATOM     46  H   UNL     1      -0.476   8.700   5.504  1.00  0.00     0.167 HD
ATOM     47  C   UNL     1      -3.293   9.697   2.208  1.00  0.00     0.031 A 
ATOM     48  C   UNL     1       0.277   8.344   8.115  1.00  0.00     0.031 A 
ATOM     49  C   UNL     1      -2.549  10.906   2.476  1.00  0.00     0.049 A 
ATOM     50  C   UNL     1      -0.455   9.578   7.751  1.00  0.00     0.074 A 
ATOM     51  C   UNL     1      -1.733  11.757   1.764  1.00  0.00     0.029 A 
ATOM     52  N   UNL     1      -2.275  11.093   3.811  1.00  0.00    -0.354 N 
ATOM     53  N   UNL     1       0.132  10.634   7.263  1.00  0.00    -0.248 NA
ATOM     54  C   UNL     1      -1.900   9.524   7.577  1.00  0.00     0.031 C 
ATOM     55  C   UNL     1      -0.803  12.287   2.708  1.00  0.00     0.029 A 
ATOM     56  C   UNL     1      -1.113  11.798   3.977  1.00  0.00     0.049 A 
ATOM     57  H   UNL     1      -2.838  10.763   4.548  1.00  0.00     0.167 HD
ATOM     58  C   UNL     1      -0.778  11.139   6.355  1.00  0.00     0.074 A 
ATOM     59  C   UNL     1      -2.055  10.533   6.715  1.00  0.00     0.031 C 
ATOM     60  C   UNL     1      -0.355  11.751   5.212  1.00  0.00     0.031 A 
BRANCH  47  61
ATOM     61  C   UNL     1      -4.733   9.572   2.650  1.00  0.00    -0.014 A 
ATOM     62  C   UNL     1      -5.505  10.747   2.752  1.00  0.00     0.010 A 
ATOM     63  C   UNL     1      -5.278   8.402   3.217  1.00  0.00     0.010 A 
ATOM     64  C   UNL     1      -6.737  10.757   3.420  1.00  0.00     0.020 A 
ATOM     65  C   UNL     1      -6.521   8.392   3.854  1.00  0.00     0.020 A 
ATOM     66  C   UNL     1      -7.234   9.576   3.970  1.00  0.00     0.054 A 
BRANCH  66  67
ATOM     67  S   UNL     1      -8.797   9.611   4.880  1.00  0.00     0.124 S 
ATOM     68  O   UNL     1      -8.475  10.482   6.005  1.00  0.00    -0.237 OA
ATOM     69  O   UNL     1      -9.715  10.165   3.889  1.00  0.00    -0.237 OA
ATOM     70  O   UNL     1      -9.027   8.208   5.218  1.00  0.00    -0.744 OA
ENDBRANCH  66  67
ENDBRANCH  47  61
BRANCH  48  71
ATOM     71  C   UNL     1       0.162   7.772   9.481  1.00  0.00    -0.014 A 
ATOM     72  C   UNL     1      -0.181   8.607  10.567  1.00  0.00     0.010 A 
ATOM     73  C   UNL     1       0.005   6.383   9.651  1.00  0.00     0.010 A 
ATOM     74  C   UNL     1      -0.777   8.087  11.728  1.00  0.00     0.020 A 
ATOM     75  C   UNL     1      -0.585   5.856  10.813  1.00  0.00     0.020 A 
ATOM     76  C   UNL     1      -1.011   6.716  11.827  1.00  0.00     0.054 A 
BRANCH  76  77
ATOM     77  S   UNL     1      -2.006   6.088  13.218  1.00  0.00     0.124 S 
ATOM     78  O   UNL     1      -1.134   6.334  14.363  1.00  0.00    -0.237 OA
ATOM     79  O   UNL     1      -3.204   6.920  13.149  1.00  0.00    -0.237 OA
ATOM     80  O   UNL     1      -2.211   4.680  12.887  1.00  0.00    -0.744 OA
ENDBRANCH  76  77
ENDBRANCH  48  71
BRANCH  60  81
ATOM     81  C   UNL     1       1.046  12.306   5.191  1.00  0.00    -0.014 A 
ATOM     82  C   UNL     1       2.220  11.528   5.211  1.00  0.00     0.010 A 
ATOM     83  C   UNL     1       1.163  13.699   5.051  1.00  0.00     0.010 A 
ATOM     84  C   UNL     1       3.481  12.140   5.102  1.00  0.00     0.020 A 
ATOM     85  C   UNL     1       2.410  14.310   4.926  1.00  0.00     0.020 A 
ATOM     86  C   UNL     1       3.565  13.530   4.957  1.00  0.00     0.054 A 
BRANCH  86  87
ATOM     87  S   UNL     1       5.189  14.321   4.776  1.00  0.00     0.124 S 
ATOM     88  O   UNL     1       5.804  14.090   6.080  1.00  0.00    -0.237 OA
ATOM     89  O   UNL     1       5.784  13.587   3.661  1.00  0.00    -0.237 OA
ATOM     90  O   UNL     1       4.867  15.717   4.485  1.00  0.00    -0.744 OA
ENDBRANCH  86  87
ENDBRANCH  60  81
ENDBRANCH  34  35
ENDBRANCH  26  29
ENDBRANCH  24  25
ENDBRANCH  23  24
ENDBRANCH   1  23
TORSDOF 18
