REMARK SMILES Cc1cc(C)c2c(c1)C=C(C(=O)NCCCCCCNC(=O)c1ccc(-c3c4nc(c(-c5ccc(S(=O)(=O)[O-])cc5)c5ccc([nH]5)c(-c5ccc(S(=O)(=O)[O-])cc5)c5nc(c(-c6ccc(S(=O)(=O)[O-])cc6)c6ccc3[nH]6)C=C5)C=C4)cc1)[C@@H](C(F)(F)F)O2
REMARK SMILES IDX 17 1 16 2 15 3 14 4 13 5 11 6 12 7 10 9 1 10 2 11 3 12 8 13
REMARK SMILES IDX 4 14 7 15 5 16 6 17 9 18 88 19 83 20 84 21 85 22 86 23 87 24
REMARK SMILES IDX 18 25 19 26 20 27 21 28 22 30 23 31 24 32 82 33 25 34 81 35
REMARK SMILES IDX 26 36 27 37 28 38 75 39 29 40 80 41 74 42 76 43 30 44 79 45
REMARK SMILES IDX 73 46 72 47 31 49 61 50 42 51 60 52 43 53 46 54 59 55 77 56
REMARK SMILES IDX 44 57 45 58 58 60 78 61 47 62 32 63 33 64 41 65 34 66 40 67
REMARK SMILES IDX 35 68 36 69 37 70 38 71 39 72 62 73 63 74 71 75 64 76 70 77
REMARK SMILES IDX 65 78 66 79 67 80 68 81 69 82 48 83 49 84 57 85 50 86 56 87
REMARK SMILES IDX 51 88 52 89 53 90 54 91 55 92
REMARK H PARENT 13 8 20 29 76 48 46 59
REMARK Flexibility Score: inf
ROOT
ATOM      1  C   UNL     1       0.006  10.878  -5.516  1.00  0.00     0.002 C 
ENDROOT
BRANCH   1   2
ATOM      2  C   UNL     1      -0.814  10.427  -4.300  1.00  0.00     0.002 C 
BRANCH   2   3
ATOM      3  C   UNL     1      -1.132   8.930  -4.250  1.00  0.00     0.021 C 
BRANCH   3   4
ATOM      4  C   UNL     1       0.105   8.040  -4.312  1.00  0.00     0.116 C 
BRANCH   4   5
ATOM      5  N   UNL     1       0.691   7.840  -2.997  1.00  0.00    -0.352 N 
ATOM      6  C   UNL     1       0.953   6.796  -2.178  1.00  0.00     0.251 C 
ATOM      7  O   UNL     1       1.508   7.091  -1.113  1.00  0.00    -0.270 OA
ATOM      8  H   UNL     1       0.972   8.694  -2.595  1.00  0.00     0.163 HD
BRANCH   6   9
ATOM      9  C   UNL     1       0.627   5.368  -2.468  1.00  0.00     0.067 C 
ATOM     10  C   UNL     1       1.049  -0.247   0.083  1.00  0.00     0.044 C 
ATOM     11  C   UNL     1       0.634   0.773  -0.934  1.00  0.00    -0.050 A 
ATOM     12  C   UNL     1      -0.037   0.387  -2.103  1.00  0.00     0.010 A 
ATOM     13  C   UNL     1       0.929   2.128  -0.726  1.00  0.00     0.015 A 
ATOM     14  C   UNL     1      -0.420   1.337  -3.056  1.00  0.00    -0.008 A 
ATOM     15  C   UNL     1       0.561   3.087  -1.673  1.00  0.00     0.018 A 
ATOM     16  C   UNL     1      -1.140   0.922  -4.307  1.00  0.00     0.048 C 
ATOM     17  C   UNL     1      -0.105   2.683  -2.832  1.00  0.00     0.130 A 
ATOM     18  C   UNL     1       0.829   4.504  -1.455  1.00  0.00     0.025 C 
ATOM     19  O   UNL     1      -0.522   3.576  -3.775  1.00  0.00    -0.475 OA
ATOM     20  C   UNL     1       0.142   4.864  -3.797  1.00  0.00     0.314 C 
BRANCH  20  21
ATOM     21  C   UNL     1       1.251   4.843  -4.865  1.00  0.00     0.429 C 
ATOM     22  F   UNL     1       0.715   4.718  -6.104  1.00  0.00    -0.167 F 
ATOM     23  F   UNL     1       1.980   5.984  -4.879  1.00  0.00    -0.167 F 
ATOM     24  F   UNL     1       2.122   3.824  -4.692  1.00  0.00    -0.167 F 
ENDBRANCH  20  21
ENDBRANCH   6   9
ENDBRANCH   4   5
ENDBRANCH   3   4
ENDBRANCH   2   3
ENDBRANCH   1   2
BRANCH   1  25
ATOM     25  C   UNL     1      -0.521  10.407  -6.876  1.00  0.00     0.021 C 
BRANCH  25  26
ATOM     26  C   UNL     1      -1.953  10.832  -7.184  1.00  0.00     0.116 C 
BRANCH  26  27
ATOM     27  N   UNL     1      -2.096  12.278  -7.170  1.00  0.00    -0.352 N 
ATOM     28  C   UNL     1      -2.510  13.119  -8.166  1.00  0.00     0.251 C 
ATOM     29  H   UNL     1      -1.861  12.716  -6.320  1.00  0.00     0.163 HD
ATOM     30  O   UNL     1      -2.333  14.333  -8.054  1.00  0.00    -0.269 OA
BRANCH  28  31
ATOM     31  C   UNL     1      -3.167  12.575  -9.372  1.00  0.00     0.039 A 
ATOM     32  C   UNL     1      -2.822  13.093 -10.622  1.00  0.00     0.014 A 
ATOM     33  C   UNL     1      -4.156  11.591  -9.265  1.00  0.00     0.014 A 
ATOM     34  C   UNL     1      -3.445  12.603 -11.771  1.00  0.00     0.010 A 
ATOM     35  C   UNL     1      -4.732  11.059 -10.415  1.00  0.00     0.010 A 
ATOM     36  C   UNL     1      -4.395  11.573 -11.676  1.00  0.00    -0.014 A 
BRANCH  36  37
ATOM     37  C   UNL     1      -5.083  11.051 -12.881  1.00  0.00     0.031 A 
ATOM     38  C   UNL     1      -6.559  11.284 -13.057  1.00  0.00     0.074 A 
ATOM     39  C   UNL     1      -4.393  10.339 -13.793  1.00  0.00     0.049 A 
ATOM     40  N   UNL     1      -7.355  10.854 -14.001  1.00  0.00    -0.248 NA
ATOM     41  C   UNL     1      -7.232  12.093 -12.026  1.00  0.00     0.031 C 
ATOM     42  C   UNL     1      -2.961  10.040 -13.726  1.00  0.00     0.029 A 
ATOM     43  N   UNL     1      -4.805   9.737 -14.954  1.00  0.00    -0.354 N 
ATOM     44  C   UNL     1      -8.620  11.329 -13.674  1.00  0.00     0.074 A 
ATOM     45  C   UNL     1      -8.496  12.039 -12.421  1.00  0.00     0.031 C 
ATOM     46  C   UNL     1      -2.610   9.333 -14.813  1.00  0.00     0.029 A 
ATOM     47  C   UNL     1      -3.795   9.094 -15.630  1.00  0.00     0.049 A 
ATOM     48  H   UNL     1      -5.736   9.763 -15.274  1.00  0.00     0.167 HD
ATOM     49  C   UNL     1      -9.777  11.204 -14.367  1.00  0.00     0.031 A 
ATOM     50  C   UNL     1      -3.824   8.384 -16.775  1.00  0.00     0.031 A 
ATOM     51  C   UNL     1      -9.893  10.504 -15.618  1.00  0.00     0.049 A 
ATOM     52  C   UNL     1      -5.129   8.228 -17.506  1.00  0.00     0.074 A 
ATOM     53  C   UNL     1     -11.014  10.348 -16.415  1.00  0.00     0.029 A 
ATOM     54  N   UNL     1      -8.853   9.848 -16.258  1.00  0.00    -0.354 N 
ATOM     55  N   UNL     1      -6.310   8.707 -17.195  1.00  0.00    -0.248 NA
ATOM     56  C   UNL     1      -5.104   7.439 -18.745  1.00  0.00     0.031 C 
ATOM     57  C   UNL     1     -10.663   9.554 -17.512  1.00  0.00     0.029 A 
ATOM     58  C   UNL     1      -9.310   9.265 -17.428  1.00  0.00     0.049 A 
ATOM     59  H   UNL     1      -7.926   9.803 -15.930  1.00  0.00     0.167 HD
ATOM     60  C   UNL     1      -7.165   8.292 -18.209  1.00  0.00     0.074 A 
ATOM     61  C   UNL     1      -6.361   7.542 -19.153  1.00  0.00     0.031 C 
ATOM     62  C   UNL     1      -8.497   8.510 -18.348  1.00  0.00     0.031 A 
BRANCH  49  63
ATOM     63  C   UNL     1     -11.011  11.839 -13.784  1.00  0.00    -0.014 A 
ATOM     64  C   UNL     1     -11.164  13.237 -13.763  1.00  0.00     0.010 A 
ATOM     65  C   UNL     1     -12.054  11.030 -13.298  1.00  0.00     0.010 A 
ATOM     66  C   UNL     1     -12.323  13.815 -13.241  1.00  0.00     0.020 A 
ATOM     67  C   UNL     1     -13.227  11.603 -12.799  1.00  0.00     0.020 A 
ATOM     68  C   UNL     1     -13.349  12.994 -12.763  1.00  0.00     0.054 A 
BRANCH  68  69
ATOM     69  S   UNL     1     -14.857  13.774 -12.125  1.00  0.00     0.124 S 
ATOM     70  O   UNL     1     -14.383  14.374 -10.880  1.00  0.00    -0.237 OA
ATOM     71  O   UNL     1     -15.201  14.717 -13.186  1.00  0.00    -0.237 OA
ATOM     72  O   UNL     1     -15.784  12.657 -11.963  1.00  0.00    -0.744 OA
ENDBRANCH  68  69
ENDBRANCH  49  63
BRANCH  50  73
ATOM     73  C   UNL     1      -2.571   7.780 -17.305  1.00  0.00    -0.014 A 
ATOM     74  C   UNL     1      -1.966   8.300 -18.463  1.00  0.00     0.010 A 
ATOM     75  C   UNL     1      -1.965   6.696 -16.644  1.00  0.00     0.010 A 
ATOM     76  C   UNL     1      -0.784   7.740 -18.956  1.00  0.00     0.020 A 
ATOM     77  C   UNL     1      -0.769   6.151 -17.119  1.00  0.00     0.020 A 
ATOM     78  C   UNL     1      -0.190   6.672 -18.278  1.00  0.00     0.054 A 
BRANCH  78  79
ATOM     79  S   UNL     1       1.375   6.002 -18.905  1.00  0.00     0.124 S 
ATOM     80  O   UNL     1       0.948   5.321 -20.123  1.00  0.00    -0.237 OA
ATOM     81  O   UNL     1       2.176   7.208 -19.101  1.00  0.00    -0.237 OA
ATOM     82  O   UNL     1       1.831   5.130 -17.826  1.00  0.00    -0.744 OA
ENDBRANCH  78  79
ENDBRANCH  50  73
BRANCH  62  83
ATOM     83  C   UNL     1      -9.166   7.939 -19.569  1.00  0.00    -0.014 A 
ATOM     84  C   UNL     1      -9.388   6.556 -19.694  1.00  0.00     0.010 A 
ATOM     85  C   UNL     1      -9.625   8.802 -20.581  1.00  0.00     0.010 A 
ATOM     86  C   UNL     1     -10.025   6.043 -20.826  1.00  0.00     0.020 A 
ATOM     87  C   UNL     1     -10.287   8.296 -21.701  1.00  0.00     0.020 A 
ATOM     88  C   UNL     1     -10.470   6.917 -21.824  1.00  0.00     0.054 A 
BRANCH  88  89
ATOM     89  S   UNL     1     -11.322   6.226 -23.268  1.00  0.00     0.124 S 
ATOM     90  O   UNL     1     -10.226   5.583 -23.988  1.00  0.00    -0.237 OA
ATOM     91  O   UNL     1     -12.293   5.319 -22.662  1.00  0.00    -0.237 OA
ATOM     92  O   UNL     1     -11.897   7.397 -23.925  1.00  0.00    -0.744 OA
ENDBRANCH  88  89
ENDBRANCH  62  83
ENDBRANCH  36  37
ENDBRANCH  28  31
ENDBRANCH  26  27
ENDBRANCH  25  26
ENDBRANCH   1  25
TORSDOF 17
