REMARK SMILES C[C@@H]1CC[C@@H](C(=O)NCCCCCCNC(=O)c2ccc(-c3c4nc(c(-c5ccc(S(=O)(=O)[O-])cc5)c5ccc([nH]5)c(-c5ccc(S(=O)(=O)[O-])cc5)c5nc(c(-c6ccc(S(=O)(=O)[O-])cc6)c6ccc3[nH]6)C=C5)C=C4)cc2)[C@H]2C(=O)N(c3ccccc3)C(=O)[C@@H]21
REMARK SMILES IDX 12 1 11 2 10 3 9 4 8 5 6 6 7 7 5 9 1 10 2 11 3 12 90 13 4 14
REMARK SMILES IDX 78 15 88 16 79 17 81 18 89 19 80 20 82 21 83 22 87 23 84 24
REMARK SMILES IDX 86 25 85 26 13 27 14 28 15 29 16 30 17 32 18 33 19 34 77 35
REMARK SMILES IDX 20 36 76 37 21 38 22 39 23 40 70 41 24 42 75 43 69 44 71 45
REMARK SMILES IDX 25 46 74 47 68 48 67 49 26 51 56 52 37 53 55 54 38 55 41 56
REMARK SMILES IDX 54 57 72 58 39 59 40 60 53 62 73 63 42 64 27 65 28 66 36 67
REMARK SMILES IDX 29 68 35 69 30 70 31 71 32 72 33 73 34 74 57 75 58 76 66 77
REMARK SMILES IDX 59 78 65 79 60 80 61 81 62 82 63 83 64 84 43 85 44 86 52 87
REMARK SMILES IDX 45 88 51 89 46 90 47 91 48 92 49 93 50 94
REMARK H PARENT 8 8 15 31 71 50 41 61
REMARK Flexibility Score: inf
ROOT
ATOM      1  C   UNL     1      -2.613   4.791   3.437  1.00  0.00     0.002 C 
ENDROOT
BRANCH   1   2
ATOM      2  C   UNL     1      -2.775   3.379   4.015  1.00  0.00     0.002 C 
BRANCH   2   3
ATOM      3  C   UNL     1      -1.855   2.319   3.405  1.00  0.00     0.021 C 
BRANCH   3   4
ATOM      4  C   UNL     1      -0.365   2.580   3.635  1.00  0.00     0.116 C 
BRANCH   4   5
ATOM      5  N   UNL     1       0.185   1.734   4.670  1.00  0.00    -0.356 N 
ATOM      6  C   UNL     1       1.142   0.777   4.684  1.00  0.00     0.223 C 
ATOM      7  O   UNL     1       1.523   0.425   5.807  1.00  0.00    -0.275 OA
ATOM      8  H   UNL     1      -0.223   1.886   5.553  1.00  0.00     0.163 HD
BRANCH   6   9
ATOM      9  C   UNL     1       1.760   0.116   3.442  1.00  0.00     0.092 C 
ATOM     10  C   UNL     1       1.683  -0.515  -0.425  1.00  0.00     0.008 C 
ATOM     11  C   UNL     1       0.971   0.470   0.501  1.00  0.00    -0.001 C 
ATOM     12  C   UNL     1       1.988   1.438   1.152  1.00  0.00     0.005 C 
ATOM     13  C   UNL     1       0.107  -0.181   1.570  1.00  0.00     0.095 C 
ATOM     14  C   UNL     1       2.595   1.015   2.508  1.00  0.00     0.014 C 
ATOM     15  C   UNL     1       0.896  -0.854   2.658  1.00  0.00     0.104 C 
ATOM     16  C   UNL     1      -0.905  -1.242   1.223  1.00  0.00     0.237 C 
ATOM     17  C   UNL     1      -0.182  -1.640   3.361  1.00  0.00     0.238 C 
ATOM     18  N   UNL     1      -1.148  -1.933   2.405  1.00  0.00    -0.250 N 
ATOM     19  O   UNL     1      -1.460  -1.313   0.140  1.00  0.00    -0.274 OA
ATOM     20  O   UNL     1      -0.085  -2.035   4.513  1.00  0.00    -0.274 OA
BRANCH  18  21
ATOM     21  C   UNL     1      -2.255  -2.805   2.615  1.00  0.00     0.052 A 
ATOM     22  C   UNL     1      -2.920  -3.413   1.539  1.00  0.00     0.027 A 
ATOM     23  C   UNL     1      -2.743  -3.063   3.906  1.00  0.00     0.027 A 
ATOM     24  C   UNL     1      -4.029  -4.242   1.744  1.00  0.00     0.002 A 
ATOM     25  C   UNL     1      -3.864  -3.876   4.112  1.00  0.00     0.002 A 
ATOM     26  C   UNL     1      -4.507  -4.466   3.030  1.00  0.00     0.000 A 
ENDBRANCH  18  21
ENDBRANCH   6   9
ENDBRANCH   4   5
ENDBRANCH   3   4
ENDBRANCH   2   3
ENDBRANCH   1   2
BRANCH   1  27
ATOM     27  C   UNL     1      -2.756   4.911   1.916  1.00  0.00     0.021 C 
BRANCH  27  28
ATOM     28  C   UNL     1      -4.076   4.394   1.346  1.00  0.00     0.116 C 
BRANCH  28  29
ATOM     29  N   UNL     1      -5.222   5.078   1.923  1.00  0.00    -0.352 N 
ATOM     30  C   UNL     1      -6.173   5.864   1.321  1.00  0.00     0.251 C 
ATOM     31  H   UNL     1      -5.333   4.960   2.894  1.00  0.00     0.163 HD
ATOM     32  O   UNL     1      -6.928   6.541   2.012  1.00  0.00    -0.269 OA
BRANCH  30  33
ATOM     33  C   UNL     1      -6.284   5.902  -0.153  1.00  0.00     0.039 A 
ATOM     34  C   UNL     1      -6.459   7.136  -0.787  1.00  0.00     0.014 A 
ATOM     35  C   UNL     1      -6.257   4.724  -0.904  1.00  0.00     0.014 A 
ATOM     36  C   UNL     1      -6.551   7.193  -2.180  1.00  0.00     0.010 A 
ATOM     37  C   UNL     1      -6.290   4.788  -2.295  1.00  0.00     0.010 A 
ATOM     38  C   UNL     1      -6.441   6.022  -2.946  1.00  0.00    -0.014 A 
BRANCH  38  39
ATOM     39  C   UNL     1      -6.482   6.063  -4.430  1.00  0.00     0.031 A 
ATOM     40  C   UNL     1      -7.618   5.415  -5.173  1.00  0.00     0.074 A 
ATOM     41  C   UNL     1      -5.460   6.621  -5.108  1.00  0.00     0.049 A 
ATOM     42  N   UNL     1      -7.787   5.276  -6.463  1.00  0.00    -0.248 NA
ATOM     43  C   UNL     1      -8.695   4.827  -4.359  1.00  0.00     0.031 C 
ATOM     44  C   UNL     1      -4.283   7.250  -4.503  1.00  0.00     0.029 A 
ATOM     45  N   UNL     1      -5.239   6.736  -6.458  1.00  0.00    -0.354 N 
ATOM     46  C   UNL     1      -8.973   4.568  -6.615  1.00  0.00     0.074 A 
ATOM     47  C   UNL     1      -9.463   4.273  -5.286  1.00  0.00     0.031 C 
ATOM     48  C   UNL     1      -3.474   7.698  -5.476  1.00  0.00     0.029 A 
ATOM     49  C   UNL     1      -4.053   7.356  -6.772  1.00  0.00     0.049 A 
ATOM     50  H   UNL     1      -5.871   6.406  -7.137  1.00  0.00     0.167 HD
ATOM     51  C   UNL     1      -9.605   4.207  -7.758  1.00  0.00     0.031 A 
ATOM     52  C   UNL     1      -3.489   7.613  -7.968  1.00  0.00     0.031 A 
ATOM     53  C   UNL     1      -9.122   4.514  -9.078  1.00  0.00     0.049 A 
ATOM     54  C   UNL     1      -4.207   7.202  -9.223  1.00  0.00     0.074 A 
ATOM     55  C   UNL     1      -9.719   4.244 -10.297  1.00  0.00     0.029 A 
ATOM     56  N   UNL     1      -7.926   5.160  -9.352  1.00  0.00    -0.354 N 
ATOM     57  N   UNL     1      -5.358   6.584  -9.346  1.00  0.00    -0.248 NA
ATOM     58  C   UNL     1      -3.557   7.530 -10.499  1.00  0.00     0.031 C 
ATOM     59  C   UNL     1      -8.862   4.688 -11.310  1.00  0.00     0.029 A 
ATOM     60  C   UNL     1      -7.756   5.279 -10.721  1.00  0.00     0.049 A 
ATOM     61  H   UNL     1      -7.291   5.486  -8.674  1.00  0.00     0.167 HD
ATOM     62  C   UNL     1      -5.580   6.470 -10.714  1.00  0.00     0.074 A 
ATOM     63  C   UNL     1      -4.452   7.093 -11.375  1.00  0.00     0.031 C 
ATOM     64  C   UNL     1      -6.626   5.901 -11.363  1.00  0.00     0.031 A 
BRANCH  51  65
ATOM     65  C   UNL     1     -10.889   3.433  -7.627  1.00  0.00    -0.014 A 
ATOM     66  C   UNL     1     -12.064   4.049  -7.159  1.00  0.00     0.010 A 
ATOM     67  C   UNL     1     -10.932   2.079  -8.007  1.00  0.00     0.010 A 
ATOM     68  C   UNL     1     -13.246   3.315  -7.032  1.00  0.00     0.020 A 
ATOM     69  C   UNL     1     -12.119   1.348  -7.906  1.00  0.00     0.020 A 
ATOM     70  C   UNL     1     -13.265   1.966  -7.401  1.00  0.00     0.054 A 
BRANCH  70  71
ATOM     71  S   UNL     1     -14.816   1.040  -7.239  1.00  0.00     0.124 S 
ATOM     72  O   UNL     1     -14.892   0.833  -5.795  1.00  0.00    -0.237 OA
ATOM     73  O   UNL     1     -15.803   1.965  -7.792  1.00  0.00    -0.237 OA
ATOM     74  O   UNL     1     -14.584  -0.165  -8.030  1.00  0.00    -0.744 OA
ENDBRANCH  70  71
ENDBRANCH  51  65
BRANCH  52  75
ATOM     75  C   UNL     1      -2.174   8.306  -8.032  1.00  0.00    -0.014 A 
ATOM     76  C   UNL     1      -2.095   9.643  -8.458  1.00  0.00     0.010 A 
ATOM     77  C   UNL     1      -0.997   7.640  -7.644  1.00  0.00     0.010 A 
ATOM     78  C   UNL     1      -0.861  10.298  -8.508  1.00  0.00     0.020 A 
ATOM     79  C   UNL     1       0.235   8.299  -7.670  1.00  0.00     0.020 A 
ATOM     80  C   UNL     1       0.296   9.622  -8.112  1.00  0.00     0.054 A 
BRANCH  80  81
ATOM     81  S   UNL     1       1.879  10.509  -8.127  1.00  0.00     0.124 S 
ATOM     82  O   UNL     1       2.201  10.532  -9.550  1.00  0.00    -0.237 OA
ATOM     83  O   UNL     1       1.526  11.798  -7.536  1.00  0.00    -0.237 OA
ATOM     84  O   UNL     1       2.746   9.672  -7.300  1.00  0.00    -0.744 OA
ENDBRANCH  80  81
ENDBRANCH  52  75
BRANCH  64  85
ATOM     85  C   UNL     1      -6.615   5.949 -12.866  1.00  0.00    -0.014 A 
ATOM     86  C   UNL     1      -5.766   5.114 -13.613  1.00  0.00     0.010 A 
ATOM     87  C   UNL     1      -7.514   6.796 -13.540  1.00  0.00     0.010 A 
ATOM     88  C   UNL     1      -5.800   5.143 -15.009  1.00  0.00     0.020 A 
ATOM     89  C   UNL     1      -7.567   6.810 -14.935  1.00  0.00     0.020 A 
ATOM     90  C   UNL     1      -6.700   5.991 -15.662  1.00  0.00     0.054 A 
BRANCH  90  91
ATOM     91  S   UNL     1      -6.764   5.971 -17.475  1.00  0.00     0.124 S 
ATOM     92  O   UNL     1      -5.560   6.717 -17.829  1.00  0.00    -0.237 OA
ATOM     93  O   UNL     1      -6.732   4.543 -17.782  1.00  0.00    -0.237 OA
ATOM     94  O   UNL     1      -8.026   6.639 -17.784  1.00  0.00    -0.744 OA
ENDBRANCH  90  91
ENDBRANCH  64  85
ENDBRANCH  38  39
ENDBRANCH  30  33
ENDBRANCH  28  29
ENDBRANCH  27  28
ENDBRANCH   1  27
TORSDOF 17
