REMARK SMILES CC[C@](C)(NC(=O)NC[C@@H](C)[NH+](C)C)C(=O)NCCCCCCNC(=O)c1ccc(-c2c3nc(c(-c4ccc(S(=O)(=O)[O-])cc4)c4ccc([nH]4)c(-c4ccc(S(=O)(=O)[O-])cc4)c4nc(c(-c5ccc(S(=O)(=O)[O-])cc5)c5ccc2[nH]5)C=C4)C=C3)cc1
REMARK SMILES IDX 20 1 19 2 18 3 17 4 15 5 16 6 3 8 4 9 2 10 1 11 5 12 6 13
REMARK SMILES IDX 7 15 8 16 9 18 10 19 11 20 12 21 13 22 14 23 21 25 22 26
REMARK SMILES IDX 23 27 24 28 25 29 26 31 27 32 28 33 86 34 29 35 85 36 30 37
REMARK SMILES IDX 31 38 32 39 79 40 33 41 84 42 78 43 80 44 34 45 83 46 77 47
REMARK SMILES IDX 76 48 35 50 65 51 46 52 64 53 47 54 50 55 63 56 81 57 48 58
REMARK SMILES IDX 49 59 62 61 82 62 51 63 36 64 37 65 45 66 38 67 44 68 39 69
REMARK SMILES IDX 40 70 41 71 42 72 43 73 66 74 67 75 75 76 68 77 74 78 69 79
REMARK SMILES IDX 70 80 71 81 72 82 73 83 52 84 53 85 61 86 54 87 60 88 55 89
REMARK SMILES IDX 56 90 57 91 58 92 59 93
REMARK H PARENT 17 7 5 14 8 17 12 24 24 30 80 49 50 60
REMARK Flexibility Score: inf
ROOT
ATOM      1  C   UNL     1       3.787   2.221  -6.239  1.00  0.00     0.002 C 
ENDROOT
BRANCH   1   2
ATOM      2  C   UNL     1       2.301   1.957  -6.003  1.00  0.00     0.021 C 
BRANCH   2   3
ATOM      3  C   UNL     1       1.842   0.629  -5.384  1.00  0.00     0.116 C 
BRANCH   3   4
ATOM      4  N   UNL     1       2.486   0.138  -4.171  1.00  0.00    -0.354 N 
ATOM      5  C   UNL     1       2.083   0.090  -2.859  1.00  0.00     0.245 C 
ATOM      6  O   UNL     1       2.592  -0.780  -2.144  1.00  0.00    -0.272 OA
ATOM      7  H   UNL     1       3.386  -0.232  -4.323  1.00  0.00     0.163 HD
BRANCH   5   8
ATOM      8  C   UNL     1       0.906   0.945  -2.328  1.00  0.00     0.117 C 
ATOM      9  C   UNL     1       0.876   1.090  -0.794  1.00  0.00     0.045 C 
BRANCH   8  10
ATOM     10  C   UNL     1      -0.345   0.097  -2.745  1.00  0.00     0.035 C 
ATOM     11  C   UNL     1      -1.724   0.677  -2.476  1.00  0.00     0.007 C 
ENDBRANCH   8  10
BRANCH   8  12
ATOM     12  N   UNL     1       0.943   2.282  -2.931  1.00  0.00    -0.324 N 
ATOM     13  C   UNL     1       1.823   3.290  -2.923  1.00  0.00     0.315 C 
ATOM     14  H   UNL     1       0.138   2.483  -3.461  1.00  0.00     0.166 HD
ATOM     15  O   UNL     1       1.425   4.372  -3.371  1.00  0.00    -0.249 OA
ATOM     16  N   UNL     1       3.102   3.241  -2.534  1.00  0.00    -0.332 N 
ATOM     17  H   UNL     1       3.562   4.085  -2.745  1.00  0.00     0.165 HD
BRANCH  16  18
ATOM     18  C   UNL     1       4.024   2.298  -1.885  1.00  0.00     0.182 C 
BRANCH  18  19
ATOM     19  C   UNL     1       5.060   1.617  -2.834  1.00  0.00     0.200 C 
ATOM     20  C   UNL     1       6.218   2.558  -3.192  1.00  0.00     0.077 C 
BRANCH  19  21
ATOM     21  N   UNL     1       5.492   0.294  -2.345  1.00  0.00    -0.336 N 
ATOM     22  C   UNL     1       6.146  -0.532  -3.355  1.00  0.00     0.332 C 
ATOM     23  C   UNL     1       6.237   0.295  -1.097  1.00  0.00     0.332 C 
ATOM     24  H   UNL     1       4.600  -0.150  -2.123  1.00  0.00     0.347 HD
ENDBRANCH  19  21
ENDBRANCH  18  19
ENDBRANCH  16  18
ENDBRANCH   8  12
ENDBRANCH   5   8
ENDBRANCH   3   4
ENDBRANCH   2   3
ENDBRANCH   1   2
BRANCH   1  25
ATOM     25  C   UNL     1       4.596   1.057  -6.804  1.00  0.00     0.002 C 
BRANCH  25  26
ATOM     26  C   UNL     1       4.198   0.646  -8.219  1.00  0.00     0.021 C 
BRANCH  26  27
ATOM     27  C   UNL     1       4.370   1.739  -9.265  1.00  0.00     0.116 C 
BRANCH  27  28
ATOM     28  N   UNL     1       5.759   2.133  -9.453  1.00  0.00    -0.352 N 
ATOM     29  C   UNL     1       6.372   2.499 -10.632  1.00  0.00     0.251 C 
ATOM     30  H   UNL     1       6.324   2.139  -8.647  1.00  0.00     0.163 HD
ATOM     31  O   UNL     1       7.574   2.692 -10.688  1.00  0.00    -0.269 OA
BRANCH  29  32
ATOM     32  C   UNL     1       5.527   2.612 -11.840  1.00  0.00     0.039 A 
ATOM     33  C   UNL     1       5.837   1.840 -12.960  1.00  0.00     0.014 A 
ATOM     34  C   UNL     1       4.376   3.404 -11.811  1.00  0.00     0.014 A 
ATOM     35  C   UNL     1       4.950   1.814 -14.038  1.00  0.00     0.010 A 
ATOM     36  C   UNL     1       3.461   3.320 -12.854  1.00  0.00     0.010 A 
ATOM     37  C   UNL     1       3.739   2.525 -13.977  1.00  0.00    -0.014 A 
BRANCH  37  38
ATOM     38  C   UNL     1       2.749   2.454 -15.081  1.00  0.00     0.031 A 
ATOM     39  C   UNL     1       2.414   3.694 -15.866  1.00  0.00     0.074 A 
ATOM     40  C   UNL     1       2.103   1.298 -15.329  1.00  0.00     0.049 A 
ATOM     41  N   UNL     1       1.541   3.849 -16.826  1.00  0.00    -0.248 NA
ATOM     42  C   UNL     1       3.135   4.926 -15.503  1.00  0.00     0.031 C 
ATOM     43  C   UNL     1       2.300   0.041 -14.602  1.00  0.00     0.029 A 
ATOM     44  N   UNL     1       1.141   0.993 -16.259  1.00  0.00    -0.354 N 
ATOM     45  C   UNL     1       1.590   5.197 -17.165  1.00  0.00     0.074 A 
ATOM     46  C   UNL     1       2.543   5.824 -16.276  1.00  0.00     0.031 C 
ATOM     47  C   UNL     1       1.505  -0.904 -15.131  1.00  0.00     0.029 A 
ATOM     48  C   UNL     1       0.716  -0.315 -16.209  1.00  0.00     0.049 A 
ATOM     49  H   UNL     1       0.787   1.649 -16.903  1.00  0.00     0.167 HD
ATOM     50  C   UNL     1       0.917   5.850 -18.142  1.00  0.00     0.031 A 
ATOM     51  C   UNL     1      -0.205  -0.965 -16.946  1.00  0.00     0.031 A 
ATOM     52  C   UNL     1      -0.011   5.217 -19.040  1.00  0.00     0.049 A 
ATOM     53  C   UNL     1      -0.927  -0.221 -18.037  1.00  0.00     0.074 A 
ATOM     54  C   UNL     1      -0.687   5.775 -20.110  1.00  0.00     0.029 A 
ATOM     55  N   UNL     1      -0.392   3.886 -18.973  1.00  0.00    -0.354 N 
ATOM     56  N   UNL     1      -0.807   1.035 -18.395  1.00  0.00    -0.248 NA
ATOM     57  C   UNL     1      -1.898  -0.986 -18.832  1.00  0.00     0.031 C 
ATOM     58  C   UNL     1      -1.515   4.792 -20.662  1.00  0.00     0.029 A 
ATOM     59  C   UNL     1      -1.312   3.608 -19.969  1.00  0.00     0.049 A 
ATOM     60  H   UNL     1      -0.058   3.235 -18.315  1.00  0.00     0.167 HD
ATOM     61  C   UNL     1      -1.667   1.204 -19.475  1.00  0.00     0.074 A 
ATOM     62  C   UNL     1      -2.289  -0.081 -19.719  1.00  0.00     0.031 C 
ATOM     63  C   UNL     1      -1.918   2.322 -20.199  1.00  0.00     0.031 A 
BRANCH  50  64
ATOM     64  C   UNL     1       1.164   7.328 -18.288  1.00  0.00    -0.014 A 
ATOM     65  C   UNL     1       2.392   7.816 -18.769  1.00  0.00     0.010 A 
ATOM     66  C   UNL     1       0.141   8.240 -17.971  1.00  0.00     0.010 A 
ATOM     67  C   UNL     1       2.607   9.191 -18.892  1.00  0.00     0.020 A 
ATOM     68  C   UNL     1       0.343   9.616 -18.120  1.00  0.00     0.020 A 
ATOM     69  C   UNL     1       1.582  10.082 -18.563  1.00  0.00     0.054 A 
BRANCH  69  70
ATOM     70  S   UNL     1       1.881  11.861 -18.755  1.00  0.00     0.124 S 
ATOM     71  O   UNL     1       2.761  12.142 -17.624  1.00  0.00    -0.237 OA
ATOM     72  O   UNL     1       2.508  11.940 -20.072  1.00  0.00    -0.237 OA
ATOM     73  O   UNL     1       0.547  12.449 -18.668  1.00  0.00    -0.744 OA
ENDBRANCH  69  70
ENDBRANCH  50  64
BRANCH  51  74
ATOM     74  C   UNL     1      -0.484  -2.405 -16.692  1.00  0.00    -0.014 A 
ATOM     75  C   UNL     1      -0.076  -3.385 -17.614  1.00  0.00     0.010 A 
ATOM     76  C   UNL     1      -1.158  -2.806 -15.524  1.00  0.00     0.010 A 
ATOM     77  C   UNL     1      -0.355  -4.735 -17.386  1.00  0.00     0.020 A 
ATOM     78  C   UNL     1      -1.416  -4.158 -15.279  1.00  0.00     0.020 A 
ATOM     79  C   UNL     1      -1.025  -5.113 -16.218  1.00  0.00     0.054 A 
BRANCH  79  80
ATOM     80  S   UNL     1      -1.339  -6.876 -15.919  1.00  0.00     0.124 S 
ATOM     81  O   UNL     1      -2.435  -7.149 -16.842  1.00  0.00    -0.237 OA
ATOM     82  O   UNL     1      -0.057  -7.488 -16.259  1.00  0.00    -0.237 OA
ATOM     83  O   UNL     1      -1.686  -6.923 -14.501  1.00  0.00    -0.744 OA
ENDBRANCH  79  80
ENDBRANCH  51  74
BRANCH  63  84
ATOM     84  C   UNL     1      -2.881   2.200 -21.349  1.00  0.00    -0.014 A 
ATOM     85  C   UNL     1      -4.264   2.069 -21.130  1.00  0.00     0.010 A 
ATOM     86  C   UNL     1      -2.398   2.280 -22.668  1.00  0.00     0.010 A 
ATOM     87  C   UNL     1      -5.144   1.990 -22.213  1.00  0.00     0.020 A 
ATOM     88  C   UNL     1      -3.278   2.228 -23.752  1.00  0.00     0.020 A 
ATOM     89  C   UNL     1      -4.645   2.070 -23.517  1.00  0.00     0.054 A 
BRANCH  89  90
ATOM     90  S   UNL     1      -5.812   2.013 -24.904  1.00  0.00     0.124 S 
ATOM     91  O   UNL     1      -6.169   0.597 -24.942  1.00  0.00    -0.237 OA
ATOM     92  O   UNL     1      -6.873   2.917 -24.469  1.00  0.00    -0.237 OA
ATOM     93  O   UNL     1      -5.024   2.487 -26.039  1.00  0.00    -0.744 OA
ENDBRANCH  89  90
ENDBRANCH  63  84
ENDBRANCH  37  38
ENDBRANCH  29  32
ENDBRANCH  27  28
ENDBRANCH  26  27
ENDBRANCH  25  26
ENDBRANCH   1  25
TORSDOF 21
