REMARK SMILES Cc1nsc(Nc2ccccc2C(C)C)c1C(=O)NCCCCCCNC(=O)c1ccc(-c2c3nc(c(-c4ccc(S(=O)(=O)[O-])cc4)c4ccc([nH]4)c(-c4ccc(S(=O)(=O)[O-])cc4)c4nc(c(-c5ccc(S(=O)(=O)[O-])cc5)c5ccc2[nH]5)C=C4)C=C3)cc1
REMARK SMILES IDX 22 1 21 2 20 3 19 4 17 5 18 6 16 8 1 9 2 10 3 11 4 12 5 13
REMARK SMILES IDX 6 14 7 16 8 17 12 18 9 19 11 20 10 21 13 22 14 23 15 24
REMARK SMILES IDX 23 25 24 26 25 27 26 28 27 29 28 31 29 32 30 33 88 34 31 35
REMARK SMILES IDX 87 36 32 37 33 38 34 39 81 40 35 41 86 42 80 43 82 44 36 45
REMARK SMILES IDX 85 46 79 47 78 48 37 50 67 51 48 52 66 53 49 54 52 55 65 56
REMARK SMILES IDX 83 57 50 58 51 59 64 61 84 62 53 63 38 64 39 65 47 66 40 67
REMARK SMILES IDX 46 68 41 69 42 70 43 71 44 72 45 73 68 74 69 75 77 76 70 77
REMARK SMILES IDX 76 78 71 79 72 80 73 81 74 82 75 83 54 84 55 85 63 86 56 87
REMARK SMILES IDX 62 88 57 89 58 90 59 91 60 92 61 93
REMARK H PARENT 19 7 6 15 26 30 82 49 52 60
REMARK Flexibility Score: inf
ROOT
ATOM      1  C   UNL     1       2.766  -0.252  -3.956  1.00  0.00     0.002 C 
ENDROOT
BRANCH   1   2
ATOM      2  C   UNL     1       1.484  -0.118  -3.135  1.00  0.00     0.021 C 
BRANCH   2   3
ATOM      3  C   UNL     1       1.605   0.334  -1.687  1.00  0.00     0.116 C 
BRANCH   3   4
ATOM      4  N   UNL     1       2.172   1.641  -1.469  1.00  0.00    -0.352 N 
ATOM      5  C   UNL     1       1.872   2.596  -0.524  1.00  0.00     0.256 C 
ATOM      6  O   UNL     1       2.563   3.621  -0.566  1.00  0.00    -0.269 OA
ATOM      7  H   UNL     1       2.888   1.891  -2.096  1.00  0.00     0.163 HD
BRANCH   5   8
ATOM      8  C   UNL     1       0.747   2.477   0.416  1.00  0.00     0.097 A 
ATOM      9  C   UNL     1       0.657  -0.069   1.207  1.00  0.00     0.069 C 
ATOM     10  C   UNL     1       0.165   1.335   1.110  1.00  0.00     0.066 A 
ATOM     11  N   UNL     1      -0.952   1.572   1.798  1.00  0.00    -0.195 NA
ATOM     12  S   UNL     1      -1.311   3.172   1.719  1.00  0.00    -0.018 S 
ATOM     13  C   UNL     1       0.128   3.638   0.906  1.00  0.00     0.127 A 
BRANCH  13  14
ATOM     14  N   UNL     1       0.542   4.926   0.736  1.00  0.00    -0.345 N 
ATOM     15  H   UNL     1       1.123   5.093  -0.041  1.00  0.00     0.167 HD
BRANCH  14  16
ATOM     16  C   UNL     1       0.240   6.050   1.538  1.00  0.00     0.043 A 
ATOM     17  C   UNL     1      -0.204   7.197   0.851  1.00  0.00     0.026 A 
ATOM     18  C   UNL     1       0.468   6.134   2.933  1.00  0.00    -0.022 A 
ATOM     19  C   UNL     1      -0.471   8.392   1.517  1.00  0.00     0.002 A 
ATOM     20  C   UNL     1       0.189   7.357   3.585  1.00  0.00     0.006 A 
ATOM     21  C   UNL     1      -0.278   8.471   2.888  1.00  0.00     0.000 A 
BRANCH  18  22
ATOM     22  C   UNL     1       1.027   4.986   3.771  1.00  0.00     0.015 C 
ATOM     23  C   UNL     1       2.392   5.328   4.381  1.00  0.00     0.012 C 
ATOM     24  C   UNL     1       0.047   4.563   4.874  1.00  0.00     0.012 C 
ENDBRANCH  18  22
ENDBRANCH  14  16
ENDBRANCH  13  14
ENDBRANCH   5   8
ENDBRANCH   3   4
ENDBRANCH   2   3
ENDBRANCH   1   2
BRANCH   1  25
ATOM     25  C   UNL     1       3.963  -0.987  -3.338  1.00  0.00     0.002 C 
BRANCH  25  26
ATOM     26  C   UNL     1       3.749  -2.379  -2.728  1.00  0.00     0.021 C 
BRANCH  26  27
ATOM     27  C   UNL     1       3.138  -3.419  -3.652  1.00  0.00     0.116 C 
BRANCH  27  28
ATOM     28  N   UNL     1       3.952  -3.726  -4.833  1.00  0.00    -0.352 N 
ATOM     29  C   UNL     1       3.640  -4.556  -5.907  1.00  0.00     0.251 C 
ATOM     30  H   UNL     1       4.833  -3.289  -4.871  1.00  0.00     0.163 HD
ATOM     31  O   UNL     1       4.515  -5.025  -6.612  1.00  0.00    -0.269 OA
BRANCH  29  32
ATOM     32  C   UNL     1       2.215  -4.841  -6.176  1.00  0.00     0.039 A 
ATOM     33  C   UNL     1       1.743  -6.071  -6.642  1.00  0.00     0.014 A 
ATOM     34  C   UNL     1       1.328  -3.814  -5.894  1.00  0.00     0.014 A 
ATOM     35  C   UNL     1       0.362  -6.253  -6.753  1.00  0.00     0.010 A 
ATOM     36  C   UNL     1       0.013  -4.100  -5.702  1.00  0.00     0.010 A 
ATOM     37  C   UNL     1      -0.495  -5.252  -6.269  1.00  0.00    -0.014 A 
BRANCH  37  38
ATOM     38  C   UNL     1      -1.945  -5.362  -6.277  1.00  0.00     0.031 A 
ATOM     39  C   UNL     1      -2.454  -6.520  -5.513  1.00  0.00     0.074 A 
ATOM     40  C   UNL     1      -2.749  -4.354  -6.690  1.00  0.00     0.049 A 
ATOM     41  N   UNL     1      -2.861  -7.650  -5.982  1.00  0.00    -0.248 NA
ATOM     42  C   UNL     1      -2.308  -6.498  -4.047  1.00  0.00     0.031 C 
ATOM     43  C   UNL     1      -2.360  -2.993  -7.103  1.00  0.00     0.029 A 
ATOM     44  N   UNL     1      -4.107  -4.284  -6.713  1.00  0.00    -0.354 N 
ATOM     45  C   UNL     1      -3.300  -8.364  -4.874  1.00  0.00     0.074 A 
ATOM     46  C   UNL     1      -2.693  -7.736  -3.728  1.00  0.00     0.031 C 
ATOM     47  C   UNL     1      -3.440  -2.182  -7.093  1.00  0.00     0.029 A 
ATOM     48  C   UNL     1      -4.618  -3.000  -6.883  1.00  0.00     0.049 A 
ATOM     49  H   UNL     1      -4.682  -5.077  -6.617  1.00  0.00     0.167 HD
ATOM     50  C   UNL     1      -4.398  -9.167  -4.954  1.00  0.00     0.031 A 
ATOM     51  C   UNL     1      -5.922  -2.632  -6.862  1.00  0.00     0.031 A 
ATOM     52  C   UNL     1      -4.844  -9.289  -6.320  1.00  0.00     0.049 A 
ATOM     53  C   UNL     1      -6.712  -3.849  -7.160  1.00  0.00     0.074 A 
ATOM     54  C   UNL     1      -4.405  -9.913  -7.465  1.00  0.00     0.029 A 
ATOM     55  N   UNL     1      -5.723  -8.302  -6.697  1.00  0.00    -0.354 N 
ATOM     56  N   UNL     1      -6.622  -4.495  -8.291  1.00  0.00    -0.248 NA
ATOM     57  C   UNL     1      -7.312  -4.596  -6.063  1.00  0.00     0.031 C 
ATOM     58  C   UNL     1      -4.875  -9.113  -8.550  1.00  0.00     0.029 A 
ATOM     59  C   UNL     1      -5.637  -8.058  -8.043  1.00  0.00     0.049 A 
ATOM     60  H   UNL     1      -6.332  -7.833  -6.083  1.00  0.00     0.167 HD
ATOM     61  C   UNL     1      -6.744  -5.828  -7.941  1.00  0.00     0.074 A 
ATOM     62  C   UNL     1      -7.330  -5.817  -6.606  1.00  0.00     0.031 C 
ATOM     63  C   UNL     1      -6.075  -6.802  -8.625  1.00  0.00     0.031 A 
BRANCH  50  64
ATOM     64  C   UNL     1      -5.363  -9.406  -3.815  1.00  0.00    -0.014 A 
ATOM     65  C   UNL     1      -6.419 -10.321  -4.008  1.00  0.00     0.010 A 
ATOM     66  C   UNL     1      -5.442  -8.575  -2.679  1.00  0.00     0.010 A 
ATOM     67  C   UNL     1      -7.513 -10.369  -3.132  1.00  0.00     0.020 A 
ATOM     68  C   UNL     1      -6.507  -8.641  -1.779  1.00  0.00     0.020 A 
ATOM     69  C   UNL     1      -7.551  -9.521  -2.026  1.00  0.00     0.054 A 
BRANCH  69  70
ATOM     70  S   UNL     1      -8.999  -9.535  -0.942  1.00  0.00     0.124 S 
ATOM     71  O   UNL     1     -10.046  -9.038  -1.830  1.00  0.00    -0.237 OA
ATOM     72  O   UNL     1      -9.094 -10.944  -0.573  1.00  0.00    -0.237 OA
ATOM     73  O   UNL     1      -8.620  -8.635   0.145  1.00  0.00    -0.744 OA
ENDBRANCH  69  70
ENDBRANCH  50  64
BRANCH  51  74
ATOM     74  C   UNL     1      -6.514  -1.384  -6.324  1.00  0.00    -0.014 A 
ATOM     75  C   UNL     1      -7.808  -0.963  -6.685  1.00  0.00     0.010 A 
ATOM     76  C   UNL     1      -5.903  -0.751  -5.221  1.00  0.00     0.010 A 
ATOM     77  C   UNL     1      -8.485   0.019  -5.937  1.00  0.00     0.020 A 
ATOM     78  C   UNL     1      -6.572   0.225  -4.470  1.00  0.00     0.020 A 
ATOM     79  C   UNL     1      -7.869   0.593  -4.821  1.00  0.00     0.054 A 
BRANCH  79  80
ATOM     80  S   UNL     1      -8.807   1.745  -3.770  1.00  0.00     0.124 S 
ATOM     81  O   UNL     1      -8.953   2.909  -4.639  1.00  0.00    -0.237 OA
ATOM     82  O   UNL     1     -10.034   1.001  -3.500  1.00  0.00    -0.237 OA
ATOM     83  O   UNL     1      -7.937   1.941  -2.612  1.00  0.00    -0.744 OA
ENDBRANCH  79  80
ENDBRANCH  51  74
BRANCH  63  84
ATOM     84  C   UNL     1      -5.648  -6.508 -10.040  1.00  0.00    -0.014 A 
ATOM     85  C   UNL     1      -4.680  -5.554 -10.408  1.00  0.00     0.010 A 
ATOM     86  C   UNL     1      -6.204  -7.322 -11.043  1.00  0.00     0.010 A 
ATOM     87  C   UNL     1      -4.297  -5.410 -11.752  1.00  0.00     0.020 A 
ATOM     88  C   UNL     1      -5.814  -7.197 -12.376  1.00  0.00     0.020 A 
ATOM     89  C   UNL     1      -4.870  -6.235 -12.728  1.00  0.00     0.054 A 
BRANCH  89  90
ATOM     90  S   UNL     1      -4.357  -6.070 -14.461  1.00  0.00     0.124 S 
ATOM     91  O   UNL     1      -4.885  -4.758 -14.825  1.00  0.00    -0.237 OA
ATOM     92  O   UNL     1      -2.901  -6.163 -14.380  1.00  0.00    -0.237 OA
ATOM     93  O   UNL     1      -5.005  -7.201 -15.125  1.00  0.00    -0.744 OA
ENDBRANCH  89  90
ENDBRANCH  63  84
ENDBRANCH  37  38
ENDBRANCH  29  32
ENDBRANCH  27  28
ENDBRANCH  26  27
ENDBRANCH  25  26
ENDBRANCH   1  25
TORSDOF 19
