REMARK SMILES COc1ccc(OC)c(/C=C2\S/C(=[NH+]\c3ccc(C(=O)NCCCCCCNC(=O)c4ccc(-c5c6nc(c(-c7ccc(S(=O)(=O)[O-])cc7)c7ccc([nH]7)c(-c7ccc(S(=O)(=O)[O-])cc7)c7nc(c(-c8ccc(S(=O)(=O)[O-])cc8)c8ccc5[nH]8)C=C7)C=C6)cc4)cc3)N(C)C2=O)c1
REMARK SMILES IDX 24 1 23 2 22 3 21 4 19 5 20 6 18 8 15 9 16 10 92 11 17 12
REMARK SMILES IDX 91 13 14 14 10 15 11 16 12 17 95 18 13 19 93 20 96 21 94 22
REMARK SMILES IDX 9 24 3 25 4 26 97 27 5 28 6 29 2 30 1 31 7 32 8 33 25 34
REMARK SMILES IDX 26 35 27 36 28 37 29 38 30 40 31 41 32 42 90 43 33 44 89 45
REMARK SMILES IDX 34 46 35 47 36 48 83 49 37 50 88 51 82 52 84 53 38 54 87 55
REMARK SMILES IDX 81 56 80 57 39 59 69 60 50 61 68 62 51 63 54 64 67 65 85 66
REMARK SMILES IDX 52 67 53 68 66 70 86 71 55 72 40 73 41 74 49 75 42 76 48 77
REMARK SMILES IDX 43 78 44 79 45 80 46 81 47 82 70 83 71 84 79 85 72 86 78 87
REMARK SMILES IDX 73 88 74 89 75 90 76 91 77 92 56 93 57 94 65 95 58 96 64 97
REMARK SMILES IDX 59 98 60 99 61 100 62 101 63 102
REMARK H PARENT 21 7 14 23 28 39 84 58 54 69
REMARK Flexibility Score: inf
ROOT
ATOM      1  C   UNL     1      -3.632  10.956   3.599  1.00  0.00     0.002 C 
ENDROOT
BRANCH   1   2
ATOM      2  C   UNL     1      -2.172  10.482   3.671  1.00  0.00     0.021 C 
BRANCH   2   3
ATOM      3  C   UNL     1      -1.828   9.382   2.662  1.00  0.00     0.116 C 
BRANCH   3   4
ATOM      4  N   UNL     1      -1.693   9.943   1.329  1.00  0.00    -0.352 N 
ATOM      5  C   UNL     1      -0.613  10.240   0.537  1.00  0.00     0.251 C 
ATOM      6  O   UNL     1      -0.848  10.701  -0.582  1.00  0.00    -0.269 OA
ATOM      7  H   UNL     1      -2.556  10.155   0.906  1.00  0.00     0.163 HD
BRANCH   5   8
ATOM      8  C   UNL     1       0.804   9.987   0.924  1.00  0.00     0.040 A 
ATOM      9  C   UNL     1       3.500   9.316   1.454  1.00  0.00     0.125 A 
ATOM     10  C   UNL     1       3.062   9.470   0.139  1.00  0.00     0.052 A 
ATOM     11  C   UNL     1       2.614   9.619   2.494  1.00  0.00     0.052 A 
ATOM     12  C   UNL     1       1.720   9.775  -0.121  1.00  0.00     0.018 A 
ATOM     13  C   UNL     1       1.285   9.977   2.234  1.00  0.00     0.018 A 
BRANCH   9  14
ATOM     14  N   UNL     1       4.770   8.811   1.788  1.00  0.00    -0.234 N 
ATOM     15  C   UNL     1       4.017   3.977   1.959  1.00  0.00     0.036 C 
ATOM     16  C   UNL     1       4.660   5.100   1.606  1.00  0.00     0.110 C 
ATOM     17  S   UNL     1       4.016   6.410   0.710  1.00  0.00     0.007 SA
ATOM     18  C   UNL     1       5.972   5.506   2.181  1.00  0.00     0.348 C 
ATOM     19  C   UNL     1       5.001   7.551   1.595  1.00  0.00     0.324 C 
ATOM     20  N   UNL     1       6.069   6.887   2.149  1.00  0.00    -0.189 N 
ATOM     21  O   UNL     1       6.764   4.724   2.690  1.00  0.00    -0.240 OA
ATOM     22  C   UNL     1       7.105   7.580   2.879  1.00  0.00     0.301 C 
ATOM     23  H   UNL     1       5.466   9.401   2.159  1.00  0.00     0.313 HD
BRANCH  15  24
ATOM     24  C   UNL     1       2.602   3.711   1.635  1.00  0.00     0.022 A 
ATOM     25  C   UNL     1       1.012   2.362   0.385  1.00  0.00     0.119 A 
ATOM     26  C   UNL     1      -0.011   3.248   0.711  1.00  0.00     0.050 A 
ATOM     27  C   UNL     1       2.318   2.599   0.826  1.00  0.00     0.058 A 
ATOM     28  C   UNL     1       0.250   4.335   1.540  1.00  0.00     0.051 A 
ATOM     29  C   UNL     1       1.538   4.549   2.036  1.00  0.00     0.126 A 
BRANCH  25  30
ATOM     30  O   UNL     1       0.676   1.327  -0.445  1.00  0.00    -0.497 OA
ATOM     31  C   UNL     1       1.142   0.065   0.026  1.00  0.00     0.278 C 
ENDBRANCH  25  30
BRANCH  29  32
ATOM     32  O   UNL     1       1.662   5.676   2.811  1.00  0.00    -0.496 OA
ATOM     33  C   UNL     1       2.276   5.460   4.078  1.00  0.00     0.278 C 
ENDBRANCH  29  32
ENDBRANCH  15  24
ENDBRANCH   9  14
ENDBRANCH   5   8
ENDBRANCH   3   4
ENDBRANCH   2   3
ENDBRANCH   1   2
BRANCH   1  34
ATOM     34  C   UNL     1      -4.684   9.911   3.995  1.00  0.00     0.002 C 
BRANCH  34  35
ATOM     35  C   UNL     1      -4.500   9.286   5.381  1.00  0.00     0.021 C 
BRANCH  35  36
ATOM     36  C   UNL     1      -4.564  10.274   6.543  1.00  0.00     0.116 C 
BRANCH  36  37
ATOM     37  N   UNL     1      -5.904  10.810   6.730  1.00  0.00    -0.352 N 
ATOM     38  C   UNL     1      -6.656  10.869   7.878  1.00  0.00     0.251 C 
ATOM     39  H   UNL     1      -6.329  11.181   5.923  1.00  0.00     0.163 HD
ATOM     40  O   UNL     1      -7.843  11.176   7.822  1.00  0.00    -0.269 OA
BRANCH  38  41
ATOM     41  C   UNL     1      -6.035  10.544   9.181  1.00  0.00     0.039 A 
ATOM     42  C   UNL     1      -6.702   9.685  10.059  1.00  0.00     0.014 A 
ATOM     43  C   UNL     1      -4.802  11.097   9.540  1.00  0.00     0.014 A 
ATOM     44  C   UNL     1      -6.107   9.335  11.275  1.00  0.00     0.010 A 
ATOM     45  C   UNL     1      -4.187  10.706  10.727  1.00  0.00     0.010 A 
ATOM     46  C   UNL     1      -4.833   9.823  11.607  1.00  0.00    -0.014 A 
BRANCH  46  47
ATOM     47  C   UNL     1      -4.157   9.449  12.876  1.00  0.00     0.031 A 
ATOM     48  C   UNL     1      -3.888  10.505  13.914  1.00  0.00     0.074 A 
ATOM     49  C   UNL     1      -3.714   8.190  13.060  1.00  0.00     0.049 A 
ATOM     50  N   UNL     1      -3.176  10.424  15.008  1.00  0.00    -0.248 NA
ATOM     51  C   UNL     1      -4.477  11.834  13.675  1.00  0.00     0.031 C 
ATOM     52  C   UNL     1      -3.896   7.078  12.124  1.00  0.00     0.029 A 
ATOM     53  N   UNL     1      -2.998   7.638  14.094  1.00  0.00    -0.354 N 
ATOM     54  C   UNL     1      -3.211  11.693  15.575  1.00  0.00     0.074 A 
ATOM     55  C   UNL     1      -3.985  12.534  14.688  1.00  0.00     0.031 C 
ATOM     56  C   UNL     1      -3.312   5.978  12.629  1.00  0.00     0.029 A 
ATOM     57  C   UNL     1      -2.679   6.314  13.901  1.00  0.00     0.049 A 
ATOM     58  H   UNL     1      -2.738   8.143  14.899  1.00  0.00     0.167 HD
ATOM     59  C   UNL     1      -2.658  12.117  16.737  1.00  0.00     0.031 A 
ATOM     60  C   UNL     1      -1.944   5.471  14.653  1.00  0.00     0.031 A 
ATOM     61  C   UNL     1      -1.908  11.276  17.629  1.00  0.00     0.049 A 
ATOM     62  C   UNL     1      -1.341   5.967  15.940  1.00  0.00     0.074 A 
ATOM     63  C   UNL     1      -1.328  11.608  18.841  1.00  0.00     0.029 A 
ATOM     64  N   UNL     1      -1.647   9.932  17.415  1.00  0.00    -0.354 N 
ATOM     65  N   UNL     1      -1.399   7.167  16.466  1.00  0.00    -0.248 NA
ATOM     66  C   UNL     1      -0.582   4.994  16.739  1.00  0.00     0.031 C 
ATOM     67  C   UNL     1      -0.693  10.470  19.348  1.00  0.00     0.029 A 
ATOM     68  C   UNL     1      -0.916   9.420  18.472  1.00  0.00     0.049 A 
ATOM     69  H   UNL     1      -1.939   9.418  16.627  1.00  0.00     0.167 HD
ATOM     70  C   UNL     1      -0.716   7.082  17.675  1.00  0.00     0.074 A 
ATOM     71  C   UNL     1      -0.257   5.715  17.804  1.00  0.00     0.031 C 
ATOM     72  C   UNL     1      -0.492   8.050  18.596  1.00  0.00     0.031 A 
BRANCH  59  73
ATOM     73  C   UNL     1      -2.849  13.562  17.113  1.00  0.00    -0.014 A 
ATOM     74  C   UNL     1      -4.098  14.031  17.558  1.00  0.00     0.010 A 
ATOM     75  C   UNL     1      -1.756  14.447  17.076  1.00  0.00     0.010 A 
ATOM     76  C   UNL     1      -4.258  15.368  17.929  1.00  0.00     0.020 A 
ATOM     77  C   UNL     1      -1.907  15.779  17.470  1.00  0.00     0.020 A 
ATOM     78  C   UNL     1      -3.162  16.235  17.881  1.00  0.00     0.054 A 
BRANCH  78  79
ATOM     79  S   UNL     1      -3.389  17.957  18.403  1.00  0.00     0.124 S 
ATOM     80  O   UNL     1      -4.110  18.523  17.265  1.00  0.00    -0.237 OA
ATOM     81  O   UNL     1      -4.166  17.820  19.632  1.00  0.00    -0.237 OA
ATOM     82  O   UNL     1      -2.025  18.447  18.583  1.00  0.00    -0.744 OA
ENDBRANCH  78  79
ENDBRANCH  59  73
BRANCH  60  83
ATOM     83  C   UNL     1      -1.730   4.066  14.212  1.00  0.00    -0.014 A 
ATOM     84  C   UNL     1      -2.355   3.003  14.887  1.00  0.00     0.010 A 
ATOM     85  C   UNL     1      -0.885   3.783  13.123  1.00  0.00     0.010 A 
ATOM     86  C   UNL     1      -2.114   1.681  14.504  1.00  0.00     0.020 A 
ATOM     87  C   UNL     1      -0.662   2.464  12.720  1.00  0.00     0.020 A 
ATOM     88  C   UNL     1      -1.265   1.419  13.425  1.00  0.00     0.054 A 
BRANCH  88  89
ATOM     89  S   UNL     1      -0.982  -0.302  12.924  1.00  0.00     0.124 S 
ATOM     90  O   UNL     1      -0.025  -0.755  13.928  1.00  0.00    -0.237 OA
ATOM     91  O   UNL     1      -2.318  -0.884  13.012  1.00  0.00    -0.237 OA
ATOM     92  O   UNL     1      -0.455  -0.176  11.566  1.00  0.00    -0.744 OA
ENDBRANCH  88  89
ENDBRANCH  60  83
BRANCH  72  93
ATOM     93  C   UNL     1       0.227   7.660  19.858  1.00  0.00    -0.014 A 
ATOM     94  C   UNL     1       1.616   7.450  19.871  1.00  0.00     0.010 A 
ATOM     95  C   UNL     1      -0.494   7.582  21.063  1.00  0.00     0.010 A 
ATOM     96  C   UNL     1       2.271   7.153  21.069  1.00  0.00     0.020 A 
ATOM     97  C   UNL     1       0.160   7.305  22.266  1.00  0.00     0.020 A 
ATOM     98  C   UNL     1       1.539   7.084  22.259  1.00  0.00     0.054 A 
BRANCH  98  99
ATOM     99  S   UNL     1       2.420   6.763  23.813  1.00  0.00     0.124 S 
ATOM    100  O   UNL     1       2.679   5.329  23.724  1.00  0.00    -0.237 OA
ATOM    101  O   UNL     1       3.595   7.623  23.699  1.00  0.00    -0.237 OA
ATOM    102  O   UNL     1       1.462   7.162  24.842  1.00  0.00    -0.744 OA
ENDBRANCH  98  99
ENDBRANCH  72  93
ENDBRANCH  46  47
ENDBRANCH  38  41
ENDBRANCH  36  37
ENDBRANCH  35  36
ENDBRANCH  34  35
ENDBRANCH   1  34
TORSDOF 20
