REMARK SMILES O=C(NCCCCCCNC(=O)[C@H]1[C@H]2CC[C@H](C2)[C@@H]1C(=O)Nc1sc2c(c1C(=O)NC1CCCCC1)CCCC2)c1ccc(-c2c3nc(c(-c4ccc(S(=O)(=O)[O-])cc4)c4ccc([nH]4)c(-c4ccc(S(=O)(=O)[O-])cc4)c4nc(c(-c5ccc(S(=O)(=O)[O-])cc5)c5ccc2[nH]5)C=C4)C=C3)cc1
REMARK SMILES IDX 7 1 6 2 5 3 4 4 3 5 1 6 2 7 41 9 42 10 100 11 43 12 99 13
REMARK SMILES IDX 44 14 45 15 46 16 93 17 47 18 98 19 92 20 94 21 48 22 97 23
REMARK SMILES IDX 91 24 90 25 49 27 79 28 60 29 78 30 61 31 64 32 77 33 95 34
REMARK SMILES IDX 62 35 63 36 76 38 96 39 65 40 50 41 51 42 59 43 52 44 58 45
REMARK SMILES IDX 53 46 54 47 55 48 56 49 57 50 80 51 81 52 89 53 82 54 88 55
REMARK SMILES IDX 83 56 84 57 85 58 86 59 87 60 66 61 67 62 75 63 68 64 74 65
REMARK SMILES IDX 69 66 70 67 71 68 72 69 73 70 8 71 9 72 10 73 11 74 12 76
REMARK SMILES IDX 13 77 14 78 19 79 15 80 18 81 17 82 16 83 20 84 21 85 22 86
REMARK SMILES IDX 23 88 24 89 27 90 25 91 26 92 40 93 37 94 39 95 38 96 28 97
REMARK SMILES IDX 29 98 30 99 31 101 32 102 36 103 33 104 35 105 34 106
REMARK H PARENT 3 8 94 26 64 37 10 75 22 87 30 100
REMARK Flexibility Score: inf
ROOT
ATOM      1  C   UNL     1      13.676   0.484   9.297  1.00  0.00     0.002 C 
ENDROOT
BRANCH   1   2
ATOM      2  C   UNL     1      14.823  -0.463   9.653  1.00  0.00     0.002 C 
BRANCH   2   3
ATOM      3  C   UNL     1      15.709  -0.891   8.477  1.00  0.00     0.021 C 
BRANCH   3   4
ATOM      4  C   UNL     1      16.312   0.265   7.684  1.00  0.00     0.116 C 
BRANCH   4   5
ATOM      5  N   UNL     1      17.115   1.130   8.533  1.00  0.00    -0.352 N 
ATOM      6  O   UNL     1      19.012   1.818   9.539  1.00  0.00    -0.269 OA
ATOM      7  C   UNL     1      18.475   1.273   8.571  1.00  0.00     0.251 C 
ATOM      8  H   UNL     1      16.611   1.689   9.167  1.00  0.00     0.163 HD
BRANCH   7   9
ATOM      9  C   UNL     1      19.292   0.776   7.449  1.00  0.00     0.039 A 
ATOM     10  C   UNL     1      18.906   1.043   6.131  1.00  0.00     0.014 A 
ATOM     11  C   UNL     1      20.467   0.070   7.713  1.00  0.00     0.014 A 
ATOM     12  C   UNL     1      19.637   0.511   5.076  1.00  0.00     0.010 A 
ATOM     13  C   UNL     1      21.243  -0.394   6.651  1.00  0.00     0.010 A 
ATOM     14  C   UNL     1      20.827  -0.188   5.325  1.00  0.00    -0.014 A 
BRANCH  14  15
ATOM     15  C   UNL     1      21.677  -0.619   4.189  1.00  0.00     0.031 A 
ATOM     16  C   UNL     1      21.938  -2.072   3.925  1.00  0.00     0.074 A 
ATOM     17  C   UNL     1      22.238   0.328   3.412  1.00  0.00     0.049 A 
ATOM     18  N   UNL     1      22.699  -2.616   3.010  1.00  0.00    -0.248 NA
ATOM     19  C   UNL     1      21.268  -3.041   4.806  1.00  0.00     0.031 C 
ATOM     20  C   UNL     1      22.061   1.773   3.585  1.00  0.00     0.029 A 
ATOM     21  N   UNL     1      23.077   0.223   2.333  1.00  0.00    -0.354 N 
ATOM     22  C   UNL     1      22.623  -3.988   3.220  1.00  0.00     0.074 A 
ATOM     23  C   UNL     1      21.758  -4.190   4.363  1.00  0.00     0.031 C 
ATOM     24  C   UNL     1      22.755   2.417   2.638  1.00  0.00     0.029 A 
ATOM     25  C   UNL     1      23.483   1.439   1.838  1.00  0.00     0.049 A 
ATOM     26  H   UNL     1      23.360  -0.638   1.949  1.00  0.00     0.167 HD
ATOM     27  C   UNL     1      23.224  -4.983   2.522  1.00  0.00     0.031 A 
ATOM     28  C   UNL     1      24.373   1.744   0.875  1.00  0.00     0.031 A 
ATOM     29  C   UNL     1      24.100  -4.760   1.400  1.00  0.00     0.049 A 
ATOM     30  C   UNL     1      25.059   0.629   0.143  1.00  0.00     0.074 A 
ATOM     31  C   UNL     1      24.727  -5.699   0.599  1.00  0.00     0.029 A 
ATOM     32  N   UNL     1      24.491  -3.513   0.932  1.00  0.00    -0.354 N 
ATOM     33  N   UNL     1      24.931  -0.665   0.315  1.00  0.00    -0.248 NA
ATOM     34  C   UNL     1      26.001   1.010  -0.916  1.00  0.00     0.031 C 
ATOM     35  C   UNL     1      25.550  -5.021  -0.306  1.00  0.00     0.029 A 
ATOM     36  C   UNL     1      25.378  -3.657  -0.122  1.00  0.00     0.049 A 
ATOM     37  H   UNL     1      24.183  -2.651   1.297  1.00  0.00     0.167 HD
ATOM     38  C   UNL     1      25.762  -1.256  -0.627  1.00  0.00     0.074 A 
ATOM     39  C   UNL     1      26.378  -0.177  -1.375  1.00  0.00     0.031 C 
ATOM     40  C   UNL     1      25.988  -2.573  -0.854  1.00  0.00     0.031 A 
BRANCH  27  41
ATOM     41  C   UNL     1      22.995  -6.398   2.991  1.00  0.00    -0.014 A 
ATOM     42  C   UNL     1      21.734  -7.014   2.888  1.00  0.00     0.010 A 
ATOM     43  C   UNL     1      24.067  -7.130   3.535  1.00  0.00     0.010 A 
ATOM     44  C   UNL     1      21.535  -8.307   3.379  1.00  0.00     0.020 A 
ATOM     45  C   UNL     1      23.880  -8.436   3.998  1.00  0.00     0.020 A 
ATOM     46  C   UNL     1      22.608  -9.006   3.941  1.00  0.00     0.054 A 
BRANCH  46  47
ATOM     47  S   UNL     1      22.315 -10.673   4.594  1.00  0.00     0.124 S 
ATOM     48  O   UNL     1      21.545 -10.390   5.803  1.00  0.00    -0.237 OA
ATOM     49  O   UNL     1      21.571 -11.314   3.513  1.00  0.00    -0.237 OA
ATOM     50  O   UNL     1      23.659 -11.199   4.821  1.00  0.00    -0.744 OA
ENDBRANCH  46  47
ENDBRANCH  27  41
BRANCH  28  51
ATOM     51  C   UNL     1      24.669   3.174   0.593  1.00  0.00    -0.014 A 
ATOM     52  C   UNL     1      24.213   3.785  -0.587  1.00  0.00     0.010 A 
ATOM     53  C   UNL     1      25.340   3.954   1.554  1.00  0.00     0.010 A 
ATOM     54  C   UNL     1      24.418   5.152  -0.796  1.00  0.00     0.020 A 
ATOM     55  C   UNL     1      25.520   5.325   1.362  1.00  0.00     0.020 A 
ATOM     56  C   UNL     1      25.060   5.915   0.184  1.00  0.00     0.054 A 
BRANCH  56  57
ATOM     57  S   UNL     1      25.228   7.704  -0.071  1.00  0.00     0.124 S 
ATOM     58  O   UNL     1      26.241   7.767  -1.119  1.00  0.00    -0.237 OA
ATOM     59  O   UNL     1      23.877   8.092  -0.471  1.00  0.00    -0.237 OA
ATOM     60  O   UNL     1      25.648   8.199   1.238  1.00  0.00    -0.744 OA
ENDBRANCH  56  57
ENDBRANCH  28  51
BRANCH  40  61
ATOM     61  C   UNL     1      26.917  -2.936  -1.982  1.00  0.00    -0.014 A 
ATOM     62  C   UNL     1      28.307  -2.753  -1.874  1.00  0.00     0.010 A 
ATOM     63  C   UNL     1      26.393  -3.553  -3.133  1.00  0.00     0.010 A 
ATOM     64  C   UNL     1      29.155  -3.174  -2.902  1.00  0.00     0.020 A 
ATOM     65  C   UNL     1      27.240  -4.001  -4.150  1.00  0.00     0.020 A 
ATOM     66  C   UNL     1      28.616  -3.803  -4.030  1.00  0.00     0.054 A 
BRANCH  66  67
ATOM     67  S   UNL     1      29.745  -4.413  -5.311  1.00  0.00     0.124 S 
ATOM     68  O   UNL     1      30.209  -3.172  -5.926  1.00  0.00    -0.237 OA
ATOM     69  O   UNL     1      30.745  -5.143  -4.534  1.00  0.00    -0.237 OA
ATOM     70  O   UNL     1      28.893  -5.246  -6.157  1.00  0.00    -0.744 OA
ENDBRANCH  66  67
ENDBRANCH  40  61
ENDBRANCH  14  15
ENDBRANCH   7   9
ENDBRANCH   4   5
ENDBRANCH   3   4
ENDBRANCH   2   3
ENDBRANCH   1   2
BRANCH   1  71
ATOM     71  C   UNL     1      12.809   0.008   8.138  1.00  0.00     0.021 C 
BRANCH  71  72
ATOM     72  C   UNL     1      12.066  -1.313   8.365  1.00  0.00     0.116 C 
BRANCH  72  73
ATOM     73  N   UNL     1      10.749  -1.086   8.907  1.00  0.00    -0.356 N 
ATOM     74  C   UNL     1       9.513  -1.121   8.367  1.00  0.00     0.224 C 
ATOM     75  H   UNL     1      10.753  -0.859   9.865  1.00  0.00     0.163 HD
ATOM     76  O   UNL     1       8.589  -0.832   9.141  1.00  0.00    -0.275 OA
BRANCH  74  77
ATOM     77  C   UNL     1       9.168  -1.432   6.911  1.00  0.00     0.094 C 
ATOM     78  C   UNL     1       9.629  -0.416   5.825  1.00  0.00     0.002 C 
ATOM     79  C   UNL     1       9.472  -2.815   6.292  1.00  0.00     0.094 C 
ATOM     80  C   UNL     1      11.076  -0.450   5.331  1.00  0.00     0.005 C 
ATOM     81  C   UNL     1       9.046  -1.126   4.618  1.00  0.00     0.009 C 
ATOM     82  C   UNL     1       9.842  -2.427   4.849  1.00  0.00     0.002 C 
ATOM     83  C   UNL     1      11.274  -1.873   4.807  1.00  0.00     0.005 C 
BRANCH  79  84
ATOM     84  C   UNL     1       8.352  -3.878   6.472  1.00  0.00     0.229 C 
ATOM     85  O   UNL     1       8.522  -4.707   7.384  1.00  0.00    -0.274 OA
ATOM     86  N   UNL     1       7.140  -3.952   5.843  1.00  0.00    -0.317 N 
ATOM     87  H   UNL     1       6.548  -4.657   6.191  1.00  0.00     0.170 HD
BRANCH  86  88
ATOM     88  C   UNL     1       6.598  -3.219   4.810  1.00  0.00     0.108 A 
ATOM     89  S   UNL     1       7.265  -3.416   3.251  1.00  0.00    -0.122 S 
ATOM     90  C   UNL     1       5.366  -2.546   4.748  1.00  0.00     0.078 A 
ATOM     91  C   UNL     1       6.535  -1.962   2.776  1.00  0.00     0.011 A 
ATOM     92  C   UNL     1       5.393  -1.708   3.528  1.00  0.00    -0.019 A 
ATOM     93  C   UNL     1       7.098  -1.087   1.692  1.00  0.00     0.047 C 
ATOM     94  C   UNL     1       4.498  -0.590   3.065  1.00  0.00     0.037 C 
ATOM     95  C   UNL     1       6.466   0.309   1.794  1.00  0.00     0.006 C 
ATOM     96  C   UNL     1       4.948   0.145   1.797  1.00  0.00     0.005 C 
BRANCH  90  97
ATOM     97  C   UNL     1       4.431  -2.753   5.887  1.00  0.00     0.254 C 
ATOM     98  O   UNL     1       4.462  -3.821   6.511  1.00  0.00    -0.269 OA
ATOM     99  N   UNL     1       3.523  -1.844   6.376  1.00  0.00    -0.349 N 
ATOM    100  H   UNL     1       2.982  -2.175   7.128  1.00  0.00     0.164 HD
BRANCH  99 101
ATOM    101  C   UNL     1       3.227  -0.495   5.980  1.00  0.00     0.082 C 
ATOM    102  C   UNL     1       1.797  -0.039   6.262  1.00  0.00     0.025 C 
ATOM    103  C   UNL     1       4.231   0.519   6.529  1.00  0.00     0.025 C 
ATOM    104  C   UNL     1       1.568   1.274   5.505  1.00  0.00     0.002 C 
ATOM    105  C   UNL     1       4.009   1.917   5.946  1.00  0.00     0.002 C 
ATOM    106  C   UNL     1       2.546   2.361   5.952  1.00  0.00     0.000 C 
ENDBRANCH  99 101
ENDBRANCH  90  97
ENDBRANCH  86  88
ENDBRANCH  79  84
ENDBRANCH  74  77
ENDBRANCH  72  73
ENDBRANCH  71  72
ENDBRANCH   1  71
TORSDOF 20
