REMARK SMILES Cc1ccc(-c2cc(C(=O)NCCCCCCNC(=O)c3ccc(-c4c5nc(c(-c6ccc(S(=O)(=O)[O-])cc6)c6ccc([nH]6)c(-c6ccc(S(=O)(=O)[O-])cc6)c6nc(c(-c7ccc(S(=O)(=O)[O-])cc7)c7ccc4[nH]7)C=C6)C=C5)cc3)c3c(-c4cccc([N+](=O)[O-])c4)[nH]nc3n2)cc1
REMARK SMILES IDX 15 1 14 2 13 3 12 4 11 5 9 6 10 7 8 9 6 10 7 11 95 12 94 13
REMARK SMILES IDX 81 14 93 15 82 16 92 17 5 19 1 20 2 21 3 22 97 23 4 24 96 25
REMARK SMILES IDX 83 26 84 27 91 28 85 29 87 30 86 31 88 32 89 33 90 34 16 35
REMARK SMILES IDX 17 36 18 37 19 38 20 40 21 41 22 42 80 43 23 44 79 45 24 46
REMARK SMILES IDX 25 47 26 48 73 49 27 50 78 51 72 52 74 53 28 54 77 55 71 56
REMARK SMILES IDX 70 57 29 59 59 60 40 61 58 62 41 63 44 64 57 65 75 66 42 67
REMARK SMILES IDX 43 68 56 70 76 71 45 72 30 73 31 74 39 75 32 76 38 77 33 78
REMARK SMILES IDX 34 79 35 80 36 81 37 82 60 83 61 84 69 85 62 86 68 87 63 88
REMARK SMILES IDX 64 89 65 90 66 91 67 92 46 93 47 94 55 95 48 96 54 97 49 98
REMARK SMILES IDX 50 99 51 100 52 101 53 102
REMARK H PARENT 11 8 92 18 18 39 74 58 44 69
REMARK Flexibility Score: inf
ROOT
ATOM      1  C   UNL     1      -3.541   3.755  -6.258  1.00  0.00     0.002 C 
ENDROOT
BRANCH   1   2
ATOM      2  C   UNL     1      -3.635   2.248  -5.969  1.00  0.00     0.002 C 
BRANCH   2   3
ATOM      3  C   UNL     1      -3.144   1.776  -4.591  1.00  0.00     0.021 C 
BRANCH   3   4
ATOM      4  C   UNL     1      -3.749   2.529  -3.407  1.00  0.00     0.116 C 
BRANCH   4   5
ATOM      5  N   UNL     1      -5.145   2.193  -3.213  1.00  0.00    -0.352 N 
ATOM      6  C   UNL     1      -5.880   1.496  -2.293  1.00  0.00     0.252 C 
ATOM      7  O   UNL     1      -7.090   1.678  -2.403  1.00  0.00    -0.269 OA
ATOM      8  H   UNL     1      -5.712   2.563  -3.928  1.00  0.00     0.163 HD
BRANCH   6   9
ATOM      9  C   UNL     1      -5.327   0.642  -1.209  1.00  0.00     0.055 A 
ATOM     10  C   UNL     1      -3.404  -0.256   0.094  1.00  0.00     0.074 A 
ATOM     11  C   UNL     1      -3.964   0.351  -1.062  1.00  0.00     0.043 A 
ATOM     12  N   UNL     1      -4.101  -0.755   1.145  1.00  0.00    -0.226 NA
ATOM     13  C   UNL     1      -5.440  -0.626   0.989  1.00  0.00     0.182 A 
ATOM     14  C   UNL     1      -6.042   0.043  -0.144  1.00  0.00     0.059 A 
ATOM     15  N   UNL     1      -6.353  -1.070   1.853  1.00  0.00    -0.154 NA
ATOM     16  C   UNL     1      -7.407  -0.091   0.073  1.00  0.00     0.076 A 
ATOM     17  N   UNL     1      -7.515  -0.748   1.276  1.00  0.00    -0.275 N 
ATOM     18  H   UNL     1      -8.384  -0.966   1.682  1.00  0.00     0.190 HD
BRANCH  10  19
ATOM     19  C   UNL     1      -1.939  -0.264   0.226  1.00  0.00     0.000 A 
ATOM     20  C   UNL     1       2.383  -0.181   0.102  1.00  0.00     0.044 C 
ATOM     21  C   UNL     1       0.886  -0.202   0.200  1.00  0.00    -0.051 A 
ATOM     22  C   UNL     1       0.198  -1.422   0.232  1.00  0.00     0.004 A 
ATOM     23  C   UNL     1       0.159   0.989   0.229  1.00  0.00     0.004 A 
ATOM     24  C   UNL     1      -1.202  -1.453   0.253  1.00  0.00     0.010 A 
ATOM     25  C   UNL     1      -1.236   0.956   0.246  1.00  0.00     0.010 A 
ENDBRANCH  10  19
BRANCH  16  26
ATOM     26  C   UNL     1      -8.603   0.233  -0.690  1.00  0.00     0.007 A 
ATOM     27  C   UNL     1      -9.456   1.260  -0.260  1.00  0.00     0.011 A 
ATOM     28  C   UNL     1      -8.854  -0.416  -1.907  1.00  0.00     0.096 A 
ATOM     29  C   UNL     1     -10.518   1.681  -1.064  1.00  0.00     0.008 A 
ATOM     30  C   UNL     1      -9.895   0.040  -2.725  1.00  0.00     0.270 A 
ATOM     31  C   UNL     1     -10.732   1.084  -2.307  1.00  0.00     0.085 A 
BRANCH  30  32
ATOM     32  N   UNL     1     -10.078  -0.548  -4.056  1.00  0.00     0.062 N 
ATOM     33  O   UNL     1     -10.956  -0.061  -4.785  1.00  0.00    -0.258 OA
ATOM     34  O   UNL     1      -9.368  -1.515  -4.365  1.00  0.00    -0.258 OA
ENDBRANCH  30  32
ENDBRANCH  16  26
ENDBRANCH   6   9
ENDBRANCH   4   5
ENDBRANCH   3   4
ENDBRANCH   2   3
ENDBRANCH   1   2
BRANCH   1  35
ATOM     35  C   UNL     1      -2.214   4.438  -5.916  1.00  0.00     0.021 C 
BRANCH  35  36
ATOM     36  C   UNL     1      -1.027   3.899  -6.703  1.00  0.00     0.116 C 
BRANCH  36  37
ATOM     37  N   UNL     1      -0.345   4.929  -7.470  1.00  0.00    -0.352 N 
ATOM     38  C   UNL     1       0.957   4.841  -7.940  1.00  0.00     0.251 C 
ATOM     39  H   UNL     1      -0.845   5.753  -7.671  1.00  0.00     0.163 HD
ATOM     40  O   UNL     1       1.696   5.797  -8.071  1.00  0.00    -0.269 OA
BRANCH  38  41
ATOM     41  C   UNL     1       1.350   3.502  -8.423  1.00  0.00     0.039 A 
ATOM     42  C   UNL     1       1.252   3.252  -9.797  1.00  0.00     0.014 A 
ATOM     43  C   UNL     1       1.511   2.468  -7.506  1.00  0.00     0.014 A 
ATOM     44  C   UNL     1       1.173   1.938 -10.249  1.00  0.00     0.010 A 
ATOM     45  C   UNL     1       1.344   1.171  -7.949  1.00  0.00     0.010 A 
ATOM     46  C   UNL     1       1.138   0.905  -9.313  1.00  0.00    -0.014 A 
BRANCH  46  47
ATOM     47  C   UNL     1       0.833  -0.486  -9.639  1.00  0.00     0.031 A 
ATOM     48  C   UNL     1       1.903  -1.511  -9.587  1.00  0.00     0.074 A 
ATOM     49  C   UNL     1      -0.445  -0.872  -9.852  1.00  0.00     0.049 A 
ATOM     50  N   UNL     1       1.826  -2.686 -10.121  1.00  0.00    -0.248 NA
ATOM     51  C   UNL     1       3.197  -1.252  -8.963  1.00  0.00     0.031 C 
ATOM     52  C   UNL     1      -0.967  -2.234  -9.770  1.00  0.00     0.029 A 
ATOM     53  N   UNL     1      -1.496  -0.142 -10.410  1.00  0.00    -0.354 N 
ATOM     54  C   UNL     1       2.890  -3.424  -9.650  1.00  0.00     0.074 A 
ATOM     55  C   UNL     1       3.759  -2.462  -9.014  1.00  0.00     0.031 C 
ATOM     56  C   UNL     1      -2.080  -2.312 -10.512  1.00  0.00     0.029 A 
ATOM     57  C   UNL     1      -2.213  -1.046 -11.213  1.00  0.00     0.049 A 
ATOM     58  H   UNL     1      -1.694   0.812 -10.271  1.00  0.00     0.167 HD
ATOM     59  C   UNL     1       2.853  -4.786  -9.712  1.00  0.00     0.031 A 
ATOM     60  C   UNL     1      -2.405  -0.910 -12.558  1.00  0.00     0.031 A 
ATOM     61  C   UNL     1       1.689  -5.271 -10.450  1.00  0.00     0.049 A 
ATOM     62  C   UNL     1      -1.951  -2.115 -13.353  1.00  0.00     0.074 A 
ATOM     63  C   UNL     1       0.471  -5.804 -10.057  1.00  0.00     0.029 A 
ATOM     64  N   UNL     1       1.578  -4.992 -11.806  1.00  0.00    -0.354 N 
ATOM     65  N   UNL     1      -1.163  -3.041 -12.883  1.00  0.00    -0.248 NA
ATOM     66  C   UNL     1      -2.302  -2.344 -14.752  1.00  0.00     0.031 C 
ATOM     67  C   UNL     1      -0.398  -5.783 -11.178  1.00  0.00     0.029 A 
ATOM     68  C   UNL     1       0.298  -5.258 -12.253  1.00  0.00     0.049 A 
ATOM     69  H   UNL     1       2.309  -4.651 -12.370  1.00  0.00     0.167 HD
ATOM     70  C   UNL     1      -0.890  -3.959 -13.864  1.00  0.00     0.074 A 
ATOM     71  C   UNL     1      -1.641  -3.487 -15.013  1.00  0.00     0.031 C 
ATOM     72  C   UNL     1      -0.058  -5.019 -13.645  1.00  0.00     0.031 A 
BRANCH  59  73
ATOM     73  C   UNL     1       3.717  -5.676  -8.838  1.00  0.00    -0.014 A 
ATOM     74  C   UNL     1       3.240  -6.947  -8.450  1.00  0.00     0.010 A 
ATOM     75  C   UNL     1       4.962  -5.299  -8.304  1.00  0.00     0.010 A 
ATOM     76  C   UNL     1       3.903  -7.734  -7.495  1.00  0.00     0.020 A 
ATOM     77  C   UNL     1       5.617  -6.054  -7.319  1.00  0.00     0.020 A 
ATOM     78  C   UNL     1       5.073  -7.264  -6.906  1.00  0.00     0.054 A 
BRANCH  78  79
ATOM     79  S   UNL     1       5.860  -8.234  -5.595  1.00  0.00     0.124 S 
ATOM     80  O   UNL     1       4.781  -8.383  -4.621  1.00  0.00    -0.237 OA
ATOM     81  O   UNL     1       6.250  -9.453  -6.297  1.00  0.00    -0.237 OA
ATOM     82  O   UNL     1       6.969  -7.388  -5.156  1.00  0.00    -0.744 OA
ENDBRANCH  78  79
ENDBRANCH  59  73
BRANCH  60  83
ATOM     83  C   UNL     1      -2.358   0.494 -13.047  1.00  0.00    -0.014 A 
ATOM     84  C   UNL     1      -3.416   1.347 -12.668  1.00  0.00     0.010 A 
ATOM     85  C   UNL     1      -1.133   1.058 -13.445  1.00  0.00     0.010 A 
ATOM     86  C   UNL     1      -3.194   2.716 -12.502  1.00  0.00     0.020 A 
ATOM     87  C   UNL     1      -0.913   2.433 -13.288  1.00  0.00     0.020 A 
ATOM     88  C   UNL     1      -1.922   3.234 -12.743  1.00  0.00     0.054 A 
BRANCH  88  89
ATOM     89  S   UNL     1      -1.555   4.911 -12.140  1.00  0.00     0.124 S 
ATOM     90  O   UNL     1      -2.579   5.714 -12.798  1.00  0.00    -0.237 OA
ATOM     91  O   UNL     1      -1.708   4.754 -10.693  1.00  0.00    -0.237 OA
ATOM     92  O   UNL     1      -0.186   5.139 -12.592  1.00  0.00    -0.744 OA
ENDBRANCH  88  89
ENDBRANCH  60  83
BRANCH  72  93
ATOM     93  C   UNL     1       0.457  -5.981 -14.690  1.00  0.00    -0.014 A 
ATOM     94  C   UNL     1       0.545  -5.690 -16.060  1.00  0.00     0.010 A 
ATOM     95  C   UNL     1       1.011  -7.215 -14.264  1.00  0.00     0.010 A 
ATOM     96  C   UNL     1       1.102  -6.604 -16.967  1.00  0.00     0.020 A 
ATOM     97  C   UNL     1       1.606  -8.114 -15.152  1.00  0.00     0.020 A 
ATOM     98  C   UNL     1       1.627  -7.813 -16.508  1.00  0.00     0.054 A 
BRANCH  98  99
ATOM     99  S   UNL     1       2.414  -8.956 -17.672  1.00  0.00     0.124 S 
ATOM    100  O   UNL     1       1.291  -9.798 -18.073  1.00  0.00    -0.237 OA
ATOM    101  O   UNL     1       2.931  -8.066 -18.711  1.00  0.00    -0.237 OA
ATOM    102  O   UNL     1       3.437  -9.613 -16.863  1.00  0.00    -0.744 OA
ENDBRANCH  98  99
ENDBRANCH  72  93
ENDBRANCH  46  47
ENDBRANCH  38  41
ENDBRANCH  36  37
ENDBRANCH  35  36
ENDBRANCH   1  35
TORSDOF 19
