REMARK SMILES C[C@H]1OCC[C@@H]1C(=O)Nc1ccc(Cl)c(C(=O)NCCCCCCNC(=O)c2ccc(-c3c4nc(c(-c5ccc(S(=O)(=O)[O-])cc5)c5ccc([nH]5)c(-c5ccc(S(=O)(=O)[O-])cc5)c5nc(c(-c6ccc(S(=O)(=O)[O-])cc6)c6ccc3[nH]6)C=C5)C=C4)cc2)c1
REMARK SMILES IDX 22 1 21 2 20 3 19 4 18 5 16 6 17 7 15 9 10 10 11 11 88 12
REMARK SMILES IDX 12 13 13 14 14 15 9 16 7 17 8 18 6 20 1 21 2 22 3 23 4 24
REMARK SMILES IDX 5 25 23 26 24 27 25 28 26 29 27 31 28 32 29 33 87 34 30 35
REMARK SMILES IDX 86 36 31 37 32 38 33 39 80 40 34 41 85 42 79 43 81 44 35 45
REMARK SMILES IDX 84 46 78 47 77 48 36 50 66 51 47 52 65 53 48 54 51 55 64 56
REMARK SMILES IDX 82 57 49 58 50 59 63 61 83 62 52 63 37 64 38 65 46 66 39 67
REMARK SMILES IDX 45 68 40 69 41 70 42 71 43 72 44 73 67 74 68 75 76 76 69 77
REMARK SMILES IDX 75 78 70 79 71 80 72 81 73 82 74 83 53 84 54 85 62 86 55 87
REMARK SMILES IDX 61 88 56 89 57 90 58 91 59 92 60 93
REMARK H PARENT 18 8 9 19 25 30 81 49 51 60
REMARK Flexibility Score: inf
ROOT
ATOM      1  C   UNL     1      -1.695   6.081   7.253  1.00  0.00     0.002 C 
ENDROOT
BRANCH   1   2
ATOM      2  C   UNL     1      -2.267   4.823   7.917  1.00  0.00     0.002 C 
BRANCH   2   3
ATOM      3  C   UNL     1      -2.897   3.771   7.006  1.00  0.00     0.021 C 
BRANCH   3   4
ATOM      4  C   UNL     1      -2.096   3.370   5.778  1.00  0.00     0.116 C 
BRANCH   4   5
ATOM      5  N   UNL     1      -0.833   2.704   6.026  1.00  0.00    -0.352 N 
ATOM      6  C   UNL     1      -0.168   1.774   5.253  1.00  0.00     0.252 C 
ATOM      7  O   UNL     1       0.944   1.389   5.615  1.00  0.00    -0.269 OA
ATOM      8  H   UNL     1      -0.384   2.951   6.867  1.00  0.00     0.163 HD
BRANCH   6   9
ATOM      9  C   UNL     1      -0.808   1.121   4.079  1.00  0.00     0.060 A 
ATOM     10  C   UNL     1      -1.161  -0.934   2.850  1.00  0.00     0.042 A 
ATOM     11  C   UNL     1      -2.224  -0.346   2.183  1.00  0.00     0.028 A 
ATOM     12  C   UNL     1      -0.559  -0.256   3.909  1.00  0.00     0.041 A 
ATOM     13  C   UNL     1      -2.421   1.022   2.289  1.00  0.00     0.023 A 
ATOM     14  C   UNL     1      -1.597   1.770   3.126  1.00  0.00     0.053 A 
ATOM     15  Cl  UNL     1      -1.463   3.450   2.746  1.00  0.00    -0.083 Cl
BRANCH  10  16
ATOM     16  N   UNL     1      -0.661  -2.170   2.437  1.00  0.00    -0.326 N 
ATOM     17  C   UNL     1      -0.247  -2.546   1.184  1.00  0.00     0.230 C 
ATOM     18  O   UNL     1       0.023  -3.744   1.020  1.00  0.00    -0.274 OA
ATOM     19  H   UNL     1      -0.597  -2.862   3.135  1.00  0.00     0.169 HD
BRANCH  17  20
ATOM     20  C   UNL     1       0.015  -1.568   0.019  1.00  0.00     0.110 C 
ATOM     21  C   UNL     1       2.056  -0.128  -0.466  1.00  0.00     0.039 C 
ATOM     22  C   UNL     1       0.817  -0.326   0.403  1.00  0.00     0.127 C 
ATOM     23  O   UNL     1      -0.047   0.801   0.199  1.00  0.00    -0.378 OA
ATOM     24  C   UNL     1      -1.012   0.454  -0.795  1.00  0.00     0.161 C 
ATOM     25  C   UNL     1      -1.182  -1.053  -0.755  1.00  0.00     0.044 C 
ENDBRANCH  17  20
ENDBRANCH  10  16
ENDBRANCH   6   9
ENDBRANCH   4   5
ENDBRANCH   3   4
ENDBRANCH   2   3
ENDBRANCH   1   2
BRANCH   1  26
ATOM     26  C   UNL     1      -2.604   6.847   6.288  1.00  0.00     0.021 C 
BRANCH  26  27
ATOM     27  C   UNL     1      -3.987   7.222   6.808  1.00  0.00     0.116 C 
BRANCH  27  28
ATOM     28  N   UNL     1      -3.940   8.035   8.009  1.00  0.00    -0.352 N 
ATOM     29  C   UNL     1      -4.590   9.204   8.303  1.00  0.00     0.251 C 
ATOM     30  H   UNL     1      -3.352   7.694   8.721  1.00  0.00     0.163 HD
ATOM     31  O   UNL     1      -4.302   9.807   9.342  1.00  0.00    -0.269 OA
BRANCH  29  32
ATOM     32  C   UNL     1      -5.613   9.767   7.391  1.00  0.00     0.039 A 
ATOM     33  C   UNL     1      -5.638  11.150   7.188  1.00  0.00     0.014 A 
ATOM     34  C   UNL     1      -6.572   8.959   6.772  1.00  0.00     0.014 A 
ATOM     35  C   UNL     1      -6.596  11.716   6.342  1.00  0.00     0.010 A 
ATOM     36  C   UNL     1      -7.481   9.517   5.872  1.00  0.00     0.010 A 
ATOM     37  C   UNL     1      -7.515  10.903   5.660  1.00  0.00    -0.014 A 
BRANCH  37  38
ATOM     38  C   UNL     1      -8.530  11.496   4.749  1.00  0.00     0.031 A 
ATOM     39  C   UNL     1      -9.998  11.390   5.076  1.00  0.00     0.074 A 
ATOM     40  C   UNL     1      -8.137  12.101   3.610  1.00  0.00     0.049 A 
ATOM     41  N   UNL     1     -11.028  11.828   4.398  1.00  0.00    -0.248 NA
ATOM     42  C   UNL     1     -10.357  10.679   6.315  1.00  0.00     0.031 C 
ATOM     43  C   UNL     1      -6.751  12.233   3.154  1.00  0.00     0.029 A 
ATOM     44  N   UNL     1      -8.869  12.718   2.625  1.00  0.00    -0.354 N 
ATOM     45  C   UNL     1     -12.152  11.431   5.115  1.00  0.00     0.074 A 
ATOM     46  C   UNL     1     -11.680  10.676   6.254  1.00  0.00     0.031 C 
ATOM     47  C   UNL     1      -6.731  12.912   1.996  1.00  0.00     0.029 A 
ATOM     48  C   UNL     1      -8.101  13.236   1.608  1.00  0.00     0.049 A 
ATOM     49  H   UNL     1      -9.851  12.784   2.645  1.00  0.00     0.167 HD
ATOM     50  C   UNL     1     -13.458  11.688   4.860  1.00  0.00     0.031 A 
ATOM     51  C   UNL     1      -8.457  13.898   0.490  1.00  0.00     0.031 A 
ATOM     52  C   UNL     1     -13.926  12.457   3.737  1.00  0.00     0.049 A 
ATOM     53  C   UNL     1      -9.912  14.190   0.242  1.00  0.00     0.074 A 
ATOM     54  C   UNL     1     -15.225  12.819   3.423  1.00  0.00     0.029 A 
ATOM     55  N   UNL     1     -13.113  12.988   2.747  1.00  0.00    -0.354 N 
ATOM     56  N   UNL     1     -10.955  13.858   0.965  1.00  0.00    -0.248 NA
ATOM     57  C   UNL     1     -10.236  14.966  -0.963  1.00  0.00     0.031 C 
ATOM     58  C   UNL     1     -15.202  13.530   2.218  1.00  0.00     0.029 A 
ATOM     59  C   UNL     1     -13.883  13.662   1.815  1.00  0.00     0.049 A 
ATOM     60  H   UNL     1     -12.133  12.899   2.712  1.00  0.00     0.167 HD
ATOM     61  C   UNL     1     -12.054  14.417   0.322  1.00  0.00     0.074 A 
ATOM     62  C   UNL     1     -11.547  15.118  -0.839  1.00  0.00     0.031 C 
ATOM     63  C   UNL     1     -13.365  14.359   0.665  1.00  0.00     0.031 A 
BRANCH  50  64
ATOM     64  C   UNL     1     -14.481  11.130   5.817  1.00  0.00    -0.014 A 
ATOM     65  C   UNL     1     -14.612  11.639   7.122  1.00  0.00     0.010 A 
ATOM     66  C   UNL     1     -15.358  10.117   5.388  1.00  0.00     0.010 A 
ATOM     67  C   UNL     1     -15.575  11.121   7.991  1.00  0.00     0.020 A 
ATOM     68  C   UNL     1     -16.342   9.616   6.246  1.00  0.00     0.020 A 
ATOM     69  C   UNL     1     -16.434  10.111   7.548  1.00  0.00     0.054 A 
BRANCH  69  70
ATOM     70  S   UNL     1     -17.697   9.481   8.687  1.00  0.00     0.124 S 
ATOM     71  O   UNL     1     -16.894   8.692   9.619  1.00  0.00    -0.237 OA
ATOM     72  O   UNL     1     -18.274  10.705   9.236  1.00  0.00    -0.237 OA
ATOM     73  O   UNL     1     -18.588   8.708   7.825  1.00  0.00    -0.744 OA
ENDBRANCH  69  70
ENDBRANCH  50  64
BRANCH  51  74
ATOM     74  C   UNL     1      -7.414  14.352  -0.472  1.00  0.00    -0.014 A 
ATOM     75  C   UNL     1      -7.121  15.720  -0.619  1.00  0.00     0.010 A 
ATOM     76  C   UNL     1      -6.711  13.416  -1.252  1.00  0.00     0.010 A 
ATOM     77  C   UNL     1      -6.166  16.145  -1.548  1.00  0.00     0.020 A 
ATOM     78  C   UNL     1      -5.734  13.835  -2.160  1.00  0.00     0.020 A 
ATOM     79  C   UNL     1      -5.479  15.199  -2.313  1.00  0.00     0.054 A 
BRANCH  79  80
ATOM     80  S   UNL     1      -4.220  15.769  -3.488  1.00  0.00     0.124 S 
ATOM     81  O   UNL     1      -5.036  16.321  -4.564  1.00  0.00    -0.237 OA
ATOM     82  O   UNL     1      -3.469  16.743  -2.699  1.00  0.00    -0.237 OA
ATOM     83  O   UNL     1      -3.486  14.550  -3.819  1.00  0.00    -0.744 OA
ENDBRANCH  79  80
ENDBRANCH  51  74
BRANCH  63  84
ATOM     84  C   UNL     1     -14.339  15.120  -0.197  1.00  0.00    -0.014 A 
ATOM     85  C   UNL     1     -14.654  14.697  -1.500  1.00  0.00     0.010 A 
ATOM     86  C   UNL     1     -14.969  16.265   0.324  1.00  0.00     0.010 A 
ATOM     87  C   UNL     1     -15.544  15.434  -2.285  1.00  0.00     0.020 A 
ATOM     88  C   UNL     1     -15.883  16.988  -0.447  1.00  0.00     0.020 A 
ATOM     89  C   UNL     1     -16.148  16.579  -1.755  1.00  0.00     0.054 A 
BRANCH  89  90
ATOM     90  S   UNL     1     -17.310  17.514  -2.788  1.00  0.00     0.124 S 
ATOM     91  O   UNL     1     -16.410  18.204  -3.708  1.00  0.00    -0.237 OA
ATOM     92  O   UNL     1     -18.131  16.462  -3.382  1.00  0.00    -0.237 OA
ATOM     93  O   UNL     1     -18.006  18.375  -1.834  1.00  0.00    -0.744 OA
ENDBRANCH  89  90
ENDBRANCH  63  84
ENDBRANCH  37  38
ENDBRANCH  29  32
ENDBRANCH  27  28
ENDBRANCH  26  27
ENDBRANCH   1  26
TORSDOF 18
