REMARK SMILES Cc1coc2cc3c(cc12)[C@@H](C)[C@H](CCC(=O)N[C@@H](Cc1c[nH]c2ccccc12)C(=O)NCCCCCCNC(=O)c1ccc(-c2c4nc(c(-c5ccc(S(=O)(=O)[O-])cc5)c5ccc([nH]5)c(-c5ccc(S(=O)(=O)[O-])cc5)c5nc(c(-c6ccc(S(=O)(=O)[O-])cc6)c6ccc2[nH]6)C=C5)C=C4)cc1)C(=O)O3
REMARK SMILES IDX 35 1 34 2 33 3 32 4 30 5 31 6 19 8 18 9 16 10 17 11 15 13
REMARK SMILES IDX 14 14 13 15 1 16 2 17 3 18 10 19 4 20 5 21 9 22 6 23 8 24
REMARK SMILES IDX 7 25 11 26 104 27 12 28 102 29 103 30 20 31 21 32 22 33
REMARK SMILES IDX 29 34 23 35 24 36 28 37 25 39 27 40 26 41 36 42 37 43 38 44
REMARK SMILES IDX 39 45 40 46 41 48 42 49 43 50 101 51 44 52 100 53 45 54
REMARK SMILES IDX 46 55 47 56 94 57 48 58 99 59 93 60 95 61 49 62 98 63 92 64
REMARK SMILES IDX 91 65 50 67 80 68 61 69 79 70 62 71 65 72 78 73 96 74 63 75
REMARK SMILES IDX 64 76 77 78 97 79 66 80 51 81 52 82 60 83 53 84 59 85 54 86
REMARK SMILES IDX 55 87 56 88 57 89 58 90 81 91 82 92 90 93 83 94 89 95 84 96
REMARK SMILES IDX 85 97 86 98 87 99 88 100 67 101 68 102 76 103 69 104 75 105
REMARK SMILES IDX 70 106 71 107 72 108 73 109 74 110
REMARK H PARENT 32 7 18 12 23 38 39 47 95 66 65 77
REMARK Flexibility Score: inf
ROOT
ATOM      1  C   UNL     1      -6.138  -3.859  -6.970  1.00  0.00     0.002 C 
ENDROOT
BRANCH   1   2
ATOM      2  C   UNL     1      -4.627  -3.712  -6.882  1.00  0.00     0.021 C 
BRANCH   2   3
ATOM      3  C   UNL     1      -3.973  -4.644  -5.891  1.00  0.00     0.116 C 
BRANCH   3   4
ATOM      4  N   UNL     1      -3.661  -5.957  -6.371  1.00  0.00    -0.354 N 
ATOM      5  C   UNL     1      -2.538  -6.674  -6.050  1.00  0.00     0.242 C 
ATOM      6  O   UNL     1      -2.365  -7.757  -6.615  1.00  0.00    -0.273 OA
ATOM      7  H   UNL     1      -4.307  -6.380  -6.982  1.00  0.00     0.163 HD
BRANCH   5   8
ATOM      8  C   UNL     1      -1.478  -6.103  -5.049  1.00  0.00     0.175 C 
BRANCH   8   9
ATOM      9  N   UNL     1      -0.496  -5.195  -5.714  1.00  0.00    -0.344 N 
ATOM     10  C   UNL     1       0.868  -5.124  -5.869  1.00  0.00     0.220 C 
ATOM     11  O   UNL     1       1.273  -4.164  -6.542  1.00  0.00    -0.275 OA
ATOM     12  H   UNL     1      -0.948  -4.444  -6.163  1.00  0.00     0.164 HD
BRANCH  10  13
ATOM     13  C   UNL     1       1.932  -6.118  -5.302  1.00  0.00     0.101 C 
BRANCH  13  14
ATOM     14  C   UNL     1       2.847  -5.696  -4.045  1.00  0.00     0.026 C 
BRANCH  14  15
ATOM     15  C   UNL     1       2.301  -6.101  -2.614  1.00  0.00     0.107 C 
ATOM     16  C   UNL     1       1.035   0.288   0.541  1.00  0.00     0.048 C 
ATOM     17  C   UNL     1       1.044  -0.162  -0.867  1.00  0.00    -0.005 A 
ATOM     18  C   UNL     1       0.680   0.586  -1.971  1.00  0.00     0.199 A 
ATOM     19  C   UNL     1       1.345  -1.469  -1.358  1.00  0.00     0.024 A 
ATOM     20  O   UNL     1       0.676  -0.175  -3.092  1.00  0.00    -0.464 OA
ATOM     21  C   UNL     1       0.987  -1.437  -2.701  1.00  0.00     0.137 A 
ATOM     22  C   UNL     1       1.830  -2.689  -0.823  1.00  0.00     0.020 A 
ATOM     23  C   UNL     1       0.869  -2.563  -3.492  1.00  0.00     0.095 A 
ATOM     24  C   UNL     1       1.748  -3.835  -1.621  1.00  0.00    -0.001 A 
ATOM     25  C   UNL     1       1.042  -3.748  -2.804  1.00  0.00     0.138 A 
ATOM     26  C   UNL     1       2.296  -5.206  -1.308  1.00  0.00     0.034 C 
ATOM     27  O   UNL     1       0.376  -4.924  -3.224  1.00  0.00    -0.426 OA
ATOM     28  C   UNL     1       1.386  -5.832  -0.214  1.00  0.00     0.014 C 
ATOM     29  C   UNL     1       0.870  -6.183  -2.869  1.00  0.00     0.314 C 
ATOM     30  O   UNL     1       0.261  -7.258  -2.900  1.00  0.00    -0.251 OA
ENDBRANCH  14  15
ENDBRANCH  13  14
ENDBRANCH  10  13
ENDBRANCH   8   9
BRANCH   8  31
ATOM     31  C   UNL     1      -2.180  -5.736  -3.678  1.00  0.00     0.072 C 
BRANCH  31  32
ATOM     32  C   UNL     1      -2.670  -4.388  -3.133  1.00  0.00    -0.020 A 
ATOM     33  C   UNL     1      -3.419  -4.379  -1.958  1.00  0.00     0.087 A 
ATOM     34  C   UNL     1      -2.614  -2.996  -3.541  1.00  0.00     0.003 A 
ATOM     35  N   UNL     1      -3.865  -3.118  -1.694  1.00  0.00    -0.361 N 
ATOM     36  C   UNL     1      -3.417  -2.257  -2.661  1.00  0.00     0.046 A 
ATOM     37  C   UNL     1      -2.040  -2.264  -4.606  1.00  0.00     0.010 A 
ATOM     38  H   UNL     1      -4.425  -2.864  -0.925  1.00  0.00     0.166 HD
ATOM     39  C   UNL     1      -3.692  -0.889  -2.820  1.00  0.00     0.026 A 
ATOM     40  C   UNL     1      -2.282  -0.895  -4.774  1.00  0.00     0.001 A 
ATOM     41  C   UNL     1      -3.116  -0.221  -3.899  1.00  0.00     0.002 A 
ENDBRANCH  31  32
ENDBRANCH   8  31
ENDBRANCH   5   8
ENDBRANCH   3   4
ENDBRANCH   2   3
ENDBRANCH   1   2
BRANCH   1  42
ATOM     42  C   UNL     1      -6.930  -3.619  -5.678  1.00  0.00     0.002 C 
BRANCH  42  43
ATOM     43  C   UNL     1      -6.646  -2.333  -4.890  1.00  0.00     0.021 C 
BRANCH  43  44
ATOM     44  C   UNL     1      -6.492  -1.050  -5.703  1.00  0.00     0.116 C 
BRANCH  44  45
ATOM     45  N   UNL     1      -7.538  -0.832  -6.677  1.00  0.00    -0.352 N 
ATOM     46  C   UNL     1      -8.824  -0.383  -6.631  1.00  0.00     0.251 C 
ATOM     47  H   UNL     1      -7.255  -1.064  -7.591  1.00  0.00     0.163 HD
ATOM     48  O   UNL     1      -9.428  -0.352  -7.706  1.00  0.00    -0.269 OA
BRANCH  46  49
ATOM     49  C   UNL     1      -9.538   0.017  -5.392  1.00  0.00     0.039 A 
ATOM     50  C   UNL     1      -8.938   0.300  -4.164  1.00  0.00     0.014 A 
ATOM     51  C   UNL     1     -10.936   0.118  -5.501  1.00  0.00     0.014 A 
ATOM     52  C   UNL     1      -9.719   0.577  -3.048  1.00  0.00     0.010 A 
ATOM     53  C   UNL     1     -11.718   0.430  -4.397  1.00  0.00     0.010 A 
ATOM     54  C   UNL     1     -11.109   0.612  -3.159  1.00  0.00    -0.014 A 
BRANCH  54  55
ATOM     55  C   UNL     1     -11.884   0.919  -1.962  1.00  0.00     0.031 A 
ATOM     56  C   UNL     1     -11.634   2.254  -1.344  1.00  0.00     0.074 A 
ATOM     57  C   UNL     1     -12.855   0.112  -1.494  1.00  0.00     0.049 A 
ATOM     58  N   UNL     1     -11.235   2.514  -0.142  1.00  0.00    -0.248 NA
ATOM     59  C   UNL     1     -11.766   3.442  -2.200  1.00  0.00     0.031 C 
ATOM     60  C   UNL     1     -13.422  -1.082  -2.126  1.00  0.00     0.029 A 
ATOM     61  N   UNL     1     -13.637   0.279  -0.392  1.00  0.00    -0.354 N 
ATOM     62  C   UNL     1     -11.205   3.904  -0.029  1.00  0.00     0.074 A 
ATOM     63  C   UNL     1     -11.435   4.420  -1.356  1.00  0.00     0.031 C 
ATOM     64  C   UNL     1     -14.607  -1.369  -1.541  1.00  0.00     0.029 A 
ATOM     65  C   UNL     1     -14.800  -0.477  -0.410  1.00  0.00     0.049 A 
ATOM     66  H   UNL     1     -13.398   0.881   0.350  1.00  0.00     0.167 HD
ATOM     67  C   UNL     1     -11.138   4.543   1.173  1.00  0.00     0.031 A 
ATOM     68  C   UNL     1     -15.881  -0.311   0.390  1.00  0.00     0.031 A 
ATOM     69  C   UNL     1     -10.742   3.658   2.233  1.00  0.00     0.049 A 
ATOM     70  C   UNL     1     -15.431   0.424   1.598  1.00  0.00     0.074 A 
ATOM     71  C   UNL     1      -9.609   2.914   2.494  1.00  0.00     0.029 A 
ATOM     72  N   UNL     1     -11.723   3.154   3.053  1.00  0.00    -0.354 N 
ATOM     73  N   UNL     1     -14.610  -0.075   2.479  1.00  0.00    -0.248 NA
ATOM     74  C   UNL     1     -15.555   1.874   1.613  1.00  0.00     0.031 C 
ATOM     75  C   UNL     1     -10.092   1.706   3.069  1.00  0.00     0.029 A 
ATOM     76  C   UNL     1     -11.481   1.810   3.183  1.00  0.00     0.049 A 
ATOM     77  H   UNL     1     -12.459   3.660   3.467  1.00  0.00     0.167 HD
ATOM     78  C   UNL     1     -13.801   0.988   2.853  1.00  0.00     0.074 A 
ATOM     79  C   UNL     1     -14.498   2.180   2.370  1.00  0.00     0.031 C 
ATOM     80  C   UNL     1     -12.513   0.795   3.267  1.00  0.00     0.031 A 
BRANCH  67  81
ATOM     81  C   UNL     1     -11.692   5.918   1.444  1.00  0.00    -0.014 A 
ATOM     82  C   UNL     1     -12.627   6.544   0.596  1.00  0.00     0.010 A 
ATOM     83  C   UNL     1     -11.471   6.519   2.702  1.00  0.00     0.010 A 
ATOM     84  C   UNL     1     -13.301   7.709   0.968  1.00  0.00     0.020 A 
ATOM     85  C   UNL     1     -12.175   7.664   3.104  1.00  0.00     0.020 A 
ATOM     86  C   UNL     1     -13.085   8.252   2.229  1.00  0.00     0.054 A 
BRANCH  86  87
ATOM     87  S   UNL     1     -14.083   9.679   2.726  1.00  0.00     0.124 S 
ATOM     88  O   UNL     1     -13.548  10.733   1.868  1.00  0.00    -0.237 OA
ATOM     89  O   UNL     1     -15.439   9.236   2.412  1.00  0.00    -0.237 OA
ATOM     90  O   UNL     1     -13.791   9.823   4.150  1.00  0.00    -0.744 OA
ENDBRANCH  86  87
ENDBRANCH  67  81
BRANCH  68  91
ATOM     91  C   UNL     1     -17.304  -0.355  -0.035  1.00  0.00    -0.014 A 
ATOM     92  C   UNL     1     -17.645  -0.127  -1.385  1.00  0.00     0.010 A 
ATOM     93  C   UNL     1     -18.338  -0.316   0.918  1.00  0.00     0.010 A 
ATOM     94  C   UNL     1     -18.947   0.213  -1.761  1.00  0.00     0.020 A 
ATOM     95  C   UNL     1     -19.649   0.032   0.549  1.00  0.00     0.020 A 
ATOM     96  C   UNL     1     -19.932   0.334  -0.784  1.00  0.00     0.054 A 
BRANCH  96  97
ATOM     97  S   UNL     1     -21.549   0.992  -1.281  1.00  0.00     0.124 S 
ATOM     98  O   UNL     1     -21.217   2.370  -1.635  1.00  0.00    -0.237 OA
ATOM     99  O   UNL     1     -21.911   0.128  -2.403  1.00  0.00    -0.237 OA
ATOM    100  O   UNL     1     -22.371   0.834  -0.085  1.00  0.00    -0.744 OA
ENDBRANCH  96  97
ENDBRANCH  68  91
BRANCH  80 101
ATOM    101  C   UNL     1     -12.027  -0.614   3.546  1.00  0.00    -0.014 A 
ATOM    102  C   UNL     1     -11.315  -0.837   4.739  1.00  0.00     0.010 A 
ATOM    103  C   UNL     1     -12.053  -1.645   2.584  1.00  0.00     0.010 A 
ATOM    104  C   UNL     1     -10.612  -2.026   4.949  1.00  0.00     0.020 A 
ATOM    105  C   UNL     1     -11.374  -2.854   2.801  1.00  0.00     0.020 A 
ATOM    106  C   UNL     1     -10.632  -3.023   3.972  1.00  0.00     0.054 A 
BRANCH 106 107
ATOM    107  S   UNL     1      -9.640  -4.516   4.247  1.00  0.00     0.124 S 
ATOM    108  O   UNL     1      -8.277  -4.018   4.074  1.00  0.00    -0.237 OA
ATOM    109  O   UNL     1      -9.996  -4.895   5.612  1.00  0.00    -0.237 OA
ATOM    110  O   UNL     1     -10.095  -5.441   3.211  1.00  0.00    -0.744 OA
ENDBRANCH 106 107
ENDBRANCH  80 101
ENDBRANCH  54  55
ENDBRANCH  46  49
ENDBRANCH  44  45
ENDBRANCH  43  44
ENDBRANCH  42  43
ENDBRANCH   1  42
TORSDOF 22
