REMARK SMILES Cc1ccc(-c2cn3c(n2)sc2cc(C(=O)NCCCCCCNC(=O)c4ccc(-c5c6nc(c(-c7ccc(S(=O)(=O)[O-])cc7)c7ccc([nH]7)c(-c7ccc(S(=O)(=O)[O-])cc7)c7nc(c(-c8ccc(S(=O)(=O)[O-])cc8)c8ccc5[nH]8)C=C7)C=C6)cc4)ccc23)cc1
REMARK SMILES IDX 21 1 20 2 19 3 18 4 17 5 15 6 16 7 14 9 6 10 7 11 10 12 8 13
REMARK SMILES IDX 9 14 89 15 11 16 12 17 88 18 13 19 87 20 5 21 1 22 2 23 3 24
REMARK SMILES IDX 91 25 4 26 90 27 22 28 23 29 24 30 25 31 26 33 27 34 28 35
REMARK SMILES IDX 86 36 29 37 85 38 30 39 31 40 32 41 79 42 33 43 84 44 78 45
REMARK SMILES IDX 80 46 34 47 83 48 77 49 76 50 35 52 65 53 46 54 64 55 47 56
REMARK SMILES IDX 50 57 63 58 81 59 48 60 49 61 62 63 82 64 51 65 36 66 37 67
REMARK SMILES IDX 45 68 38 69 44 70 39 71 40 72 41 73 42 74 43 75 66 76 67 77
REMARK SMILES IDX 75 78 68 79 74 80 69 81 70 82 71 83 72 84 73 85 52 86 53 87
REMARK SMILES IDX 61 88 54 89 60 90 55 91 56 92 57 93 58 94 59 95
REMARK H PARENT 17 8 24 32 80 51 50 62
REMARK Flexibility Score: inf
ROOT
ATOM      1  C   UNL     1      -2.543   3.311   6.003  1.00  0.00     0.002 C 
ENDROOT
BRANCH   1   2
ATOM      2  C   UNL     1      -4.009   3.101   6.423  1.00  0.00     0.002 C 
BRANCH   2   3
ATOM      3  C   UNL     1      -4.829   2.083   5.616  1.00  0.00     0.021 C 
BRANCH   3   4
ATOM      4  C   UNL     1      -4.223   0.678   5.533  1.00  0.00     0.116 C 
BRANCH   4   5
ATOM      5  N   UNL     1      -4.875  -0.266   6.444  1.00  0.00    -0.352 N 
ATOM      6  C   UNL     1      -5.704  -1.332   6.165  1.00  0.00     0.251 C 
ATOM      7  O   UNL     1      -6.008  -2.146   7.031  1.00  0.00    -0.269 OA
ATOM      8  H   UNL     1      -4.693  -0.116   7.400  1.00  0.00     0.163 HD
BRANCH   6   9
ATOM      9  C   UNL     1      -6.138  -1.556   4.769  1.00  0.00     0.041 A 
ATOM     10  C   UNL     1      -3.558  -0.569  -0.063  1.00  0.00     0.090 A 
ATOM     11  C   UNL     1      -4.215  -1.739   0.301  1.00  0.00     0.123 A 
ATOM     12  N   UNL     1      -4.416   0.521  -0.011  1.00  0.00    -0.219 NA
ATOM     13  N   UNL     1      -5.359  -1.272   0.888  1.00  0.00    -0.290 N 
ATOM     14  C   UNL     1      -5.494   0.050   0.563  1.00  0.00     0.195 A 
ATOM     15  C   UNL     1      -5.996  -1.683   2.065  1.00  0.00     0.065 A 
ATOM     16  S   UNL     1      -6.668   0.863   1.565  1.00  0.00    -0.096 S 
ATOM     17  C   UNL     1      -6.615  -0.570   2.660  1.00  0.00     0.056 A 
ATOM     18  C   UNL     1      -5.643  -2.829   2.764  1.00  0.00     0.029 A 
ATOM     19  C   UNL     1      -6.716  -0.508   4.037  1.00  0.00     0.035 A 
ATOM     20  C   UNL     1      -5.709  -2.750   4.152  1.00  0.00     0.016 A 
BRANCH  10  21
ATOM     21  C   UNL     1      -2.111  -0.430  -0.185  1.00  0.00     0.002 A 
ATOM     22  C   UNL     1       2.186   0.062  -0.054  1.00  0.00     0.044 C 
ATOM     23  C   UNL     1       0.696  -0.099  -0.111  1.00  0.00    -0.051 A 
ATOM     24  C   UNL     1       0.132  -1.377  -0.193  1.00  0.00     0.004 A 
ATOM     25  C   UNL     1      -0.150   1.012  -0.067  1.00  0.00     0.004 A 
ATOM     26  C   UNL     1      -1.257  -1.541  -0.231  1.00  0.00     0.010 A 
ATOM     27  C   UNL     1      -1.538   0.847  -0.105  1.00  0.00     0.010 A 
ENDBRANCH  10  21
ENDBRANCH   6   9
ENDBRANCH   4   5
ENDBRANCH   3   4
ENDBRANCH   2   3
ENDBRANCH   1   2
BRANCH   1  28
ATOM     28  C   UNL     1      -2.292   3.518   4.509  1.00  0.00     0.021 C 
BRANCH  28  29
ATOM     29  C   UNL     1      -2.736   4.884   3.994  1.00  0.00     0.116 C 
BRANCH  29  30
ATOM     30  N   UNL     1      -1.607   5.755   3.683  1.00  0.00    -0.352 N 
ATOM     31  C   UNL     1      -1.618   6.907   2.915  1.00  0.00     0.251 C 
ATOM     32  H   UNL     1      -0.738   5.493   4.063  1.00  0.00     0.163 HD
ATOM     33  O   UNL     1      -0.613   7.411   2.447  1.00  0.00    -0.269 OA
BRANCH  31  34
ATOM     34  C   UNL     1      -2.916   7.599   2.820  1.00  0.00     0.039 A 
ATOM     35  C   UNL     1      -3.088   8.726   3.635  1.00  0.00     0.014 A 
ATOM     36  C   UNL     1      -3.995   6.968   2.208  1.00  0.00     0.014 A 
ATOM     37  C   UNL     1      -4.373   9.121   3.984  1.00  0.00     0.010 A 
ATOM     38  C   UNL     1      -5.266   7.311   2.622  1.00  0.00     0.010 A 
ATOM     39  C   UNL     1      -5.448   8.349   3.549  1.00  0.00    -0.014 A 
BRANCH  39  40
ATOM     40  C   UNL     1      -6.805   8.509   4.053  1.00  0.00     0.031 A 
ATOM     41  C   UNL     1      -7.804   9.221   3.228  1.00  0.00     0.074 A 
ATOM     42  C   UNL     1      -7.158   7.925   5.219  1.00  0.00     0.049 A 
ATOM     43  N   UNL     1      -8.908   9.720   3.670  1.00  0.00    -0.248 NA
ATOM     44  C   UNL     1      -7.581   9.486   1.810  1.00  0.00     0.031 C 
ATOM     45  C   UNL     1      -8.513   7.708   5.717  1.00  0.00     0.029 A 
ATOM     46  N   UNL     1      -6.343   7.612   6.310  1.00  0.00    -0.354 N 
ATOM     47  C   UNL     1      -9.665  10.078   2.575  1.00  0.00     0.074 A 
ATOM     48  C   UNL     1      -8.756  10.010   1.455  1.00  0.00     0.031 C 
ATOM     49  C   UNL     1      -8.464   7.603   7.055  1.00  0.00     0.029 A 
ATOM     50  C   UNL     1      -7.099   7.912   7.454  1.00  0.00     0.049 A 
ATOM     51  H   UNL     1      -5.426   7.255   6.282  1.00  0.00     0.167 HD
ATOM     52  C   UNL     1     -11.012  10.240   2.712  1.00  0.00     0.031 A 
ATOM     53  C   UNL     1      -6.750   8.867   8.365  1.00  0.00     0.031 A 
ATOM     54  C   UNL     1     -11.412  10.187   4.118  1.00  0.00     0.049 A 
ATOM     55  C   UNL     1      -7.814   9.934   8.527  1.00  0.00     0.074 A 
ATOM     56  C   UNL     1     -11.960   9.189   4.907  1.00  0.00     0.029 A 
ATOM     57  N   UNL     1     -10.965  11.177   4.987  1.00  0.00    -0.354 N 
ATOM     58  N   UNL     1      -8.761  10.158   7.657  1.00  0.00    -0.248 NA
ATOM     59  C   UNL     1      -7.879  10.849   9.664  1.00  0.00     0.031 C 
ATOM     60  C   UNL     1     -11.734   9.536   6.266  1.00  0.00     0.029 A 
ATOM     61  C   UNL     1     -11.089  10.761   6.299  1.00  0.00     0.049 A 
ATOM     62  H   UNL     1     -10.610  12.052   4.707  1.00  0.00     0.167 HD
ATOM     63  C   UNL     1      -9.557  11.184   8.094  1.00  0.00     0.074 A 
ATOM     64  C   UNL     1      -8.962  11.585   9.357  1.00  0.00     0.031 C 
ATOM     65  C   UNL     1     -10.641  11.619   7.388  1.00  0.00     0.031 A 
BRANCH  52  66
ATOM     66  C   UNL     1     -11.987  10.135   1.554  1.00  0.00    -0.014 A 
ATOM     67  C   UNL     1     -13.313   9.715   1.797  1.00  0.00     0.010 A 
ATOM     68  C   UNL     1     -11.650  10.344   0.204  1.00  0.00     0.010 A 
ATOM     69  C   UNL     1     -14.208   9.422   0.754  1.00  0.00     0.020 A 
ATOM     70  C   UNL     1     -12.520  10.025  -0.851  1.00  0.00     0.020 A 
ATOM     71  C   UNL     1     -13.794   9.550  -0.569  1.00  0.00     0.054 A 
BRANCH  71  72
ATOM     72  S   UNL     1     -14.923   9.084  -1.907  1.00  0.00     0.124 S 
ATOM     73  O   UNL     1     -15.222   7.689  -1.597  1.00  0.00    -0.237 OA
ATOM     74  O   UNL     1     -16.027  10.022  -1.727  1.00  0.00    -0.237 OA
ATOM     75  O   UNL     1     -14.129   9.288  -3.118  1.00  0.00    -0.744 OA
ENDBRANCH  71  72
ENDBRANCH  52  66
BRANCH  53  76
ATOM     76  C   UNL     1      -5.283   9.097   8.491  1.00  0.00    -0.014 A 
ATOM     77  C   UNL     1      -4.506   8.061   9.053  1.00  0.00     0.010 A 
ATOM     78  C   UNL     1      -4.643  10.077   7.713  1.00  0.00     0.010 A 
ATOM     79  C   UNL     1      -3.159   7.912   8.710  1.00  0.00     0.020 A 
ATOM     80  C   UNL     1      -3.288   9.933   7.373  1.00  0.00     0.020 A 
ATOM     81  C   UNL     1      -2.577   8.816   7.823  1.00  0.00     0.054 A 
BRANCH  81  82
ATOM     82  S   UNL     1      -0.949   8.399   7.123  1.00  0.00     0.124 S 
ATOM     83  O   UNL     1      -0.096   8.388   8.307  1.00  0.00    -0.237 OA
ATOM     84  O   UNL     1      -1.200   7.090   6.518  1.00  0.00    -0.237 OA
ATOM     85  O   UNL     1      -0.703   9.482   6.178  1.00  0.00    -0.744 OA
ENDBRANCH  81  82
ENDBRANCH  53  76
BRANCH  65  86
ATOM     86  C   UNL     1     -11.448  12.857   7.695  1.00  0.00    -0.014 A 
ATOM     87  C   UNL     1     -10.935  13.981   8.359  1.00  0.00     0.010 A 
ATOM     88  C   UNL     1     -12.759  12.962   7.171  1.00  0.00     0.010 A 
ATOM     89  C   UNL     1     -11.713  15.133   8.546  1.00  0.00     0.020 A 
ATOM     90  C   UNL     1     -13.527  14.120   7.314  1.00  0.00     0.020 A 
ATOM     91  C   UNL     1     -13.006  15.194   8.026  1.00  0.00     0.054 A 
BRANCH  91  92
ATOM     92  S   UNL     1     -13.981  16.708   8.214  1.00  0.00     0.124 S 
ATOM     93  O   UNL     1     -14.641  16.483   9.498  1.00  0.00    -0.237 OA
ATOM     94  O   UNL     1     -12.964  17.758   8.210  1.00  0.00    -0.237 OA
ATOM     95  O   UNL     1     -14.858  16.697   7.046  1.00  0.00    -0.744 OA
ENDBRANCH  91  92
ENDBRANCH  65  86
ENDBRANCH  39  40
ENDBRANCH  31  34
ENDBRANCH  29  30
ENDBRANCH  28  29
ENDBRANCH   1  28
TORSDOF 17
