REMARK SMILES Cn1cc(/C=C/C(=O)Nc2ccc(C(=O)NCCCCCCNC(=O)c3ccc(-c4c5nc(c(-c6ccc(S(=O)(=O)[O-])cc6)c6ccc([nH]6)c(-c6ccc(S(=O)(=O)[O-])cc6)c6nc(c(-c7ccc(S(=O)(=O)[O-])cc7)c7ccc4[nH]7)C=C6)C=C5)cc3)c(O)c2)cn1
REMARK SMILES IDX 19 1 18 2 17 3 16 4 14 5 15 6 13 8 10 9 11 10 88 11 12 12
REMARK SMILES IDX 86 13 9 14 7 15 8 16 6 18 5 19 4 20 1 21 2 22 3 23 90 24
REMARK SMILES IDX 89 25 87 26 20 28 21 29 22 30 23 31 24 32 25 34 26 35 27 36
REMARK SMILES IDX 85 37 28 38 84 39 29 40 30 41 31 42 78 43 32 44 83 45 77 46
REMARK SMILES IDX 79 47 33 48 82 49 76 50 75 51 34 53 64 54 45 55 63 56 46 57
REMARK SMILES IDX 49 58 62 59 80 60 47 61 48 62 61 64 81 65 50 66 35 67 36 68
REMARK SMILES IDX 44 69 37 70 43 71 38 72 39 73 40 74 41 75 42 76 65 77 66 78
REMARK SMILES IDX 74 79 67 80 73 81 68 82 69 83 70 84 71 85 72 86 51 87 52 88
REMARK SMILES IDX 60 89 53 90 59 91 54 92 55 93 56 94 57 95 58 96
REMARK H PARENT 16 7 9 17 87 27 23 33 79 52 49 63
REMARK Flexibility Score: inf
ROOT
ATOM      1  C   UNL     1      -1.231  -8.239   3.474  1.00  0.00     0.002 C 
ENDROOT
BRANCH   1   2
ATOM      2  C   UNL     1      -0.187  -7.117   3.483  1.00  0.00     0.021 C 
BRANCH   2   3
ATOM      3  C   UNL     1       0.697  -6.994   2.243  1.00  0.00     0.116 C 
BRANCH   3   4
ATOM      4  N   UNL     1      -0.029  -6.777   1.004  1.00  0.00    -0.352 N 
ATOM      5  C   UNL     1       0.352  -6.172  -0.171  1.00  0.00     0.255 C 
ATOM      6  O   UNL     1      -0.475  -6.105  -1.081  1.00  0.00    -0.269 OA
ATOM      7  H   UNL     1      -0.951  -7.122   1.005  1.00  0.00     0.163 HD
BRANCH   5   8
ATOM      8  C   UNL     1       1.676  -5.513  -0.353  1.00  0.00     0.081 A 
ATOM      9  C   UNL     1       3.941  -3.842  -0.448  1.00  0.00     0.045 A 
ATOM     10  C   UNL     1       2.813  -3.536  -1.205  1.00  0.00     0.027 A 
ATOM     11  C   UNL     1       4.013  -5.093   0.165  1.00  0.00     0.073 A 
ATOM     12  C   UNL     1       1.675  -4.344  -1.127  1.00  0.00     0.020 A 
ATOM     13  C   UNL     1       2.897  -5.937   0.176  1.00  0.00     0.130 A 
BRANCH   9  14
ATOM     14  N   UNL     1       5.007  -2.947  -0.247  1.00  0.00    -0.322 N 
ATOM     15  C   UNL     1       5.061  -1.579  -0.283  1.00  0.00     0.248 C 
ATOM     16  O   UNL     1       6.149  -1.005  -0.255  1.00  0.00    -0.270 OA
ATOM     17  H   UNL     1       5.868  -3.381  -0.044  1.00  0.00     0.170 HD
BRANCH  15  18
ATOM     18  C   UNL     1       3.831  -0.749  -0.336  1.00  0.00     0.072 C 
ATOM     19  C   UNL     1       2.735  -0.993   0.403  1.00  0.00     0.017 C 
BRANCH  19  20
ATOM     20  C   UNL     1       1.502  -0.300   0.265  1.00  0.00     0.013 A 
ATOM     21  C   UNL     1      -2.072  -0.032  -0.043  1.00  0.00     0.173 C 
ATOM     22  N   UNL     1      -0.639   0.101   0.064  1.00  0.00    -0.275 N 
ATOM     23  C   UNL     1       0.262  -0.897   0.302  1.00  0.00     0.116 A 
ATOM     24  N   UNL     1      -0.069   1.310  -0.103  1.00  0.00    -0.181 NA
ATOM     25  C   UNL     1       1.239   1.060   0.020  1.00  0.00     0.143 A 
ENDBRANCH  19  20
ENDBRANCH  15  18
ENDBRANCH   9  14
BRANCH  13  26
ATOM     26  O   UNL     1       3.108  -7.178   0.705  1.00  0.00    -0.507 OA
ATOM     27  H   UNL     1       2.406  -7.796   0.746  1.00  0.00     0.293 HD
ENDBRANCH  13  26
ENDBRANCH   5   8
ENDBRANCH   3   4
ENDBRANCH   2   3
ENDBRANCH   1   2
BRANCH   1  28
ATOM     28  C   UNL     1      -0.745  -9.640   3.092  1.00  0.00     0.002 C 
BRANCH  28  29
ATOM     29  C   UNL     1       0.449 -10.191   3.874  1.00  0.00     0.021 C 
BRANCH  29  30
ATOM     30  C   UNL     1       0.329 -10.156   5.393  1.00  0.00     0.116 C 
BRANCH  30  31
ATOM     31  N   UNL     1      -0.810 -10.907   5.892  1.00  0.00    -0.352 N 
ATOM     32  C   UNL     1      -0.864 -11.863   6.876  1.00  0.00     0.251 C 
ATOM     33  H   UNL     1      -1.671 -10.700   5.461  1.00  0.00     0.163 HD
ATOM     34  O   UNL     1      -1.909 -12.485   7.065  1.00  0.00    -0.269 OA
BRANCH  32  35
ATOM     35  C   UNL     1       0.335 -12.169   7.689  1.00  0.00     0.039 A 
ATOM     36  C   UNL     1       0.655 -13.507   7.941  1.00  0.00     0.014 A 
ATOM     37  C   UNL     1       1.141 -11.151   8.206  1.00  0.00     0.014 A 
ATOM     38  C   UNL     1       1.814 -13.822   8.655  1.00  0.00     0.010 A 
ATOM     39  C   UNL     1       2.336 -11.468   8.848  1.00  0.00     0.010 A 
ATOM     40  C   UNL     1       2.684 -12.806   9.084  1.00  0.00    -0.014 A 
BRANCH  40  41
ATOM     41  C   UNL     1       3.962 -13.127   9.773  1.00  0.00     0.031 A 
ATOM     42  C   UNL     1       4.196 -12.685  11.192  1.00  0.00     0.074 A 
ATOM     43  C   UNL     1       4.936 -13.772   9.101  1.00  0.00     0.049 A 
ATOM     44  N   UNL     1       5.253 -12.854  11.945  1.00  0.00    -0.248 NA
ATOM     45  C   UNL     1       3.110 -11.934  11.841  1.00  0.00     0.031 C 
ATOM     46  C   UNL     1       4.848 -14.226   7.711  1.00  0.00     0.029 A 
ATOM     47  N   UNL     1       6.192 -14.159   9.497  1.00  0.00    -0.354 N 
ATOM     48  C   UNL     1       4.965 -12.220  13.149  1.00  0.00     0.074 A 
ATOM     49  C   UNL     1       3.660 -11.613  13.002  1.00  0.00     0.031 C 
ATOM     50  C   UNL     1       5.982 -14.867   7.386  1.00  0.00     0.029 A 
ATOM     51  C   UNL     1       6.895 -14.829   8.524  1.00  0.00     0.049 A 
ATOM     52  H   UNL     1       6.555 -13.974  10.393  1.00  0.00     0.167 HD
ATOM     53  C   UNL     1       5.708 -12.165  14.282  1.00  0.00     0.031 A 
ATOM     54  C   UNL     1       8.135 -15.356   8.542  1.00  0.00     0.031 A 
ATOM     55  C   UNL     1       7.011 -12.760  14.420  1.00  0.00     0.049 A 
ATOM     56  C   UNL     1       8.959 -15.252   9.795  1.00  0.00     0.074 A 
ATOM     57  C   UNL     1       7.826 -12.800  15.538  1.00  0.00     0.029 A 
ATOM     58  N   UNL     1       7.697 -13.409  13.403  1.00  0.00    -0.354 N 
ATOM     59  N   UNL     1       8.644 -14.706  10.946  1.00  0.00    -0.248 NA
ATOM     60  C   UNL     1      10.302 -15.844   9.755  1.00  0.00     0.031 C 
ATOM     61  C   UNL     1       9.031 -13.416  15.178  1.00  0.00     0.029 A 
ATOM     62  C   UNL     1       8.939 -13.824  13.857  1.00  0.00     0.049 A 
ATOM     63  H   UNL     1       7.353 -13.554  12.492  1.00  0.00     0.167 HD
ATOM     64  C   UNL     1       9.739 -14.914  11.777  1.00  0.00     0.074 A 
ATOM     65  C   UNL     1      10.719 -15.647  10.998  1.00  0.00     0.031 C 
ATOM     66  C   UNL     1       9.914 -14.539  13.069  1.00  0.00     0.031 A 
BRANCH  53  67
ATOM     67  C   UNL     1       5.127 -11.405  15.449  1.00  0.00    -0.014 A 
ATOM     68  C   UNL     1       3.973 -11.858  16.116  1.00  0.00     0.010 A 
ATOM     69  C   UNL     1       5.738 -10.214  15.883  1.00  0.00     0.010 A 
ATOM     70  C   UNL     1       3.400 -11.099  17.141  1.00  0.00     0.020 A 
ATOM     71  C   UNL     1       5.189  -9.470  16.932  1.00  0.00     0.020 A 
ATOM     72  C   UNL     1       4.007  -9.903  17.534  1.00  0.00     0.054 A 
BRANCH  72  73
ATOM     73  S   UNL     1       3.226  -8.923  18.845  1.00  0.00     0.124 S 
ATOM     74  O   UNL     1       2.057  -8.380  18.157  1.00  0.00    -0.237 OA
ATOM     75  O   UNL     1       2.942  -9.925  19.869  1.00  0.00    -0.237 OA
ATOM     76  O   UNL     1       4.249  -7.943  19.203  1.00  0.00    -0.744 OA
ENDBRANCH  72  73
ENDBRANCH  53  67
BRANCH  54  77
ATOM     77  C   UNL     1       8.649 -16.067   7.339  1.00  0.00    -0.014 A 
ATOM     78  C   UNL     1       8.785 -17.466   7.348  1.00  0.00     0.010 A 
ATOM     79  C   UNL     1       8.956 -15.358   6.163  1.00  0.00     0.010 A 
ATOM     80  C   UNL     1       9.216 -18.144   6.204  1.00  0.00     0.020 A 
ATOM     81  C   UNL     1       9.360 -16.034   5.009  1.00  0.00     0.020 A 
ATOM     82  C   UNL     1       9.491 -17.424   5.038  1.00  0.00     0.054 A 
BRANCH  82  83
ATOM     83  S   UNL     1       9.961 -18.336   3.542  1.00  0.00     0.124 S 
ATOM     84  O   UNL     1      11.303 -18.801   3.877  1.00  0.00    -0.237 OA
ATOM     85  O   UNL     1       8.931 -19.370   3.469  1.00  0.00    -0.237 OA
ATOM     86  O   UNL     1       9.893 -17.325   2.489  1.00  0.00    -0.744 OA
ENDBRANCH  82  83
ENDBRANCH  54  77
BRANCH  66  87
ATOM     87  C   UNL     1      11.204 -14.938  13.738  1.00  0.00    -0.014 A 
ATOM     88  C   UNL     1      12.428 -14.341  13.385  1.00  0.00     0.010 A 
ATOM     89  C   UNL     1      11.182 -15.892  14.772  1.00  0.00     0.010 A 
ATOM     90  C   UNL     1      13.610 -14.717  14.030  1.00  0.00     0.020 A 
ATOM     91  C   UNL     1      12.356 -16.247  15.441  1.00  0.00     0.020 A 
ATOM     92  C   UNL     1      13.566 -15.668  15.055  1.00  0.00     0.054 A 
BRANCH  92  93
ATOM     93  S   UNL     1      15.108 -16.108  15.904  1.00  0.00     0.124 S 
ATOM     94  O   UNL     1      15.802 -16.891  14.886  1.00  0.00    -0.237 OA
ATOM     95  O   UNL     1      15.693 -14.802  16.200  1.00  0.00    -0.237 OA
ATOM     96  O   UNL     1      14.658 -16.862  17.071  1.00  0.00    -0.744 OA
ENDBRANCH  92  93
ENDBRANCH  66  87
ENDBRANCH  40  41
ENDBRANCH  32  35
ENDBRANCH  30  31
ENDBRANCH  29  30
ENDBRANCH  28  29
ENDBRANCH   1  28
TORSDOF 20
