REMARK SMILES O=C(C[C@@H](NC(=O)C1CCC1)c1ccc(Cl)cc1)NCCCCCCNC(=O)c1ccc(-c2c3nc(c(-c4ccc(S(=O)(=O)[O-])cc4)c4ccc([nH]4)c(-c4ccc(S(=O)(=O)[O-])cc4)c4nc(c(-c5ccc(S(=O)(=O)[O-])cc5)c5ccc2[nH]5)C=C4)C=C3)cc1
REMARK SMILES IDX 22 1 21 2 20 3 19 4 1 5 2 6 3 8 4 9 5 10 6 11 7 13 8 14 9 15
REMARK SMILES IDX 11 16 10 17 12 18 13 19 18 20 14 21 17 22 15 23 16 24 23 25
REMARK SMILES IDX 24 26 25 27 26 28 27 29 28 31 29 32 30 33 88 34 31 35 87 36
REMARK SMILES IDX 32 37 33 38 34 39 81 40 35 41 86 42 80 43 82 44 36 45 85 46
REMARK SMILES IDX 79 47 78 48 37 50 67 51 48 52 66 53 49 54 52 55 65 56 83 57
REMARK SMILES IDX 50 58 51 59 64 61 84 62 53 63 38 64 39 65 47 66 40 67 46 68
REMARK SMILES IDX 41 69 42 70 43 71 44 72 45 73 68 74 69 75 77 76 70 77 76 78
REMARK SMILES IDX 71 79 72 80 73 81 74 82 75 83 54 84 55 85 63 86 56 87 62 88
REMARK SMILES IDX 57 89 58 90 59 91 60 92 61 93
REMARK H PARENT 19 7 5 12 26 30 82 49 52 60
REMARK Flexibility Score: inf
ROOT
ATOM      1  C   UNL     1       4.136   3.562   1.252  1.00  0.00     0.002 C 
ENDROOT
BRANCH   1   2
ATOM      2  C   UNL     1       2.642   3.210   1.273  1.00  0.00     0.021 C 
BRANCH   2   3
ATOM      3  C   UNL     1       2.183   2.349   0.096  1.00  0.00     0.116 C 
BRANCH   3   4
ATOM      4  N   UNL     1       2.893   1.087   0.079  1.00  0.00    -0.356 N 
ATOM      5  O   UNL     1       1.055  -0.281  -0.077  1.00  0.00    -0.275 OA
ATOM      6  C   UNL     1       2.263  -0.128   0.073  1.00  0.00     0.222 C 
ATOM      7  H   UNL     1       3.877   1.104   0.072  1.00  0.00     0.163 HD
BRANCH   6   8
ATOM      8  C   UNL     1       3.195  -1.301   0.253  1.00  0.00     0.129 C 
BRANCH   8   9
ATOM      9  C   UNL     1       3.715  -1.786  -1.101  1.00  0.00     0.121 C 
BRANCH   9  10
ATOM     10  N   UNL     1       4.833  -1.013  -1.701  1.00  0.00    -0.349 N 
ATOM     11  C   UNL     1       5.882  -0.439  -1.013  1.00  0.00     0.223 C 
ATOM     12  H   UNL     1       4.824  -0.899  -2.679  1.00  0.00     0.164 HD
ATOM     13  O   UNL     1       5.653   0.640  -0.449  1.00  0.00    -0.275 OA
BRANCH  11  14
ATOM     14  C   UNL     1       7.309  -1.044  -1.126  1.00  0.00     0.078 C 
ATOM     15  C   UNL     1       7.917  -1.633   0.169  1.00  0.00     0.013 C 
ATOM     16  C   UNL     1       7.642  -2.361  -1.854  1.00  0.00     0.013 C 
ATOM     17  C   UNL     1       8.422  -2.847  -0.619  1.00  0.00     0.002 C 
ENDBRANCH  11  14
ENDBRANCH   9  10
BRANCH   9  18
ATOM     18  C   UNL     1       3.967  -3.285  -1.072  1.00  0.00    -0.025 A 
ATOM     19  C   UNL     1       3.048  -4.157  -1.678  1.00  0.00     0.007 A 
ATOM     20  C   UNL     1       5.065  -3.847  -0.416  1.00  0.00     0.007 A 
ATOM     21  C   UNL     1       3.288  -5.534  -1.723  1.00  0.00     0.021 A 
ATOM     22  C   UNL     1       5.343  -5.213  -0.510  1.00  0.00     0.021 A 
ATOM     23  C   UNL     1       4.458  -6.050  -1.177  1.00  0.00     0.041 A 
ATOM     24  Cl  UNL     1       4.810  -7.727  -1.320  1.00  0.00    -0.084 Cl
ENDBRANCH   9  18
ENDBRANCH   8   9
ENDBRANCH   6   8
ENDBRANCH   3   4
ENDBRANCH   2   3
ENDBRANCH   1   2
BRANCH   1  25
ATOM     25  C   UNL     1       4.599   4.335   0.013  1.00  0.00     0.002 C 
BRANCH  25  26
ATOM     26  C   UNL     1       3.905   5.681  -0.198  1.00  0.00     0.021 C 
BRANCH  26  27
ATOM     27  C   UNL     1       4.044   6.659   0.964  1.00  0.00     0.116 C 
BRANCH  27  28
ATOM     28  N   UNL     1       5.428   7.041   1.204  1.00  0.00    -0.352 N 
ATOM     29  C   UNL     1       5.972   8.294   1.325  1.00  0.00     0.251 C 
ATOM     30  H   UNL     1       6.063   6.294   1.293  1.00  0.00     0.163 HD
ATOM     31  O   UNL     1       7.196   8.434   1.351  1.00  0.00    -0.269 OA
BRANCH  29  32
ATOM     32  C   UNL     1       5.090   9.478   1.397  1.00  0.00     0.039 A 
ATOM     33  C   UNL     1       5.399  10.602   0.628  1.00  0.00     0.014 A 
ATOM     34  C   UNL     1       3.957   9.477   2.215  1.00  0.00     0.014 A 
ATOM     35  C   UNL     1       4.536  11.700   0.631  1.00  0.00     0.010 A 
ATOM     36  C   UNL     1       3.059  10.539   2.156  1.00  0.00     0.010 A 
ATOM     37  C   UNL     1       3.339  11.664   1.366  1.00  0.00    -0.014 A 
BRANCH  37  38
ATOM     38  C   UNL     1       2.367  12.787   1.313  1.00  0.00     0.031 A 
ATOM     39  C   UNL     1       2.040  13.569   2.557  1.00  0.00     0.074 A 
ATOM     40  C   UNL     1       1.730  13.064   0.157  1.00  0.00     0.049 A 
ATOM     41  N   UNL     1       1.185  14.548   2.715  1.00  0.00    -0.248 NA
ATOM     42  C   UNL     1       2.746  13.185   3.789  1.00  0.00     0.031 C 
ATOM     43  C   UNL     1       1.928  12.354  -1.109  1.00  0.00     0.029 A 
ATOM     44  N   UNL     1       0.783  14.012  -0.140  1.00  0.00    -0.354 N 
ATOM     45  C   UNL     1       1.240  14.884   4.062  1.00  0.00     0.074 A 
ATOM     46  C   UNL     1       2.170  13.970   4.688  1.00  0.00     0.031 C 
ATOM     47  C   UNL     1       1.149  12.910  -2.051  1.00  0.00     0.029 A 
ATOM     48  C   UNL     1       0.363  13.982  -1.449  1.00  0.00     0.049 A 
ATOM     49  H   UNL     1       0.436  14.653   0.523  1.00  0.00     0.167 HD
ATOM     50  C   UNL     1       0.589  15.876   4.718  1.00  0.00     0.031 A 
ATOM     51  C   UNL     1      -0.558  14.726  -2.094  1.00  0.00     0.031 A 
ATOM     52  C   UNL     1      -0.338  16.782   4.091  1.00  0.00     0.049 A 
ATOM     53  C   UNL     1      -1.284  15.808  -1.343  1.00  0.00     0.074 A 
ATOM     54  C   UNL     1      -1.008  17.854   4.656  1.00  0.00     0.029 A 
ATOM     55  N   UNL     1      -0.734  16.719   2.763  1.00  0.00    -0.354 N 
ATOM     56  N   UNL     1      -1.166  16.157  -0.084  1.00  0.00    -0.248 NA
ATOM     57  C   UNL     1      -2.257  16.604  -2.102  1.00  0.00     0.031 C 
ATOM     58  C   UNL     1      -1.857  18.398   3.688  1.00  0.00     0.029 A 
ATOM     59  C   UNL     1      -1.663  17.713   2.498  1.00  0.00     0.049 A 
ATOM     60  H   UNL     1      -0.404  16.065   2.106  1.00  0.00     0.167 HD
ATOM     61  C   UNL     1      -2.030  17.233   0.093  1.00  0.00     0.074 A 
ATOM     62  C   UNL     1      -2.651  17.484  -1.192  1.00  0.00     0.031 C 
ATOM     63  C   UNL     1      -2.281  17.950   1.217  1.00  0.00     0.031 A 
BRANCH  50  64
ATOM     64  C   UNL     1       0.848  16.018   6.197  1.00  0.00    -0.014 A 
ATOM     65  C   UNL     1       2.105  16.423   6.684  1.00  0.00     0.010 A 
ATOM     66  C   UNL     1      -0.188  15.764   7.115  1.00  0.00     0.010 A 
ATOM     67  C   UNL     1       2.336  16.517   8.059  1.00  0.00     0.020 A 
ATOM     68  C   UNL     1       0.029  15.890   8.490  1.00  0.00     0.020 A 
ATOM     69  C   UNL     1       1.298  16.244   8.954  1.00  0.00     0.054 A 
BRANCH  69  70
ATOM     70  S   UNL     1       1.627  16.376  10.733  1.00  0.00     0.124 S 
ATOM     71  O   UNL     1       2.477  15.211  10.968  1.00  0.00    -0.237 OA
ATOM     72  O   UNL     1       2.294  17.671  10.840  1.00  0.00    -0.237 OA
ATOM     73  O   UNL     1       0.299  16.310  11.338  1.00  0.00    -0.744 OA
ENDBRANCH  69  70
ENDBRANCH  50  64
BRANCH  51  74
ATOM     74  C   UNL     1      -0.828  14.476  -3.537  1.00  0.00    -0.014 A 
ATOM     75  C   UNL     1      -0.427  15.405  -4.512  1.00  0.00     0.010 A 
ATOM     76  C   UNL     1      -1.461  13.287  -3.946  1.00  0.00     0.010 A 
ATOM     77  C   UNL     1      -0.660  15.155  -5.868  1.00  0.00     0.020 A 
ATOM     78  C   UNL     1      -1.668  13.020  -5.302  1.00  0.00     0.020 A 
ATOM     79  C   UNL     1      -1.273  13.960  -6.255  1.00  0.00     0.054 A 
BRANCH  79  80
ATOM     80  S   UNL     1      -1.500  13.627  -8.024  1.00  0.00     0.124 S 
ATOM     81  O   UNL     1      -2.554  14.571  -8.379  1.00  0.00    -0.237 OA
ATOM     82  O   UNL     1      -0.177  13.920  -8.571  1.00  0.00    -0.237 OA
ATOM     83  O   UNL     1      -1.882  12.217  -8.061  1.00  0.00    -0.744 OA
ENDBRANCH  79  80
ENDBRANCH  51  74
BRANCH  63  84
ATOM     84  C   UNL     1      -3.246  19.102   1.107  1.00  0.00    -0.014 A 
ATOM     85  C   UNL     1      -4.624  18.892   0.926  1.00  0.00     0.010 A 
ATOM     86  C   UNL     1      -2.768  20.419   1.245  1.00  0.00     0.010 A 
ATOM     87  C   UNL     1      -5.502  19.978   0.854  1.00  0.00     0.020 A 
ATOM     88  C   UNL     1      -3.645  21.505   1.207  1.00  0.00     0.020 A 
ATOM     89  C   UNL     1      -5.006  21.278   0.998  1.00  0.00     0.054 A 
BRANCH  89  90
ATOM     90  S   UNL     1      -6.173  22.666   0.948  1.00  0.00     0.124 S 
ATOM     91  O   UNL     1      -6.542  22.703  -0.464  1.00  0.00    -0.237 OA
ATOM     92  O   UNL     1      -7.226  22.231   1.862  1.00  0.00    -0.237 OA
ATOM     93  O   UNL     1      -5.381  23.802   1.415  1.00  0.00    -0.744 OA
ENDBRANCH  89  90
ENDBRANCH  63  84
ENDBRANCH  37  38
ENDBRANCH  29  32
ENDBRANCH  27  28
ENDBRANCH  26  27
ENDBRANCH  25  26
ENDBRANCH   1  25
TORSDOF 20
