REMARK SMILES Cc1c[nH]c(C[N@@H+](C)[C@@H](C(=O)NCCCCCCNC(=O)c2ccc(-c3c4nc(c(-c5ccc(S(=O)(=O)[O-])cc5)c5ccc([nH]5)c(-c5ccc(S(=O)(=O)[O-])cc5)c5nc(c(-c6ccc(S(=O)(=O)[O-])cc6)c6ccc3[nH]6)C=C5)C=C4)cc2)c2ccc(NC(=O)N3CCCC3)cc2)n1
REMARK SMILES IDX 15 1 14 2 13 3 12 4 10 5 11 6 9 8 7 9 8 10 6 12 5 13 1 14
REMARK SMILES IDX 2 15 3 16 96 17 4 18 82 20 83 21 95 22 84 23 94 24 85 25
REMARK SMILES IDX 86 26 87 27 88 29 89 30 90 31 93 32 91 33 92 34 16 35 17 36
REMARK SMILES IDX 18 37 19 38 20 39 21 41 22 42 23 43 81 44 24 45 80 46 25 47
REMARK SMILES IDX 26 48 27 49 74 50 28 51 79 52 73 53 75 54 29 55 78 56 72 57
REMARK SMILES IDX 71 58 30 60 60 61 41 62 59 63 42 64 45 65 58 66 76 67 43 68
REMARK SMILES IDX 44 69 57 71 77 72 46 73 31 74 32 75 40 76 33 77 39 78 34 79
REMARK SMILES IDX 35 80 36 81 37 82 38 83 61 84 62 85 70 86 63 87 69 88 64 89
REMARK SMILES IDX 65 90 66 91 67 92 68 93 47 94 48 95 56 96 49 97 55 98 50 99
REMARK SMILES IDX 51 100 52 101 53 102 54 103
REMARK H PARENT 12 7 7 11 4 19 86 28 19 40 75 59 45 70
REMARK Flexibility Score: inf
ROOT
ATOM      1  C   UNL     1      -7.509   2.849   1.468  1.00  0.00     0.002 C 
ENDROOT
BRANCH   1   2
ATOM      2  C   UNL     1      -6.068   3.372   1.464  1.00  0.00     0.021 C 
BRANCH   2   3
ATOM      3  C   UNL     1      -5.270   2.979   2.711  1.00  0.00     0.116 C 
BRANCH   3   4
ATOM      4  N   UNL     1      -4.921   1.578   2.624  1.00  0.00    -0.351 N 
ATOM      5  C   UNL     1      -3.759   1.038   2.145  1.00  0.00     0.283 C 
ATOM      6  O   UNL     1      -3.837  -0.096   1.655  1.00  0.00    -0.268 OA
ATOM      7  H   UNL     1      -5.597   0.939   2.946  1.00  0.00     0.163 HD
BRANCH   5   8
ATOM      8  C   UNL     1      -2.411   1.825   2.281  1.00  0.00     0.305 C 
BRANCH   8   9
ATOM      9  N   UNL     1      -2.032   2.496   1.006  1.00  0.00    -0.317 N 
ATOM     10  C   UNL     1      -2.516   3.853   0.844  1.00  0.00     0.334 C 
ATOM     11  H   UNL     1      -1.025   2.560   1.158  1.00  0.00     0.349 HD
BRANCH   9  12
ATOM     12  C   UNL     1      -2.150   1.719  -0.237  1.00  0.00     0.339 C 
BRANCH  12  13
ATOM     13  C   UNL     1      -0.994   0.799  -0.469  1.00  0.00     0.161 A 
ATOM     14  C   UNL     1       2.445  -0.057  -0.676  1.00  0.00     0.068 C 
ATOM     15  C   UNL     1       0.968  -0.050  -0.705  1.00  0.00     0.056 A 
ATOM     16  C   UNL     1       0.089  -1.106  -0.789  1.00  0.00     0.107 A 
ATOM     17  N   UNL     1       0.279   1.131  -0.587  1.00  0.00    -0.233 NA
ATOM     18  N   UNL     1      -1.151  -0.558  -0.600  1.00  0.00    -0.344 N 
ATOM     19  H   UNL     1      -2.003  -1.050  -0.563  1.00  0.00     0.167 HD
ENDBRANCH  12  13
ENDBRANCH   9  12
ENDBRANCH   8   9
BRANCH   8  20
ATOM     20  C   UNL     1      -1.281   0.925   2.817  1.00  0.00     0.019 A 
ATOM     21  C   UNL     1      -1.540  -0.263   3.514  1.00  0.00     0.012 A 
ATOM     22  C   UNL     1       0.064   1.261   2.600  1.00  0.00     0.012 A 
ATOM     23  C   UNL     1      -0.528  -1.201   3.708  1.00  0.00     0.027 A 
ATOM     24  C   UNL     1       1.072   0.310   2.776  1.00  0.00     0.027 A 
ATOM     25  C   UNL     1       0.741  -0.978   3.185  1.00  0.00     0.042 A 
BRANCH  25  26
ATOM     26  N   UNL     1       1.692  -1.999   3.010  1.00  0.00    -0.308 N 
ATOM     27  C   UNL     1       1.559  -3.355   3.034  1.00  0.00     0.321 C 
ATOM     28  H   UNL     1       2.608  -1.680   2.841  1.00  0.00     0.171 HD
ATOM     29  O   UNL     1       2.555  -4.040   3.280  1.00  0.00    -0.248 OA
ATOM     30  N   UNL     1       0.346  -3.932   2.784  1.00  0.00    -0.325 N 
ATOM     31  C   UNL     1      -0.601  -3.582   1.741  1.00  0.00     0.121 C 
ATOM     32  C   UNL     1       0.011  -5.229   3.322  1.00  0.00     0.121 C 
ATOM     33  C   UNL     1      -1.906  -4.160   2.254  1.00  0.00     0.023 C 
ATOM     34  C   UNL     1      -1.477  -5.414   3.019  1.00  0.00     0.023 C 
ENDBRANCH  25  26
ENDBRANCH   8  20
ENDBRANCH   5   8
ENDBRANCH   3   4
ENDBRANCH   2   3
ENDBRANCH   1   2
BRANCH   1  35
ATOM     35  C   UNL     1      -8.381   3.394   2.602  1.00  0.00     0.002 C 
BRANCH  35  36
ATOM     36  C   UNL     1      -8.412   4.920   2.706  1.00  0.00     0.021 C 
BRANCH  36  37
ATOM     37  C   UNL     1      -8.854   5.628   1.428  1.00  0.00     0.116 C 
BRANCH  37  38
ATOM     38  N   UNL     1     -10.213   5.266   1.056  1.00  0.00    -0.352 N 
ATOM     39  C   UNL     1     -11.317   6.070   0.943  1.00  0.00     0.251 C 
ATOM     40  H   UNL     1     -10.359   4.313   0.859  1.00  0.00     0.163 HD
ATOM     41  O   UNL     1     -12.438   5.568   0.862  1.00  0.00    -0.269 OA
BRANCH  39  42
ATOM     42  C   UNL     1     -11.155   7.537   0.930  1.00  0.00     0.039 A 
ATOM     43  C   UNL     1     -11.999   8.322   1.717  1.00  0.00     0.014 A 
ATOM     44  C   UNL     1     -10.166   8.133   0.141  1.00  0.00     0.014 A 
ATOM     45  C   UNL     1     -11.816   9.706   1.753  1.00  0.00     0.010 A 
ATOM     46  C   UNL     1      -9.937   9.502   0.237  1.00  0.00     0.010 A 
ATOM     47  C   UNL     1     -10.764  10.304   1.038  1.00  0.00    -0.014 A 
BRANCH  47  48
ATOM     48  C   UNL     1     -10.516  11.766   1.117  1.00  0.00     0.031 A 
ATOM     49  C   UNL     1     -10.653  12.624  -0.112  1.00  0.00     0.074 A 
ATOM     50  C   UNL     1     -10.114  12.311   2.283  1.00  0.00     0.049 A 
ATOM     51  N   UNL     1     -10.437  13.907  -0.249  1.00  0.00    -0.248 NA
ATOM     52  C   UNL     1     -11.063  11.950  -1.355  1.00  0.00     0.031 C 
ATOM     53  C   UNL     1      -9.906  11.578   3.534  1.00  0.00     0.029 A 
ATOM     54  N   UNL     1      -9.805  13.609   2.605  1.00  0.00    -0.354 N 
ATOM     55  C   UNL     1     -10.672  14.190  -1.589  1.00  0.00     0.074 A 
ATOM     56  C   UNL     1     -10.994  12.938  -2.236  1.00  0.00     0.031 C 
ATOM     57  C   UNL     1      -9.533  12.440   4.493  1.00  0.00     0.029 A 
ATOM     58  C   UNL     1      -9.432  13.778   3.918  1.00  0.00     0.049 A 
ATOM     59  H   UNL     1      -9.845  14.349   1.957  1.00  0.00     0.167 HD
ATOM     60  C   UNL     1     -10.642  15.388  -2.221  1.00  0.00     0.031 A 
ATOM     61  C   UNL     1      -9.044  14.883   4.584  1.00  0.00     0.031 A 
ATOM     62  C   UNL     1     -10.328  16.633  -1.571  1.00  0.00     0.049 A 
ATOM     63  C   UNL     1      -8.998  16.198   3.854  1.00  0.00     0.074 A 
ATOM     64  C   UNL     1     -10.326  17.907  -2.111  1.00  0.00     0.029 A 
ATOM     65  N   UNL     1      -9.956  16.761  -0.242  1.00  0.00    -0.354 N 
ATOM     66  N   UNL     1      -9.295  16.456   2.603  1.00  0.00    -0.248 NA
ATOM     67  C   UNL     1      -8.575  17.373   4.629  1.00  0.00     0.031 C 
ATOM     68  C   UNL     1      -9.894  18.798  -1.124  1.00  0.00     0.029 A 
ATOM     69  C   UNL     1      -9.691  18.089   0.049  1.00  0.00     0.049 A 
ATOM     70  H   UNL     1      -9.889  16.018   0.401  1.00  0.00     0.167 HD
ATOM     71  C   UNL     1      -9.118  17.827   2.447  1.00  0.00     0.074 A 
ATOM     72  C   UNL     1      -8.707  18.344   3.737  1.00  0.00     0.031 C 
ATOM     73  C   UNL     1      -9.280  18.588   1.337  1.00  0.00     0.031 A 
BRANCH  60  74
ATOM     74  C   UNL     1     -10.954  15.409  -3.695  1.00  0.00    -0.014 A 
ATOM     75  C   UNL     1     -12.253  15.147  -4.168  1.00  0.00     0.010 A 
ATOM     76  C   UNL     1      -9.946  15.741  -4.619  1.00  0.00     0.010 A 
ATOM     77  C   UNL     1     -12.529  15.177  -5.537  1.00  0.00     0.020 A 
ATOM     78  C   UNL     1     -10.225  15.802  -5.987  1.00  0.00     0.020 A 
ATOM     79  C   UNL     1     -11.512  15.504  -6.439  1.00  0.00     0.054 A 
BRANCH  79  80
ATOM     80  S   UNL     1     -11.907  15.562  -8.208  1.00  0.00     0.124 S 
ATOM     81  O   UNL     1     -12.078  14.146  -8.524  1.00  0.00    -0.237 OA
ATOM     82  O   UNL     1     -13.127  16.363  -8.237  1.00  0.00    -0.237 OA
ATOM     83  O   UNL     1     -10.734  16.195  -8.806  1.00  0.00    -0.744 OA
ENDBRANCH  79  80
ENDBRANCH  60  74
BRANCH  61  84
ATOM     84  C   UNL     1      -8.674  14.794   6.024  1.00  0.00    -0.014 A 
ATOM     85  C   UNL     1      -9.487  15.380   7.010  1.00  0.00     0.010 A 
ATOM     86  C   UNL     1      -7.505  14.116   6.417  1.00  0.00     0.010 A 
ATOM     87  C   UNL     1      -9.129  15.308   8.359  1.00  0.00     0.020 A 
ATOM     88  C   UNL     1      -7.160  14.015   7.768  1.00  0.00     0.020 A 
ATOM     89  C   UNL     1      -7.968  14.623   8.729  1.00  0.00     0.054 A 
BRANCH  89  90
ATOM     90  S   UNL     1      -7.547  14.503  10.490  1.00  0.00     0.124 S 
ATOM     91  O   UNL     1      -7.110  15.862  10.791  1.00  0.00    -0.237 OA
ATOM     92  O   UNL     1      -8.815  14.097  11.090  1.00  0.00    -0.237 OA
ATOM     93  O   UNL     1      -6.498  13.486  10.521  1.00  0.00    -0.744 OA
ENDBRANCH  89  90
ENDBRANCH  61  84
BRANCH  73  94
ATOM     94  C   UNL     1      -9.040  20.069   1.469  1.00  0.00    -0.014 A 
ATOM     95  C   UNL     1      -7.743  20.586   1.632  1.00  0.00     0.010 A 
ATOM     96  C   UNL     1     -10.126  20.960   1.369  1.00  0.00     0.010 A 
ATOM     97  C   UNL     1      -7.539  21.966   1.720  1.00  0.00     0.020 A 
ATOM     98  C   UNL     1      -9.922  22.340   1.425  1.00  0.00     0.020 A 
ATOM     99  C   UNL     1      -8.630  22.834   1.613  1.00  0.00     0.054 A 
BRANCH  99 100
ATOM    100  S   UNL     1      -8.330  24.622   1.679  1.00  0.00     0.124 S 
ATOM    101  O   UNL     1      -8.013  24.825   3.090  1.00  0.00    -0.237 OA
ATOM    102  O   UNL     1      -7.214  24.793   0.753  1.00  0.00    -0.237 OA
ATOM    103  O   UNL     1      -9.595  25.203   1.236  1.00  0.00    -0.744 OA
ENDBRANCH  99 100
ENDBRANCH  73  94
ENDBRANCH  47  48
ENDBRANCH  39  42
ENDBRANCH  37  38
ENDBRANCH  36  37
ENDBRANCH  35  36
ENDBRANCH   1  35
TORSDOF 21
