REMARK SMILES CN(C)C(=O)C[NH+]1CCN(c2cc(C(=O)NCCCCCCNC(=O)c3ccc(-c4c5nc(c(-c6ccc(S(=O)(=O)[O-])cc6)c6ccc([nH]6)c(-c6ccc(S(=O)(=O)[O-])cc6)c6nc(c(-c7ccc(S(=O)(=O)[O-])cc7)c7ccc4[nH]7)C=C6)C=C5)cc3)c3cc(NC(=O)c4cccc(Cl)c4)ccc3n2)CC1
REMARK SMILES IDX 19 1 18 2 17 3 16 4 14 5 15 6 13 8 11 9 12 10 102 11 101 12
REMARK SMILES IDX 86 13 100 14 87 15 99 16 88 17 10 18 7 19 8 20 104 21 9 23
REMARK SMILES IDX 103 24 6 25 4 26 1 27 2 28 3 29 5 30 89 31 90 32 91 34 92 35
REMARK SMILES IDX 93 36 98 37 94 38 96 39 95 40 97 41 20 42 21 43 22 44 23 45
REMARK SMILES IDX 24 46 25 48 26 49 27 50 85 51 28 52 84 53 29 54 30 55 31 56
REMARK SMILES IDX 78 57 32 58 83 59 77 60 79 61 33 62 82 63 76 64 75 65 34 67
REMARK SMILES IDX 64 68 45 69 63 70 46 71 49 72 62 73 80 74 47 75 48 76 61 78
REMARK SMILES IDX 81 79 50 80 35 81 36 82 44 83 37 84 43 85 38 86 39 87 40 88
REMARK SMILES IDX 41 89 42 90 65 91 66 92 74 93 67 94 73 95 68 96 69 97 70 98
REMARK SMILES IDX 71 99 72 100 51 101 52 102 60 103 53 104 59 105 54 106
REMARK SMILES IDX 55 107 56 108 57 109 58 110
REMARK H PARENT 16 7 7 22 89 33 23 47 79 66 49 77
REMARK Flexibility Score: inf
ROOT
ATOM      1  C   UNL     1      -5.155   5.260   8.241  1.00  0.00     0.002 C 
ENDROOT
BRANCH   1   2
ATOM      2  C   UNL     1      -3.976   4.299   8.480  1.00  0.00     0.021 C 
BRANCH   2   3
ATOM      3  C   UNL     1      -4.118   2.818   8.105  1.00  0.00     0.116 C 
BRANCH   3   4
ATOM      4  N   UNL     1      -4.285   2.526   6.686  1.00  0.00    -0.352 N 
ATOM      5  C   UNL     1      -3.997   1.433   5.887  1.00  0.00     0.252 C 
ATOM      6  O   UNL     1      -4.317   1.536   4.697  1.00  0.00    -0.269 OA
ATOM      7  H   UNL     1      -4.691   3.271   6.187  1.00  0.00     0.163 HD
BRANCH   5   8
ATOM      8  C   UNL     1      -3.292   0.164   6.296  1.00  0.00     0.052 A 
ATOM      9  C   UNL     1      -1.815  -1.620   5.543  1.00  0.00     0.130 A 
ATOM     10  C   UNL     1      -2.465  -0.408   5.314  1.00  0.00     0.061 A 
ATOM     11  N   UNL     1      -1.923  -2.246   6.725  1.00  0.00    -0.231 NA
ATOM     12  C   UNL     1      -2.708  -1.732   7.677  1.00  0.00     0.074 A 
ATOM     13  C   UNL     1      -3.474  -0.570   7.483  1.00  0.00     0.015 A 
ATOM     14  C   UNL     1      -2.788  -2.399   8.896  1.00  0.00     0.031 A 
ATOM     15  C   UNL     1      -4.437  -0.271   8.450  1.00  0.00     0.037 A 
ATOM     16  C   UNL     1      -3.697  -2.022   9.890  1.00  0.00     0.028 A 
ATOM     17  C   UNL     1      -4.598  -1.004   9.622  1.00  0.00     0.042 A 
BRANCH   9  18
ATOM     18  N   UNL     1      -0.995  -2.206   4.604  1.00  0.00    -0.345 N 
ATOM     19  N   UNL     1       0.751  -3.425   2.583  1.00  0.00    -0.324 N 
ATOM     20  C   UNL     1       1.098  -2.183   3.304  1.00  0.00     0.284 C 
ATOM     21  C   UNL     1      -0.074  -4.259   3.491  1.00  0.00     0.284 C 
ATOM     22  H   UNL     1       1.611  -3.913   2.332  1.00  0.00     0.348 HD
ATOM     23  C   UNL     1      -0.110  -1.375   3.809  1.00  0.00     0.179 C 
ATOM     24  C   UNL     1      -1.304  -3.566   4.143  1.00  0.00     0.179 C 
BRANCH  19  25
ATOM     25  C   UNL     1       0.067  -3.180   1.291  1.00  0.00     0.363 C 
BRANCH  25  26
ATOM     26  C   UNL     1       0.959  -2.360   0.331  1.00  0.00     0.277 C 
ATOM     27  C   UNL     1       1.632  -0.212  -0.623  1.00  0.00     0.146 C 
ATOM     28  N   UNL     1       0.650  -1.023   0.081  1.00  0.00    -0.344 N 
ATOM     29  C   UNL     1      -0.596  -0.343   0.396  1.00  0.00     0.146 C 
ATOM     30  O   UNL     1       1.966  -2.881  -0.164  1.00  0.00    -0.268 OA
ENDBRANCH  25  26
ENDBRANCH  19  25
ENDBRANCH   9  18
BRANCH  17  31
ATOM     31  N   UNL     1      -5.640  -0.735  10.529  1.00  0.00    -0.322 N 
ATOM     32  C   UNL     1      -6.840  -0.078  10.311  1.00  0.00     0.255 C 
ATOM     33  H   UNL     1      -5.496  -1.059  11.447  1.00  0.00     0.170 HD
ATOM     34  O   UNL     1      -7.483   0.388  11.249  1.00  0.00    -0.269 OA
BRANCH  32  35
ATOM     35  C   UNL     1      -7.381   0.061   8.932  1.00  0.00     0.041 A 
ATOM     36  C   UNL     1      -7.744   1.336   8.487  1.00  0.00     0.014 A 
ATOM     37  C   UNL     1      -7.399  -1.020   8.044  1.00  0.00     0.034 A 
ATOM     38  C   UNL     1      -7.996   1.562   7.134  1.00  0.00     0.002 A 
ATOM     39  C   UNL     1      -7.666  -0.788   6.695  1.00  0.00     0.041 A 
ATOM     40  C   UNL     1      -7.938   0.500   6.233  1.00  0.00     0.020 A 
ATOM     41  Cl  UNL     1      -7.599  -2.093   5.577  1.00  0.00    -0.084 Cl
ENDBRANCH  32  35
ENDBRANCH  17  31
ENDBRANCH   5   8
ENDBRANCH   3   4
ENDBRANCH   2   3
ENDBRANCH   1   2
BRANCH   1  42
ATOM     42  C   UNL     1      -6.543   4.976   8.835  1.00  0.00     0.002 C 
BRANCH  42  43
ATOM     43  C   UNL     1      -6.659   4.383  10.240  1.00  0.00     0.021 C 
BRANCH  43  44
ATOM     44  C   UNL     1      -6.100   5.188  11.405  1.00  0.00     0.116 C 
BRANCH  44  45
ATOM     45  N   UNL     1      -6.921   6.332  11.759  1.00  0.00    -0.352 N 
ATOM     46  C   UNL     1      -7.495   6.686  12.960  1.00  0.00     0.251 C 
ATOM     47  H   UNL     1      -7.097   6.957  11.019  1.00  0.00     0.163 HD
ATOM     48  O   UNL     1      -8.281   7.633  12.970  1.00  0.00    -0.269 OA
BRANCH  46  49
ATOM     49  C   UNL     1      -7.199   5.974  14.235  1.00  0.00     0.039 A 
ATOM     50  C   UNL     1      -8.201   5.918  15.216  1.00  0.00     0.014 A 
ATOM     51  C   UNL     1      -5.936   5.455  14.534  1.00  0.00     0.014 A 
ATOM     52  C   UNL     1      -7.940   5.353  16.471  1.00  0.00     0.010 A 
ATOM     53  C   UNL     1      -5.697   4.821  15.757  1.00  0.00     0.010 A 
ATOM     54  C   UNL     1      -6.681   4.803  16.755  1.00  0.00    -0.014 A 
BRANCH  54  55
ATOM     55  C   UNL     1      -6.346   4.312  18.119  1.00  0.00     0.031 A 
ATOM     56  C   UNL     1      -5.332   5.059  18.952  1.00  0.00     0.074 A 
ATOM     57  C   UNL     1      -6.926   3.199  18.608  1.00  0.00     0.049 A 
ATOM     58  N   UNL     1      -4.893   4.795  20.157  1.00  0.00    -0.248 NA
ATOM     59  C   UNL     1      -4.711   6.244  18.338  1.00  0.00     0.031 C 
ATOM     60  C   UNL     1      -7.894   2.364  17.895  1.00  0.00     0.029 A 
ATOM     61  N   UNL     1      -6.785   2.579  19.826  1.00  0.00    -0.354 N 
ATOM     62  C   UNL     1      -3.934   5.766  20.433  1.00  0.00     0.074 A 
ATOM     63  C   UNL     1      -3.820   6.593  19.253  1.00  0.00     0.031 C 
ATOM     64  C   UNL     1      -8.279   1.356  18.697  1.00  0.00     0.029 A 
ATOM     65  C   UNL     1      -7.573   1.461  19.971  1.00  0.00     0.049 A 
ATOM     66  H   UNL     1      -6.178   2.904  20.529  1.00  0.00     0.167 HD
ATOM     67  C   UNL     1      -3.227   5.968  21.571  1.00  0.00     0.031 A 
ATOM     68  C   UNL     1      -7.718   0.622  21.015  1.00  0.00     0.031 A 
ATOM     69  C   UNL     1      -3.359   5.162  22.755  1.00  0.00     0.049 A 
ATOM     70  C   UNL     1      -6.953   0.887  22.284  1.00  0.00     0.074 A 
ATOM     71  C   UNL     1      -2.725   5.312  23.977  1.00  0.00     0.029 A 
ATOM     72  N   UNL     1      -4.191   4.059  22.869  1.00  0.00    -0.354 N 
ATOM     73  N   UNL     1      -6.089   1.840  22.541  1.00  0.00    -0.248 NA
ATOM     74  C   UNL     1      -7.200  -0.024  23.410  1.00  0.00     0.031 C 
ATOM     75  C   UNL     1      -3.152   4.279  24.820  1.00  0.00     0.029 A 
ATOM     76  C   UNL     1      -4.083   3.513  24.136  1.00  0.00     0.049 A 
ATOM     77  H   UNL     1      -4.773   3.715  22.153  1.00  0.00     0.167 HD
ATOM     78  C   UNL     1      -5.706   1.657  23.865  1.00  0.00     0.074 A 
ATOM     79  C   UNL     1      -6.445   0.512  24.359  1.00  0.00     0.031 C 
ATOM     80  C   UNL     1      -4.824   2.372  24.607  1.00  0.00     0.031 A 
BRANCH  67  81
ATOM     81  C   UNL     1      -2.244   7.110  21.583  1.00  0.00    -0.014 A 
ATOM     82  C   UNL     1      -2.685   8.447  21.599  1.00  0.00     0.010 A 
ATOM     83  C   UNL     1      -0.862   6.847  21.593  1.00  0.00     0.010 A 
ATOM     84  C   UNL     1      -1.764   9.498  21.575  1.00  0.00     0.020 A 
ATOM     85  C   UNL     1       0.063   7.896  21.596  1.00  0.00     0.020 A 
ATOM     86  C   UNL     1      -0.395   9.215  21.566  1.00  0.00     0.054 A 
BRANCH  86  87
ATOM     87  S   UNL     1       0.782  10.596  21.540  1.00  0.00     0.124 S 
ATOM     88  O   UNL     1       0.708  11.027  20.145  1.00  0.00    -0.237 OA
ATOM     89  O   UNL     1       0.213  11.524  22.514  1.00  0.00    -0.237 OA
ATOM     90  O   UNL     1       2.046   9.981  21.935  1.00  0.00    -0.744 OA
ENDBRANCH  86  87
ENDBRANCH  67  81
BRANCH  68  91
ATOM     91  C   UNL     1      -8.662  -0.525  20.919  1.00  0.00    -0.014 A 
ATOM     92  C   UNL     1      -9.890  -0.497  21.602  1.00  0.00     0.010 A 
ATOM     93  C   UNL     1      -8.347  -1.643  20.125  1.00  0.00     0.010 A 
ATOM     94  C   UNL     1     -10.782  -1.569  21.503  1.00  0.00     0.020 A 
ATOM     95  C   UNL     1      -9.246  -2.707  20.005  1.00  0.00     0.020 A 
ATOM     96  C   UNL     1     -10.455  -2.667  20.703  1.00  0.00     0.054 A 
BRANCH  96  97
ATOM     97  S   UNL     1     -11.655  -4.019  20.534  1.00  0.00     0.124 S 
ATOM     98  O   UNL     1     -11.486  -4.734  21.794  1.00  0.00    -0.237 OA
ATOM     99  O   UNL     1     -12.919  -3.305  20.375  1.00  0.00    -0.237 OA
ATOM    100  O   UNL     1     -11.198  -4.731  19.342  1.00  0.00    -0.744 OA
ENDBRANCH  96  97
ENDBRANCH  68  91
BRANCH  80 101
ATOM    101  C   UNL     1      -4.632   1.951  26.038  1.00  0.00    -0.014 A 
ATOM    102  C   UNL     1      -3.906   0.792  26.362  1.00  0.00     0.010 A 
ATOM    103  C   UNL     1      -5.158   2.746  27.072  1.00  0.00     0.010 A 
ATOM    104  C   UNL     1      -3.744   0.412  27.697  1.00  0.00     0.020 A 
ATOM    105  C   UNL     1      -4.979   2.381  28.408  1.00  0.00     0.020 A 
ATOM    106  C   UNL     1      -4.288   1.206  28.712  1.00  0.00     0.054 A 
BRANCH 106 107
ATOM    107  S   UNL     1      -4.050   0.707  30.439  1.00  0.00     0.124 S 
ATOM    108  O   UNL     1      -5.044  -0.353  30.588  1.00  0.00    -0.237 OA
ATOM    109  O   UNL     1      -2.656   0.269  30.460  1.00  0.00    -0.237 OA
ATOM    110  O   UNL     1      -4.323   1.929  31.192  1.00  0.00    -0.744 OA
ENDBRANCH 106 107
ENDBRANCH  80 101
ENDBRANCH  54  55
ENDBRANCH  46  49
ENDBRANCH  44  45
ENDBRANCH  43  44
ENDBRANCH  42  43
ENDBRANCH   1  42
TORSDOF 21
