REMARK SMILES CC1(C)O[C@H]2C[C@H]3[C@@H]4CCC5=CC(=O)C=C[C@]5(C)[C@@]4(F)[C@H](O)C[C@@]3(C)[C@@]2(C(=O)NCCCCCCNC(=O)c2ccc(-c3c4nc(c(-c5ccc(S(=O)(=O)[O-])cc5)c5ccc([nH]5)c(-c5ccc(S(=O)(=O)[O-])cc5)c5nc(c(-c6ccc(S(=O)(=O)[O-])cc6)c6ccc3[nH]6)C=C5)C=C4)cc2)O1
REMARK SMILES IDX 33 1 32 2 31 3 30 4 29 5 27 6 28 7 26 9 1 10 2 11 3 12 4 13
REMARK SMILES IDX 99 14 5 15 6 16 24 17 7 18 23 19 25 20 8 21 21 22 9 23 19 24
REMARK SMILES IDX 10 25 17 26 20 27 11 28 16 29 18 30 12 31 15 32 13 33 14 34
REMARK SMILES IDX 22 35 34 37 35 38 36 39 37 40 38 42 39 43 40 44 98 45 41 46
REMARK SMILES IDX 97 47 42 48 43 49 44 50 91 51 45 52 96 53 90 54 92 55 46 56
REMARK SMILES IDX 95 57 89 58 88 59 47 61 77 62 58 63 76 64 59 65 62 66 75 67
REMARK SMILES IDX 93 68 60 69 61 70 74 72 94 73 63 74 48 75 49 76 57 77 50 78
REMARK SMILES IDX 56 79 51 80 52 81 53 82 54 83 55 84 78 85 79 86 87 87 80 88
REMARK SMILES IDX 86 89 81 90 82 91 83 92 84 93 85 94 64 95 65 96 73 97 66 98
REMARK SMILES IDX 72 99 67 100 68 101 69 102 70 103 71 104
REMARK H PARENT 29 8 22 36 36 41 92 60 62 71
REMARK Flexibility Score: inf
ROOT
ATOM      1  C   UNL     1       4.986   7.010  -1.984  1.00  0.00     0.002 C 
ENDROOT
BRANCH   1   2
ATOM      2  C   UNL     1       4.873   5.780  -2.899  1.00  0.00     0.002 C 
BRANCH   2   3
ATOM      3  C   UNL     1       4.154   4.555  -2.333  1.00  0.00     0.021 C 
BRANCH   3   4
ATOM      4  C   UNL     1       2.777   4.812  -1.741  1.00  0.00     0.116 C 
BRANCH   4   5
ATOM      5  N   UNL     1       1.617   4.821  -2.605  1.00  0.00    -0.353 N 
ATOM      6  C   UNL     1       0.330   4.436  -2.263  1.00  0.00     0.255 C 
ATOM      7  O   UNL     1      -0.588   4.721  -3.035  1.00  0.00    -0.272 OA
ATOM      8  H   UNL     1       1.755   5.131  -3.529  1.00  0.00     0.163 HD
BRANCH   6   9
ATOM      9  C   UNL     1       0.079   3.625  -0.958  1.00  0.00     0.181 C 
ATOM     10  C   UNL     1       0.486   0.127  -0.566  1.00  0.00     0.075 C 
ATOM     11  C   UNL     1       0.167   1.340  -1.450  1.00  0.00     0.164 C 
ATOM     12  C   UNL     1       0.483   1.002  -2.900  1.00  0.00     0.075 C 
ATOM     13  O   UNL     1      -1.228   1.631  -1.352  1.00  0.00    -0.344 OA
ATOM     14  O   UNL     1       0.961   2.468  -1.026  1.00  0.00    -0.331 OA
ATOM     15  C   UNL     1      -1.351   2.955  -0.826  1.00  0.00     0.164 C 
ATOM     16  C   UNL     1      -1.679   2.853   0.748  1.00  0.00     0.040 C 
ATOM     17  C   UNL     1       0.135   4.402   0.431  1.00  0.00     0.014 C 
ATOM     18  C   UNL     1      -0.308   3.210   1.348  1.00  0.00     0.008 C 
ATOM     19  C   UNL     1       1.345   5.088   1.063  1.00  0.00     0.046 C 
ATOM     20  C   UNL     1      -0.889   5.589   0.325  1.00  0.00     0.015 C 
ATOM     21  C   UNL     1       0.727   2.522   2.322  1.00  0.00     0.035 C 
ATOM     22  C   UNL     1       2.444   4.198   1.595  1.00  0.00     0.154 C 
ATOM     23  C   UNL     1       0.147   1.671   3.442  1.00  0.00     0.012 C 
ATOM     24  C   UNL     1       1.967   3.326   2.779  1.00  0.00     0.152 C 
ATOM     25  C   UNL     1       1.184   0.594   3.800  1.00  0.00     0.032 C 
ATOM     26  C   UNL     1       3.112   2.344   3.306  1.00  0.00     0.044 C 
ATOM     27  F   UNL     1       1.567   4.155   3.790  1.00  0.00    -0.239 F 
ATOM     28  C   UNL     1       2.562   1.139   4.107  1.00  0.00    -0.053 C 
ATOM     29  C   UNL     1       4.157   3.070   4.155  1.00  0.00    -0.009 C 
ATOM     30  C   UNL     1       3.912   1.734   2.106  1.00  0.00     0.024 C 
ATOM     31  C   UNL     1       3.341   0.498   5.000  1.00  0.00     0.052 C 
ATOM     32  C   UNL     1       4.927   2.442   5.057  1.00  0.00     0.048 C 
ATOM     33  C   UNL     1       4.694   1.008   5.336  1.00  0.00     0.178 C 
ATOM     34  O   UNL     1       5.536   0.296   5.847  1.00  0.00    -0.290 OA
BRANCH  22  35
ATOM     35  O   UNL     1       3.547   5.045   1.913  1.00  0.00    -0.390 OA
ATOM     36  H   UNL     1       3.275   5.695   2.580  1.00  0.00     0.211 HD
ENDBRANCH  22  35
ENDBRANCH   6   9
ENDBRANCH   4   5
ENDBRANCH   3   4
ENDBRANCH   2   3
ENDBRANCH   1   2
BRANCH   1  37
ATOM     37  C   UNL     1       5.644   6.810  -0.614  1.00  0.00     0.021 C 
BRANCH  37  38
ATOM     38  C   UNL     1       7.064   6.247  -0.616  1.00  0.00     0.116 C 
BRANCH  38  39
ATOM     39  N   UNL     1       7.974   7.021  -1.445  1.00  0.00    -0.352 N 
ATOM     40  C   UNL     1       9.206   7.557  -1.164  1.00  0.00     0.251 C 
ATOM     41  H   UNL     1       7.653   7.189  -2.360  1.00  0.00     0.163 HD
ATOM     42  O   UNL     1       9.728   8.313  -1.981  1.00  0.00    -0.269 OA
BRANCH  40  43
ATOM     43  C   UNL     1       9.906   7.256   0.107  1.00  0.00     0.039 A 
ATOM     44  C   UNL     1      10.609   8.285   0.743  1.00  0.00     0.014 A 
ATOM     45  C   UNL     1       9.921   5.969   0.652  1.00  0.00     0.014 A 
ATOM     46  C   UNL     1      11.277   8.037   1.945  1.00  0.00     0.010 A 
ATOM     47  C   UNL     1      10.530   5.740   1.887  1.00  0.00     0.010 A 
ATOM     48  C   UNL     1      11.218   6.769   2.546  1.00  0.00    -0.014 A 
BRANCH  48  49
ATOM     49  C   UNL     1      11.869   6.513   3.859  1.00  0.00     0.031 A 
ATOM     50  C   UNL     1      13.010   5.535   3.969  1.00  0.00     0.074 A 
ATOM     51  C   UNL     1      11.409   7.137   4.963  1.00  0.00     0.049 A 
ATOM     52  N   UNL     1      13.681   5.167   5.031  1.00  0.00    -0.248 NA
ATOM     53  C   UNL     1      13.442   4.870   2.728  1.00  0.00     0.031 C 
ATOM     54  C   UNL     1      10.293   8.085   4.997  1.00  0.00     0.029 A 
ATOM     55  N   UNL     1      11.824   7.070   6.270  1.00  0.00    -0.354 N 
ATOM     56  C   UNL     1      14.608   4.229   4.590  1.00  0.00     0.074 A 
ATOM     57  C   UNL     1      14.376   4.042   3.174  1.00  0.00     0.031 C 
ATOM     58  C   UNL     1      10.136   8.537   6.252  1.00  0.00     0.029 A 
ATOM     59  C   UNL     1      11.108   7.881   7.120  1.00  0.00     0.049 A 
ATOM     60  H   UNL     1      12.565   6.495   6.571  1.00  0.00     0.167 HD
ATOM     61  C   UNL     1      15.582   3.599   5.291  1.00  0.00     0.031 A 
ATOM     62  C   UNL     1      11.217   8.073   8.450  1.00  0.00     0.031 A 
ATOM     63  C   UNL     1      15.812   3.785   6.700  1.00  0.00     0.049 A 
ATOM     64  C   UNL     1      12.282   7.330   9.212  1.00  0.00     0.074 A 
ATOM     65  C   UNL     1      16.792   3.215   7.495  1.00  0.00     0.029 A 
ATOM     66  N   UNL     1      15.056   4.603   7.525  1.00  0.00    -0.354 N 
ATOM     67  N   UNL     1      13.183   6.488   8.764  1.00  0.00    -0.248 NA
ATOM     68  C   UNL     1      12.351   7.573  10.660  1.00  0.00     0.031 C 
ATOM     69  C   UNL     1      16.596   3.649   8.810  1.00  0.00     0.029 A 
ATOM     70  C   UNL     1      15.535   4.539   8.823  1.00  0.00     0.049 A 
ATOM     71  H   UNL     1      14.291   5.149   7.232  1.00  0.00     0.167 HD
ATOM     72  C   UNL     1      13.947   6.129   9.869  1.00  0.00     0.074 A 
ATOM     73  C   UNL     1      13.413   6.858  11.001  1.00  0.00     0.031 C 
ATOM     74  C   UNL     1      14.997   5.274   9.940  1.00  0.00     0.031 A 
BRANCH  61  75
ATOM     75  C   UNL     1      16.480   2.649   4.540  1.00  0.00    -0.014 A 
ATOM     76  C   UNL     1      17.413   3.128   3.600  1.00  0.00     0.010 A 
ATOM     77  C   UNL     1      16.433   1.269   4.811  1.00  0.00     0.010 A 
ATOM     78  C   UNL     1      18.253   2.243   2.920  1.00  0.00     0.020 A 
ATOM     79  C   UNL     1      17.294   0.383   4.154  1.00  0.00     0.020 A 
ATOM     80  C   UNL     1      18.188   0.875   3.202  1.00  0.00     0.054 A 
BRANCH  80  81
ATOM     81  S   UNL     1      19.315  -0.244   2.325  1.00  0.00     0.124 S 
ATOM     82  O   UNL     1      18.759  -0.235   0.975  1.00  0.00    -0.237 OA
ATOM     83  O   UNL     1      20.607   0.421   2.476  1.00  0.00    -0.237 OA
ATOM     84  O   UNL     1      19.180  -1.508   3.046  1.00  0.00    -0.744 OA
ENDBRANCH  80  81
ENDBRANCH  61  75
BRANCH  62  85
ATOM     85  C   UNL     1      10.305   9.020   9.150  1.00  0.00    -0.014 A 
ATOM     86  C   UNL     1      10.803  10.214   9.704  1.00  0.00     0.010 A 
ATOM     87  C   UNL     1       8.936   8.725   9.286  1.00  0.00     0.010 A 
ATOM     88  C   UNL     1       9.957  11.076  10.407  1.00  0.00     0.020 A 
ATOM     89  C   UNL     1       8.081   9.601   9.960  1.00  0.00     0.020 A 
ATOM     90  C   UNL     1       8.601  10.763  10.532  1.00  0.00     0.054 A 
BRANCH  90  91
ATOM     91  S   UNL     1       7.517  11.909  11.429  1.00  0.00     0.124 S 
ATOM     92  O   UNL     1       7.917  11.683  12.814  1.00  0.00    -0.237 OA
ATOM     93  O   UNL     1       7.889  13.203  10.864  1.00  0.00    -0.237 OA
ATOM     94  O   UNL     1       6.173  11.449  11.082  1.00  0.00    -0.744 OA
ENDBRANCH  90  91
ENDBRANCH  62  85
BRANCH  74  95
ATOM     95  C   UNL     1      15.671   5.114  11.279  1.00  0.00    -0.014 A 
ATOM     96  C   UNL     1      15.040   4.444  12.342  1.00  0.00     0.010 A 
ATOM     97  C   UNL     1      16.975   5.609  11.460  1.00  0.00     0.010 A 
ATOM     98  C   UNL     1      15.686   4.307  13.573  1.00  0.00     0.020 A 
ATOM     99  C   UNL     1      17.637   5.447  12.679  1.00  0.00     0.020 A 
ATOM    100  C   UNL     1      16.981   4.811  13.734  1.00  0.00     0.054 A 
BRANCH 100 101
ATOM    101  S   UNL     1      17.811   4.590  15.332  1.00  0.00     0.124 S 
ATOM    102  O   UNL     1      17.101   5.546  16.178  1.00  0.00    -0.237 OA
ATOM    103  O   UNL     1      17.563   3.182  15.630  1.00  0.00    -0.237 OA
ATOM    104  O   UNL     1      19.204   4.926  15.049  1.00  0.00    -0.744 OA
ENDBRANCH 100 101
ENDBRANCH  74  95
ENDBRANCH  48  49
ENDBRANCH  40  43
ENDBRANCH  38  39
ENDBRANCH  37  38
ENDBRANCH   1  37
TORSDOF 17
