REMARK SMILES Cc1cc(Br)ccc1NS(=O)(=O)c1ccc(C(=O)NCCCCCCNC(=O)c2ccc(-c3c4nc(c(-c5ccc(S(=O)(=O)[O-])cc5)c5ccc([nH]5)c(-c5ccc(S(=O)(=O)[O-])cc5)c5nc(c(-c6ccc(S(=O)(=O)[O-])cc6)c6ccc3[nH]6)C=C5)C=C4)cc2)cc1
REMARK SMILES IDX 22 1 21 2 20 3 19 4 17 5 18 6 16 8 13 9 14 10 90 11 15 12
REMARK SMILES IDX 89 13 10 14 11 15 12 16 9 17 8 19 1 20 2 21 3 22 4 23 7 24
REMARK SMILES IDX 5 25 6 26 23 27 24 28 25 29 26 30 27 31 28 33 29 34 30 35
REMARK SMILES IDX 88 36 31 37 87 38 32 39 33 40 34 41 81 42 35 43 86 44 80 45
REMARK SMILES IDX 82 46 36 47 85 48 79 49 78 50 37 52 67 53 48 54 66 55 49 56
REMARK SMILES IDX 52 57 65 58 83 59 50 60 51 61 64 63 84 64 53 65 38 66 39 67
REMARK SMILES IDX 47 68 40 69 46 70 41 71 42 72 43 73 44 74 45 75 68 76 69 77
REMARK SMILES IDX 77 78 70 79 76 80 71 81 72 82 73 83 74 84 75 85 54 86 55 87
REMARK SMILES IDX 63 88 56 89 62 90 57 91 58 92 59 93 60 94 61 95
REMARK H PARENT 19 7 9 18 26 32 82 51 52 62
REMARK Flexibility Score: inf
ROOT
ATOM      1  C   UNL     1      -0.743  10.665   0.915  1.00  0.00     0.002 C 
ENDROOT
BRANCH   1   2
ATOM      2  C   UNL     1      -1.750   9.511   0.820  1.00  0.00     0.021 C 
BRANCH   2   3
ATOM      3  C   UNL     1      -1.469   8.570  -0.349  1.00  0.00     0.116 C 
BRANCH   3   4
ATOM      4  N   UNL     1      -0.309   7.757  -0.041  1.00  0.00    -0.352 N 
ATOM      5  C   UNL     1      -0.216   6.418   0.208  1.00  0.00     0.251 C 
ATOM      6  O   UNL     1       0.868   5.922   0.503  1.00  0.00    -0.269 OA
ATOM      7  H   UNL     1       0.544   8.247  -0.005  1.00  0.00     0.163 HD
BRANCH   5   8
ATOM      8  C   UNL     1      -1.389   5.533   0.051  1.00  0.00     0.039 A 
ATOM      9  C   UNL     1      -3.422   3.641  -0.176  1.00  0.00     0.087 A 
ATOM     10  C   UNL     1      -2.253   3.498  -0.930  1.00  0.00     0.023 A 
ATOM     11  C   UNL     1      -3.624   4.786   0.608  1.00  0.00     0.023 A 
ATOM     12  C   UNL     1      -1.219   4.418  -0.776  1.00  0.00     0.015 A 
ATOM     13  C   UNL     1      -2.598   5.731   0.729  1.00  0.00     0.015 A 
BRANCH   9  14
ATOM     14  S   UNL     1      -4.658   2.367  -0.248  1.00  0.00     0.261 S 
ATOM     15  O   UNL     1      -4.767   1.948  -1.633  1.00  0.00    -0.201 OA
ATOM     16  O   UNL     1      -5.824   2.844   0.461  1.00  0.00    -0.201 OA
BRANCH  14  17
ATOM     17  N   UNL     1      -4.116   1.001   0.642  1.00  0.00    -0.279 N 
ATOM     18  H   UNL     1      -4.740   0.546   1.253  1.00  0.00     0.180 HD
BRANCH  17  19
ATOM     19  C   UNL     1      -2.769   0.506   0.515  1.00  0.00     0.052 A 
ATOM     20  C   UNL     1      -3.472  -1.847  -0.286  1.00  0.00     0.046 C 
ATOM     21  C   UNL     1      -2.461  -0.769   0.001  1.00  0.00    -0.026 A 
ATOM     22  C   UNL     1      -1.104  -1.141  -0.132  1.00  0.00     0.021 A 
ATOM     23  C   UNL     1      -0.082  -0.287   0.275  1.00  0.00     0.018 A 
ATOM     24  C   UNL     1      -1.729   1.284   1.040  1.00  0.00     0.028 A 
ATOM     25  Br  UNL     1       1.724  -0.793   0.048  1.00  0.00    -0.051 Br
ATOM     26  C   UNL     1      -0.391   0.916   0.888  1.00  0.00     0.018 A 
ENDBRANCH  17  19
ENDBRANCH  14  17
ENDBRANCH   9  14
ENDBRANCH   5   8
ENDBRANCH   3   4
ENDBRANCH   2   3
ENDBRANCH   1   2
BRANCH   1  27
ATOM     27  C   UNL     1      -0.710  11.580  -0.315  1.00  0.00     0.002 C 
BRANCH  27  28
ATOM     28  C   UNL     1      -2.073  12.148  -0.716  1.00  0.00     0.021 C 
BRANCH  28  29
ATOM     29  C   UNL     1      -2.737  12.978   0.376  1.00  0.00     0.116 C 
BRANCH  29  30
ATOM     30  N   UNL     1      -1.953  14.163   0.687  1.00  0.00    -0.352 N 
ATOM     31  C   UNL     1      -2.329  15.480   0.624  1.00  0.00     0.251 C 
ATOM     32  H   UNL     1      -1.029  13.998   0.983  1.00  0.00     0.163 HD
ATOM     33  O   UNL     1      -1.483  16.367   0.651  1.00  0.00    -0.269 OA
BRANCH  31  34
ATOM     34  C   UNL     1      -3.764  15.815   0.517  1.00  0.00     0.039 A 
ATOM     35  C   UNL     1      -4.170  16.790  -0.394  1.00  0.00     0.014 A 
ATOM     36  C   UNL     1      -4.702  15.156   1.318  1.00  0.00     0.014 A 
ATOM     37  C   UNL     1      -5.530  17.074  -0.534  1.00  0.00     0.010 A 
ATOM     38  C   UNL     1      -6.059  15.382   1.120  1.00  0.00     0.010 A 
ATOM     39  C   UNL     1      -6.486  16.352   0.201  1.00  0.00    -0.014 A 
BRANCH  39  40
ATOM     40  C   UNL     1      -7.938  16.601   0.027  1.00  0.00     0.031 A 
ATOM     41  C   UNL     1      -8.758  17.119   1.178  1.00  0.00     0.074 A 
ATOM     42  C   UNL     1      -8.527  16.306  -1.148  1.00  0.00     0.049 A 
ATOM     43  N   UNL     1     -10.042  17.362   1.230  1.00  0.00    -0.248 NA
ATOM     44  C   UNL     1      -8.048  17.372   2.443  1.00  0.00     0.031 C 
ATOM     45  C   UNL     1      -7.843  15.763  -2.325  1.00  0.00     0.029 A 
ATOM     46  N   UNL     1      -9.834  16.419  -1.548  1.00  0.00    -0.354 N 
ATOM     47  C   UNL     1     -10.296  17.777   2.533  1.00  0.00     0.074 A 
ATOM     48  C   UNL     1      -9.043  17.702   3.252  1.00  0.00     0.031 C 
ATOM     49  C   UNL     1      -8.730  15.627  -3.325  1.00  0.00     0.029 A 
ATOM     50  C   UNL     1     -10.050  16.026  -2.848  1.00  0.00     0.049 A 
ATOM     51  H   UNL     1     -10.551  16.750  -0.959  1.00  0.00     0.167 HD
ATOM     52  C   UNL     1     -11.462  18.199   3.076  1.00  0.00     0.031 A 
ATOM     53  C   UNL     1     -11.184  15.986  -3.574  1.00  0.00     0.031 A 
ATOM     54  C   UNL     1     -12.703  18.276   2.352  1.00  0.00     0.049 A 
ATOM     55  C   UNL     1     -12.471  16.440  -2.942  1.00  0.00     0.074 A 
ATOM     56  C   UNL     1     -13.927  18.748   2.791  1.00  0.00     0.029 A 
ATOM     57  N   UNL     1     -12.882  17.862   1.039  1.00  0.00    -0.354 N 
ATOM     58  N   UNL     1     -12.678  16.900  -1.731  1.00  0.00    -0.248 NA
ATOM     59  C   UNL     1     -13.677  16.381  -3.779  1.00  0.00     0.031 C 
ATOM     60  C   UNL     1     -14.861  18.557   1.768  1.00  0.00     0.029 A 
ATOM     61  C   UNL     1     -14.203  18.036   0.664  1.00  0.00     0.049 A 
ATOM     62  H   UNL     1     -12.173  17.499   0.460  1.00  0.00     0.167 HD
ATOM     63  C   UNL     1     -14.031  17.214  -1.671  1.00  0.00     0.074 A 
ATOM     64  C   UNL     1     -14.589  16.905  -2.972  1.00  0.00     0.031 C 
ATOM     65  C   UNL     1     -14.745  17.718  -0.634  1.00  0.00     0.031 A 
BRANCH  52  66
ATOM     66  C   UNL     1     -11.453  18.592   4.532  1.00  0.00    -0.014 A 
ATOM     67  C   UNL     1     -10.763  19.733   4.980  1.00  0.00     0.010 A 
ATOM     68  C   UNL     1     -12.174  17.823   5.464  1.00  0.00     0.010 A 
ATOM     69  C   UNL     1     -10.753  20.070   6.336  1.00  0.00     0.020 A 
ATOM     70  C   UNL     1     -12.195  18.175   6.817  1.00  0.00     0.020 A 
ATOM     71  C   UNL     1     -11.468  19.286   7.247  1.00  0.00     0.054 A 
BRANCH  71  72
ATOM     72  S   UNL     1     -11.449  19.756   8.998  1.00  0.00     0.124 S 
ATOM     73  O   UNL     1     -10.081  19.418   9.386  1.00  0.00    -0.237 OA
ATOM     74  O   UNL     1     -11.753  21.183   8.950  1.00  0.00    -0.237 OA
ATOM     75  O   UNL     1     -12.488  18.919   9.594  1.00  0.00    -0.744 OA
ENDBRANCH  71  72
ENDBRANCH  52  66
BRANCH  53  76
ATOM     76  C   UNL     1     -11.145  15.519  -4.987  1.00  0.00    -0.014 A 
ATOM     77  C   UNL     1     -11.354  16.424  -6.042  1.00  0.00     0.010 A 
ATOM     78  C   UNL     1     -10.875  14.170  -5.287  1.00  0.00     0.010 A 
ATOM     79  C   UNL     1     -11.309  15.988  -7.370  1.00  0.00     0.020 A 
ATOM     80  C   UNL     1     -10.799  13.737  -6.614  1.00  0.00     0.020 A 
ATOM     81  C   UNL     1     -11.027  14.647  -7.647  1.00  0.00     0.054 A 
BRANCH  81  82
ATOM     82  S   UNL     1     -10.916  14.119  -9.379  1.00  0.00     0.124 S 
ATOM     83  O   UNL     1     -12.311  14.173  -9.804  1.00  0.00    -0.237 OA
ATOM     84  O   UNL     1     -10.036  15.130  -9.960  1.00  0.00    -0.237 OA
ATOM     85  O   UNL     1     -10.339  12.779  -9.291  1.00  0.00    -0.744 OA
ENDBRANCH  81  82
ENDBRANCH  53  76
BRANCH  65  86
ATOM     86  C   UNL     1     -16.206  18.002  -0.870  1.00  0.00    -0.014 A 
ATOM     87  C   UNL     1     -17.140  16.962  -1.022  1.00  0.00     0.010 A 
ATOM     88  C   UNL     1     -16.657  19.335  -0.883  1.00  0.00     0.010 A 
ATOM     89  C   UNL     1     -18.494  17.252  -1.215  1.00  0.00     0.020 A 
ATOM     90  C   UNL     1     -18.013  19.628  -1.043  1.00  0.00     0.020 A 
ATOM     91  C   UNL     1     -18.922  18.584  -1.222  1.00  0.00     0.054 A 
BRANCH  91  92
ATOM     92  S   UNL     1     -20.690  18.930  -1.429  1.00  0.00     0.124 S 
ATOM     93  O   UNL     1     -20.901  18.603  -2.837  1.00  0.00    -0.237 OA
ATOM     94  O   UNL     1     -21.308  18.017  -0.471  1.00  0.00    -0.237 OA
ATOM     95  O   UNL     1     -20.807  20.348  -1.095  1.00  0.00    -0.744 OA
ENDBRANCH  91  92
ENDBRANCH  65  86
ENDBRANCH  39  40
ENDBRANCH  31  34
ENDBRANCH  29  30
ENDBRANCH  28  29
ENDBRANCH  27  28
ENDBRANCH   1  27
TORSDOF 19
