REMARK SMILES O=C(NCCCCCCNC(=O)c1ccc(N2C(=O)[C@@H]3N=NC(c4ccccc4)=C3[C@H]2c2cccc(Br)c2)cc1)c1ccc(-c2c3nc(c(-c4ccc(S(=O)(=O)[O-])cc4)c4ccc([nH]4)c(-c4ccc(S(=O)(=O)[O-])cc4)c4nc(c(-c5ccc(S(=O)(=O)[O-])cc5)c5ccc2[nH]5)C=C4)C=C3)cc1
REMARK SMILES IDX 6 1 5 2 4 3 3 4 1 5 2 6 41 8 42 9 100 10 43 11 99 12 44 13
REMARK SMILES IDX 45 14 46 15 93 16 47 17 98 18 92 19 94 20 48 21 97 22 91 23
REMARK SMILES IDX 90 24 49 26 79 27 60 28 78 29 61 30 64 31 77 32 95 33 62 34
REMARK SMILES IDX 63 35 76 37 96 38 65 39 50 40 51 41 59 42 52 43 58 44 53 45
REMARK SMILES IDX 54 46 55 47 56 48 57 49 80 50 81 51 89 52 82 53 88 54 83 55
REMARK SMILES IDX 84 56 85 57 86 58 87 59 66 60 67 61 75 62 68 63 74 64 69 65
REMARK SMILES IDX 70 66 71 67 72 68 73 69 7 70 8 71 9 72 10 73 11 74 12 76
REMARK SMILES IDX 13 77 14 78 40 79 15 80 39 81 16 82 17 83 18 84 31 85 20 86
REMARK SMILES IDX 19 87 30 88 21 89 23 90 22 91 32 92 33 93 38 94 34 95 36 96
REMARK SMILES IDX 35 97 37 98 24 99 25 100 29 101 26 102 28 103 27 104
REMARK H PARENT 3 7 94 25 64 36 10 75
REMARK Flexibility Score: inf
ROOT
ATOM      1  C   UNL     1       4.271   2.293  -2.703  1.00  0.00     0.002 C 
ENDROOT
BRANCH   1   2
ATOM      2  C   UNL     1       4.757   0.993  -2.049  1.00  0.00     0.021 C 
BRANCH   2   3
ATOM      3  C   UNL     1       4.554   0.919  -0.536  1.00  0.00     0.116 C 
BRANCH   3   4
ATOM      4  N   UNL     1       3.171   1.012  -0.121  1.00  0.00    -0.352 N 
ATOM      5  O   UNL     1       1.137   0.554   0.592  1.00  0.00    -0.269 OA
ATOM      6  C   UNL     1       2.159   0.112   0.059  1.00  0.00     0.251 C 
ATOM      7  H   UNL     1       2.896   1.936   0.076  1.00  0.00     0.163 HD
BRANCH   6   8
ATOM      8  C   UNL     1       2.175  -1.307  -0.394  1.00  0.00     0.039 A 
ATOM      9  C   UNL     1       3.280  -2.001  -0.890  1.00  0.00     0.014 A 
ATOM     10  C   UNL     1       0.932  -1.968  -0.353  1.00  0.00     0.014 A 
ATOM     11  C   UNL     1       3.131  -3.282  -1.417  1.00  0.00     0.010 A 
ATOM     12  C   UNL     1       0.778  -3.248  -0.870  1.00  0.00     0.010 A 
ATOM     13  C   UNL     1       1.872  -3.888  -1.442  1.00  0.00    -0.014 A 
BRANCH  13  14
ATOM     14  C   UNL     1       1.764  -5.253  -1.948  1.00  0.00     0.031 A 
ATOM     15  C   UNL     1       2.468  -6.277  -1.120  1.00  0.00     0.074 A 
ATOM     16  C   UNL     1       0.968  -5.597  -2.981  1.00  0.00     0.049 A 
ATOM     17  N   UNL     1       3.440  -7.059  -1.462  1.00  0.00    -0.248 NA
ATOM     18  C   UNL     1       2.119  -6.353   0.309  1.00  0.00     0.031 C 
ATOM     19  C   UNL     1      -0.001  -4.757  -3.691  1.00  0.00     0.029 A 
ATOM     20  N   UNL     1       0.770  -6.824  -3.541  1.00  0.00    -0.354 N 
ATOM     21  C   UNL     1       3.697  -7.864  -0.353  1.00  0.00     0.074 A 
ATOM     22  C   UNL     1       2.963  -7.288   0.744  1.00  0.00     0.031 C 
ATOM     23  C   UNL     1      -0.842  -5.545  -4.399  1.00  0.00     0.029 A 
ATOM     24  C   UNL     1      -0.388  -6.923  -4.307  1.00  0.00     0.049 A 
ATOM     25  H   UNL     1       1.392  -7.576  -3.413  1.00  0.00     0.167 HD
ATOM     26  C   UNL     1       4.322  -9.071  -0.461  1.00  0.00     0.031 A 
ATOM     27  C   UNL     1      -0.967  -8.062  -4.771  1.00  0.00     0.031 A 
ATOM     28  C   UNL     1       5.006  -9.210  -1.717  1.00  0.00     0.049 A 
ATOM     29  C   UNL     1       0.069  -9.123  -4.745  1.00  0.00     0.074 A 
ATOM     30  C   UNL     1       6.040  -8.544  -2.344  1.00  0.00     0.029 A 
ATOM     31  N   UNL     1       4.378  -9.942  -2.697  1.00  0.00    -0.354 N 
ATOM     32  N   UNL     1       1.133  -9.105  -5.498  1.00  0.00    -0.248 NA
ATOM     33  C   UNL     1       0.154  -9.963  -3.561  1.00  0.00     0.031 C 
ATOM     34  C   UNL     1       5.672  -8.517  -3.720  1.00  0.00     0.029 A 
ATOM     35  C   UNL     1       4.476  -9.226  -3.860  1.00  0.00     0.049 A 
ATOM     36  H   UNL     1       3.941 -10.817  -2.584  1.00  0.00     0.167 HD
ATOM     37  C   UNL     1       2.153  -9.571  -4.680  1.00  0.00     0.074 A 
ATOM     38  C   UNL     1       1.475 -10.162  -3.528  1.00  0.00     0.031 C 
ATOM     39  C   UNL     1       3.450  -9.193  -4.880  1.00  0.00     0.031 A 
BRANCH  26  40
ATOM     40  C   UNL     1       3.979 -10.271   0.394  1.00  0.00    -0.014 A 
ATOM     41  C   UNL     1       4.681 -11.477   0.184  1.00  0.00     0.010 A 
ATOM     42  C   UNL     1       2.806 -10.344   1.172  1.00  0.00     0.010 A 
ATOM     43  C   UNL     1       4.178 -12.702   0.643  1.00  0.00     0.020 A 
ATOM     44  C   UNL     1       2.319 -11.554   1.671  1.00  0.00     0.020 A 
ATOM     45  C   UNL     1       2.987 -12.732   1.367  1.00  0.00     0.054 A 
BRANCH  45  46
ATOM     46  S   UNL     1       2.272 -14.327   1.834  1.00  0.00     0.124 S 
ATOM     47  O   UNL     1       1.939 -14.898   0.532  1.00  0.00    -0.237 OA
ATOM     48  O   UNL     1       3.379 -14.965   2.542  1.00  0.00    -0.237 OA
ATOM     49  O   UNL     1       1.132 -13.960   2.670  1.00  0.00    -0.744 OA
ENDBRANCH  45  46
ENDBRANCH  26  40
BRANCH  27  50
ATOM     50  C   UNL     1      -2.420  -8.366  -4.877  1.00  0.00    -0.014 A 
ATOM     51  C   UNL     1      -2.891  -9.480  -5.599  1.00  0.00     0.010 A 
ATOM     52  C   UNL     1      -3.333  -7.714  -4.022  1.00  0.00     0.010 A 
ATOM     53  C   UNL     1      -4.208  -9.951  -5.433  1.00  0.00     0.020 A 
ATOM     54  C   UNL     1      -4.646  -8.174  -3.855  1.00  0.00     0.020 A 
ATOM     55  C   UNL     1      -5.072  -9.304  -4.546  1.00  0.00     0.054 A 
BRANCH  55  56
ATOM     56  S   UNL     1      -6.714 -10.012  -4.205  1.00  0.00     0.124 S 
ATOM     57  O   UNL     1      -7.425  -9.764  -5.456  1.00  0.00    -0.237 OA
ATOM     58  O   UNL     1      -6.406 -11.411  -3.920  1.00  0.00    -0.237 OA
ATOM     59  O   UNL     1      -7.191  -9.240  -3.059  1.00  0.00    -0.744 OA
ENDBRANCH  55  56
ENDBRANCH  27  50
BRANCH  39  60
ATOM     60  C   UNL     1       3.811  -8.471  -6.157  1.00  0.00    -0.014 A 
ATOM     61  C   UNL     1       3.307  -7.203  -6.508  1.00  0.00     0.010 A 
ATOM     62  C   UNL     1       4.845  -9.021  -6.934  1.00  0.00     0.010 A 
ATOM     63  C   UNL     1       3.823  -6.511  -7.616  1.00  0.00     0.020 A 
ATOM     64  C   UNL     1       5.374  -8.331  -8.025  1.00  0.00     0.020 A 
ATOM     65  C   UNL     1       4.859  -7.079  -8.364  1.00  0.00     0.054 A 
BRANCH  65  66
ATOM     66  S   UNL     1       5.580  -6.150  -9.747  1.00  0.00     0.124 S 
ATOM     67  O   UNL     1       4.501  -6.154 -10.731  1.00  0.00    -0.237 OA
ATOM     68  O   UNL     1       5.879  -4.851  -9.146  1.00  0.00    -0.237 OA
ATOM     69  O   UNL     1       6.758  -6.934 -10.118  1.00  0.00    -0.744 OA
ENDBRANCH  65  66
ENDBRANCH  39  60
ENDBRANCH  13  14
ENDBRANCH   6   8
ENDBRANCH   3   4
ENDBRANCH   2   3
ENDBRANCH   1   2
BRANCH   1  70
ATOM     70  C   UNL     1       4.827   3.591  -2.108  1.00  0.00     0.002 C 
BRANCH  70  71
ATOM     71  C   UNL     1       6.356   3.688  -2.029  1.00  0.00     0.021 C 
BRANCH  71  72
ATOM     72  C   UNL     1       7.093   3.595  -3.367  1.00  0.00     0.116 C 
BRANCH  72  73
ATOM     73  N   UNL     1       6.851   4.754  -4.208  1.00  0.00    -0.352 N 
ATOM     74  C   UNL     1       7.753   5.587  -4.819  1.00  0.00     0.251 C 
ATOM     75  H   UNL     1       5.903   4.973  -4.362  1.00  0.00     0.163 HD
ATOM     76  O   UNL     1       7.369   6.630  -5.344  1.00  0.00    -0.269 OA
BRANCH  74  77
ATOM     77  C   UNL     1       9.202   5.273  -4.809  1.00  0.00     0.039 A 
ATOM     78  C   UNL     1      10.070   6.261  -4.351  1.00  0.00     0.016 A 
ATOM     79  C   UNL     1       9.721   4.052  -5.265  1.00  0.00     0.016 A 
ATOM     80  C   UNL     1      11.439   5.996  -4.276  1.00  0.00     0.027 A 
ATOM     81  C   UNL     1      11.107   3.791  -5.202  1.00  0.00     0.027 A 
ATOM     82  C   UNL     1      11.972   4.752  -4.676  1.00  0.00     0.045 A 
BRANCH  82  83
ATOM     83  N   UNL     1      13.362   4.471  -4.441  1.00  0.00    -0.299 N 
ATOM     84  C   UNL     1      13.855   4.949  -3.173  1.00  0.00     0.259 C 
ATOM     85  C   UNL     1      14.360   4.715  -5.516  1.00  0.00     0.152 C 
ATOM     86  C   UNL     1      15.181   5.609  -3.422  1.00  0.00     0.248 C 
ATOM     87  O   UNL     1      13.282   4.905  -2.104  1.00  0.00    -0.271 OA
ATOM     88  C   UNL     1      15.018   5.871  -4.870  1.00  0.00     0.021 C 
ATOM     89  N   UNL     1      15.346   6.969  -2.888  1.00  0.00    -0.170 NA
ATOM     90  C   UNL     1      15.322   7.148  -5.063  1.00  0.00     0.097 C 
ATOM     91  N   UNL     1      15.560   7.768  -3.850  1.00  0.00    -0.154 NA
BRANCH  85  92
ATOM     92  C   UNL     1      15.407   3.598  -5.756  1.00  0.00    -0.020 A 
ATOM     93  C   UNL     1      16.799   3.851  -5.598  1.00  0.00     0.006 A 
ATOM     94  C   UNL     1      15.054   2.329  -6.237  1.00  0.00     0.022 A 
ATOM     95  C   UNL     1      17.781   2.898  -5.867  1.00  0.00     0.002 A 
ATOM     96  C   UNL     1      16.052   1.382  -6.542  1.00  0.00     0.018 A 
ATOM     97  C   UNL     1      17.407   1.658  -6.353  1.00  0.00     0.016 A 
ATOM     98  Br  UNL     1      15.576  -0.300  -7.268  1.00  0.00    -0.051 Br
ENDBRANCH  85  92
BRANCH  90  99
ATOM     99  C   UNL     1      15.270   7.965  -6.272  1.00  0.00     0.002 A 
ATOM    100  C   UNL     1      16.352   7.989  -7.163  1.00  0.00     0.010 A 
ATOM    101  C   UNL     1      14.249   8.914  -6.405  1.00  0.00     0.010 A 
ATOM    102  C   UNL     1      16.459   9.019  -8.103  1.00  0.00     0.001 A 
ATOM    103  C   UNL     1      14.359   9.938  -7.345  1.00  0.00     0.001 A 
ATOM    104  C   UNL     1      15.478  10.008  -8.172  1.00  0.00     0.000 A 
ENDBRANCH  90  99
ENDBRANCH  82  83
ENDBRANCH  74  77
ENDBRANCH  72  73
ENDBRANCH  71  72
ENDBRANCH  70  71
ENDBRANCH   1  70
TORSDOF 19
