REMARK SMILES CCC(C)(C)NC(=O)[C@@H](C)Oc1ccc(C)nc1C(=O)NCCCCCCNC(=O)c1ccc(-c2c3nc(c(-c4ccc(S(=O)(=O)[O-])cc4)c4ccc([nH]4)c(-c4ccc(S(=O)(=O)[O-])cc4)c4nc(c(-c5ccc(S(=O)(=O)[O-])cc5)c5ccc2[nH]5)C=C4)C=C3)cc1
REMARK SMILES IDX 23 1 22 2 21 3 19 4 20 5 18 7 12 8 13 9 14 10 17 11 15 12
REMARK SMILES IDX 16 13 11 14 9 15 10 16 7 17 6 18 8 20 3 21 4 22 5 23 2 24
REMARK SMILES IDX 1 25 24 26 25 27 26 28 27 29 28 30 29 31 30 33 31 34 32 35
REMARK SMILES IDX 90 36 33 37 89 38 34 39 35 40 36 41 83 42 37 43 88 44 82 45
REMARK SMILES IDX 84 46 38 47 87 48 81 49 80 50 39 52 69 53 50 54 68 55 51 56
REMARK SMILES IDX 54 57 67 58 85 59 52 60 53 61 66 63 86 64 55 65 40 66 41 67
REMARK SMILES IDX 49 68 42 69 48 70 43 71 44 72 45 73 46 74 47 75 70 76 71 77
REMARK SMILES IDX 79 78 72 79 78 80 73 81 74 82 75 83 76 84 77 85 56 86 57 87
REMARK SMILES IDX 65 88 58 89 64 90 59 91 60 92 61 93 62 94 63 95
REMARK H PARENT 21 6 6 19 28 32 84 51 54 62
REMARK Flexibility Score: inf
ROOT
ATOM      1  C   UNL     1       1.501   0.729  -3.269  1.00  0.00     0.021 C 
ENDROOT
BRANCH   1   2
ATOM      2  C   UNL     1       1.129   1.913  -2.375  1.00  0.00     0.116 C 
BRANCH   2   3
ATOM      3  N   UNL     1      -0.276   1.833  -2.046  1.00  0.00    -0.351 N 
ATOM      4  C   UNL     1      -0.982   1.369  -0.964  1.00  0.00     0.273 C 
ATOM      5  O   UNL     1      -2.205   1.308  -1.144  1.00  0.00    -0.267 OA
ATOM      6  H   UNL     1      -0.856   2.190  -2.757  1.00  0.00     0.163 HD
BRANCH   4   7
ATOM      7  C   UNL     1      -0.427   1.052   0.406  1.00  0.00     0.170 A 
ATOM      8  C   UNL     1       0.861   0.628   0.750  1.00  0.00     0.151 A 
ATOM      9  C   UNL     1       1.195   0.671   2.107  1.00  0.00     0.051 A 
ATOM     10  C   UNL     1       0.192   0.789   3.071  1.00  0.00     0.027 A 
ATOM     11  N   UNL     1      -1.412   1.135   1.355  1.00  0.00    -0.244 NA
ATOM     12  C   UNL     1      -1.116   0.890   2.644  1.00  0.00     0.038 A 
ATOM     13  C   UNL     1      -2.271   0.639   3.563  1.00  0.00     0.067 C 
BRANCH   8  14
ATOM     14  O   UNL     1       1.640   0.021  -0.194  1.00  0.00    -0.478 OA
BRANCH  14  15
ATOM     15  C   UNL     1       2.739  -0.804   0.171  1.00  0.00     0.259 C 
ATOM     16  C   UNL     1       3.099  -1.722  -1.018  1.00  0.00     0.064 C 
BRANCH  15  17
ATOM     17  C   UNL     1       2.828  -1.729   1.412  1.00  0.00     0.261 C 
ATOM     18  N   UNL     1       2.128  -2.894   1.506  1.00  0.00    -0.348 N 
ATOM     19  H   UNL     1       2.685  -3.700   1.415  1.00  0.00     0.164 HD
ATOM     20  O   UNL     1       3.703  -1.534   2.264  1.00  0.00    -0.271 OA
BRANCH  18  21
ATOM     21  C   UNL     1       0.691  -3.182   1.720  1.00  0.00     0.034 C 
ATOM     22  C   UNL     1       0.346  -2.759   3.169  1.00  0.00     0.034 C 
ATOM     23  C   UNL     1       0.552  -4.719   1.649  1.00  0.00     0.034 C 
BRANCH  21  24
ATOM     24  C   UNL     1      -0.373  -2.566   0.775  1.00  0.00     0.024 C 
ATOM     25  C   UNL     1      -0.171  -2.606  -0.729  1.00  0.00     0.006 C 
ENDBRANCH  21  24
ENDBRANCH  18  21
ENDBRANCH  15  17
ENDBRANCH  14  15
ENDBRANCH   8  14
ENDBRANCH   4   7
ENDBRANCH   2   3
ENDBRANCH   1   2
BRANCH   1  26
ATOM     26  C   UNL     1       1.641   1.072  -4.753  1.00  0.00     0.002 C 
BRANCH  26  27
ATOM     27  C   UNL     1       2.892   1.901  -5.072  1.00  0.00     0.002 C 
BRANCH  27  28
ATOM     28  C   UNL     1       4.228   1.266  -4.657  1.00  0.00     0.021 C 
BRANCH  28  29
ATOM     29  C   UNL     1       4.503  -0.107  -5.268  1.00  0.00     0.116 C 
BRANCH  29  30
ATOM     30  N   UNL     1       4.556  -0.036  -6.719  1.00  0.00    -0.352 N 
ATOM     31  C   UNL     1       5.640  -0.099  -7.559  1.00  0.00     0.251 C 
ATOM     32  H   UNL     1       3.685   0.074  -7.165  1.00  0.00     0.163 HD
ATOM     33  O   UNL     1       5.540   0.308  -8.711  1.00  0.00    -0.269 OA
BRANCH  31  34
ATOM     34  C   UNL     1       6.922  -0.664  -7.082  1.00  0.00     0.039 A 
ATOM     35  C   UNL     1       8.118  -0.048  -7.459  1.00  0.00     0.014 A 
ATOM     36  C   UNL     1       6.949  -1.836  -6.320  1.00  0.00     0.014 A 
ATOM     37  C   UNL     1       9.338  -0.582  -7.035  1.00  0.00     0.010 A 
ATOM     38  C   UNL     1       8.162  -2.331  -5.846  1.00  0.00     0.010 A 
ATOM     39  C   UNL     1       9.370  -1.716  -6.207  1.00  0.00    -0.014 A 
BRANCH  39  40
ATOM     40  C   UNL     1      10.657  -2.269  -5.710  1.00  0.00     0.031 A 
ATOM     41  C   UNL     1      11.105  -3.645  -6.129  1.00  0.00     0.074 A 
ATOM     42  C   UNL     1      11.391  -1.556  -4.832  1.00  0.00     0.049 A 
ATOM     43  N   UNL     1      12.170  -4.311  -5.763  1.00  0.00    -0.248 NA
ATOM     44  C   UNL     1      10.234  -4.379  -7.063  1.00  0.00     0.031 C 
ATOM     45  C   UNL     1      11.042  -0.230  -4.316  1.00  0.00     0.029 A 
ATOM     46  N   UNL     1      12.579  -1.849  -4.211  1.00  0.00    -0.354 N 
ATOM     47  C   UNL     1      12.084  -5.546  -6.397  1.00  0.00     0.074 A 
ATOM     48  C   UNL     1      10.847  -5.552  -7.145  1.00  0.00     0.031 C 
ATOM     49  C   UNL     1      12.006   0.185  -3.478  1.00  0.00     0.029 A 
ATOM     50  C   UNL     1      13.020  -0.858  -3.365  1.00  0.00     0.049 A 
ATOM     51  H   UNL     1      13.070  -2.690  -4.357  1.00  0.00     0.167 HD
ATOM     52  C   UNL     1      12.963  -6.576  -6.367  1.00  0.00     0.031 A 
ATOM     53  C   UNL     1      14.114  -0.798  -2.581  1.00  0.00     0.031 A 
ATOM     54  C   UNL     1      14.208  -6.554  -5.646  1.00  0.00     0.049 A 
ATOM     55  C   UNL     1      15.076  -1.956  -2.576  1.00  0.00     0.074 A 
ATOM     56  C   UNL     1      15.206  -7.514  -5.627  1.00  0.00     0.029 A 
ATOM     57  N   UNL     1      14.626  -5.525  -4.817  1.00  0.00    -0.354 N 
ATOM     58  N   UNL     1      15.019  -3.077  -3.254  1.00  0.00    -0.248 NA
ATOM     59  C   UNL     1      16.255  -1.835  -1.706  1.00  0.00     0.031 C 
ATOM     60  C   UNL     1      16.202  -7.090  -4.741  1.00  0.00     0.029 A 
ATOM     61  C   UNL     1      15.852  -5.841  -4.255  1.00  0.00     0.049 A 
ATOM     62  H   UNL     1      14.126  -4.694  -4.652  1.00  0.00     0.167 HD
ATOM     63  C   UNL     1      16.171  -3.780  -2.917  1.00  0.00     0.074 A 
ATOM     64  C   UNL     1      16.912  -2.952  -1.989  1.00  0.00     0.031 C 
ATOM     65  C   UNL     1      16.580  -5.002  -3.339  1.00  0.00     0.031 A 
BRANCH  52  66
ATOM     66  C   UNL     1      12.616  -7.827  -7.132  1.00  0.00    -0.014 A 
ATOM     67  C   UNL     1      12.655  -7.858  -8.537  1.00  0.00     0.010 A 
ATOM     68  C   UNL     1      12.329  -9.012  -6.429  1.00  0.00     0.010 A 
ATOM     69  C   UNL     1      12.391  -9.046  -9.226  1.00  0.00     0.020 A 
ATOM     70  C   UNL     1      12.090 -10.208  -7.114  1.00  0.00     0.020 A 
ATOM     71  C   UNL     1      12.113 -10.214  -8.509  1.00  0.00     0.054 A 
BRANCH  71  72
ATOM     72  S   UNL     1      11.830 -11.752  -9.429  1.00  0.00     0.124 S 
ATOM     73  O   UNL     1      10.507 -11.521 -10.004  1.00  0.00    -0.237 OA
ATOM     74  O   UNL     1      12.936 -11.763 -10.383  1.00  0.00    -0.237 OA
ATOM     75  O   UNL     1      11.888 -12.788  -8.400  1.00  0.00    -0.744 OA
ENDBRANCH  71  72
ENDBRANCH  52  66
BRANCH  53  76
ATOM     76  C   UNL     1      14.371   0.401  -1.736  1.00  0.00    -0.014 A 
ATOM     77  C   UNL     1      15.449   1.258  -2.021  1.00  0.00     0.010 A 
ATOM     78  C   UNL     1      13.556   0.676  -0.623  1.00  0.00     0.010 A 
ATOM     79  C   UNL     1      15.731   2.345  -1.188  1.00  0.00     0.020 A 
ATOM     80  C   UNL     1      13.816   1.780   0.195  1.00  0.00     0.020 A 
ATOM     81  C   UNL     1      14.915   2.595  -0.082  1.00  0.00     0.054 A 
BRANCH  81  82
ATOM     82  S   UNL     1      15.291   4.017   0.981  1.00  0.00     0.124 S 
ATOM     83  O   UNL     1      16.449   3.538   1.729  1.00  0.00    -0.237 OA
ATOM     84  O   UNL     1      15.557   5.076   0.011  1.00  0.00    -0.237 OA
ATOM     85  O   UNL     1      14.068   4.191   1.762  1.00  0.00    -0.744 OA
ENDBRANCH  81  82
ENDBRANCH  53  76
BRANCH  65  86
ATOM     86  C   UNL     1      17.906  -5.501  -2.832  1.00  0.00    -0.014 A 
ATOM     87  C   UNL     1      18.069  -5.918  -1.500  1.00  0.00     0.010 A 
ATOM     88  C   UNL     1      18.994  -5.597  -3.720  1.00  0.00     0.010 A 
ATOM     89  C   UNL     1      19.307  -6.389  -1.054  1.00  0.00     0.020 A 
ATOM     90  C   UNL     1      20.225  -6.095  -3.285  1.00  0.00     0.020 A 
ATOM     91  C   UNL     1      20.377  -6.473  -1.950  1.00  0.00     0.054 A 
BRANCH  91  92
ATOM     92  S   UNL     1      21.963  -7.123  -1.357  1.00  0.00     0.124 S 
ATOM     93  O   UNL     1      22.474  -6.005  -0.570  1.00  0.00    -0.237 OA
ATOM     94  O   UNL     1      21.562  -8.300  -0.591  1.00  0.00    -0.237 OA
ATOM     95  O   UNL     1      22.701  -7.409  -2.586  1.00  0.00    -0.744 OA
ENDBRANCH  91  92
ENDBRANCH  65  86
ENDBRANCH  39  40
ENDBRANCH  31  34
ENDBRANCH  29  30
ENDBRANCH  28  29
ENDBRANCH  27  28
ENDBRANCH  26  27
ENDBRANCH   1  26
TORSDOF 21
