REMARK SMILES COCCNc1cc(C)nc2cc(C(=O)NCCCCCCNC(=O)c3ccc(-c4c5nc(c(-c6ccc(S(=O)(=O)[O-])cc6)c6ccc([nH]6)c(-c6ccc(S(=O)(=O)[O-])cc6)c6nc(c(-c7ccc(S(=O)(=O)[O-])cc7)c7ccc4[nH]7)C=C6)C=C5)cc3)ccc12
REMARK SMILES IDX 19 1 18 2 17 3 16 4 14 5 15 6 13 8 6 9 7 10 88 11 8 12 11 13
REMARK SMILES IDX 87 14 9 15 10 16 12 17 86 18 5 19 4 21 3 22 2 23 1 24 20 25
REMARK SMILES IDX 21 26 22 27 23 28 24 29 25 31 26 32 27 33 85 34 28 35 84 36
REMARK SMILES IDX 29 37 30 38 31 39 78 40 32 41 83 42 77 43 79 44 33 45 82 46
REMARK SMILES IDX 76 47 75 48 34 50 64 51 45 52 63 53 46 54 49 55 62 56 80 57
REMARK SMILES IDX 47 58 48 59 61 61 81 62 50 63 35 64 36 65 44 66 37 67 43 68
REMARK SMILES IDX 38 69 39 70 40 71 41 72 42 73 65 74 66 75 74 76 67 77 73 78
REMARK SMILES IDX 68 79 69 80 70 81 71 82 72 83 51 84 52 85 60 86 53 87 59 88
REMARK SMILES IDX 54 89 55 90 56 91 57 92 58 93
REMARK H PARENT 16 7 5 20 23 30 79 49 49 60
REMARK Flexibility Score: inf
ROOT
ATOM      1  C   UNL     1       8.612   2.796   7.109  1.00  0.00     0.002 C 
ENDROOT
BRANCH   1   2
ATOM      2  C   UNL     1       7.385   3.139   6.252  1.00  0.00     0.021 C 
BRANCH   2   3
ATOM      3  C   UNL     1       7.615   2.893   4.760  1.00  0.00     0.116 C 
BRANCH   3   4
ATOM      4  N   UNL     1       7.426   1.487   4.460  1.00  0.00    -0.352 N 
ATOM      5  C   UNL     1       6.361   0.768   3.989  1.00  0.00     0.251 C 
ATOM      6  O   UNL     1       6.510  -0.453   3.893  1.00  0.00    -0.269 OA
ATOM      7  H   UNL     1       8.225   0.938   4.630  1.00  0.00     0.163 HD
BRANCH   5   8
ATOM      8  C   UNL     1       5.079   1.373   3.526  1.00  0.00     0.041 A 
ATOM      9  C   UNL     1       1.587   3.020   1.783  1.00  0.00     0.045 A 
ATOM     10  C   UNL     1       1.299   4.352   2.078  1.00  0.00     0.049 A 
ATOM     11  C   UNL     1       2.717   2.425   2.387  1.00  0.00     0.023 A 
ATOM     12  C   UNL     1       2.115   5.043   2.963  1.00  0.00     0.040 A 
ATOM     13  C   UNL     1       3.472   3.194   3.291  1.00  0.00     0.073 A 
ATOM     14  C   UNL     1       3.141   1.114   2.095  1.00  0.00     0.013 A 
ATOM     15  C   UNL     1       1.887   6.498   3.247  1.00  0.00     0.067 C 
ATOM     16  N   UNL     1       3.172   4.468   3.581  1.00  0.00    -0.253 NA
ATOM     17  C   UNL     1       4.592   2.630   3.890  1.00  0.00     0.042 A 
ATOM     18  C   UNL     1       4.319   0.606   2.638  1.00  0.00     0.014 A 
BRANCH   9  19
ATOM     19  N   UNL     1       0.719   2.252   1.015  1.00  0.00    -0.382 N 
ATOM     20  H   UNL     1       0.417   1.385   1.371  1.00  0.00     0.160 HD
BRANCH  19  21
ATOM     21  C   UNL     1       0.236   2.671  -0.293  1.00  0.00     0.141 C 
BRANCH  21  22
ATOM     22  C   UNL     1       0.814   1.773  -1.400  1.00  0.00     0.181 C 
BRANCH  22  23
ATOM     23  O   UNL     1       0.165   0.498  -1.491  1.00  0.00    -0.383 OA
ATOM     24  C   UNL     1       0.695  -0.474  -0.601  1.00  0.00     0.194 C 
ENDBRANCH  22  23
ENDBRANCH  21  22
ENDBRANCH  19  21
ENDBRANCH   9  19
ENDBRANCH   5   8
ENDBRANCH   3   4
ENDBRANCH   2   3
ENDBRANCH   1   2
BRANCH   1  25
ATOM     25  C   UNL     1       9.850   3.656   6.823  1.00  0.00     0.002 C 
BRANCH  25  26
ATOM     26  C   UNL     1       9.621   5.167   6.922  1.00  0.00     0.021 C 
BRANCH  26  27
ATOM     27  C   UNL     1       9.186   5.641   8.305  1.00  0.00     0.116 C 
BRANCH  27  28
ATOM     28  N   UNL     1      10.225   5.410   9.296  1.00  0.00    -0.352 N 
ATOM     29  C   UNL     1      10.855   6.313  10.113  1.00  0.00     0.251 C 
ATOM     30  H   UNL     1      10.517   4.475   9.393  1.00  0.00     0.163 HD
ATOM     31  O   UNL     1      11.885   5.992  10.706  1.00  0.00    -0.269 OA
BRANCH  29  32
ATOM     32  C   UNL     1      10.297   7.671  10.273  1.00  0.00     0.039 A 
ATOM     33  C   UNL     1      11.158   8.769  10.243  1.00  0.00     0.014 A 
ATOM     34  C   UNL     1       8.925   7.855  10.470  1.00  0.00     0.014 A 
ATOM     35  C   UNL     1      10.636  10.059  10.361  1.00  0.00     0.010 A 
ATOM     36  C   UNL     1       8.399   9.142  10.518  1.00  0.00     0.010 A 
ATOM     37  C   UNL     1       9.250  10.256  10.473  1.00  0.00    -0.014 A 
BRANCH  37  38
ATOM     38  C   UNL     1       8.670  11.620  10.546  1.00  0.00     0.031 A 
ATOM     39  C   UNL     1       7.947  12.069  11.786  1.00  0.00     0.074 A 
ATOM     40  C   UNL     1       8.739  12.430   9.471  1.00  0.00     0.049 A 
ATOM     41  N   UNL     1       7.332  13.201  12.018  1.00  0.00    -0.248 NA
ATOM     42  C   UNL     1       7.883  11.112  12.902  1.00  0.00     0.031 C 
ATOM     43  C   UNL     1       9.376  12.091   8.196  1.00  0.00     0.029 A 
ATOM     44  N   UNL     1       8.262  13.701   9.277  1.00  0.00    -0.354 N 
ATOM     45  C   UNL     1       6.794  13.085  13.294  1.00  0.00     0.074 A 
ATOM     46  C   UNL     1       7.113  11.755  13.767  1.00  0.00     0.031 C 
ATOM     47  C   UNL     1       9.271  13.138   7.362  1.00  0.00     0.029 A 
ATOM     48  C   UNL     1       8.528  14.204   8.025  1.00  0.00     0.049 A 
ATOM     49  H   UNL     1       7.775  14.206   9.968  1.00  0.00     0.167 HD
ATOM     50  C   UNL     1       6.111  14.007  14.015  1.00  0.00     0.031 A 
ATOM     51  C   UNL     1       8.206  15.389   7.471  1.00  0.00     0.031 A 
ATOM     52  C   UNL     1       5.803  15.330  13.541  1.00  0.00     0.049 A 
ATOM     53  C   UNL     1       7.447  16.398   8.287  1.00  0.00     0.074 A 
ATOM     54  C   UNL     1       5.169  16.359  14.214  1.00  0.00     0.029 A 
ATOM     55  N   UNL     1       6.103  15.806  12.273  1.00  0.00    -0.354 N 
ATOM     56  N   UNL     1       7.007  16.295   9.519  1.00  0.00    -0.248 NA
ATOM     57  C   UNL     1       7.154  17.686   7.645  1.00  0.00     0.031 C 
ATOM     58  C   UNL     1       5.038  17.440  13.335  1.00  0.00     0.029 A 
ATOM     59  C   UNL     1       5.644  17.106  12.134  1.00  0.00     0.049 A 
ATOM     60  H   UNL     1       6.572  15.296  11.574  1.00  0.00     0.167 HD
ATOM     61  C   UNL     1       6.406  17.515   9.808  1.00  0.00     0.074 A 
ATOM     62  C   UNL     1       6.551  18.343   8.628  1.00  0.00     0.031 C 
ATOM     63  C   UNL     1       5.792  17.914  10.950  1.00  0.00     0.031 A 
BRANCH  50  64
ATOM     64  C   UNL     1       5.642  13.605  15.389  1.00  0.00    -0.014 A 
ATOM     65  C   UNL     1       6.556  13.392  16.438  1.00  0.00     0.010 A 
ATOM     66  C   UNL     1       4.266  13.457  15.643  1.00  0.00     0.010 A 
ATOM     67  C   UNL     1       6.108  12.988  17.698  1.00  0.00     0.020 A 
ATOM     68  C   UNL     1       3.811  13.082  16.911  1.00  0.00     0.020 A 
ATOM     69  C   UNL     1       4.737  12.829  17.925  1.00  0.00     0.054 A 
BRANCH  69  70
ATOM     70  S   UNL     1       4.182  12.307  19.570  1.00  0.00     0.124 S 
ATOM     71  O   UNL     1       4.561  10.896  19.581  1.00  0.00    -0.237 OA
ATOM     72  O   UNL     1       4.955  13.171  20.459  1.00  0.00    -0.237 OA
ATOM     73  O   UNL     1       2.745  12.565  19.550  1.00  0.00    -0.744 OA
ENDBRANCH  69  70
ENDBRANCH  50  64
BRANCH  51  74
ATOM     74  C   UNL     1       8.623  15.686   6.074  1.00  0.00    -0.014 A 
ATOM     75  C   UNL     1       9.652  16.609   5.818  1.00  0.00     0.010 A 
ATOM     76  C   UNL     1       8.021  15.016   4.993  1.00  0.00     0.010 A 
ATOM     77  C   UNL     1      10.065  16.864   4.507  1.00  0.00     0.020 A 
ATOM     78  C   UNL     1       8.449  15.248   3.683  1.00  0.00     0.020 A 
ATOM     79  C   UNL     1       9.464  16.178   3.448  1.00  0.00     0.054 A 
BRANCH  79  80
ATOM     80  S   UNL     1      10.064  16.473   1.761  1.00  0.00     0.124 S 
ATOM     81  O   UNL     1       9.523  17.798   1.473  1.00  0.00    -0.237 OA
ATOM     82  O   UNL     1      11.514  16.403   1.925  1.00  0.00    -0.237 OA
ATOM     83  O   UNL     1       9.479  15.376   0.993  1.00  0.00    -0.744 OA
ENDBRANCH  79  80
ENDBRANCH  51  74
BRANCH  63  84
ATOM     84  C   UNL     1       5.254  19.320  10.992  1.00  0.00    -0.014 A 
ATOM     85  C   UNL     1       4.104  19.683  10.270  1.00  0.00     0.010 A 
ATOM     86  C   UNL     1       5.880  20.276  11.813  1.00  0.00     0.010 A 
ATOM     87  C   UNL     1       3.605  20.986  10.347  1.00  0.00     0.020 A 
ATOM     88  C   UNL     1       5.368  21.572  11.914  1.00  0.00     0.020 A 
ATOM     89  C   UNL     1       4.240  21.922  11.169  1.00  0.00     0.054 A 
BRANCH  89  90
ATOM     90  S   UNL     1       3.545  23.593  11.288  1.00  0.00     0.124 S 
ATOM     91  O   UNL     1       3.926  24.173  10.003  1.00  0.00    -0.237 OA
ATOM     92  O   UNL     1       2.118  23.336  11.463  1.00  0.00    -0.237 OA
ATOM     93  O   UNL     1       4.216  24.166  12.453  1.00  0.00    -0.744 OA
ENDBRANCH  89  90
ENDBRANCH  63  84
ENDBRANCH  37  38
ENDBRANCH  29  32
ENDBRANCH  27  28
ENDBRANCH  26  27
ENDBRANCH  25  26
ENDBRANCH   1  25
TORSDOF 20
