REMARK SMILES CCn1ncc(NC(=O)[C@@H]2CCCC[C@@H]2C(=O)NCCCCCCNC(=O)c2ccc(-c3c4nc(c(-c5ccc(S(=O)(=O)[O-])cc5)c5ccc([nH]5)c(-c5ccc(S(=O)(=O)[O-])cc5)c5nc(c(-c6ccc(S(=O)(=O)[O-])cc6)c6ccc3[nH]6)C=C5)C=C4)cc2)c1C(=O)Nc1cnn(C)c1C
REMARK SMILES IDX 21 1 20 2 19 3 18 4 16 5 17 6 15 8 10 9 11 10 12 11 14 12
REMARK SMILES IDX 13 13 8 14 7 15 9 17 6 18 3 19 4 20 88 21 5 22 2 23 1 24
REMARK SMILES IDX 89 25 90 26 91 27 92 29 93 30 97 31 94 32 95 33 98 34 96 35
REMARK SMILES IDX 22 36 23 37 24 38 25 39 26 40 27 42 28 43 29 44 87 45 30 46
REMARK SMILES IDX 86 47 31 48 32 49 33 50 80 51 34 52 85 53 79 54 81 55 35 56
REMARK SMILES IDX 84 57 78 58 77 59 36 61 66 62 47 63 65 64 48 65 51 66 64 67
REMARK SMILES IDX 82 68 49 69 50 70 63 72 83 73 52 74 37 75 38 76 46 77 39 78
REMARK SMILES IDX 45 79 40 80 41 81 42 82 43 83 44 84 67 85 68 86 76 87 69 88
REMARK SMILES IDX 75 89 70 90 71 91 72 92 73 93 74 94 53 95 54 96 62 97 55 98
REMARK SMILES IDX 61 99 56 100 57 101 58 102 59 103 60 104
REMARK H PARENT 18 7 7 16 91 28 25 41 81 60 51 71
REMARK Flexibility Score: inf
ROOT
ATOM      1  C   UNL     1       5.876  -0.658  -8.477  1.00  0.00     0.002 C 
ENDROOT
BRANCH   1   2
ATOM      2  C   UNL     1       5.164  -1.147  -7.229  1.00  0.00     0.021 C 
BRANCH   2   3
ATOM      3  C   UNL     1       4.234  -0.140  -6.597  1.00  0.00     0.116 C 
BRANCH   3   4
ATOM      4  N   UNL     1       2.902  -0.031  -7.093  1.00  0.00    -0.356 N 
ATOM      5  C   UNL     1       1.819   0.264  -6.319  1.00  0.00     0.223 C 
ATOM      6  O   UNL     1       0.782   0.620  -6.888  1.00  0.00    -0.275 OA
ATOM      7  H   UNL     1       2.755  -0.177  -8.056  1.00  0.00     0.163 HD
BRANCH   5   8
ATOM      8  C   UNL     1       1.824   0.060  -4.790  1.00  0.00     0.091 C 
ATOM      9  C   UNL     1       2.769   0.826  -3.858  1.00  0.00     0.091 C 
ATOM     10  C   UNL     1       4.125   0.235  -3.470  1.00  0.00     0.014 C 
ATOM     11  C   UNL     1       4.054  -1.267  -3.184  1.00  0.00     0.001 C 
ATOM     12  C   UNL     1       1.740  -1.415  -4.376  1.00  0.00     0.014 C 
ATOM     13  C   UNL     1       3.068  -2.087  -4.027  1.00  0.00     0.001 C 
BRANCH   9  14
ATOM     14  C   UNL     1       2.844   2.297  -4.126  1.00  0.00     0.228 C 
ATOM     15  N   UNL     1       2.165   3.176  -3.335  1.00  0.00    -0.322 N 
ATOM     16  H   UNL     1       2.172   4.088  -3.705  1.00  0.00     0.170 HD
ATOM     17  O   UNL     1       3.477   2.737  -5.090  1.00  0.00    -0.274 OA
BRANCH  15  18
ATOM     18  C   UNL     1       1.463   3.103  -2.131  1.00  0.00     0.092 A 
ATOM     19  N   UNL     1       0.605   2.851  -0.113  1.00  0.00    -0.258 N 
ATOM     20  N   UNL     1       0.143   4.053  -0.511  1.00  0.00    -0.178 NA
ATOM     21  C   UNL     1       1.302   2.171  -1.094  1.00  0.00     0.150 A 
ATOM     22  C   UNL     1       0.709   4.224  -1.697  1.00  0.00     0.162 A 
BRANCH  19  23
ATOM     23  C   UNL     1       0.398   2.502   1.284  1.00  0.00     0.142 C 
ATOM     24  C   UNL     1       1.597   1.916   2.013  1.00  0.00     0.029 C 
ENDBRANCH  19  23
BRANCH  21  25
ATOM     25  C   UNL     1       1.906   0.884  -0.833  1.00  0.00     0.276 C 
ATOM     26  O   UNL     1       3.103   0.767  -0.578  1.00  0.00    -0.267 OA
ATOM     27  N   UNL     1       1.125  -0.254  -1.039  1.00  0.00    -0.318 N 
ATOM     28  H   UNL     1       0.992  -0.624  -1.941  1.00  0.00     0.170 HD
BRANCH  27  29
ATOM     29  C   UNL     1       0.543  -0.845   0.075  1.00  0.00     0.082 A 
ATOM     30  C   UNL     1      -0.793  -0.823   0.501  1.00  0.00     0.161 A 
ATOM     31  C   UNL     1       1.222  -1.578   1.027  1.00  0.00     0.059 A 
ATOM     32  N   UNL     1      -0.924  -1.309   1.738  1.00  0.00    -0.179 NA
ATOM     33  N   UNL     1       0.330  -1.692   2.068  1.00  0.00    -0.271 N 
ATOM     34  C   UNL     1       2.641  -2.021   1.118  1.00  0.00     0.068 C 
ATOM     35  C   UNL     1       0.663  -1.856   3.466  1.00  0.00     0.174 C 
ENDBRANCH  27  29
ENDBRANCH  21  25
ENDBRANCH  15  18
ENDBRANCH   9  14
ENDBRANCH   5   8
ENDBRANCH   3   4
ENDBRANCH   2   3
ENDBRANCH   1   2
BRANCH   1  36
ATOM     36  C   UNL     1       6.491   0.748  -8.399  1.00  0.00     0.002 C 
BRANCH  36  37
ATOM     37  C   UNL     1       7.452   1.052  -7.238  1.00  0.00     0.021 C 
BRANCH  37  38
ATOM     38  C   UNL     1       8.628   0.099  -7.120  1.00  0.00     0.116 C 
BRANCH  38  39
ATOM     39  N   UNL     1       9.392  -0.016  -8.362  1.00  0.00    -0.352 N 
ATOM     40  C   UNL     1      10.457  -0.839  -8.656  1.00  0.00     0.251 C 
ATOM     41  H   UNL     1       9.104   0.579  -9.091  1.00  0.00     0.163 HD
ATOM     42  O   UNL     1      11.191  -0.584  -9.616  1.00  0.00    -0.269 OA
BRANCH  40  43
ATOM     43  C   UNL     1      10.712  -2.023  -7.820  1.00  0.00     0.039 A 
ATOM     44  C   UNL     1      12.006  -2.470  -7.541  1.00  0.00     0.014 A 
ATOM     45  C   UNL     1       9.610  -2.692  -7.297  1.00  0.00     0.014 A 
ATOM     46  C   UNL     1      12.168  -3.556  -6.683  1.00  0.00     0.010 A 
ATOM     47  C   UNL     1       9.774  -3.603  -6.293  1.00  0.00     0.010 A 
ATOM     48  C   UNL     1      11.040  -4.108  -6.054  1.00  0.00    -0.014 A 
BRANCH  48  49
ATOM     49  C   UNL     1      11.150  -5.154  -5.048  1.00  0.00     0.031 A 
ATOM     50  C   UNL     1      12.017  -4.781  -3.906  1.00  0.00     0.074 A 
ATOM     51  C   UNL     1      10.358  -6.250  -5.029  1.00  0.00     0.049 A 
ATOM     52  N   UNL     1      13.218  -5.192  -3.675  1.00  0.00    -0.248 NA
ATOM     53  C   UNL     1      11.583  -3.680  -3.028  1.00  0.00     0.031 C 
ATOM     54  C   UNL     1       9.230  -6.586  -5.910  1.00  0.00     0.029 A 
ATOM     55  N   UNL     1      10.325  -7.261  -4.123  1.00  0.00    -0.354 N 
ATOM     56  C   UNL     1      13.585  -4.608  -2.470  1.00  0.00     0.074 A 
ATOM     57  C   UNL     1      12.660  -3.524  -2.255  1.00  0.00     0.031 C 
ATOM     58  C   UNL     1       8.492  -7.573  -5.351  1.00  0.00     0.029 A 
ATOM     59  C   UNL     1       9.186  -8.060  -4.173  1.00  0.00     0.049 A 
ATOM     60  H   UNL     1      11.053  -7.418  -3.479  1.00  0.00     0.167 HD
ATOM     61  C   UNL     1      14.419  -5.251  -1.605  1.00  0.00     0.031 A 
ATOM     62  C   UNL     1       8.837  -9.034  -3.291  1.00  0.00     0.031 A 
ATOM     63  C   UNL     1      15.056  -6.384  -2.234  1.00  0.00     0.049 A 
ATOM     64  C   UNL     1      10.079  -9.427  -2.580  1.00  0.00     0.074 A 
ATOM     65  C   UNL     1      15.855  -6.558  -3.348  1.00  0.00     0.029 A 
ATOM     66  N   UNL     1      14.534  -7.625  -1.948  1.00  0.00    -0.354 N 
ATOM     67  N   UNL     1      11.082 -10.013  -3.172  1.00  0.00    -0.248 NA
ATOM     68  C   UNL     1      10.401  -8.741  -1.340  1.00  0.00     0.031 C 
ATOM     69  C   UNL     1      15.386  -7.763  -3.952  1.00  0.00     0.029 A 
ATOM     70  C   UNL     1      14.395  -8.306  -3.131  1.00  0.00     0.049 A 
ATOM     71  H   UNL     1      14.301  -7.964  -1.054  1.00  0.00     0.167 HD
ATOM     72  C   UNL     1      12.209  -9.398  -2.647  1.00  0.00     0.074 A 
ATOM     73  C   UNL     1      11.732  -8.693  -1.456  1.00  0.00     0.031 C 
ATOM     74  C   UNL     1      13.355  -9.282  -3.383  1.00  0.00     0.031 A 
BRANCH  61  75
ATOM     75  C   UNL     1      14.309  -5.136  -0.103  1.00  0.00    -0.014 A 
ATOM     76  C   UNL     1      15.247  -5.823   0.694  1.00  0.00     0.010 A 
ATOM     77  C   UNL     1      13.174  -4.616   0.552  1.00  0.00     0.010 A 
ATOM     78  C   UNL     1      15.019  -6.042   2.059  1.00  0.00     0.020 A 
ATOM     79  C   UNL     1      12.959  -4.789   1.920  1.00  0.00     0.020 A 
ATOM     80  C   UNL     1      13.868  -5.532   2.659  1.00  0.00     0.054 A 
BRANCH  80  81
ATOM     81  S   UNL     1      13.538  -5.896   4.398  1.00  0.00     0.124 S 
ATOM     82  O   UNL     1      13.334  -7.341   4.368  1.00  0.00    -0.237 OA
ATOM     83  O   UNL     1      14.765  -5.440   5.045  1.00  0.00    -0.237 OA
ATOM     84  O   UNL     1      12.350  -5.099   4.695  1.00  0.00    -0.744 OA
ENDBRANCH  80  81
ENDBRANCH  61  75
BRANCH  62  85
ATOM     85  C   UNL     1       7.492  -9.414  -2.785  1.00  0.00    -0.014 A 
ATOM     86  C   UNL     1       7.321 -10.575  -2.003  1.00  0.00     0.010 A 
ATOM     87  C   UNL     1       6.444  -8.472  -2.791  1.00  0.00     0.010 A 
ATOM     88  C   UNL     1       6.190 -10.739  -1.181  1.00  0.00     0.020 A 
ATOM     89  C   UNL     1       5.312  -8.633  -1.980  1.00  0.00     0.020 A 
ATOM     90  C   UNL     1       5.206  -9.749  -1.153  1.00  0.00     0.054 A 
BRANCH  90  91
ATOM     91  S   UNL     1       3.868  -9.847   0.078  1.00  0.00     0.124 S 
ATOM     92  O   UNL     1       3.048 -10.939  -0.438  1.00  0.00    -0.237 OA
ATOM     93  O   UNL     1       4.591 -10.128   1.315  1.00  0.00    -0.237 OA
ATOM     94  O   UNL     1       3.249  -8.523   0.017  1.00  0.00    -0.744 OA
ENDBRANCH  90  91
ENDBRANCH  62  85
BRANCH  74  95
ATOM     95  C   UNL     1      13.470 -10.089  -4.660  1.00  0.00    -0.014 A 
ATOM     96  C   UNL     1      12.581  -9.992  -5.751  1.00  0.00     0.010 A 
ATOM     97  C   UNL     1      14.598 -10.915  -4.795  1.00  0.00     0.010 A 
ATOM     98  C   UNL     1      12.790 -10.745  -6.918  1.00  0.00     0.020 A 
ATOM     99  C   UNL     1      14.824 -11.651  -5.959  1.00  0.00     0.020 A 
ATOM    100  C   UNL     1      13.908 -11.580  -7.008  1.00  0.00     0.054 A 
BRANCH 100 101
ATOM    101  S   UNL     1      14.171 -12.572  -8.505  1.00  0.00     0.124 S 
ATOM    102  O   UNL     1      13.060 -13.520  -8.457  1.00  0.00    -0.237 OA
ATOM    103  O   UNL     1      14.103 -11.577  -9.572  1.00  0.00    -0.237 OA
ATOM    104  O   UNL     1      15.494 -13.163  -8.305  1.00  0.00    -0.744 OA
ENDBRANCH 100 101
ENDBRANCH  74  95
ENDBRANCH  48  49
ENDBRANCH  40  43
ENDBRANCH  38  39
ENDBRANCH  37  38
ENDBRANCH  36  37
ENDBRANCH   1  36
TORSDOF 21
