REMARK SMILES CC(C)[C@H](C)CNC(=O)N1CC(n2cc(C(=O)NCCCCCCNC(=O)c3ccc(-c4c5nc(c(-c6ccc(S(=O)(=O)[O-])cc6)c6ccc([nH]6)c(-c6ccc(S(=O)(=O)[O-])cc6)c6nc(c(-c7ccc(S(=O)(=O)[O-])cc7)c7ccc4[nH]7)C=C6)C=C5)cc3)nn2)C1
REMARK SMILES IDX 21 1 20 2 19 3 18 4 16 5 17 6 15 8 13 9 14 10 89 11 88 12
REMARK SMILES IDX 12 13 7 14 8 15 9 17 10 18 11 19 90 20 6 21 4 22 5 23 2 24
REMARK SMILES IDX 1 25 3 26 22 27 23 28 24 29 25 30 26 31 27 33 28 34 29 35
REMARK SMILES IDX 87 36 30 37 86 38 31 39 32 40 33 41 80 42 34 43 85 44 79 45
REMARK SMILES IDX 81 46 35 47 84 48 78 49 77 50 36 52 66 53 47 54 65 55 48 56
REMARK SMILES IDX 51 57 64 58 82 59 49 60 50 61 63 63 83 64 52 65 37 66 38 67
REMARK SMILES IDX 46 68 39 69 45 70 40 71 41 72 42 73 43 74 44 75 67 76 68 77
REMARK SMILES IDX 76 78 69 79 75 80 70 81 71 82 72 83 73 84 74 85 53 86 54 87
REMARK SMILES IDX 62 88 55 89 61 90 56 91 57 92 58 93 59 94 60 95
REMARK H PARENT 18 7 7 16 25 32 81 51 51 62
REMARK Flexibility Score: inf
ROOT
ATOM      1  C   UNL     1     -10.234   6.540  -5.038  1.00  0.00     0.002 C 
ENDROOT
BRANCH   1   2
ATOM      2  C   UNL     1      -9.181   5.437  -5.214  1.00  0.00     0.021 C 
BRANCH   2   3
ATOM      3  C   UNL     1      -8.889   4.640  -3.944  1.00  0.00     0.116 C 
BRANCH   3   4
ATOM      4  N   UNL     1      -9.943   3.685  -3.668  1.00  0.00    -0.351 N 
ATOM      5  C   UNL     1      -9.925   2.318  -3.520  1.00  0.00     0.273 C 
ATOM      6  O   UNL     1     -10.966   1.793  -3.121  1.00  0.00    -0.267 OA
ATOM      7  H   UNL     1     -10.836   4.089  -3.568  1.00  0.00     0.163 HD
BRANCH   5   8
ATOM      8  C   UNL     1      -8.716   1.539  -3.765  1.00  0.00     0.170 A 
ATOM      9  N   UNL     1      -6.778   0.737  -4.340  1.00  0.00    -0.245 N 
ATOM     10  C   UNL     1      -7.656   1.748  -4.627  1.00  0.00     0.145 A 
ATOM     11  N   UNL     1      -7.285  -0.095  -3.419  1.00  0.00    -0.066 NA
ATOM     12  N   UNL     1      -8.485   0.360  -3.087  1.00  0.00    -0.125 NA
BRANCH   9  13
ATOM     13  C   UNL     1      -5.437   0.689  -4.836  1.00  0.00     0.148 C 
ATOM     14  N   UNL     1      -1.405   1.015  -3.729  1.00  0.00    -0.338 N 
ATOM     15  C   UNL     1      -2.260   0.148  -4.329  1.00  0.00     0.317 C 
ATOM     16  H   UNL     1      -0.550   1.146  -4.200  1.00  0.00     0.165 HD
ATOM     17  O   UNL     1      -1.792  -0.691  -5.097  1.00  0.00    -0.249 OA
ATOM     18  N   UNL     1      -3.587   0.227  -4.065  1.00  0.00    -0.320 N 
ATOM     19  C   UNL     1      -4.663  -0.615  -4.588  1.00  0.00     0.150 C 
ATOM     20  C   UNL     1      -4.471   1.351  -3.825  1.00  0.00     0.150 C 
BRANCH  14  21
ATOM     21  C   UNL     1      -1.551   1.781  -2.499  1.00  0.00     0.121 C 
BRANCH  21  22
ATOM     22  C   UNL     1      -1.133   0.961  -1.255  1.00  0.00     0.008 C 
ATOM     23  C   UNL     1       0.352   0.572  -1.350  1.00  0.00     0.010 C 
BRANCH  22  24
ATOM     24  C   UNL     1      -1.485   1.622   0.119  1.00  0.00    -0.013 C 
ATOM     25  C   UNL     1      -0.366   2.470   0.736  1.00  0.00     0.008 C 
ATOM     26  C   UNL     1      -2.779   2.441   0.097  1.00  0.00     0.008 C 
ENDBRANCH  22  24
ENDBRANCH  21  22
ENDBRANCH  14  21
ENDBRANCH   9  13
ENDBRANCH   5   8
ENDBRANCH   3   4
ENDBRANCH   2   3
ENDBRANCH   1   2
BRANCH   1  27
ATOM     27  C   UNL     1      -9.959   7.570  -3.929  1.00  0.00     0.002 C 
BRANCH  27  28
ATOM     28  C   UNL     1      -8.562   8.209  -3.908  1.00  0.00     0.021 C 
BRANCH  28  29
ATOM     29  C   UNL     1      -8.259   9.080  -5.117  1.00  0.00     0.116 C 
BRANCH  29  30
ATOM     30  N   UNL     1      -9.100  10.275  -5.171  1.00  0.00    -0.352 N 
ATOM     31  C   UNL     1      -9.179  11.232  -6.170  1.00  0.00     0.251 C 
ATOM     32  H   UNL     1      -9.688  10.419  -4.394  1.00  0.00     0.163 HD
ATOM     33  O   UNL     1      -9.614  12.345  -5.932  1.00  0.00    -0.269 OA
BRANCH  31  34
ATOM     34  C   UNL     1      -8.723  10.869  -7.525  1.00  0.00     0.039 A 
ATOM     35  C   UNL     1      -8.024  11.768  -8.334  1.00  0.00     0.014 A 
ATOM     36  C   UNL     1      -8.987   9.577  -7.966  1.00  0.00     0.014 A 
ATOM     37  C   UNL     1      -7.522  11.319  -9.555  1.00  0.00     0.010 A 
ATOM     38  C   UNL     1      -8.335   9.087  -9.065  1.00  0.00     0.010 A 
ATOM     39  C   UNL     1      -7.664   9.966  -9.903  1.00  0.00    -0.014 A 
BRANCH  39  40
ATOM     40  C   UNL     1      -7.077   9.424 -11.120  1.00  0.00     0.031 A 
ATOM     41  C   UNL     1      -5.622   9.654 -11.287  1.00  0.00     0.074 A 
ATOM     42  C   UNL     1      -7.742   8.597 -11.955  1.00  0.00     0.049 A 
ATOM     43  N   UNL     1      -5.056  10.503 -12.076  1.00  0.00    -0.248 NA
ATOM     44  C   UNL     1      -4.689   8.960 -10.388  1.00  0.00     0.031 C 
ATOM     45  C   UNL     1      -9.080   8.009 -11.805  1.00  0.00     0.029 A 
ATOM     46  N   UNL     1      -7.291   8.017 -13.096  1.00  0.00    -0.354 N 
ATOM     47  C   UNL     1      -3.687  10.301 -11.944  1.00  0.00     0.074 A 
ATOM     48  C   UNL     1      -3.519   9.482 -10.769  1.00  0.00     0.031 C 
ATOM     49  C   UNL     1      -9.231   6.993 -12.682  1.00  0.00     0.029 A 
ATOM     50  C   UNL     1      -8.091   6.991 -13.578  1.00  0.00     0.049 A 
ATOM     51  H   UNL     1      -6.462   8.301 -13.546  1.00  0.00     0.167 HD
ATOM     52  C   UNL     1      -2.820  10.631 -12.943  1.00  0.00     0.031 A 
ATOM     53  C   UNL     1      -7.833   6.196 -14.644  1.00  0.00     0.031 A 
ATOM     54  C   UNL     1      -3.470  11.399 -13.976  1.00  0.00     0.049 A 
ATOM     55  C   UNL     1      -6.880   6.937 -15.506  1.00  0.00     0.074 A 
ATOM     56  C   UNL     1      -4.129  12.612 -14.021  1.00  0.00     0.029 A 
ATOM     57  N   UNL     1      -3.863  10.714 -15.105  1.00  0.00    -0.354 N 
ATOM     58  N   UNL     1      -7.190   8.050 -16.111  1.00  0.00    -0.248 NA
ATOM     59  C   UNL     1      -5.456   6.703 -15.329  1.00  0.00     0.031 C 
ATOM     60  C   UNL     1      -5.237  12.395 -14.893  1.00  0.00     0.029 A 
ATOM     61  C   UNL     1      -5.151  11.091 -15.389  1.00  0.00     0.049 A 
ATOM     62  H   UNL     1      -3.318  10.072 -15.615  1.00  0.00     0.167 HD
ATOM     63  C   UNL     1      -6.059   8.847 -15.995  1.00  0.00     0.074 A 
ATOM     64  C   UNL     1      -4.992   7.927 -15.604  1.00  0.00     0.031 C 
ATOM     65  C   UNL     1      -6.153  10.211 -15.958  1.00  0.00     0.031 A 
BRANCH  52  66
ATOM     66  C   UNL     1      -1.500   9.945 -13.192  1.00  0.00    -0.014 A 
ATOM     67  C   UNL     1      -0.661  10.443 -14.210  1.00  0.00     0.010 A 
ATOM     68  C   UNL     1      -1.177   8.683 -12.655  1.00  0.00     0.010 A 
ATOM     69  C   UNL     1       0.399   9.681 -14.718  1.00  0.00     0.020 A 
ATOM     70  C   UNL     1      -0.096   7.934 -13.124  1.00  0.00     0.020 A 
ATOM     71  C   UNL     1       0.663   8.422 -14.180  1.00  0.00     0.054 A 
BRANCH  71  72
ATOM     72  S   UNL     1       1.955   7.395 -14.921  1.00  0.00     0.124 S 
ATOM     73  O   UNL     1       1.395   7.116 -16.239  1.00  0.00    -0.237 OA
ATOM     74  O   UNL     1       3.110   8.288 -14.897  1.00  0.00    -0.237 OA
ATOM     75  O   UNL     1       2.039   6.249 -14.019  1.00  0.00    -0.744 OA
ENDBRANCH  71  72
ENDBRANCH  52  66
BRANCH  53  76
ATOM     76  C   UNL     1      -8.131   4.754 -14.800  1.00  0.00    -0.014 A 
ATOM     77  C   UNL     1      -8.042   4.126 -16.055  1.00  0.00     0.010 A 
ATOM     78  C   UNL     1      -8.223   3.931 -13.657  1.00  0.00     0.010 A 
ATOM     79  C   UNL     1      -7.974   2.726 -16.158  1.00  0.00     0.020 A 
ATOM     80  C   UNL     1      -8.160   2.536 -13.753  1.00  0.00     0.020 A 
ATOM     81  C   UNL     1      -8.010   1.941 -15.002  1.00  0.00     0.054 A 
BRANCH  81  82
ATOM     82  S   UNL     1      -7.725   0.149 -15.128  1.00  0.00     0.124 S 
ATOM     83  O   UNL     1      -8.955  -0.316 -15.762  1.00  0.00    -0.237 OA
ATOM     84  O   UNL     1      -6.521   0.077 -15.951  1.00  0.00    -0.237 OA
ATOM     85  O   UNL     1      -7.547  -0.267 -13.738  1.00  0.00    -0.744 OA
ENDBRANCH  81  82
ENDBRANCH  53  76
BRANCH  65  86
ATOM     86  C   UNL     1      -7.482  10.848 -16.309  1.00  0.00    -0.014 A 
ATOM     87  C   UNL     1      -8.669  10.635 -15.580  1.00  0.00     0.010 A 
ATOM     88  C   UNL     1      -7.489  11.824 -17.322  1.00  0.00     0.010 A 
ATOM     89  C   UNL     1      -9.835  11.360 -15.874  1.00  0.00     0.020 A 
ATOM     90  C   UNL     1      -8.640  12.562 -17.608  1.00  0.00     0.020 A 
ATOM     91  C   UNL     1      -9.812  12.321 -16.889  1.00  0.00     0.054 A 
BRANCH  91  92
ATOM     92  S   UNL     1     -11.306  13.293 -17.235  1.00  0.00     0.124 S 
ATOM     93  O   UNL     1     -12.203  12.300 -17.819  1.00  0.00    -0.237 OA
ATOM     94  O   UNL     1     -11.687  13.785 -15.913  1.00  0.00    -0.237 OA
ATOM     95  O   UNL     1     -10.842  14.327 -18.160  1.00  0.00    -0.744 OA
ENDBRANCH  91  92
ENDBRANCH  65  86
ENDBRANCH  39  40
ENDBRANCH  31  34
ENDBRANCH  29  30
ENDBRANCH  28  29
ENDBRANCH  27  28
ENDBRANCH   1  27
TORSDOF 20
