REMARK SMILES COc1cccc(-c2c(C(=O)NCCCCCCNC(=O)c3ccc(-c4c5nc(c(-c6ccc(S(=O)(=O)[O-])cc6)c6ccc([nH]6)c(-c6ccc(S(=O)(=O)[O-])cc6)c6nc(c(-c7ccc(S(=O)(=O)[O-])cc7)c7ccc4[nH]7)C=C6)C=C5)cc3)nnn2Cc2ccc(OC(F)(F)F)cc2)c1
REMARK SMILES IDX 15 1 14 2 13 3 12 4 10 5 11 6 9 8 8 9 84 10 82 11 83 12 7 13
REMARK SMILES IDX 3 14 4 15 97 16 5 17 6 18 2 19 1 20 85 21 86 22 87 23 96 24
REMARK SMILES IDX 88 25 95 26 89 27 90 28 91 29 92 30 93 31 94 32 16 33 17 34
REMARK SMILES IDX 18 35 19 36 20 37 21 39 22 40 23 41 81 42 24 43 80 44 25 45
REMARK SMILES IDX 26 46 27 47 74 48 28 49 79 50 73 51 75 52 29 53 78 54 72 55
REMARK SMILES IDX 71 56 30 58 60 59 41 60 59 61 42 62 45 63 58 64 76 65 43 66
REMARK SMILES IDX 44 67 57 69 77 70 46 71 31 72 32 73 40 74 33 75 39 76 34 77
REMARK SMILES IDX 35 78 36 79 37 80 38 81 61 82 62 83 70 84 63 85 69 86 64 87
REMARK SMILES IDX 65 88 66 89 67 90 68 91 47 92 48 93 56 94 49 95 55 96 50 97
REMARK SMILES IDX 51 98 52 99 53 100 54 101
REMARK H PARENT 12 7 19 38 75 57 45 68
REMARK Flexibility Score: inf
ROOT
ATOM      1  C   UNL     1      -0.150   0.968  -6.194  1.00  0.00     0.002 C 
ENDROOT
BRANCH   1   2
ATOM      2  C   UNL     1       0.806   0.648  -5.053  1.00  0.00     0.021 C 
BRANCH   2   3
ATOM      3  C   UNL     1       1.610  -0.633  -5.155  1.00  0.00     0.116 C 
BRANCH   3   4
ATOM      4  N   UNL     1       2.661  -0.686  -6.123  1.00  0.00    -0.351 N 
ATOM      5  C   UNL     1       3.873  -1.343  -6.049  1.00  0.00     0.274 C 
ATOM      6  O   UNL     1       4.551  -1.286  -7.081  1.00  0.00    -0.267 OA
ATOM      7  H   UNL     1       2.499  -0.185  -6.956  1.00  0.00     0.163 HD
BRANCH   5   8
ATOM      8  C   UNL     1       4.389  -2.034  -4.848  1.00  0.00     0.178 A 
ATOM      9  C   UNL     1       3.848  -2.593  -3.678  1.00  0.00     0.102 A 
ATOM     10  N   UNL     1       4.962  -3.056  -3.000  1.00  0.00    -0.239 N 
ATOM     11  N   UNL     1       5.763  -2.212  -4.802  1.00  0.00    -0.124 NA
ATOM     12  N   UNL     1       6.094  -2.783  -3.664  1.00  0.00    -0.066 NA
BRANCH   9  13
ATOM     13  C   UNL     1       2.503  -2.729  -3.117  1.00  0.00     0.006 A 
ATOM     14  C   UNL     1       0.821  -1.961  -1.525  1.00  0.00     0.119 A 
ATOM     15  C   UNL     1      -0.111  -2.804  -2.132  1.00  0.00     0.046 A 
ATOM     16  C   UNL     1       2.130  -1.938  -2.007  1.00  0.00     0.056 A 
ATOM     17  C   UNL     1       0.252  -3.606  -3.217  1.00  0.00     0.005 A 
ATOM     18  C   UNL     1       1.560  -3.576  -3.706  1.00  0.00     0.011 A 
BRANCH  14  19
ATOM     19  O   UNL     1       0.344  -1.238  -0.468  1.00  0.00    -0.497 OA
ATOM     20  C   UNL     1       1.018  -0.020  -0.158  1.00  0.00     0.278 C 
ENDBRANCH  14  19
ENDBRANCH   9  13
BRANCH  10  21
ATOM     21  C   UNL     1       5.049  -3.715  -1.703  1.00  0.00     0.182 C 
BRANCH  21  22
ATOM     22  C   UNL     1       5.459  -5.164  -1.824  1.00  0.00    -0.026 A 
ATOM     23  C   UNL     1       4.563  -6.199  -1.534  1.00  0.00     0.009 A 
ATOM     24  C   UNL     1       6.762  -5.496  -2.220  1.00  0.00     0.009 A 
ATOM     25  C   UNL     1       4.971  -7.533  -1.642  1.00  0.00     0.047 A 
ATOM     26  C   UNL     1       7.162  -6.828  -2.342  1.00  0.00     0.047 A 
ATOM     27  C   UNL     1       6.269  -7.857  -2.051  1.00  0.00     0.129 A 
BRANCH  27  28
ATOM     28  O   UNL     1       6.535  -9.195  -2.117  1.00  0.00    -0.406 OA
BRANCH  28  29
ATOM     29  C   UNL     1       7.808  -9.581  -2.606  1.00  0.00     0.573 C 
ATOM     30  F   UNL     1       8.000  -9.149  -3.870  1.00  0.00    -0.132 F 
ATOM     31  F   UNL     1       8.802  -9.124  -1.814  1.00  0.00    -0.132 F 
ATOM     32  F   UNL     1       7.875 -10.932  -2.615  1.00  0.00    -0.132 F 
ENDBRANCH  28  29
ENDBRANCH  27  28
ENDBRANCH  21  22
ENDBRANCH  10  21
ENDBRANCH   5   8
ENDBRANCH   3   4
ENDBRANCH   2   3
ENDBRANCH   1   2
BRANCH   1  33
ATOM     33  C   UNL     1      -1.082  -0.147  -6.690  1.00  0.00     0.002 C 
BRANCH  33  34
ATOM     34  C   UNL     1      -1.906  -0.940  -5.663  1.00  0.00     0.021 C 
BRANCH  34  35
ATOM     35  C   UNL     1      -2.797  -0.112  -4.756  1.00  0.00     0.116 C 
BRANCH  35  36
ATOM     36  N   UNL     1      -3.831   0.643  -5.472  1.00  0.00    -0.352 N 
ATOM     37  C   UNL     1      -4.764   1.537  -4.961  1.00  0.00     0.251 C 
ATOM     38  H   UNL     1      -3.868   0.496  -6.444  1.00  0.00     0.163 HD
ATOM     39  O   UNL     1      -5.786   1.793  -5.579  1.00  0.00    -0.269 OA
BRANCH  37  40
ATOM     40  C   UNL     1      -4.488   2.181  -3.660  1.00  0.00     0.039 A 
ATOM     41  C   UNL     1      -5.485   2.522  -2.741  1.00  0.00     0.014 A 
ATOM     42  C   UNL     1      -3.156   2.422  -3.364  1.00  0.00     0.014 A 
ATOM     43  C   UNL     1      -5.099   3.062  -1.512  1.00  0.00     0.010 A 
ATOM     44  C   UNL     1      -2.779   2.647  -2.077  1.00  0.00     0.010 A 
ATOM     45  C   UNL     1      -3.733   3.117  -1.196  1.00  0.00    -0.014 A 
BRANCH  45  46
ATOM     46  C   UNL     1      -3.217   3.599   0.073  1.00  0.00     0.031 A 
ATOM     47  C   UNL     1      -3.677   2.812   1.236  1.00  0.00     0.074 A 
ATOM     48  C   UNL     1      -2.195   4.483   0.149  1.00  0.00     0.049 A 
ATOM     49  N   UNL     1      -4.572   3.150   2.100  1.00  0.00    -0.248 NA
ATOM     50  C   UNL     1      -3.238   1.409   1.343  1.00  0.00     0.031 C 
ATOM     51  C   UNL     1      -1.405   5.073  -0.945  1.00  0.00     0.029 A 
ATOM     52  N   UNL     1      -1.555   4.953   1.250  1.00  0.00    -0.354 N 
ATOM     53  C   UNL     1      -4.609   2.109   3.018  1.00  0.00     0.074 A 
ATOM     54  C   UNL     1      -3.979   0.987   2.370  1.00  0.00     0.031 C 
ATOM     55  C   UNL     1      -0.271   5.618  -0.448  1.00  0.00     0.029 A 
ATOM     56  C   UNL     1      -0.334   5.574   1.001  1.00  0.00     0.049 A 
ATOM     57  H   UNL     1      -1.926   4.862   2.157  1.00  0.00     0.167 HD
ATOM     58  C   UNL     1      -4.869   2.345   4.335  1.00  0.00     0.031 A 
ATOM     59  C   UNL     1       0.567   5.996   1.927  1.00  0.00     0.031 A 
ATOM     60  C   UNL     1      -5.340   3.695   4.541  1.00  0.00     0.049 A 
ATOM     61  C   UNL     1      -0.175   6.135   3.205  1.00  0.00     0.074 A 
ATOM     62  C   UNL     1      -6.404   4.440   4.071  1.00  0.00     0.029 A 
ATOM     63  N   UNL     1      -4.416   4.605   5.005  1.00  0.00    -0.354 N 
ATOM     64  N   UNL     1      -1.131   7.005   3.381  1.00  0.00    -0.248 NA
ATOM     65  C   UNL     1      -0.199   4.994   4.107  1.00  0.00     0.031 C 
ATOM     66  C   UNL     1      -5.867   5.742   3.839  1.00  0.00     0.029 A 
ATOM     67  C   UNL     1      -4.535   5.749   4.259  1.00  0.00     0.049 A 
ATOM     68  H   UNL     1      -3.781   4.459   5.743  1.00  0.00     0.167 HD
ATOM     69  C   UNL     1      -2.110   6.319   4.087  1.00  0.00     0.074 A 
ATOM     70  C   UNL     1      -1.439   5.119   4.589  1.00  0.00     0.031 C 
ATOM     71  C   UNL     1      -3.432   6.639   3.953  1.00  0.00     0.031 A 
BRANCH  58  72
ATOM     72  C   UNL     1      -4.278   1.536   5.466  1.00  0.00    -0.014 A 
ATOM     73  C   UNL     1      -4.629   1.883   6.787  1.00  0.00     0.010 A 
ATOM     74  C   UNL     1      -3.196   0.647   5.307  1.00  0.00     0.010 A 
ATOM     75  C   UNL     1      -3.876   1.439   7.880  1.00  0.00     0.020 A 
ATOM     76  C   UNL     1      -2.465   0.162   6.392  1.00  0.00     0.020 A 
ATOM     77  C   UNL     1      -2.786   0.594   7.670  1.00  0.00     0.054 A 
BRANCH  77  78
ATOM     78  S   UNL     1      -1.749   0.121   9.073  1.00  0.00     0.124 S 
ATOM     79  O   UNL     1      -1.164   1.402   9.455  1.00  0.00    -0.237 OA
ATOM     80  O   UNL     1      -2.727  -0.436  10.003  1.00  0.00    -0.237 OA
ATOM     81  O   UNL     1      -0.819  -0.848   8.497  1.00  0.00    -0.744 OA
ENDBRANCH  77  78
ENDBRANCH  58  72
BRANCH  59  82
ATOM     82  C   UNL     1       2.053   5.960   1.859  1.00  0.00    -0.014 A 
ATOM     83  C   UNL     1       2.846   6.632   2.811  1.00  0.00     0.010 A 
ATOM     84  C   UNL     1       2.694   5.018   1.029  1.00  0.00     0.010 A 
ATOM     85  C   UNL     1       4.209   6.318   2.975  1.00  0.00     0.020 A 
ATOM     86  C   UNL     1       4.050   4.703   1.183  1.00  0.00     0.020 A 
ATOM     87  C   UNL     1       4.797   5.335   2.175  1.00  0.00     0.054 A 
BRANCH  87  88
ATOM     88  S   UNL     1       6.498   4.786   2.519  1.00  0.00     0.124 S 
ATOM     89  O   UNL     1       7.291   5.926   2.068  1.00  0.00    -0.237 OA
ATOM     90  O   UNL     1       6.475   4.561   3.961  1.00  0.00    -0.237 OA
ATOM     91  O   UNL     1       6.635   3.575   1.711  1.00  0.00    -0.744 OA
ENDBRANCH  87  88
ENDBRANCH  59  82
BRANCH  71  92
ATOM     92  C   UNL     1      -3.791   7.928   3.243  1.00  0.00    -0.014 A 
ATOM     93  C   UNL     1      -3.496   8.196   1.890  1.00  0.00     0.010 A 
ATOM     94  C   UNL     1      -4.596   8.843   3.942  1.00  0.00     0.010 A 
ATOM     95  C   UNL     1      -3.974   9.361   1.267  1.00  0.00     0.020 A 
ATOM     96  C   UNL     1      -5.089   9.994   3.324  1.00  0.00     0.020 A 
ATOM     97  C   UNL     1      -4.768  10.254   1.992  1.00  0.00     0.054 A 
BRANCH  97  98
ATOM     98  S   UNL     1      -5.415  11.744   1.181  1.00  0.00     0.124 S 
ATOM     99  O   UNL     1      -4.208  12.535   0.960  1.00  0.00    -0.237 OA
ATOM    100  O   UNL     1      -6.047  11.210  -0.023  1.00  0.00    -0.237 OA
ATOM    101  O   UNL     1      -6.346  12.300   2.163  1.00  0.00    -0.744 OA
ENDBRANCH  97  98
ENDBRANCH  71  92
ENDBRANCH  45  46
ENDBRANCH  37  40
ENDBRANCH  35  36
ENDBRANCH  34  35
ENDBRANCH  33  34
ENDBRANCH   1  33
TORSDOF 22
