REMARK SMILES O=C(NCCCCCCNC(=O)c1nnn(-c2cccc(C(F)(F)F)c2)c1[C@@H]1COc2ccccc2O1)c1ccc(-c2c3nc(c(-c4ccc(S(=O)(=O)[O-])cc4)c4ccc([nH]4)c(-c4ccc(S(=O)(=O)[O-])cc4)c4nc(c(-c5ccc(S(=O)(=O)[O-])cc5)c5ccc2[nH]5)C=C4)C=C3)cc1
REMARK SMILES IDX 6 1 5 2 4 3 3 4 1 5 2 6 38 8 39 9 97 10 40 11 96 12 41 13
REMARK SMILES IDX 42 14 43 15 90 16 44 17 95 18 89 19 91 20 45 21 94 22 88 23
REMARK SMILES IDX 87 24 46 26 76 27 57 28 75 29 58 30 61 31 74 32 92 33 59 34
REMARK SMILES IDX 60 35 73 37 93 38 62 39 47 40 48 41 56 42 49 43 55 44 50 45
REMARK SMILES IDX 51 46 52 47 53 48 54 49 77 50 78 51 86 52 79 53 85 54 80 55
REMARK SMILES IDX 81 56 82 57 83 58 84 59 63 60 64 61 72 62 65 63 71 64 66 65
REMARK SMILES IDX 67 66 68 67 69 68 70 69 7 70 8 71 9 72 10 73 11 74 12 76
REMARK SMILES IDX 13 77 14 78 27 79 15 80 16 81 28 82 29 83 37 84 30 85 36 86
REMARK SMILES IDX 31 87 35 88 32 89 34 90 33 91 17 92 18 93 26 94 19 95 21 96
REMARK SMILES IDX 20 97 22 98 23 99 24 100 25 101
REMARK H PARENT 3 7 91 25 61 36 10 75
REMARK Flexibility Score: inf
ROOT
ATOM      1  C   UNL     1       3.935   0.687  -3.530  1.00  0.00     0.002 C 
ENDROOT
BRANCH   1   2
ATOM      2  C   UNL     1       4.625   0.001  -2.343  1.00  0.00     0.021 C 
BRANCH   2   3
ATOM      3  C   UNL     1       4.551   0.745  -1.010  1.00  0.00     0.116 C 
BRANCH   3   4
ATOM      4  N   UNL     1       3.213   1.074  -0.570  1.00  0.00    -0.352 N 
ATOM      5  O   UNL     1       1.208   1.048   0.349  1.00  0.00    -0.269 OA
ATOM      6  C   UNL     1       2.200   0.385   0.036  1.00  0.00     0.251 C 
ATOM      7  H   UNL     1       2.976   2.012  -0.750  1.00  0.00     0.163 HD
BRANCH   6   8
ATOM      8  C   UNL     1       2.192  -1.082   0.283  1.00  0.00     0.039 A 
ATOM      9  C   UNL     1       3.307  -1.922   0.247  1.00  0.00     0.014 A 
ATOM     10  C   UNL     1       0.935  -1.646   0.568  1.00  0.00     0.014 A 
ATOM     11  C   UNL     1       3.163  -3.299   0.396  1.00  0.00     0.010 A 
ATOM     12  C   UNL     1       0.788  -3.015   0.745  1.00  0.00     0.010 A 
ATOM     13  C   UNL     1       1.900  -3.847   0.619  1.00  0.00    -0.014 A 
BRANCH  13  14
ATOM     14  C   UNL     1       1.792  -5.290   0.830  1.00  0.00     0.031 A 
ATOM     15  C   UNL     1       2.410  -5.815   2.088  1.00  0.00     0.074 A 
ATOM     16  C   UNL     1       1.011  -6.067   0.052  1.00  0.00     0.049 A 
ATOM     17  N   UNL     1       3.244  -6.794   2.243  1.00  0.00    -0.248 NA
ATOM     18  C   UNL     1       2.099  -5.097   3.337  1.00  0.00     0.031 C 
ATOM     19  C   UNL     1       0.103  -5.625  -1.012  1.00  0.00     0.029 A 
ATOM     20  N   UNL     1       0.743  -7.400   0.154  1.00  0.00    -0.354 N 
ATOM     21  C   UNL     1       3.423  -6.936   3.621  1.00  0.00     0.074 A 
ATOM     22  C   UNL     1       2.798  -5.791   4.232  1.00  0.00     0.031 C 
ATOM     23  C   UNL     1      -0.786  -6.608  -1.270  1.00  0.00     0.029 A 
ATOM     24  C   UNL     1      -0.430  -7.780  -0.487  1.00  0.00     0.049 A 
ATOM     25  H   UNL     1       1.325  -8.032   0.634  1.00  0.00     0.167 HD
ATOM     26  C   UNL     1       3.897  -8.077   4.196  1.00  0.00     0.031 A 
ATOM     27  C   UNL     1      -1.122  -8.932  -0.309  1.00  0.00     0.031 A 
ATOM     28  C   UNL     1       4.583  -8.920   3.258  1.00  0.00     0.049 A 
ATOM     29  C   UNL     1      -0.210  -9.914   0.323  1.00  0.00     0.074 A 
ATOM     30  C   UNL     1       5.703  -8.789   2.463  1.00  0.00     0.029 A 
ATOM     31  N   UNL     1       3.917 -10.026   2.788  1.00  0.00    -0.354 N 
ATOM     32  N   UNL     1       0.843 -10.409  -0.265  1.00  0.00    -0.248 NA
ATOM     33  C   UNL     1      -0.235 -10.047   1.770  1.00  0.00     0.031 C 
ATOM     34  C   UNL     1       5.397  -9.512   1.274  1.00  0.00     0.029 A 
ATOM     35  C   UNL     1       4.128 -10.072   1.435  1.00  0.00     0.049 A 
ATOM     36  H   UNL     1       3.389 -10.664   3.321  1.00  0.00     0.167 HD
ATOM     37  C   UNL     1       1.787 -10.539   0.742  1.00  0.00     0.074 A 
ATOM     38  C   UNL     1       1.034 -10.405   1.986  1.00  0.00     0.031 C 
ATOM     39  C   UNL     1       3.125 -10.473   0.472  1.00  0.00     0.031 A 
BRANCH  26  40
ATOM     40  C   UNL     1       3.406  -8.600   5.529  1.00  0.00    -0.014 A 
ATOM     41  C   UNL     1       3.976  -9.778   6.058  1.00  0.00     0.010 A 
ATOM     42  C   UNL     1       2.210  -8.149   6.125  1.00  0.00     0.010 A 
ATOM     43  C   UNL     1       3.327 -10.516   7.059  1.00  0.00     0.020 A 
ATOM     44  C   UNL     1       1.579  -8.851   7.154  1.00  0.00     0.020 A 
ATOM     45  C   UNL     1       2.117 -10.057   7.581  1.00  0.00     0.054 A 
BRANCH  45  46
ATOM     46  S   UNL     1       1.199 -11.095   8.745  1.00  0.00     0.124 S 
ATOM     47  O   UNL     1       0.814 -12.220   7.900  1.00  0.00    -0.237 OA
ATOM     48  O   UNL     1       2.204 -11.381   9.765  1.00  0.00    -0.237 OA
ATOM     49  O   UNL     1       0.103 -10.232   9.181  1.00  0.00    -0.744 OA
ENDBRANCH  45  46
ENDBRANCH  26  40
BRANCH  27  50
ATOM     50  C   UNL     1      -2.598  -9.097  -0.329  1.00  0.00    -0.014 A 
ATOM     51  C   UNL     1      -3.194 -10.368  -0.418  1.00  0.00     0.010 A 
ATOM     52  C   UNL     1      -3.430  -8.007   0.003  1.00  0.00     0.010 A 
ATOM     53  C   UNL     1      -4.562 -10.545  -0.143  1.00  0.00     0.020 A 
ATOM     54  C   UNL     1      -4.793  -8.172   0.267  1.00  0.00     0.020 A 
ATOM     55  C   UNL     1      -5.350  -9.446   0.213  1.00  0.00     0.054 A 
BRANCH  55  56
ATOM     56  S   UNL     1      -7.075  -9.703   0.722  1.00  0.00     0.124 S 
ATOM     57  O   UNL     1      -7.721 -10.058  -0.538  1.00  0.00    -0.237 OA
ATOM     58  O   UNL     1      -6.961 -10.780   1.701  1.00  0.00    -0.237 OA
ATOM     59  O   UNL     1      -7.467  -8.407   1.275  1.00  0.00    -0.744 OA
ENDBRANCH  55  56
ENDBRANCH  27  50
BRANCH  39  60
ATOM     60  C   UNL     1       3.573 -10.531  -0.970  1.00  0.00    -0.014 A 
ATOM     61  C   UNL     1       3.215  -9.562  -1.927  1.00  0.00     0.010 A 
ATOM     62  C   UNL     1       4.530 -11.500  -1.322  1.00  0.00     0.010 A 
ATOM     63  C   UNL     1       3.787  -9.571  -3.207  1.00  0.00     0.020 A 
ATOM     64  C   UNL     1       5.117 -11.504  -2.591  1.00  0.00     0.020 A 
ATOM     65  C   UNL     1       4.739 -10.542  -3.529  1.00  0.00     0.054 A 
BRANCH  65  66
ATOM     66  S   UNL     1       5.534 -10.497  -5.160  1.00  0.00     0.124 S 
ATOM     67  O   UNL     1       4.451 -10.896  -6.052  1.00  0.00    -0.237 OA
ATOM     68  O   UNL     1       5.965  -9.106  -5.273  1.00  0.00    -0.237 OA
ATOM     69  O   UNL     1       6.627 -11.465  -5.040  1.00  0.00    -0.744 OA
ENDBRANCH  65  66
ENDBRANCH  39  60
ENDBRANCH  13  14
ENDBRANCH   6   8
ENDBRANCH   3   4
ENDBRANCH   2   3
ENDBRANCH   1   2
BRANCH   1  70
ATOM     70  C   UNL     1       4.305   2.150  -3.803  1.00  0.00     0.002 C 
BRANCH  70  71
ATOM     71  C   UNL     1       5.793   2.464  -3.919  1.00  0.00     0.021 C 
BRANCH  71  72
ATOM     72  C   UNL     1       6.551   1.747  -5.030  1.00  0.00     0.116 C 
BRANCH  72  73
ATOM     73  N   UNL     1       6.611   2.434  -6.293  1.00  0.00    -0.351 N 
ATOM     74  C   UNL     1       7.596   2.647  -7.236  1.00  0.00     0.273 C 
ATOM     75  H   UNL     1       5.753   2.848  -6.542  1.00  0.00     0.163 HD
ATOM     76  O   UNL     1       7.217   3.359  -8.174  1.00  0.00    -0.267 OA
BRANCH  74  77
ATOM     77  C   UNL     1       8.993   2.147  -7.223  1.00  0.00     0.178 A 
ATOM     78  N   UNL     1       9.863   2.768  -8.112  1.00  0.00    -0.124 NA
ATOM     79  C   UNL     1       9.751   1.210  -6.504  1.00  0.00     0.122 A 
ATOM     80  N   UNL     1      11.082   2.288  -7.955  1.00  0.00    -0.061 NA
ATOM     81  N   UNL     1      11.004   1.254  -7.105  1.00  0.00    -0.213 N 
BRANCH  79  82
ATOM     82  C   UNL     1       9.490   0.483  -5.221  1.00  0.00     0.262 C 
ATOM     83  C   UNL     1       9.790   1.424  -4.031  1.00  0.00     0.281 C 
ATOM     84  O   UNL     1      10.129  -0.795  -5.136  1.00  0.00    -0.477 OA
ATOM     85  O   UNL     1      11.175   1.431  -3.688  1.00  0.00    -0.485 OA
ATOM     86  C   UNL     1      10.936  -0.944  -4.036  1.00  0.00     0.162 A 
ATOM     87  C   UNL     1      11.513   0.143  -3.374  1.00  0.00     0.161 A 
ATOM     88  C   UNL     1      11.234  -2.237  -3.625  1.00  0.00     0.050 A 
ATOM     89  C   UNL     1      12.452  -0.047  -2.369  1.00  0.00     0.050 A 
ATOM     90  C   UNL     1      12.132  -2.434  -2.574  1.00  0.00     0.004 A 
ATOM     91  C   UNL     1      12.758  -1.344  -1.963  1.00  0.00     0.004 A 
ENDBRANCH  79  82
BRANCH  81  92
ATOM     92  C   UNL     1      12.121   0.424  -6.902  1.00  0.00     0.067 A 
ATOM     93  C   UNL     1      13.239   0.928  -6.232  1.00  0.00     0.028 A 
ATOM     94  C   UNL     1      12.041  -0.925  -7.264  1.00  0.00     0.041 A 
ATOM     95  C   UNL     1      14.237   0.042  -5.825  1.00  0.00     0.003 A 
ATOM     96  C   UNL     1      13.058  -1.811  -6.883  1.00  0.00     0.058 A 
ATOM     97  C   UNL     1      14.140  -1.319  -6.134  1.00  0.00     0.013 A 
BRANCH  96  98
ATOM     98  C   UNL     1      12.959  -3.282  -7.204  1.00  0.00     0.416 C 
ATOM     99  F   UNL     1      14.126  -3.784  -7.699  1.00  0.00    -0.166 F 
ATOM    100  F   UNL     1      12.660  -4.036  -6.112  1.00  0.00    -0.166 F 
ATOM    101  F   UNL     1      12.009  -3.568  -8.137  1.00  0.00    -0.166 F 
ENDBRANCH  96  98
ENDBRANCH  81  92
ENDBRANCH  74  77
ENDBRANCH  72  73
ENDBRANCH  71  72
ENDBRANCH  70  71
ENDBRANCH   1  70
TORSDOF 19
