REMARK SMILES Cc1ccccc1N[C@H](C(=O)NCCCCCCNC(=O)c1ccc(-c2c3nc(c(-c4ccc(S(=O)(=O)[O-])cc4)c4ccc([nH]4)c(-c4ccc(S(=O)(=O)[O-])cc4)c4nc(c(-c5ccc(S(=O)(=O)[O-])cc5)c5ccc2[nH]5)C=C4)C=C3)cc1)c1ccccc1
REMARK SMILES IDX 16 1 15 2 14 3 13 4 12 5 10 6 11 7 9 9 8 10 7 12 1 13 2 14
REMARK SMILES IDX 3 15 4 16 6 17 5 18 82 19 83 20 87 21 84 22 86 23 85 24
REMARK SMILES IDX 17 25 18 26 19 27 20 28 21 30 22 31 23 32 81 33 24 34 80 35
REMARK SMILES IDX 25 36 26 37 27 38 74 39 28 40 79 41 73 42 75 43 29 44 78 45
REMARK SMILES IDX 72 46 71 47 30 49 60 50 41 51 59 52 42 53 45 54 58 55 76 56
REMARK SMILES IDX 43 57 44 58 57 60 77 61 46 62 31 63 32 64 40 65 33 66 39 67
REMARK SMILES IDX 34 68 35 69 36 70 37 71 38 72 61 73 62 74 70 75 63 76 69 77
REMARK SMILES IDX 64 78 65 79 66 80 67 81 68 82 47 83 48 84 56 85 49 86 55 87
REMARK SMILES IDX 50 88 51 89 52 90 53 91 54 92
REMARK H PARENT 12 8 8 11 19 29 75 48 45 59
REMARK Flexibility Score: inf
ROOT
ATOM      1  C   UNL     1       4.945   3.990   2.377  1.00  0.00     0.002 C 
ENDROOT
BRANCH   1   2
ATOM      2  C   UNL     1       4.176   3.017   3.280  1.00  0.00     0.002 C 
BRANCH   2   3
ATOM      3  C   UNL     1       2.709   3.314   3.603  1.00  0.00     0.021 C 
BRANCH   3   4
ATOM      4  C   UNL     1       1.773   3.637   2.443  1.00  0.00     0.116 C 
BRANCH   4   5
ATOM      5  N   UNL     1       1.672   2.605   1.432  1.00  0.00    -0.354 N 
ATOM      6  C   UNL     1       1.012   2.706   0.229  1.00  0.00     0.247 C 
ATOM      7  O   UNL     1       0.965   1.705  -0.496  1.00  0.00    -0.272 OA
ATOM      8  H   UNL     1       2.118   1.749   1.623  1.00  0.00     0.163 HD
BRANCH   6   9
ATOM      9  C   UNL     1       0.329   4.050  -0.204  1.00  0.00     0.200 C 
BRANCH   9  10
ATOM     10  N   UNL     1      -0.738   4.370   0.776  1.00  0.00    -0.370 N 
ATOM     11  H   UNL     1      -1.415   3.656   0.799  1.00  0.00     0.161 HD
BRANCH  10  12
ATOM     12  C   UNL     1      -1.057   5.372   1.662  1.00  0.00     0.038 A 
ATOM     13  C   UNL     1      -2.594   3.792   3.012  1.00  0.00     0.046 C 
ATOM     14  C   UNL     1      -2.045   5.153   2.657  1.00  0.00    -0.028 A 
ATOM     15  C   UNL     1      -2.517   6.221   3.454  1.00  0.00     0.005 A 
ATOM     16  C   UNL     1      -1.978   7.493   3.338  1.00  0.00     0.000 A 
ATOM     17  C   UNL     1      -0.445   6.627   1.688  1.00  0.00     0.026 A 
ATOM     18  C   UNL     1      -0.912   7.686   2.479  1.00  0.00     0.002 A 
ENDBRANCH  10  12
ENDBRANCH   9  10
BRANCH   9  19
ATOM     19  C   UNL     1       1.290   5.136  -0.675  1.00  0.00    -0.016 A 
ATOM     20  C   UNL     1       0.809   6.348  -1.200  1.00  0.00     0.006 A 
ATOM     21  C   UNL     1       2.684   4.955  -0.655  1.00  0.00     0.006 A 
ATOM     22  C   UNL     1       1.683   7.403  -1.486  1.00  0.00     0.000 A 
ATOM     23  C   UNL     1       3.560   5.997  -0.961  1.00  0.00     0.000 A 
ATOM     24  C   UNL     1       3.057   7.235  -1.338  1.00  0.00     0.000 A 
ENDBRANCH   9  19
ENDBRANCH   6   9
ENDBRANCH   4   5
ENDBRANCH   3   4
ENDBRANCH   2   3
ENDBRANCH   1   2
BRANCH   1  25
ATOM     25  C   UNL     1       4.809   5.486   2.657  1.00  0.00     0.021 C 
BRANCH  25  26
ATOM     26  C   UNL     1       5.181   5.914   4.069  1.00  0.00     0.116 C 
BRANCH  26  27
ATOM     27  N   UNL     1       6.465   6.592   4.176  1.00  0.00    -0.352 N 
ATOM     28  C   UNL     1       6.976   7.247   5.291  1.00  0.00     0.251 C 
ATOM     29  H   UNL     1       7.033   6.587   3.371  1.00  0.00     0.163 HD
ATOM     30  O   UNL     1       7.977   7.924   5.271  1.00  0.00    -0.269 OA
BRANCH  28  31
ATOM     31  C   UNL     1       6.274   6.981   6.567  1.00  0.00     0.039 A 
ATOM     32  C   UNL     1       6.905   6.117   7.471  1.00  0.00     0.014 A 
ATOM     33  C   UNL     1       4.927   7.309   6.691  1.00  0.00     0.014 A 
ATOM     34  C   UNL     1       6.131   5.437   8.405  1.00  0.00     0.010 A 
ATOM     35  C   UNL     1       4.148   6.558   7.549  1.00  0.00     0.010 A 
ATOM     36  C   UNL     1       4.743   5.593   8.372  1.00  0.00    -0.014 A 
BRANCH  36  37
ATOM     37  C   UNL     1       3.832   4.730   9.114  1.00  0.00     0.031 A 
ATOM     38  C   UNL     1       3.234   5.221  10.373  1.00  0.00     0.074 A 
ATOM     39  C   UNL     1       3.526   3.496   8.652  1.00  0.00     0.049 A 
ATOM     40  N   UNL     1       2.908   4.463  11.366  1.00  0.00    -0.248 NA
ATOM     41  C   UNL     1       3.000   6.640  10.626  1.00  0.00     0.031 C 
ATOM     42  C   UNL     1       2.494   2.600   9.169  1.00  0.00     0.029 A 
ATOM     43  N   UNL     1       4.244   2.701   7.755  1.00  0.00    -0.354 N 
ATOM     44  C   UNL     1       2.181   5.234  12.244  1.00  0.00     0.074 A 
ATOM     45  C   UNL     1       2.332   6.595  11.782  1.00  0.00     0.031 C 
ATOM     46  C   UNL     1       2.821   1.340   8.842  1.00  0.00     0.029 A 
ATOM     47  C   UNL     1       4.136   1.382   8.222  1.00  0.00     0.049 A 
ATOM     48  H   UNL     1       4.729   3.006   6.954  1.00  0.00     0.167 HD
ATOM     49  C   UNL     1       1.393   4.647  13.186  1.00  0.00     0.031 A 
ATOM     50  C   UNL     1       5.204   0.613   8.585  1.00  0.00     0.031 A 
ATOM     51  C   UNL     1       1.478   3.194  13.137  1.00  0.00     0.049 A 
ATOM     52  C   UNL     1       5.122   0.140  10.023  1.00  0.00     0.074 A 
ATOM     53  C   UNL     1       0.683   2.232  12.537  1.00  0.00     0.029 A 
ATOM     54  N   UNL     1       2.667   2.567  13.483  1.00  0.00    -0.354 N 
ATOM     55  N   UNL     1       4.325   0.658  10.916  1.00  0.00    -0.248 NA
ATOM     56  C   UNL     1       5.964  -0.916  10.579  1.00  0.00     0.031 C 
ATOM     57  C   UNL     1       1.439   1.036  12.444  1.00  0.00     0.029 A 
ATOM     58  C   UNL     1       2.677   1.266  13.018  1.00  0.00     0.049 A 
ATOM     59  H   UNL     1       3.400   2.989  13.988  1.00  0.00     0.167 HD
ATOM     60  C   UNL     1       4.527   0.047  12.127  1.00  0.00     0.074 A 
ATOM     61  C   UNL     1       5.559  -0.939  11.862  1.00  0.00     0.031 C 
ATOM     62  C   UNL     1       3.832   0.410  13.246  1.00  0.00     0.031 A 
BRANCH  49  63
ATOM     63  C   UNL     1       0.314   5.412  13.909  1.00  0.00    -0.014 A 
ATOM     64  C   UNL     1      -0.936   4.804  14.135  1.00  0.00     0.010 A 
ATOM     65  C   UNL     1       0.455   6.747  14.334  1.00  0.00     0.010 A 
ATOM     66  C   UNL     1      -2.022   5.516  14.662  1.00  0.00     0.020 A 
ATOM     67  C   UNL     1      -0.634   7.484  14.829  1.00  0.00     0.020 A 
ATOM     68  C   UNL     1      -1.872   6.863  14.979  1.00  0.00     0.054 A 
BRANCH  68  69
ATOM     69  S   UNL     1      -3.317   7.788  15.563  1.00  0.00     0.124 S 
ATOM     70  O   UNL     1      -4.308   7.518  14.524  1.00  0.00    -0.237 OA
ATOM     71  O   UNL     1      -3.580   7.171  16.859  1.00  0.00    -0.237 OA
ATOM     72  O   UNL     1      -2.846   9.171  15.615  1.00  0.00    -0.744 OA
ENDBRANCH  68  69
ENDBRANCH  49  63
BRANCH  50  73
ATOM     73  C   UNL     1       6.470   0.929   7.869  1.00  0.00    -0.014 A 
ATOM     74  C   UNL     1       6.556   0.599   6.499  1.00  0.00     0.010 A 
ATOM     75  C   UNL     1       7.375   1.864   8.399  1.00  0.00     0.010 A 
ATOM     76  C   UNL     1       7.429   1.287   5.651  1.00  0.00     0.020 A 
ATOM     77  C   UNL     1       8.252   2.555   7.550  1.00  0.00     0.020 A 
ATOM     78  C   UNL     1       8.234   2.299   6.176  1.00  0.00     0.054 A 
BRANCH  78  79
ATOM     79  S   UNL     1       9.136   3.369   5.015  1.00  0.00     0.124 S 
ATOM     80  O   UNL     1       9.996   2.417   4.319  1.00  0.00    -0.237 OA
ATOM     81  O   UNL     1       8.052   3.936   4.215  1.00  0.00    -0.237 OA
ATOM     82  O   UNL     1       9.820   4.313   5.893  1.00  0.00    -0.744 OA
ENDBRANCH  78  79
ENDBRANCH  50  73
BRANCH  62  83
ATOM     83  C   UNL     1       4.099  -0.056  14.658  1.00  0.00    -0.014 A 
ATOM     84  C   UNL     1       5.335  -0.537  15.113  1.00  0.00     0.010 A 
ATOM     85  C   UNL     1       3.083   0.120  15.632  1.00  0.00     0.010 A 
ATOM     86  C   UNL     1       5.531  -0.879  16.461  1.00  0.00     0.020 A 
ATOM     87  C   UNL     1       3.281  -0.173  16.983  1.00  0.00     0.020 A 
ATOM     88  C   UNL     1       4.502  -0.697  17.387  1.00  0.00     0.054 A 
BRANCH  88  89
ATOM     89  S   UNL     1       4.786  -1.074  19.134  1.00  0.00     0.124 S 
ATOM     90  O   UNL     1       4.462  -2.497  19.190  1.00  0.00    -0.237 OA
ATOM     91  O   UNL     1       6.199  -0.746  19.316  1.00  0.00    -0.237 OA
ATOM     92  O   UNL     1       3.855  -0.190  19.831  1.00  0.00    -0.744 OA
ENDBRANCH  88  89
ENDBRANCH  62  83
ENDBRANCH  36  37
ENDBRANCH  28  31
ENDBRANCH  26  27
ENDBRANCH  25  26
ENDBRANCH   1  25
TORSDOF 19
