REMARK SMILES CCN(Cc1cn(CC)nc1C)C(=O)c1ccn([C@@H](C)C(=O)NCCCCCCNC(=O)c2ccc(-c3c4nc(c(-c5ccc(S(=O)(=O)[O-])cc5)c5ccc([nH]5)c(-c5ccc(S(=O)(=O)[O-])cc5)c5nc(c(-c6ccc(S(=O)(=O)[O-])cc6)c6ccc3[nH]6)C=C5)C=C4)cc2)n1
REMARK SMILES IDX 25 1 24 2 23 3 21 4 22 5 19 7 20 8 18 9 15 10 16 11 93 12
REMARK SMILES IDX 17 13 13 14 14 15 3 16 2 17 1 18 4 19 5 20 6 21 11 22 7 23
REMARK SMILES IDX 10 24 12 25 8 26 9 27 26 28 27 29 28 30 29 31 30 32 31 33
REMARK SMILES IDX 32 35 33 36 34 37 92 38 35 39 91 40 36 41 37 42 38 43 85 44
REMARK SMILES IDX 39 45 90 46 84 47 86 48 40 49 89 50 83 51 82 52 41 54 71 55
REMARK SMILES IDX 52 56 70 57 53 58 56 59 69 60 87 61 54 62 55 63 68 65 88 66
REMARK SMILES IDX 57 67 42 68 43 69 51 70 44 71 50 72 45 73 46 74 47 75 48 76
REMARK SMILES IDX 49 77 72 78 73 79 81 80 74 81 80 82 75 83 76 84 77 85 78 86
REMARK SMILES IDX 79 87 58 88 59 89 67 90 60 91 66 92 61 93 62 94 63 95 64 96
REMARK SMILES IDX 65 97
REMARK H PARENT 23 6 30 34 86 53 56 64
REMARK Flexibility Score: inf
ROOT
ATOM      1  C   UNL     1       4.118  -8.546  -0.609  1.00  0.00     0.021 C 
ENDROOT
BRANCH   1   2
ATOM      2  C   UNL     1       4.787  -8.528   0.773  1.00  0.00     0.116 C 
BRANCH   2   3
ATOM      3  N   UNL     1       5.941  -7.649   0.811  1.00  0.00    -0.354 N 
ATOM      4  C   UNL     1       6.175  -6.430   1.378  1.00  0.00     0.244 C 
ATOM      5  O   UNL     1       7.322  -5.991   1.211  1.00  0.00    -0.273 OA
ATOM      6  H   UNL     1       6.719  -8.008   0.326  1.00  0.00     0.163 HD
BRANCH   4   7
ATOM      7  C   UNL     1       5.175  -5.641   2.238  1.00  0.00     0.193 C 
ATOM      8  C   UNL     1       4.752  -6.363   3.510  1.00  0.00     0.044 C 
BRANCH   7   9
ATOM      9  N   UNL     1       4.065  -5.106   1.461  1.00  0.00    -0.260 N 
ATOM     10  C   UNL     1       3.059  -3.701   0.219  1.00  0.00     0.150 A 
ATOM     11  C   UNL     1       2.745  -5.005  -0.212  1.00  0.00     0.056 A 
ATOM     12  N   UNL     1       3.925  -3.775   1.257  1.00  0.00    -0.167 NA
ATOM     13  C   UNL     1       3.086  -5.807   0.838  1.00  0.00     0.110 A 
BRANCH  10  14
ATOM     14  C   UNL     1       2.569  -2.436  -0.361  1.00  0.00     0.274 C 
ATOM     15  O   UNL     1       3.367  -1.552  -0.677  1.00  0.00    -0.267 OA
BRANCH  14  16
ATOM     16  N   UNL     1       1.174  -2.278  -0.527  1.00  0.00    -0.333 N 
BRANCH  16  17
ATOM     17  C   UNL     1       0.704  -1.025  -1.127  1.00  0.00     0.117 C 
ATOM     18  C   UNL     1       0.756   0.122  -0.126  1.00  0.00     0.027 C 
ENDBRANCH  16  17
BRANCH  16  19
ATOM     19  C   UNL     1       0.137  -3.176   0.011  1.00  0.00     0.159 C 
BRANCH  19  20
ATOM     20  C   UNL     1      -0.123  -4.338  -0.897  1.00  0.00     0.012 A 
ATOM     21  C   UNL     1       0.062  -4.410  -2.265  1.00  0.00     0.114 A 
ATOM     22  C   UNL     1      -0.483  -5.675  -0.530  1.00  0.00     0.064 A 
ATOM     23  N   UNL     1       0.009  -5.732  -2.584  1.00  0.00    -0.272 N 
ATOM     24  N   UNL     1      -0.387  -6.518  -1.567  1.00  0.00    -0.178 NA
ATOM     25  C   UNL     1      -0.793  -6.230   0.810  1.00  0.00     0.069 C 
BRANCH  23  26
ATOM     26  C   UNL     1       0.506  -6.337  -3.800  1.00  0.00     0.141 C 
ATOM     27  C   UNL     1       1.800  -7.117  -3.594  1.00  0.00     0.029 C 
ENDBRANCH  23  26
ENDBRANCH  19  20
ENDBRANCH  16  19
ENDBRANCH  14  16
ENDBRANCH  10  14
ENDBRANCH   7   9
ENDBRANCH   4   7
ENDBRANCH   2   3
ENDBRANCH   1   2
BRANCH   1  28
ATOM     28  C   UNL     1       4.696  -9.575  -1.584  1.00  0.00     0.002 C 
BRANCH  28  29
ATOM     29  C   UNL     1       4.670 -11.034  -1.105  1.00  0.00     0.002 C 
BRANCH  29  30
ATOM     30  C   UNL     1       3.314 -11.569  -0.617  1.00  0.00     0.021 C 
BRANCH  30  31
ATOM     31  C   UNL     1       2.275 -11.722  -1.722  1.00  0.00     0.116 C 
BRANCH  31  32
ATOM     32  N   UNL     1       2.649 -12.755  -2.689  1.00  0.00    -0.352 N 
ATOM     33  C   UNL     1       1.994 -13.157  -3.840  1.00  0.00     0.251 C 
ATOM     34  H   UNL     1       3.488 -13.232  -2.493  1.00  0.00     0.163 HD
ATOM     35  O   UNL     1       2.232 -14.245  -4.338  1.00  0.00    -0.269 OA
BRANCH  33  36
ATOM     36  C   UNL     1       1.016 -12.245  -4.465  1.00  0.00     0.039 A 
ATOM     37  C   UNL     1      -0.171 -12.707  -5.049  1.00  0.00     0.014 A 
ATOM     38  C   UNL     1       1.308 -10.892  -4.463  1.00  0.00     0.014 A 
ATOM     39  C   UNL     1      -1.100 -11.783  -5.546  1.00  0.00     0.010 A 
ATOM     40  C   UNL     1       0.335  -9.998  -4.821  1.00  0.00     0.010 A 
ATOM     41  C   UNL     1      -0.845 -10.415  -5.412  1.00  0.00    -0.014 A 
BRANCH  41  42
ATOM     42  C   UNL     1      -1.823  -9.372  -5.727  1.00  0.00     0.031 A 
ATOM     43  C   UNL     1      -3.105  -9.495  -4.986  1.00  0.00     0.074 A 
ATOM     44  C   UNL     1      -1.520  -8.235  -6.398  1.00  0.00     0.049 A 
ATOM     45  N   UNL     1      -4.244  -9.866  -5.467  1.00  0.00    -0.248 NA
ATOM     46  C   UNL     1      -3.101  -9.335  -3.522  1.00  0.00     0.031 C 
ATOM     47  C   UNL     1      -0.211  -7.804  -6.916  1.00  0.00     0.029 A 
ATOM     48  N   UNL     1      -2.302  -7.145  -6.648  1.00  0.00    -0.354 N 
ATOM     49  C   UNL     1      -5.155  -9.758  -4.422  1.00  0.00     0.074 A 
ATOM     50  C   UNL     1      -4.367  -9.637  -3.221  1.00  0.00     0.031 C 
ATOM     51  C   UNL     1      -0.243  -6.483  -7.209  1.00  0.00     0.029 A 
ATOM     52  C   UNL     1      -1.610  -6.014  -7.081  1.00  0.00     0.049 A 
ATOM     53  H   UNL     1      -3.279  -7.156  -6.531  1.00  0.00     0.167 HD
ATOM     54  C   UNL     1      -6.474  -9.506  -4.660  1.00  0.00     0.031 A 
ATOM     55  C   UNL     1      -2.125  -4.783  -7.331  1.00  0.00     0.031 A 
ATOM     56  C   UNL     1      -6.773  -9.595  -6.069  1.00  0.00     0.049 A 
ATOM     57  C   UNL     1      -3.567  -4.978  -7.597  1.00  0.00     0.074 A 
ATOM     58  C   UNL     1      -6.753 -10.589  -7.024  1.00  0.00     0.029 A 
ATOM     59  N   UNL     1      -6.777  -8.397  -6.745  1.00  0.00    -0.354 N 
ATOM     60  N   UNL     1      -4.014  -5.638  -8.628  1.00  0.00    -0.248 NA
ATOM     61  C   UNL     1      -4.520  -4.796  -6.514  1.00  0.00     0.031 C 
ATOM     62  C   UNL     1      -6.346  -9.942  -8.229  1.00  0.00     0.029 A 
ATOM     63  C   UNL     1      -6.193  -8.577  -7.971  1.00  0.00     0.049 A 
ATOM     64  H   UNL     1      -7.140  -7.548  -6.403  1.00  0.00     0.167 HD
ATOM     65  C   UNL     1      -5.116  -6.328  -8.151  1.00  0.00     0.074 A 
ATOM     66  C   UNL     1      -5.466  -5.657  -6.902  1.00  0.00     0.031 C 
ATOM     67  C   UNL     1      -5.453  -7.545  -8.670  1.00  0.00     0.031 A 
BRANCH  54  68
ATOM     68  C   UNL     1      -7.390  -8.743  -3.729  1.00  0.00    -0.014 A 
ATOM     69  C   UNL     1      -8.733  -8.551  -4.122  1.00  0.00     0.010 A 
ATOM     70  C   UNL     1      -6.929  -7.970  -2.646  1.00  0.00     0.010 A 
ATOM     71  C   UNL     1      -9.536  -7.568  -3.529  1.00  0.00     0.020 A 
ATOM     72  C   UNL     1      -7.735  -7.016  -2.018  1.00  0.00     0.020 A 
ATOM     73  C   UNL     1      -9.021  -6.793  -2.491  1.00  0.00     0.054 A 
BRANCH  73  74
ATOM     74  S   UNL     1     -10.016  -5.440  -1.818  1.00  0.00     0.124 S 
ATOM     75  O   UNL     1     -10.085  -4.526  -2.954  1.00  0.00    -0.237 OA
ATOM     76  O   UNL     1     -11.262  -6.116  -1.468  1.00  0.00    -0.237 OA
ATOM     77  O   UNL     1      -9.226  -4.969  -0.682  1.00  0.00    -0.744 OA
ENDBRANCH  73  74
ENDBRANCH  54  68
BRANCH  55  78
ATOM     78  C   UNL     1      -1.522  -3.434  -7.192  1.00  0.00    -0.014 A 
ATOM     79  C   UNL     1      -2.044  -2.312  -7.861  1.00  0.00     0.010 A 
ATOM     80  C   UNL     1      -0.607  -3.196  -6.149  1.00  0.00     0.010 A 
ATOM     81  C   UNL     1      -1.714  -1.005  -7.454  1.00  0.00     0.020 A 
ATOM     82  C   UNL     1      -0.271  -1.901  -5.736  1.00  0.00     0.020 A 
ATOM     83  C   UNL     1      -0.847  -0.808  -6.376  1.00  0.00     0.054 A 
BRANCH  83  84
ATOM     84  S   UNL     1      -0.585   0.867  -5.716  1.00  0.00     0.124 S 
ATOM     85  O   UNL     1       0.292   1.461  -6.720  1.00  0.00    -0.237 OA
ATOM     86  O   UNL     1      -1.941   1.406  -5.661  1.00  0.00    -0.237 OA
ATOM     87  O   UNL     1       0.030   0.625  -4.411  1.00  0.00    -0.744 OA
ENDBRANCH  83  84
ENDBRANCH  55  78
BRANCH  67  88
ATOM     88  C   UNL     1      -4.833  -7.944  -9.991  1.00  0.00    -0.014 A 
ATOM     89  C   UNL     1      -3.456  -8.183 -10.173  1.00  0.00     0.010 A 
ATOM     90  C   UNL     1      -5.709  -8.222 -11.053  1.00  0.00     0.010 A 
ATOM     91  C   UNL     1      -2.971  -8.674 -11.395  1.00  0.00     0.020 A 
ATOM     92  C   UNL     1      -5.235  -8.728 -12.264  1.00  0.00     0.020 A 
ATOM     93  C   UNL     1      -3.867  -8.947 -12.433  1.00  0.00     0.054 A 
BRANCH  93  94
ATOM     94  S   UNL     1      -3.247  -9.642 -13.991  1.00  0.00     0.124 S 
ATOM     95  O   UNL     1      -2.519  -8.518 -14.573  1.00  0.00    -0.237 OA
ATOM     96  O   UNL     1      -2.423 -10.762 -13.542  1.00  0.00    -0.237 OA
ATOM     97  O   UNL     1      -4.463 -10.028 -14.707  1.00  0.00    -0.744 OA
ENDBRANCH  93  94
ENDBRANCH  67  88
ENDBRANCH  41  42
ENDBRANCH  33  36
ENDBRANCH  31  32
ENDBRANCH  30  31
ENDBRANCH  29  30
ENDBRANCH  28  29
ENDBRANCH   1  28
TORSDOF 23
