REMARK SMILES CC[C@@H]1CC(=O)N(Cc2ccc(C(=O)NCCCCCCNC(=O)c3ccc(-c4c5nc(c(-c6ccc(S(=O)(=O)[O-])cc6)c6ccc([nH]6)c(-c6ccc(S(=O)(=O)[O-])cc6)c6nc(c(-c7ccc(S(=O)(=O)[O-])cc7)c7ccc4[nH]7)C=C6)C=C5)cc3)cn2)C1
REMARK SMILES IDX 18 1 17 2 16 3 15 4 13 5 14 6 12 8 9 9 10 10 86 11 11 12
REMARK SMILES IDX 85 13 8 14 7 15 3 16 4 17 87 18 5 19 6 20 2 21 1 22 19 23
REMARK SMILES IDX 20 24 21 25 22 26 23 27 24 29 25 30 26 31 84 32 27 33 83 34
REMARK SMILES IDX 28 35 29 36 30 37 77 38 31 39 82 40 76 41 78 42 32 43 81 44
REMARK SMILES IDX 75 45 74 46 33 48 63 49 44 50 62 51 45 52 48 53 61 54 79 55
REMARK SMILES IDX 46 56 47 57 60 59 80 60 49 61 34 62 35 63 43 64 36 65 42 66
REMARK SMILES IDX 37 67 38 68 39 69 40 70 41 71 64 72 65 73 73 74 66 75 72 76
REMARK SMILES IDX 67 77 68 78 69 79 70 80 71 81 50 82 51 83 59 84 52 85 58 86
REMARK SMILES IDX 53 87 54 88 55 89 56 90 57 91
REMARK H PARENT 15 7 22 28 78 47 48 58
REMARK Flexibility Score: inf
ROOT
ATOM      1  C   UNL     1       5.799  -9.273   6.104  1.00  0.00     0.002 C 
ENDROOT
BRANCH   1   2
ATOM      2  C   UNL     1       5.309  -8.131   5.203  1.00  0.00     0.021 C 
BRANCH   2   3
ATOM      3  C   UNL     1       5.177  -6.796   5.938  1.00  0.00     0.116 C 
BRANCH   3   4
ATOM      4  N   UNL     1       6.481  -6.180   6.088  1.00  0.00    -0.352 N 
ATOM      5  C   UNL     1       7.091  -5.139   5.440  1.00  0.00     0.252 C 
ATOM      6  O   UNL     1       8.225  -4.823   5.804  1.00  0.00    -0.269 OA
ATOM      7  H   UNL     1       7.035  -6.589   6.792  1.00  0.00     0.163 HD
BRANCH   5   8
ATOM      8  C   UNL     1       6.438  -4.349   4.371  1.00  0.00     0.058 A 
ATOM      9  C   UNL     1       5.318  -2.604   2.524  1.00  0.00     0.060 A 
ATOM     10  C   UNL     1       4.904  -3.936   2.555  1.00  0.00     0.026 A 
ATOM     11  N   UNL     1       6.301  -2.150   3.337  1.00  0.00    -0.259 NA
ATOM     12  C   UNL     1       5.481  -4.815   3.474  1.00  0.00     0.017 A 
ATOM     13  C   UNL     1       6.837  -3.025   4.228  1.00  0.00     0.125 A 
BRANCH   9  14
ATOM     14  C   UNL     1       4.683  -1.617   1.565  1.00  0.00     0.175 C 
BRANCH  14  15
ATOM     15  N   UNL     1       3.349  -1.177   1.955  1.00  0.00    -0.336 N 
ATOM     16  C   UNL     1       1.011  -1.151   2.078  1.00  0.00     0.017 C 
ATOM     17  C   UNL     1       1.562   0.138   2.697  1.00  0.00     0.105 C 
ATOM     18  C   UNL     1       2.228  -2.070   2.086  1.00  0.00     0.124 C 
ATOM     19  C   UNL     1       3.023   0.127   2.296  1.00  0.00     0.223 C 
ATOM     20  O   UNL     1       3.760   1.094   2.299  1.00  0.00    -0.275 OA
BRANCH  16  21
ATOM     21  C   UNL     1       0.390  -1.004   0.671  1.00  0.00     0.002 C 
ATOM     22  C   UNL     1       0.989   0.050  -0.250  1.00  0.00     0.004 C 
ENDBRANCH  16  21
ENDBRANCH  14  15
ENDBRANCH   9  14
ENDBRANCH   5   8
ENDBRANCH   3   4
ENDBRANCH   2   3
ENDBRANCH   1   2
BRANCH   1  23
ATOM     23  C   UNL     1       4.873  -9.605   7.281  1.00  0.00     0.002 C 
BRANCH  23  24
ATOM     24  C   UNL     1       3.424  -9.908   6.891  1.00  0.00     0.021 C 
BRANCH  24  25
ATOM     25  C   UNL     1       3.267 -11.119   5.977  1.00  0.00     0.116 C 
BRANCH  25  26
ATOM     26  N   UNL     1       3.696 -12.342   6.637  1.00  0.00    -0.352 N 
ATOM     27  C   UNL     1       2.980 -13.484   6.894  1.00  0.00     0.251 C 
ATOM     28  H   UNL     1       4.632 -12.352   6.941  1.00  0.00     0.163 HD
ATOM     29  O   UNL     1       3.412 -14.315   7.687  1.00  0.00    -0.269 OA
BRANCH  27  30
ATOM     30  C   UNL     1       1.684 -13.700   6.218  1.00  0.00     0.039 A 
ATOM     31  C   UNL     1       0.602 -14.183   6.957  1.00  0.00     0.014 A 
ATOM     32  C   UNL     1       1.543 -13.434   4.853  1.00  0.00     0.014 A 
ATOM     33  C   UNL     1      -0.637 -14.347   6.336  1.00  0.00     0.010 A 
ATOM     34  C   UNL     1       0.290 -13.525   4.255  1.00  0.00     0.010 A 
ATOM     35  C   UNL     1      -0.812 -13.989   4.989  1.00  0.00    -0.014 A 
BRANCH  35  36
ATOM     36  C   UNL     1      -2.137 -14.100   4.327  1.00  0.00     0.031 A 
ATOM     37  C   UNL     1      -2.323 -15.043   3.168  1.00  0.00     0.074 A 
ATOM     38  C   UNL     1      -3.157 -13.322   4.740  1.00  0.00     0.049 A 
ATOM     39  N   UNL     1      -3.381 -15.230   2.421  1.00  0.00    -0.248 NA
ATOM     40  C   UNL     1      -1.165 -15.869   2.784  1.00  0.00     0.031 C 
ATOM     41  C   UNL     1      -3.094 -12.350   5.836  1.00  0.00     0.029 A 
ATOM     42  N   UNL     1      -4.449 -13.222   4.287  1.00  0.00    -0.354 N 
ATOM     43  C   UNL     1      -3.018 -16.193   1.486  1.00  0.00     0.074 A 
ATOM     44  C   UNL     1      -1.625 -16.503   1.715  1.00  0.00     0.031 C 
ATOM     45  C   UNL     1      -4.300 -11.777   5.987  1.00  0.00     0.029 A 
ATOM     46  C   UNL     1      -5.207 -12.302   4.973  1.00  0.00     0.049 A 
ATOM     47  H   UNL     1      -4.799 -13.759   3.540  1.00  0.00     0.167 HD
ATOM     48  C   UNL     1      -3.784 -16.789   0.542  1.00  0.00     0.031 A 
ATOM     49  C   UNL     1      -6.486 -11.915   4.796  1.00  0.00     0.031 A 
ATOM     50  C   UNL     1      -5.171 -16.483   0.318  1.00  0.00     0.049 A 
ATOM     51  C   UNL     1      -7.297 -12.555   3.699  1.00  0.00     0.074 A 
ATOM     52  C   UNL     1      -6.038 -17.044  -0.604  1.00  0.00     0.029 A 
ATOM     53  N   UNL     1      -5.899 -15.540   1.027  1.00  0.00    -0.354 N 
ATOM     54  N   UNL     1      -6.945 -13.495   2.854  1.00  0.00    -0.248 NA
ATOM     55  C   UNL     1      -8.681 -12.089   3.539  1.00  0.00     0.031 C 
ATOM     56  C   UNL     1      -7.276 -16.405  -0.486  1.00  0.00     0.029 A 
ATOM     57  C   UNL     1      -7.199 -15.492   0.554  1.00  0.00     0.049 A 
ATOM     58  H   UNL     1      -5.543 -14.985   1.759  1.00  0.00     0.167 HD
ATOM     59  C   UNL     1      -8.078 -13.760   2.092  1.00  0.00     0.074 A 
ATOM     60  C   UNL     1      -9.128 -12.895   2.587  1.00  0.00     0.031 C 
ATOM     61  C   UNL     1      -8.236 -14.639   1.071  1.00  0.00     0.031 A 
BRANCH  48  62
ATOM     62  C   UNL     1      -3.145 -17.854  -0.311  1.00  0.00    -0.014 A 
ATOM     63  C   UNL     1      -2.800 -19.102   0.240  1.00  0.00     0.010 A 
ATOM     64  C   UNL     1      -2.955 -17.638  -1.688  1.00  0.00     0.010 A 
ATOM     65  C   UNL     1      -2.259 -20.106  -0.566  1.00  0.00     0.020 A 
ATOM     66  C   UNL     1      -2.440 -18.651  -2.503  1.00  0.00     0.020 A 
ATOM     67  C   UNL     1      -2.087 -19.876  -1.933  1.00  0.00     0.054 A 
BRANCH  67  68
ATOM     68  S   UNL     1      -1.435 -21.221  -2.961  1.00  0.00     0.124 S 
ATOM     69  O   UNL     1      -0.048 -21.299  -2.511  1.00  0.00    -0.237 OA
ATOM     70  O   UNL     1      -2.282 -22.349  -2.582  1.00  0.00    -0.237 OA
ATOM     71  O   UNL     1      -1.620 -20.736  -4.327  1.00  0.00    -0.744 OA
ENDBRANCH  67  68
ENDBRANCH  48  62
BRANCH  49  72
ATOM     72  C   UNL     1      -7.089 -10.865   5.664  1.00  0.00    -0.014 A 
ATOM     73  C   UNL     1      -8.155 -11.173   6.529  1.00  0.00     0.010 A 
ATOM     74  C   UNL     1      -6.635  -9.535   5.592  1.00  0.00     0.010 A 
ATOM     75  C   UNL     1      -8.790 -10.165   7.261  1.00  0.00     0.020 A 
ATOM     76  C   UNL     1      -7.242  -8.531   6.350  1.00  0.00     0.020 A 
ATOM     77  C   UNL     1      -8.333  -8.849   7.160  1.00  0.00     0.054 A 
BRANCH  77  78
ATOM     78  S   UNL     1      -9.179  -7.552   8.107  1.00  0.00     0.124 S 
ATOM     79  O   UNL     1     -10.430  -7.409   7.370  1.00  0.00    -0.237 OA
ATOM     80  O   UNL     1      -9.288  -8.151   9.434  1.00  0.00    -0.237 OA
ATOM     81  O   UNL     1      -8.265  -6.415   8.017  1.00  0.00    -0.744 OA
ENDBRANCH  77  78
ENDBRANCH  49  72
BRANCH  61  82
ATOM     82  C   UNL     1      -9.608 -14.753   0.459  1.00  0.00    -0.014 A 
ATOM     83  C   UNL     1     -10.145 -13.724  -0.335  1.00  0.00     0.010 A 
ATOM     84  C   UNL     1     -10.347 -15.937   0.639  1.00  0.00     0.010 A 
ATOM     85  C   UNL     1     -11.412 -13.863  -0.907  1.00  0.00     0.020 A 
ATOM     86  C   UNL     1     -11.600 -16.093   0.041  1.00  0.00     0.020 A 
ATOM     87  C   UNL     1     -12.130 -15.047  -0.717  1.00  0.00     0.054 A 
BRANCH  87  88
ATOM     88  S   UNL     1     -13.751 -15.219  -1.511  1.00  0.00     0.124 S 
ATOM     89  O   UNL     1     -14.575 -14.310  -0.719  1.00  0.00    -0.237 OA
ATOM     90  O   UNL     1     -13.482 -14.790  -2.882  1.00  0.00    -0.237 OA
ATOM     91  O   UNL     1     -14.065 -16.638  -1.358  1.00  0.00    -0.744 OA
ENDBRANCH  87  88
ENDBRANCH  61  82
ENDBRANCH  35  36
ENDBRANCH  27  30
ENDBRANCH  25  26
ENDBRANCH  24  25
ENDBRANCH  23  24
ENDBRANCH   1  23
TORSDOF 19
