REMARK SMILES CC(C)c1ccc(NC(=O)C[C@H]2SC[C@@H](C(=O)NCCCCCCNC(=O)c3ccc(-c4c5nc(c(-c6ccc(S(=O)(=O)[O-])cc6)c6ccc([nH]6)c(-c6ccc(S(=O)(=O)[O-])cc6)c6nc(c(-c7ccc(S(=O)(=O)[O-])cc7)c7ccc4[nH]7)C=C6)C=C5)cc3)NC2=O)cc1
REMARK SMILES IDX 21 1 20 2 19 3 18 4 16 5 17 6 15 8 12 9 13 10 89 11 14 12
REMARK SMILES IDX 88 13 90 14 11 16 9 17 8 18 10 20 7 21 4 22 5 23 92 24 6 25
REMARK SMILES IDX 91 26 2 27 1 28 3 29 22 30 23 31 24 32 25 33 26 34 27 36
REMARK SMILES IDX 28 37 29 38 87 39 30 40 86 41 31 42 32 43 33 44 80 45 34 46
REMARK SMILES IDX 85 47 79 48 81 49 35 50 84 51 78 52 77 53 36 55 66 56 47 57
REMARK SMILES IDX 65 58 48 59 51 60 64 61 82 62 49 63 50 64 63 66 83 67 52 68
REMARK SMILES IDX 37 69 38 70 46 71 39 72 45 73 40 74 41 75 42 76 43 77 44 78
REMARK SMILES IDX 67 79 68 80 76 81 69 82 75 83 70 84 71 85 72 86 73 87 74 88
REMARK SMILES IDX 53 89 54 90 62 91 55 92 61 93 56 94 57 95 58 96 59 97 60 98
REMARK H PARENT 18 7 88 15 8 19 25 35 81 54 51 65
REMARK Flexibility Score: inf
ROOT
ATOM      1  C   UNL     1       3.311   0.734   1.846  1.00  0.00     0.002 C 
ENDROOT
BRANCH   1   2
ATOM      2  C   UNL     1       2.314   0.752   0.677  1.00  0.00     0.021 C 
BRANCH   2   3
ATOM      3  C   UNL     1       1.169  -0.249   0.837  1.00  0.00     0.116 C 
BRANCH   3   4
ATOM      4  N   UNL     1       0.428   0.073   2.036  1.00  0.00    -0.354 N 
ATOM      5  C   UNL     1      -0.584   0.985   2.148  1.00  0.00     0.243 C 
ATOM      6  O   UNL     1      -0.710   1.564   3.226  1.00  0.00    -0.273 OA
ATOM      7  H   UNL     1       0.677  -0.414   2.854  1.00  0.00     0.163 HD
BRANCH   5   8
ATOM      8  C   UNL     1      -1.664   0.998   1.046  1.00  0.00     0.181 C 
ATOM      9  C   UNL     1      -4.276   1.282   2.602  1.00  0.00     0.145 C 
ATOM     10  S   UNL     1      -3.432   2.876   2.207  1.00  0.00    -0.145 SA
ATOM     11  C   UNL     1      -3.340   0.068   2.563  1.00  0.00     0.234 C 
ATOM     12  C   UNL     1      -2.350   2.341   0.849  1.00  0.00     0.105 C 
ATOM     13  N   UNL     1      -2.551  -0.083   1.448  1.00  0.00    -0.343 N 
ATOM     14  O   UNL     1      -3.317  -0.849   3.378  1.00  0.00    -0.274 OA
ATOM     15  H   UNL     1      -2.585  -0.917   0.926  1.00  0.00     0.164 HD
BRANCH   9  16
ATOM     16  C   UNL     1      -5.112   1.499   3.872  1.00  0.00     0.124 C 
BRANCH  16  17
ATOM     17  C   UNL     1      -5.329   0.361   4.850  1.00  0.00     0.226 C 
ATOM     18  N   UNL     1      -5.832  -0.854   4.504  1.00  0.00    -0.326 N 
ATOM     19  H   UNL     1      -5.891  -1.489   5.255  1.00  0.00     0.169 HD
ATOM     20  O   UNL     1      -5.060   0.535   6.046  1.00  0.00    -0.275 OA
BRANCH  18  21
ATOM     21  C   UNL     1      -6.283  -1.376   3.287  1.00  0.00     0.041 A 
ATOM     22  C   UNL     1      -6.924  -2.548   0.799  1.00  0.00    -0.045 A 
ATOM     23  C   UNL     1      -7.175  -1.192   1.047  1.00  0.00     0.006 A 
ATOM     24  C   UNL     1      -6.386  -3.320   1.840  1.00  0.00     0.006 A 
ATOM     25  C   UNL     1      -6.878  -0.618   2.287  1.00  0.00     0.026 A 
ATOM     26  C   UNL     1      -6.082  -2.742   3.074  1.00  0.00     0.026 A 
BRANCH  22  27
ATOM     27  C   UNL     1      -7.196  -3.209  -0.542  1.00  0.00     0.013 C 
ATOM     28  C   UNL     1      -8.210  -2.467  -1.419  1.00  0.00     0.012 C 
ATOM     29  C   UNL     1      -5.890  -3.414  -1.318  1.00  0.00     0.012 C 
ENDBRANCH  22  27
ENDBRANCH  18  21
ENDBRANCH  16  17
ENDBRANCH   9  16
ENDBRANCH   5   8
ENDBRANCH   3   4
ENDBRANCH   2   3
ENDBRANCH   1   2
BRANCH   1  30
ATOM     30  C   UNL     1       3.929  -0.637   2.141  1.00  0.00     0.002 C 
BRANCH  30  31
ATOM     31  C   UNL     1       4.577  -1.316   0.934  1.00  0.00     0.021 C 
BRANCH  31  32
ATOM     32  C   UNL     1       5.659  -0.486   0.256  1.00  0.00     0.116 C 
BRANCH  32  33
ATOM     33  N   UNL     1       6.800  -0.265   1.128  1.00  0.00    -0.352 N 
ATOM     34  C   UNL     1       8.128  -0.492   0.874  1.00  0.00     0.251 C 
ATOM     35  H   UNL     1       6.592   0.096   2.021  1.00  0.00     0.163 HD
ATOM     36  O   UNL     1       8.949  -0.442   1.789  1.00  0.00    -0.269 OA
BRANCH  34  37
ATOM     37  C   UNL     1       8.562  -0.822  -0.499  1.00  0.00     0.039 A 
ATOM     38  C   UNL     1       9.443  -1.887  -0.695  1.00  0.00     0.014 A 
ATOM     39  C   UNL     1       8.088  -0.088  -1.592  1.00  0.00     0.014 A 
ATOM     40  C   UNL     1       9.808  -2.251  -1.992  1.00  0.00     0.010 A 
ATOM     41  C   UNL     1       8.395  -0.499  -2.886  1.00  0.00     0.010 A 
ATOM     42  C   UNL     1       9.263  -1.581  -3.100  1.00  0.00    -0.014 A 
BRANCH  42  43
ATOM     43  C   UNL     1       9.590  -1.997  -4.488  1.00  0.00     0.031 A 
ATOM     44  C   UNL     1      10.320  -1.054  -5.408  1.00  0.00     0.074 A 
ATOM     45  C   UNL     1       9.175  -3.199  -4.939  1.00  0.00     0.049 A 
ATOM     46  N   UNL     1      10.647  -1.219  -6.664  1.00  0.00    -0.248 NA
ATOM     47  C   UNL     1      10.711   0.253  -4.855  1.00  0.00     0.031 C 
ATOM     48  C   UNL     1       8.424  -4.186  -4.159  1.00  0.00     0.029 A 
ATOM     49  N   UNL     1       9.322  -3.794  -6.168  1.00  0.00    -0.354 N 
ATOM     50  C   UNL     1      11.257  -0.033  -7.056  1.00  0.00     0.074 A 
ATOM     51  C   UNL     1      11.220   0.859  -5.918  1.00  0.00     0.031 C 
ATOM     52  C   UNL     1       8.200  -5.271  -4.918  1.00  0.00     0.029 A 
ATOM     53  C   UNL     1       8.752  -5.043  -6.250  1.00  0.00     0.049 A 
ATOM     54  H   UNL     1       9.791  -3.366  -6.920  1.00  0.00     0.167 HD
ATOM     55  C   UNL     1      11.810   0.280  -8.252  1.00  0.00     0.031 A 
ATOM     56  C   UNL     1       8.673  -5.905  -7.282  1.00  0.00     0.031 A 
ATOM     57  C   UNL     1      11.870  -0.620  -9.372  1.00  0.00     0.049 A 
ATOM     58  C   UNL     1       9.296  -5.529  -8.600  1.00  0.00     0.074 A 
ATOM     59  C   UNL     1      12.484  -0.424 -10.597  1.00  0.00     0.029 A 
ATOM     60  N   UNL     1      11.294  -1.880  -9.410  1.00  0.00    -0.354 N 
ATOM     61  N   UNL     1       9.947  -4.436  -8.921  1.00  0.00    -0.248 NA
ATOM     62  C   UNL     1       9.185  -6.507  -9.691  1.00  0.00     0.031 C 
ATOM     63  C   UNL     1      12.226  -1.541 -11.398  1.00  0.00     0.029 A 
ATOM     64  C   UNL     1      11.508  -2.459 -10.649  1.00  0.00     0.049 A 
ATOM     65  H   UNL     1      10.805  -2.301  -8.666  1.00  0.00     0.167 HD
ATOM     66  C   UNL     1      10.351  -4.612 -10.241  1.00  0.00     0.074 A 
ATOM     67  C   UNL     1       9.885  -5.920 -10.651  1.00  0.00     0.031 C 
ATOM     68  C   UNL     1      11.046  -3.766 -11.040  1.00  0.00     0.031 A 
BRANCH  55  69
ATOM     69  C   UNL     1      12.390   1.660  -8.424  1.00  0.00    -0.014 A 
ATOM     70  C   UNL     1      13.579   2.040  -7.776  1.00  0.00     0.010 A 
ATOM     71  C   UNL     1      11.775   2.563  -9.310  1.00  0.00     0.010 A 
ATOM     72  C   UNL     1      14.127   3.307  -7.991  1.00  0.00     0.020 A 
ATOM     73  C   UNL     1      12.335   3.821  -9.550  1.00  0.00     0.020 A 
ATOM     74  C   UNL     1      13.503   4.189  -8.879  1.00  0.00     0.054 A 
BRANCH  74  75
ATOM     75  S   UNL     1      14.267   5.807  -9.178  1.00  0.00     0.124 S 
ATOM     76  O   UNL     1      14.001   6.502  -7.921  1.00  0.00    -0.237 OA
ATOM     77  O   UNL     1      15.665   5.460  -9.421  1.00  0.00    -0.237 OA
ATOM     78  O   UNL     1      13.545   6.322 -10.339  1.00  0.00    -0.744 OA
ENDBRANCH  74  75
ENDBRANCH  55  69
BRANCH  56  79
ATOM     79  C   UNL     1       7.979  -7.213  -7.120  1.00  0.00    -0.014 A 
ATOM     80  C   UNL     1       8.703  -8.418  -7.162  1.00  0.00     0.010 A 
ATOM     81  C   UNL     1       6.583  -7.262  -6.951  1.00  0.00     0.010 A 
ATOM     82  C   UNL     1       8.042  -9.647  -7.076  1.00  0.00     0.020 A 
ATOM     83  C   UNL     1       5.922  -8.488  -6.832  1.00  0.00     0.020 A 
ATOM     84  C   UNL     1       6.654  -9.673  -6.915  1.00  0.00     0.054 A 
BRANCH  84  85
ATOM     85  S   UNL     1       5.815 -11.278  -6.791  1.00  0.00     0.124 S 
ATOM     86  O   UNL     1       5.865 -11.752  -8.171  1.00  0.00    -0.237 OA
ATOM     87  O   UNL     1       6.656 -12.001  -5.841  1.00  0.00    -0.237 OA
ATOM     88  O   UNL     1       4.486 -10.929  -6.295  1.00  0.00    -0.744 OA
ENDBRANCH  84  85
ENDBRANCH  56  79
BRANCH  68  89
ATOM     89  C   UNL     1      11.388  -4.243 -12.427  1.00  0.00    -0.014 A 
ATOM     90  C   UNL     1      10.404  -4.366 -13.423  1.00  0.00     0.010 A 
ATOM     91  C   UNL     1      12.730  -4.519 -12.751  1.00  0.00     0.010 A 
ATOM     92  C   UNL     1      10.750  -4.788 -14.709  1.00  0.00     0.020 A 
ATOM     93  C   UNL     1      13.085  -4.911 -14.044  1.00  0.00     0.020 A 
ATOM     94  C   UNL     1      12.089  -5.057 -15.011  1.00  0.00     0.054 A 
BRANCH  94  95
ATOM     95  S   UNL     1      12.519  -5.559 -16.700  1.00  0.00     0.124 S 
ATOM     96  O   UNL     1      12.015  -6.929 -16.747  1.00  0.00    -0.237 OA
ATOM     97  O   UNL     1      11.789  -4.593 -17.517  1.00  0.00    -0.237 OA
ATOM     98  O   UNL     1      13.973  -5.429 -16.742  1.00  0.00    -0.744 OA
ENDBRANCH  94  95
ENDBRANCH  68  89
ENDBRANCH  42  43
ENDBRANCH  34  37
ENDBRANCH  32  33
ENDBRANCH  31  32
ENDBRANCH  30  31
ENDBRANCH   1  30
TORSDOF 20
