REMARK SMILES CC(C)Cc1ccc([C@@H](C)C(=O)NCCCCCCNC(=O)c2ccc(-c3c4nc(c(-c5ccc(S(=O)(=O)[O-])cc5)c5ccc([nH]5)c(-c5ccc(S(=O)(=O)[O-])cc5)c5nc(c(-c6ccc(S(=O)(=O)[O-])cc6)c6ccc3[nH]6)C=C5)C=C4)cc2)cc1
REMARK SMILES IDX 16 1 15 2 14 3 13 4 11 5 12 6 9 8 10 9 8 10 5 11 6 12 84 13
REMARK SMILES IDX 7 14 83 15 4 16 2 17 1 18 3 19 17 20 18 21 19 22 20 23 21 24
REMARK SMILES IDX 22 26 23 27 24 28 82 29 25 30 81 31 26 32 27 33 28 34 75 35
REMARK SMILES IDX 29 36 80 37 74 38 76 39 30 40 79 41 73 42 72 43 31 45 61 46
REMARK SMILES IDX 42 47 60 48 43 49 46 50 59 51 77 52 44 53 45 54 58 56 78 57
REMARK SMILES IDX 47 58 32 59 33 60 41 61 34 62 40 63 35 64 36 65 37 66 38 67
REMARK SMILES IDX 39 68 62 69 63 70 71 71 64 72 70 73 65 74 66 75 67 76 68 77
REMARK SMILES IDX 69 78 48 79 49 80 57 81 50 82 56 83 51 84 52 85 53 86 54 87
REMARK SMILES IDX 55 88
REMARK H PARENT 13 7 20 25 76 44 46 55
REMARK Flexibility Score: inf
ROOT
ATOM      1  C   UNL     1      -3.169  -0.215  -5.028  1.00  0.00     0.002 C 
ENDROOT
BRANCH   1   2
ATOM      2  C   UNL     1      -3.370  -1.001  -3.728  1.00  0.00     0.021 C 
BRANCH   2   3
ATOM      3  C   UNL     1      -3.902  -2.421  -3.934  1.00  0.00     0.116 C 
BRANCH   3   4
ATOM      4  N   UNL     1      -2.831  -3.372  -4.149  1.00  0.00    -0.356 N 
ATOM      5  C   UNL     1      -2.283  -4.310  -3.329  1.00  0.00     0.227 C 
ATOM      6  O   UNL     1      -1.308  -4.929  -3.775  1.00  0.00    -0.274 OA
ATOM      7  H   UNL     1      -2.429  -3.333  -5.046  1.00  0.00     0.163 HD
BRANCH   5   8
ATOM      8  C   UNL     1      -2.814  -4.628  -1.921  1.00  0.00     0.105 C 
ATOM      9  C   UNL     1      -4.269  -5.091  -1.882  1.00  0.00     0.023 C 
BRANCH   8  10
ATOM     10  C   UNL     1      -2.401  -3.597  -0.883  1.00  0.00    -0.036 A 
ATOM     11  C   UNL     1      -1.395  -1.599   0.864  1.00  0.00    -0.048 A 
ATOM     12  C   UNL     1      -2.655  -1.467   0.269  1.00  0.00     0.004 A 
ATOM     13  C   UNL     1      -0.690  -2.788   0.657  1.00  0.00     0.004 A 
ATOM     14  C   UNL     1      -3.159  -2.462  -0.576  1.00  0.00     0.005 A 
ATOM     15  C   UNL     1      -1.171  -3.758  -0.225  1.00  0.00     0.005 A 
BRANCH  11  16
ATOM     16  C   UNL     1      -0.852  -0.478   1.723  1.00  0.00     0.038 C 
BRANCH  16  17
ATOM     17  C   UNL     1       0.666  -0.213   1.603  1.00  0.00    -0.013 C 
ATOM     18  C   UNL     1       1.083   0.158   0.176  1.00  0.00     0.008 C 
ATOM     19  C   UNL     1       1.080   0.904   2.563  1.00  0.00     0.008 C 
ENDBRANCH  16  17
ENDBRANCH  11  16
ENDBRANCH   8  10
ENDBRANCH   5   8
ENDBRANCH   3   4
ENDBRANCH   2   3
ENDBRANCH   1   2
BRANCH   1  20
ATOM     20  C   UNL     1      -4.444   0.040  -5.843  1.00  0.00     0.002 C 
BRANCH  20  21
ATOM     21  C   UNL     1      -5.595   0.709  -5.085  1.00  0.00     0.021 C 
BRANCH  21  22
ATOM     22  C   UNL     1      -5.270   2.079  -4.491  1.00  0.00     0.116 C 
BRANCH  22  23
ATOM     23  N   UNL     1      -4.917   3.045  -5.518  1.00  0.00    -0.352 N 
ATOM     24  C   UNL     1      -5.492   4.251  -5.831  1.00  0.00     0.251 C 
ATOM     25  H   UNL     1      -4.145   2.796  -6.075  1.00  0.00     0.163 HD
ATOM     26  O   UNL     1      -5.187   4.812  -6.879  1.00  0.00    -0.269 OA
BRANCH  24  27
ATOM     27  C   UNL     1      -6.480   4.875  -4.921  1.00  0.00     0.039 A 
ATOM     28  C   UNL     1      -7.608   5.489  -5.474  1.00  0.00     0.014 A 
ATOM     29  C   UNL     1      -6.276   4.906  -3.538  1.00  0.00     0.014 A 
ATOM     30  C   UNL     1      -8.552   6.091  -4.639  1.00  0.00     0.010 A 
ATOM     31  C   UNL     1      -7.250   5.453  -2.702  1.00  0.00     0.010 A 
ATOM     32  C   UNL     1      -8.394   6.057  -3.244  1.00  0.00    -0.014 A 
BRANCH  32  33
ATOM     33  C   UNL     1      -9.423   6.643  -2.347  1.00  0.00     0.031 A 
ATOM     34  C   UNL     1      -9.105   7.841  -1.493  1.00  0.00     0.074 A 
ATOM     35  C   UNL     1     -10.637   6.063  -2.266  1.00  0.00     0.049 A 
ATOM     36  N   UNL     1      -9.877   8.480  -0.650  1.00  0.00    -0.248 NA
ATOM     37  C   UNL     1      -7.737   8.377  -1.579  1.00  0.00     0.031 C 
ATOM     38  C   UNL     1     -11.052   4.864  -2.999  1.00  0.00     0.029 A 
ATOM     39  N   UNL     1     -11.743   6.399  -1.528  1.00  0.00    -0.354 N 
ATOM     40  C   UNL     1      -9.086   9.479  -0.093  1.00  0.00     0.074 A 
ATOM     41  C   UNL     1      -7.764   9.335  -0.662  1.00  0.00     0.031 C 
ATOM     42  C   UNL     1     -12.328   4.581  -2.693  1.00  0.00     0.029 A 
ATOM     43  C   UNL     1     -12.813   5.557  -1.722  1.00  0.00     0.049 A 
ATOM     44  H   UNL     1     -11.769   7.171  -0.917  1.00  0.00     0.167 HD
ATOM     45  C   UNL     1      -9.433  10.440   0.797  1.00  0.00     0.031 A 
ATOM     46  C   UNL     1     -14.046   5.567  -1.182  1.00  0.00     0.031 A 
ATOM     47  C   UNL     1     -10.753  10.589   1.352  1.00  0.00     0.049 A 
ATOM     48  C   UNL     1     -14.417   6.658  -0.217  1.00  0.00     0.074 A 
ATOM     49  C   UNL     1     -11.222  11.572   2.207  1.00  0.00     0.029 A 
ATOM     50  N   UNL     1     -11.815   9.730   1.112  1.00  0.00    -0.354 N 
ATOM     51  N   UNL     1     -13.678   7.643   0.235  1.00  0.00    -0.248 NA
ATOM     52  C   UNL     1     -15.793   6.647   0.298  1.00  0.00     0.031 C 
ATOM     53  C   UNL     1     -12.555  11.281   2.520  1.00  0.00     0.029 A 
ATOM     54  C   UNL     1     -12.931  10.146   1.820  1.00  0.00     0.049 A 
ATOM     55  H   UNL     1     -11.781   8.941   0.525  1.00  0.00     0.167 HD
ATOM     56  C   UNL     1     -14.504   8.381   1.074  1.00  0.00     0.074 A 
ATOM     57  C   UNL     1     -15.804   7.740   1.051  1.00  0.00     0.031 C 
ATOM     58  C   UNL     1     -14.213   9.489   1.799  1.00  0.00     0.031 A 
BRANCH  45  59
ATOM     59  C   UNL     1      -8.360  11.402   1.234  1.00  0.00    -0.014 A 
ATOM     60  C   UNL     1      -7.852  12.374   0.353  1.00  0.00     0.010 A 
ATOM     61  C   UNL     1      -7.874  11.356   2.554  1.00  0.00     0.010 A 
ATOM     62  C   UNL     1      -6.845  13.251   0.768  1.00  0.00     0.020 A 
ATOM     63  C   UNL     1      -6.886  12.248   2.981  1.00  0.00     0.020 A 
ATOM     64  C   UNL     1      -6.364  13.177   2.079  1.00  0.00     0.054 A 
BRANCH  64  65
ATOM     65  S   UNL     1      -5.065  14.333   2.596  1.00  0.00     0.124 S 
ATOM     66  O   UNL     1      -3.887  13.775   1.937  1.00  0.00    -0.237 OA
ATOM     67  O   UNL     1      -5.537  15.608   2.063  1.00  0.00    -0.237 OA
ATOM     68  O   UNL     1      -5.070  14.231   4.053  1.00  0.00    -0.744 OA
ENDBRANCH  64  65
ENDBRANCH  45  59
BRANCH  46  69
ATOM     69  C   UNL     1     -15.027   4.517  -1.566  1.00  0.00    -0.014 A 
ATOM     70  C   UNL     1     -16.110   4.824  -2.408  1.00  0.00     0.010 A 
ATOM     71  C   UNL     1     -14.862   3.194  -1.117  1.00  0.00     0.010 A 
ATOM     72  C   UNL     1     -17.017   3.830  -2.785  1.00  0.00     0.020 A 
ATOM     73  C   UNL     1     -15.752   2.192  -1.513  1.00  0.00     0.020 A 
ATOM     74  C   UNL     1     -16.830   2.519  -2.338  1.00  0.00     0.054 A 
BRANCH  74  75
ATOM     75  S   UNL     1     -17.978   1.229  -2.897  1.00  0.00     0.124 S 
ATOM     76  O   UNL     1     -19.156   1.497  -2.080  1.00  0.00    -0.237 OA
ATOM     77  O   UNL     1     -18.114   1.521  -4.322  1.00  0.00    -0.237 OA
ATOM     78  O   UNL     1     -17.270  -0.012  -2.590  1.00  0.00    -0.744 OA
ENDBRANCH  74  75
ENDBRANCH  46  69
BRANCH  58  79
ATOM     79  C   UNL     1     -15.327  10.087   2.616  1.00  0.00    -0.014 A 
ATOM     80  C   UNL     1     -15.790   9.456   3.785  1.00  0.00     0.010 A 
ATOM     81  C   UNL     1     -15.898  11.312   2.225  1.00  0.00     0.010 A 
ATOM     82  C   UNL     1     -16.833  10.019   4.525  1.00  0.00     0.020 A 
ATOM     83  C   UNL     1     -16.923  11.891   2.978  1.00  0.00     0.020 A 
ATOM     84  C   UNL     1     -17.396  11.231   4.114  1.00  0.00     0.054 A 
BRANCH  84  85
ATOM     85  S   UNL     1     -18.733  11.955   5.103  1.00  0.00     0.124 S 
ATOM     86  O   UNL     1     -19.873  11.125   4.724  1.00  0.00    -0.237 OA
ATOM     87  O   UNL     1     -18.254  11.778   6.472  1.00  0.00    -0.237 OA
ATOM     88  O   UNL     1     -18.790  13.341   4.645  1.00  0.00    -0.744 OA
ENDBRANCH  84  85
ENDBRANCH  58  79
ENDBRANCH  32  33
ENDBRANCH  24  27
ENDBRANCH  22  23
ENDBRANCH  21  22
ENDBRANCH  20  21
ENDBRANCH   1  20
TORSDOF 19
