REMARK SMILES CCC[N@@H+](CC1CC[NH2+]CC1)[C@@H](CC)C(=O)NCCCCCCNC(=O)c1ccc(-c2c3nc(c(-c4ccc(S(=O)(=O)[O-])cc4)c4ccc([nH]4)c(-c4ccc(S(=O)(=O)[O-])cc4)c4nc(c(-c5ccc(S(=O)(=O)[O-])cc5)c5ccc2[nH]5)C=C4)C=C3)cc1
REMARK SMILES IDX 20 1 19 2 18 3 17 4 15 5 16 6 12 8 4 9 3 11 2 12 1 13 5 14
REMARK SMILES IDX 6 15 7 16 11 17 8 18 10 19 9 20 13 23 14 24 21 25 22 26
REMARK SMILES IDX 23 27 24 28 25 29 26 31 27 32 28 33 86 34 29 35 85 36 30 37
REMARK SMILES IDX 31 38 32 39 79 40 33 41 84 42 78 43 80 44 34 45 83 46 77 47
REMARK SMILES IDX 76 48 35 50 65 51 46 52 64 53 47 54 50 55 63 56 81 57 48 58
REMARK SMILES IDX 49 59 62 61 82 62 51 63 36 64 37 65 45 66 38 67 44 68 39 69
REMARK SMILES IDX 40 70 41 71 42 72 43 73 66 74 67 75 75 76 68 77 74 78 69 79
REMARK SMILES IDX 70 80 71 81 72 82 73 83 52 84 53 85 61 86 54 87 60 88 55 89
REMARK SMILES IDX 56 90 57 91 58 92 59 93
REMARK H PARENT 17 7 4 10 9 21 9 22 24 30 80 49 50 60
REMARK Flexibility Score: inf
ROOT
ATOM      1  C   UNL     1      -0.085   3.779   0.690  1.00  0.00     0.002 C 
ENDROOT
BRANCH   1   2
ATOM      2  C   UNL     1      -0.426   2.468  -0.026  1.00  0.00     0.021 C 
BRANCH   2   3
ATOM      3  C   UNL     1       0.015   1.150   0.657  1.00  0.00     0.116 C 
BRANCH   3   4
ATOM      4  N   UNL     1      -0.508  -0.055  -0.045  1.00  0.00    -0.351 N 
ATOM      5  C   UNL     1       0.062  -1.305  -0.052  1.00  0.00     0.278 C 
ATOM      6  O   UNL     1      -0.350  -2.056   0.852  1.00  0.00    -0.268 OA
ATOM      7  H   UNL     1      -1.343   0.055  -0.554  1.00  0.00     0.163 HD
BRANCH   5   8
ATOM      8  C   UNL     1       0.971  -1.950  -1.201  1.00  0.00     0.273 C 
BRANCH   8   9
ATOM      9  N   UNL     1       0.944  -1.450  -2.612  1.00  0.00    -0.324 N 
ATOM     10  H   UNL     1      -0.017  -1.110  -2.574  1.00  0.00     0.348 HD
BRANCH   9  11
ATOM     11  C   UNL     1       1.626  -0.227  -3.031  1.00  0.00     0.262 C 
BRANCH  11  12
ATOM     12  C   UNL     1       1.725   0.943  -2.093  1.00  0.00     0.058 C 
ATOM     13  C   UNL     1       2.800   0.803  -1.035  1.00  0.00     0.010 C 
ENDBRANCH  11  12
ENDBRANCH   9  11
BRANCH   9  14
ATOM     14  C   UNL     1       1.147  -2.537  -3.636  1.00  0.00     0.266 C 
BRANCH  14  15
ATOM     15  C   UNL     1       2.590  -2.713  -4.212  1.00  0.00     0.055 C 
ATOM     16  C   UNL     1       2.870  -1.864  -5.473  1.00  0.00     0.071 C 
ATOM     17  C   UNL     1       3.014  -4.175  -4.423  1.00  0.00     0.071 C 
ATOM     18  C   UNL     1       2.535  -2.559  -6.785  1.00  0.00     0.261 C 
ATOM     19  C   UNL     1       2.650  -4.737  -5.789  1.00  0.00     0.261 C 
ATOM     20  N   UNL     1       3.153  -3.877  -6.854  1.00  0.00    -0.346 N 
ATOM     21  H   UNL     1       4.164  -3.779  -6.756  1.00  0.00     0.346 HD
ATOM     22  H   UNL     1       2.925  -4.300  -7.754  1.00  0.00     0.346 HD
ENDBRANCH  14  15
ENDBRANCH   9  14
ENDBRANCH   8   9
BRANCH   8  23
ATOM     23  C   UNL     1       2.190  -2.769  -0.678  1.00  0.00     0.072 C 
ATOM     24  C   UNL     1       3.612  -2.252  -0.848  1.00  0.00     0.011 C 
ENDBRANCH   8  23
ENDBRANCH   5   8
ENDBRANCH   3   4
ENDBRANCH   2   3
ENDBRANCH   1   2
BRANCH   1  25
ATOM     25  C   UNL     1       1.389   4.040   1.016  1.00  0.00     0.002 C 
BRANCH  25  26
ATOM     26  C   UNL     1       2.319   4.410  -0.147  1.00  0.00     0.021 C 
BRANCH  26  27
ATOM     27  C   UNL     1       1.909   5.579  -1.032  1.00  0.00     0.116 C 
BRANCH  27  28
ATOM     28  N   UNL     1       1.510   6.750  -0.276  1.00  0.00    -0.352 N 
ATOM     29  C   UNL     1       1.929   8.049  -0.394  1.00  0.00     0.251 C 
ATOM     30  H   UNL     1       0.839   6.588   0.427  1.00  0.00     0.163 HD
ATOM     31  O   UNL     1       1.601   8.879   0.453  1.00  0.00    -0.269 OA
BRANCH  29  32
ATOM     32  C   UNL     1       2.783   8.447  -1.530  1.00  0.00     0.039 A 
ATOM     33  C   UNL     1       3.900   9.251  -1.291  1.00  0.00     0.014 A 
ATOM     34  C   UNL     1       2.474   8.034  -2.830  1.00  0.00     0.014 A 
ATOM     35  C   UNL     1       4.737   9.601  -2.351  1.00  0.00     0.010 A 
ATOM     36  C   UNL     1       3.348   8.322  -3.871  1.00  0.00     0.010 A 
ATOM     37  C   UNL     1       4.481   9.117  -3.644  1.00  0.00    -0.014 A 
BRANCH  37  38
ATOM     38  C   UNL     1       5.374   9.446  -4.781  1.00  0.00     0.031 A 
ATOM     39  C   UNL     1       4.846  10.264  -5.929  1.00  0.00     0.074 A 
ATOM     40  C   UNL     1       6.629   8.958  -4.806  1.00  0.00     0.049 A 
ATOM     41  N   UNL     1       5.437  10.591  -7.048  1.00  0.00    -0.248 NA
ATOM     42  C   UNL     1       3.462  10.755  -5.814  1.00  0.00     0.031 C 
ATOM     43  C   UNL     1       7.237   8.129  -3.762  1.00  0.00     0.029 A 
ATOM     44  N   UNL     1       7.619   9.083  -5.747  1.00  0.00    -0.354 N 
ATOM     45  C   UNL     1       4.496  11.313  -7.774  1.00  0.00     0.074 A 
ATOM     46  C   UNL     1       3.277  11.325  -6.996  1.00  0.00     0.031 C 
ATOM     47  C   UNL     1       8.503   7.844  -4.107  1.00  0.00     0.029 A 
ATOM     48  C   UNL     1       8.783   8.430  -5.414  1.00  0.00     0.049 A 
ATOM     49  H   UNL     1       7.508   9.592  -6.582  1.00  0.00     0.167 HD
ATOM     50  C   UNL     1       4.641  11.930  -8.970  1.00  0.00     0.031 A 
ATOM     51  C   UNL     1       9.941   8.310  -6.091  1.00  0.00     0.031 A 
ATOM     52  C   UNL     1       5.862  11.918  -9.730  1.00  0.00     0.049 A 
ATOM     53  C   UNL     1      10.069   8.981  -7.433  1.00  0.00     0.074 A 
ATOM     54  C   UNL     1       6.131  12.543 -10.935  1.00  0.00     0.029 A 
ATOM     55  N   UNL     1       7.018  11.248  -9.358  1.00  0.00    -0.354 N 
ATOM     56  N   UNL     1       9.185   9.705  -8.079  1.00  0.00    -0.248 NA
ATOM     57  C   UNL     1      11.352   8.829  -8.132  1.00  0.00     0.031 C 
ATOM     58  C   UNL     1       7.434  12.208 -11.316  1.00  0.00     0.029 A 
ATOM     59  C   UNL     1       7.997  11.428 -10.318  1.00  0.00     0.049 A 
ATOM     60  H   UNL     1       7.125  10.723  -8.532  1.00  0.00     0.167 HD
ATOM     61  C   UNL     1       9.817  10.122  -9.245  1.00  0.00     0.074 A 
ATOM     62  C   UNL     1      11.161   9.581  -9.208  1.00  0.00     0.031 C 
ATOM     63  C   UNL     1       9.332  10.886 -10.254  1.00  0.00     0.031 A 
BRANCH  50  64
ATOM     64  C   UNL     1       3.451  12.669  -9.525  1.00  0.00    -0.014 A 
ATOM     65  C   UNL     1       2.982  13.848  -8.917  1.00  0.00     0.010 A 
ATOM     66  C   UNL     1       2.817  12.203 -10.691  1.00  0.00     0.010 A 
ATOM     67  C   UNL     1       1.878  14.525  -9.440  1.00  0.00     0.020 A 
ATOM     68  C   UNL     1       1.731  12.895 -11.236  1.00  0.00     0.020 A 
ATOM     69  C   UNL     1       1.258  14.043 -10.597  1.00  0.00     0.054 A 
BRANCH  69  70
ATOM     70  S   UNL     1      -0.154  14.961 -11.271  1.00  0.00     0.124 S 
ATOM     71  O   UNL     1      -1.196  14.674 -10.287  1.00  0.00    -0.237 OA
ATOM     72  O   UNL     1       0.336  16.337 -11.282  1.00  0.00    -0.237 OA
ATOM     73  O   UNL     1      -0.360  14.365 -12.588  1.00  0.00    -0.744 OA
ENDBRANCH  69  70
ENDBRANCH  50  64
BRANCH  51  74
ATOM     74  C   UNL     1      11.075   7.539  -5.510  1.00  0.00    -0.014 A 
ATOM     75  C   UNL     1      12.248   8.195  -5.096  1.00  0.00     0.010 A 
ATOM     76  C   UNL     1      10.989   6.142  -5.366  1.00  0.00     0.010 A 
ATOM     77  C   UNL     1      13.323   7.468  -4.578  1.00  0.00     0.020 A 
ATOM     78  C   UNL     1      12.051   5.414  -4.819  1.00  0.00     0.020 A 
ATOM     79  C   UNL     1      13.218   6.081  -4.443  1.00  0.00     0.054 A 
BRANCH  79  80
ATOM     80  S   UNL     1      14.615   5.162  -3.739  1.00  0.00     0.124 S 
ATOM     81  O   UNL     1      15.589   5.214  -4.825  1.00  0.00    -0.237 OA
ATOM     82  O   UNL     1      14.945   5.950  -2.554  1.00  0.00    -0.237 OA
ATOM     83  O   UNL     1      14.052   3.842  -3.464  1.00  0.00    -0.744 OA
ENDBRANCH  79  80
ENDBRANCH  51  74
BRANCH  63  84
ATOM     84  C   UNL     1      10.270  11.223 -11.382  1.00  0.00    -0.014 A 
ATOM     85  C   UNL     1      10.657  10.256 -12.325  1.00  0.00     0.010 A 
ATOM     86  C   UNL     1      10.711  12.551 -11.538  1.00  0.00     0.010 A 
ATOM     87  C   UNL     1      11.489  10.605 -13.391  1.00  0.00     0.020 A 
ATOM     88  C   UNL     1      11.517  12.910 -12.620  1.00  0.00     0.020 A 
ATOM     89  C   UNL     1      11.910  11.931 -13.534  1.00  0.00     0.054 A 
BRANCH  89  90
ATOM     90  S   UNL     1      12.938  12.370 -14.961  1.00  0.00     0.124 S 
ATOM     91  O   UNL     1      14.219  11.760 -14.613  1.00  0.00    -0.237 OA
ATOM     92  O   UNL     1      12.226  11.743 -16.073  1.00  0.00    -0.237 OA
ATOM     93  O   UNL     1      12.924  13.831 -14.964  1.00  0.00    -0.744 OA
ENDBRANCH  89  90
ENDBRANCH  63  84
ENDBRANCH  37  38
ENDBRANCH  29  32
ENDBRANCH  27  28
ENDBRANCH  26  27
ENDBRANCH  25  26
ENDBRANCH   1  25
TORSDOF 22
