REMARK SMILES C[C@@H](C(=O)NCCCCCCNC(=O)c1ccc(-c2c3nc(c(-c4ccc(S(=O)(=O)[O-])cc4)c4ccc([nH]4)c(-c4ccc(S(=O)(=O)[O-])cc4)c4nc(c(-c5ccc(S(=O)(=O)[O-])cc5)c5ccc2[nH]5)C=C4)C=C3)cc1)N(C)c1ccc(C(N)=O)nn1
REMARK SMILES IDX 8 1 7 2 6 3 5 4 3 5 4 6 2 8 1 9 75 10 76 11 77 12 78 13
REMARK SMILES IDX 85 14 79 15 84 16 80 17 81 18 82 19 83 20 9 23 10 24 11 25
REMARK SMILES IDX 12 26 13 27 14 29 15 30 16 31 74 32 17 33 73 34 18 35 19 36
REMARK SMILES IDX 20 37 67 38 21 39 72 40 66 41 68 42 22 43 71 44 65 45 64 46
REMARK SMILES IDX 23 48 53 49 34 50 52 51 35 52 38 53 51 54 69 55 36 56 37 57
REMARK SMILES IDX 50 59 70 60 39 61 24 62 25 63 33 64 26 65 32 66 27 67 28 68
REMARK SMILES IDX 29 69 30 70 31 71 54 72 55 73 63 74 56 75 62 76 57 77 58 78
REMARK SMILES IDX 59 79 60 80 61 81 40 82 41 83 49 84 42 85 48 86 43 87 44 88
REMARK SMILES IDX 45 89 46 90 47 91
REMARK H PARENT 5 7 82 21 82 22 12 28 68 47 38 58
REMARK Flexibility Score: inf
ROOT
ATOM      1  C   UNL     1       4.856   1.275  -2.537  1.00  0.00     0.002 C 
ENDROOT
BRANCH   1   2
ATOM      2  C   UNL     1       4.083   0.839  -1.285  1.00  0.00     0.021 C 
BRANCH   2   3
ATOM      3  C   UNL     1       3.253   1.960  -0.657  1.00  0.00     0.116 C 
BRANCH   3   4
ATOM      4  N   UNL     1       2.115   2.278  -1.496  1.00  0.00    -0.354 N 
ATOM      5  C   UNL     1       0.801   1.923  -1.374  1.00  0.00     0.242 C 
ATOM      6  O   UNL     1       0.060   2.263  -2.300  1.00  0.00    -0.273 OA
ATOM      7  H   UNL     1       2.322   2.838  -2.278  1.00  0.00     0.163 HD
BRANCH   5   8
ATOM      8  C   UNL     1       0.298   1.208  -0.084  1.00  0.00     0.169 C 
ATOM      9  C   UNL     1       0.948  -0.149   0.191  1.00  0.00     0.042 C 
BRANCH   8  10
ATOM     10  N   UNL     1      -1.189   1.123  -0.016  1.00  0.00    -0.346 N 
ATOM     11  C   UNL     1      -1.867   2.224   0.666  1.00  0.00     0.146 C 
BRANCH  10  12
ATOM     12  C   UNL     1      -1.950   0.513  -1.016  1.00  0.00     0.151 A 
ATOM     13  C   UNL     1      -1.607  -0.719  -1.566  1.00  0.00     0.051 A 
ATOM     14  N   UNL     1      -3.103   1.091  -1.443  1.00  0.00    -0.132 NA
ATOM     15  C   UNL     1      -2.397  -1.320  -2.547  1.00  0.00     0.040 A 
ATOM     16  N   UNL     1      -3.896   0.523  -2.428  1.00  0.00    -0.143 NA
ATOM     17  C   UNL     1      -3.531  -0.660  -2.962  1.00  0.00     0.150 A 
BRANCH  17  18
ATOM     18  C   UNL     1      -4.418  -1.250  -3.999  1.00  0.00     0.269 C 
ATOM     19  N   UNL     1      -5.491  -0.494  -4.385  1.00  0.00    -0.364 N 
ATOM     20  O   UNL     1      -4.210  -2.356  -4.489  1.00  0.00    -0.268 OA
ATOM     21  H   UNL     1      -5.641   0.391  -3.980  1.00  0.00     0.160 HD
ATOM     22  H   UNL     1      -6.113  -0.834  -5.067  1.00  0.00     0.160 HD
ENDBRANCH  17  18
ENDBRANCH  10  12
ENDBRANCH   8  10
ENDBRANCH   5   8
ENDBRANCH   3   4
ENDBRANCH   2   3
ENDBRANCH   1   2
BRANCH   1  23
ATOM     23  C   UNL     1       5.850   2.420  -2.314  1.00  0.00     0.002 C 
BRANCH  23  24
ATOM     24  C   UNL     1       6.888   2.164  -1.218  1.00  0.00     0.021 C 
BRANCH  24  25
ATOM     25  C   UNL     1       7.788   0.959  -1.473  1.00  0.00     0.116 C 
BRANCH  25  26
ATOM     26  N   UNL     1       8.598   1.134  -2.667  1.00  0.00    -0.352 N 
ATOM     27  C   UNL     1       9.960   1.063  -2.818  1.00  0.00     0.251 C 
ATOM     28  H   UNL     1       8.095   1.333  -3.490  1.00  0.00     0.163 HD
ATOM     29  O   UNL     1      10.477   1.467  -3.855  1.00  0.00    -0.269 OA
BRANCH  27  30
ATOM     30  C   UNL     1      10.801   0.515  -1.731  1.00  0.00     0.039 A 
ATOM     31  C   UNL     1      12.012   1.146  -1.437  1.00  0.00     0.014 A 
ATOM     32  C   UNL     1      10.417  -0.627  -1.022  1.00  0.00     0.014 A 
ATOM     33  C   UNL     1      12.811   0.659  -0.401  1.00  0.00     0.010 A 
ATOM     34  C   UNL     1      11.176  -1.063   0.062  1.00  0.00     0.010 A 
ATOM     35  C   UNL     1      12.386  -0.430   0.379  1.00  0.00    -0.014 A 
BRANCH  35  36
ATOM     36  C   UNL     1      13.203  -0.905   1.527  1.00  0.00     0.031 A 
ATOM     37  C   UNL     1      13.794  -2.290   1.525  1.00  0.00     0.074 A 
ATOM     38  C   UNL     1      13.393  -0.091   2.585  1.00  0.00     0.049 A 
ATOM     39  N   UNL     1      14.533  -2.870   2.437  1.00  0.00    -0.248 NA
ATOM     40  C   UNL     1      13.504  -3.142   0.359  1.00  0.00     0.031 C 
ATOM     41  C   UNL     1      12.832   1.255   2.729  1.00  0.00     0.029 A 
ATOM     42  N   UNL     1      14.113  -0.274   3.739  1.00  0.00    -0.354 N 
ATOM     43  C   UNL     1      14.800  -4.146   1.954  1.00  0.00     0.074 A 
ATOM     44  C   UNL     1      14.087  -4.281   0.703  1.00  0.00     0.031 C 
ATOM     45  C   UNL     1      13.255   1.787   3.887  1.00  0.00     0.029 A 
ATOM     46  C   UNL     1      14.081   0.809   4.587  1.00  0.00     0.049 A 
ATOM     47  H   UNL     1      14.605  -1.102   3.942  1.00  0.00     0.167 HD
ATOM     48  C   UNL     1      15.591  -5.109   2.486  1.00  0.00     0.031 A 
ATOM     49  C   UNL     1      14.648   0.995   5.795  1.00  0.00     0.031 A 
ATOM     50  C   UNL     1      16.295  -4.975   3.735  1.00  0.00     0.049 A 
ATOM     51  C   UNL     1      15.502  -0.100   6.377  1.00  0.00     0.074 A 
ATOM     52  C   UNL     1      17.142  -5.883   4.347  1.00  0.00     0.029 A 
ATOM     53  N   UNL     1      16.239  -3.863   4.562  1.00  0.00    -0.354 N 
ATOM     54  N   UNL     1      15.789  -1.277   5.873  1.00  0.00    -0.248 NA
ATOM     55  C   UNL     1      16.122   0.166   7.682  1.00  0.00     0.031 C 
ATOM     56  C   UNL     1      17.554  -5.342   5.569  1.00  0.00     0.029 A 
ATOM     57  C   UNL     1      17.020  -4.069   5.687  1.00  0.00     0.049 A 
ATOM     58  H   UNL     1      15.720  -3.047   4.377  1.00  0.00     0.167 HD
ATOM     59  C   UNL     1      16.645  -1.880   6.789  1.00  0.00     0.074 A 
ATOM     60  C   UNL     1      16.849  -0.927   7.860  1.00  0.00     0.031 C 
ATOM     61  C   UNL     1      17.210  -3.113   6.748  1.00  0.00     0.031 A 
BRANCH  48  62
ATOM     62  C   UNL     1      15.748  -6.392   1.710  1.00  0.00    -0.014 A 
ATOM     63  C   UNL     1      16.453  -6.415   0.493  1.00  0.00     0.010 A 
ATOM     64  C   UNL     1      15.239  -7.597   2.227  1.00  0.00     0.010 A 
ATOM     65  C   UNL     1      16.617  -7.611  -0.210  1.00  0.00     0.020 A 
ATOM     66  C   UNL     1      15.427  -8.802   1.542  1.00  0.00     0.020 A 
ATOM     67  C   UNL     1      16.104  -8.798   0.320  1.00  0.00     0.054 A 
BRANCH  67  68
ATOM     68  S   UNL     1      16.367 -10.341  -0.597  1.00  0.00     0.124 S 
ATOM     69  O   UNL     1      15.493 -10.156  -1.753  1.00  0.00    -0.237 OA
ATOM     70  O   UNL     1      17.800 -10.302  -0.881  1.00  0.00    -0.237 OA
ATOM     71  O   UNL     1      15.948 -11.379   0.341  1.00  0.00    -0.744 OA
ENDBRANCH  67  68
ENDBRANCH  48  62
BRANCH  49  72
ATOM     72  C   UNL     1      14.422   2.265   6.540  1.00  0.00    -0.014 A 
ATOM     73  C   UNL     1      15.476   3.166   6.772  1.00  0.00     0.010 A 
ATOM     74  C   UNL     1      13.142   2.571   7.037  1.00  0.00     0.010 A 
ATOM     75  C   UNL     1      15.262   4.330   7.518  1.00  0.00     0.020 A 
ATOM     76  C   UNL     1      12.916   3.750   7.752  1.00  0.00     0.020 A 
ATOM     77  C   UNL     1      13.983   4.613   8.005  1.00  0.00     0.054 A 
BRANCH  77  78
ATOM     78  S   UNL     1      13.721   6.138   8.952  1.00  0.00     0.124 S 
ATOM     79  O   UNL     1      14.377   5.825  10.217  1.00  0.00    -0.237 OA
ATOM     80  O   UNL     1      14.385   7.141   8.123  1.00  0.00    -0.237 OA
ATOM     81  O   UNL     1      12.266   6.256   9.012  1.00  0.00    -0.744 OA
ENDBRANCH  77  78
ENDBRANCH  49  72
BRANCH  61  82
ATOM     82  C   UNL     1      18.132  -3.486   7.880  1.00  0.00    -0.014 A 
ATOM     83  C   UNL     1      17.643  -3.715   9.179  1.00  0.00     0.010 A 
ATOM     84  C   UNL     1      19.509  -3.640   7.631  1.00  0.00     0.010 A 
ATOM     85  C   UNL     1      18.520  -4.042  10.217  1.00  0.00     0.020 A 
ATOM     86  C   UNL     1      20.384  -4.001   8.659  1.00  0.00     0.020 A 
ATOM     87  C   UNL     1      19.885  -4.181   9.950  1.00  0.00     0.054 A 
BRANCH  87  88
ATOM     88  S   UNL     1      20.998  -4.627  11.311  1.00  0.00     0.124 S 
ATOM     89  O   UNL     1      21.037  -3.391  12.088  1.00  0.00    -0.237 OA
ATOM     90  O   UNL     1      20.300  -5.745  11.941  1.00  0.00    -0.237 OA
ATOM     91  O   UNL     1      22.246  -4.979  10.637  1.00  0.00    -0.744 OA
ENDBRANCH  87  88
ENDBRANCH  61  82
ENDBRANCH  35  36
ENDBRANCH  27  30
ENDBRANCH  25  26
ENDBRANCH  24  25
ENDBRANCH  23  24
ENDBRANCH   1  23
TORSDOF 19
