REMARK SMILES Cc1cc2c(=O)c3ccccc3oc2c(C(=O)NCCCCCCNC(=O)c2ccc(-c3c4nc(c(-c5ccc(S(=O)(=O)[O-])cc5)c5ccc([nH]5)c(-c5ccc(S(=O)(=O)[O-])cc5)c5nc(c(-c6ccc(S(=O)(=O)[O-])cc6)c6ccc3[nH]6)C=C5)C=C4)cc2)c1C
REMARK SMILES IDX 23 1 22 2 21 3 20 4 19 5 18 6 16 7 17 8 15 10 1 11 2 12 3 13
REMARK SMILES IDX 88 14 4 15 89 16 5 17 14 18 6 19 7 20 13 21 8 22 12 23 9 24
REMARK SMILES IDX 11 25 10 26 24 27 25 28 26 29 27 31 28 32 29 33 87 34 30 35
REMARK SMILES IDX 86 36 31 37 32 38 33 39 80 40 34 41 85 42 79 43 81 44 35 45
REMARK SMILES IDX 84 46 78 47 77 48 36 50 66 51 47 52 65 53 48 54 51 55 64 56
REMARK SMILES IDX 82 57 49 58 50 59 63 61 83 62 52 63 37 64 38 65 46 66 39 67
REMARK SMILES IDX 45 68 40 69 41 70 42 71 43 72 44 73 67 74 68 75 76 76 69 77
REMARK SMILES IDX 75 78 70 79 71 80 72 81 73 82 74 83 53 84 54 85 62 86 55 87
REMARK SMILES IDX 61 88 56 89 57 90 58 91 59 92 60 93
REMARK H PARENT 18 9 25 30 81 49 51 60
REMARK Flexibility Score: inf
ROOT
ATOM      1  C   UNL     1       3.641  -5.192   4.019  1.00  0.00     0.021 C 
ENDROOT
BRANCH   1   2
ATOM      2  C   UNL     1       3.295  -6.420   3.178  1.00  0.00     0.002 C 
BRANCH   2   3
ATOM      3  C   UNL     1       1.821  -6.529   2.769  1.00  0.00     0.002 C 
BRANCH   3   4
ATOM      4  C   UNL     1       1.270  -5.319   2.005  1.00  0.00     0.021 C 
BRANCH   4   5
ATOM      5  C   UNL     1       2.071  -4.995   0.741  1.00  0.00     0.116 C 
BRANCH   5   6
ATOM      6  N   UNL     1       1.266  -5.120  -0.450  1.00  0.00    -0.352 N 
ATOM      7  C   UNL     1       0.747  -4.412  -1.488  1.00  0.00     0.255 C 
ATOM      8  O   UNL     1       0.454  -5.214  -2.387  1.00  0.00    -0.269 OA
ATOM      9  H   UNL     1       0.993  -6.061  -0.546  1.00  0.00     0.163 HD
BRANCH   7  10
ATOM     10  C   UNL     1       0.466  -2.917  -1.679  1.00  0.00     0.086 A 
ATOM     11  C   UNL     1       0.636   0.706  -0.269  1.00  0.00     0.044 C 
ATOM     12  C   UNL     1       0.363  -0.491  -1.154  1.00  0.00    -0.046 A 
ATOM     13  C   UNL     1      -0.265  -0.235  -2.374  1.00  0.00     0.019 A 
ATOM     14  C   UNL     1       0.714  -1.832  -0.783  1.00  0.00    -0.032 A 
ATOM     15  C   UNL     1      -0.537  -1.275  -3.246  1.00  0.00     0.066 A 
ATOM     16  C   UNL     1       1.366  -1.996   0.555  1.00  0.00     0.045 C 
ATOM     17  C   UNL     1      -1.209  -0.979  -4.526  1.00  0.00     0.200 A 
ATOM     18  C   UNL     1      -0.180  -2.588  -2.922  1.00  0.00     0.151 A 
ATOM     19  O   UNL     1      -1.564   0.154  -4.825  1.00  0.00    -0.288 OA
ATOM     20  C   UNL     1      -1.433  -2.103  -5.437  1.00  0.00     0.065 A 
ATOM     21  O   UNL     1      -0.466  -3.611  -3.805  1.00  0.00    -0.455 OA
ATOM     22  C   UNL     1      -2.016  -1.925  -6.694  1.00  0.00     0.016 A 
ATOM     23  C   UNL     1      -1.039  -3.361  -5.016  1.00  0.00     0.138 A 
ATOM     24  C   UNL     1      -2.198  -3.027  -7.532  1.00  0.00     0.001 A 
ATOM     25  C   UNL     1      -1.225  -4.464  -5.851  1.00  0.00     0.048 A 
ATOM     26  C   UNL     1      -1.802  -4.297  -7.110  1.00  0.00     0.004 A 
ENDBRANCH   7  10
ENDBRANCH   5   6
ENDBRANCH   4   5
ENDBRANCH   3   4
ENDBRANCH   2   3
ENDBRANCH   1   2
BRANCH   1  27
ATOM     27  C   UNL     1       2.873  -5.088   5.330  1.00  0.00     0.116 C 
BRANCH  27  28
ATOM     28  N   UNL     1       3.081  -6.246   6.189  1.00  0.00    -0.352 N 
ATOM     29  C   UNL     1       3.485  -6.301   7.503  1.00  0.00     0.251 C 
ATOM     30  H   UNL     1       2.906  -7.118   5.767  1.00  0.00     0.163 HD
ATOM     31  O   UNL     1       3.778  -7.372   8.014  1.00  0.00    -0.269 OA
BRANCH  29  32
ATOM     32  C   UNL     1       3.589  -5.046   8.278  1.00  0.00     0.039 A 
ATOM     33  C   UNL     1       2.582  -4.084   8.197  1.00  0.00     0.014 A 
ATOM     34  C   UNL     1       4.719  -4.820   9.068  1.00  0.00     0.014 A 
ATOM     35  C   UNL     1       2.787  -2.829   8.755  1.00  0.00     0.010 A 
ATOM     36  C   UNL     1       4.878  -3.588   9.710  1.00  0.00     0.010 A 
ATOM     37  C   UNL     1       3.939  -2.564   9.515  1.00  0.00    -0.014 A 
BRANCH  37  38
ATOM     38  C   UNL     1       4.128  -1.204  10.083  1.00  0.00     0.031 A 
ATOM     39  C   UNL     1       5.265  -0.328   9.626  1.00  0.00     0.074 A 
ATOM     40  C   UNL     1       3.215  -0.727  10.953  1.00  0.00     0.049 A 
ATOM     41  N   UNL     1       5.524   0.912   9.953  1.00  0.00    -0.248 NA
ATOM     42  C   UNL     1       6.236  -0.911   8.685  1.00  0.00     0.031 C 
ATOM     43  C   UNL     1       2.062  -1.482  11.452  1.00  0.00     0.029 A 
ATOM     44  N   UNL     1       3.079   0.508  11.534  1.00  0.00    -0.354 N 
ATOM     45  C   UNL     1       6.686   1.253   9.271  1.00  0.00     0.074 A 
ATOM     46  C   UNL     1       7.106   0.079   8.539  1.00  0.00     0.031 C 
ATOM     47  C   UNL     1       1.297  -0.672  12.197  1.00  0.00     0.029 A 
ATOM     48  C   UNL     1       1.937   0.637  12.291  1.00  0.00     0.049 A 
ATOM     49  H   UNL     1       3.736   1.233  11.421  1.00  0.00     0.167 HD
ATOM     50  C   UNL     1       7.333   2.442   9.245  1.00  0.00     0.031 A 
ATOM     51  C   UNL     1       1.451   1.686  12.983  1.00  0.00     0.031 A 
ATOM     52  C   UNL     1       6.898   3.611   9.965  1.00  0.00     0.049 A 
ATOM     53  C   UNL     1       2.204   2.984  12.965  1.00  0.00     0.074 A 
ATOM     54  C   UNL     1       7.485   4.864   9.993  1.00  0.00     0.029 A 
ATOM     55  N   UNL     1       5.773   3.677  10.773  1.00  0.00    -0.354 N 
ATOM     56  N   UNL     1       3.299   3.286  12.308  1.00  0.00    -0.248 NA
ATOM     57  C   UNL     1       1.663   4.084  13.774  1.00  0.00     0.031 C 
ATOM     58  C   UNL     1       6.750   5.670  10.865  1.00  0.00     0.029 A 
ATOM     59  C   UNL     1       5.661   4.944  11.320  1.00  0.00     0.049 A 
ATOM     60  H   UNL     1       5.146   2.935  10.933  1.00  0.00     0.167 HD
ATOM     61  C   UNL     1       3.570   4.614  12.612  1.00  0.00     0.074 A 
ATOM     62  C   UNL     1       2.514   5.065  13.497  1.00  0.00     0.031 C 
ATOM     63  C   UNL     1       4.603   5.385  12.197  1.00  0.00     0.031 A 
BRANCH  50  64
ATOM     64  C   UNL     1       8.582   2.563   8.408  1.00  0.00    -0.014 A 
ATOM     65  C   UNL     1       9.825   2.774   9.035  1.00  0.00     0.010 A 
ATOM     66  C   UNL     1       8.511   2.596   7.004  1.00  0.00     0.010 A 
ATOM     67  C   UNL     1      10.966   3.049   8.277  1.00  0.00     0.020 A 
ATOM     68  C   UNL     1       9.656   2.842   6.241  1.00  0.00     0.020 A 
ATOM     69  C   UNL     1      10.872   3.091   6.883  1.00  0.00     0.054 A 
BRANCH  69  70
ATOM     70  S   UNL     1      12.357   3.478   5.915  1.00  0.00     0.124 S 
ATOM     71  O   UNL     1      12.491   4.917   6.119  1.00  0.00    -0.237 OA
ATOM     72  O   UNL     1      13.378   2.651   6.553  1.00  0.00    -0.237 OA
ATOM     73  O   UNL     1      11.995   3.068   4.560  1.00  0.00    -0.744 OA
ENDBRANCH  69  70
ENDBRANCH  50  64
BRANCH  51  74
ATOM     74  C   UNL     1       0.163   1.534  13.716  1.00  0.00    -0.014 A 
ATOM     75  C   UNL     1       0.068   0.651  14.810  1.00  0.00     0.010 A 
ATOM     76  C   UNL     1      -0.997   2.186  13.264  1.00  0.00     0.010 A 
ATOM     77  C   UNL     1      -1.170   0.372  15.392  1.00  0.00     0.020 A 
ATOM     78  C   UNL     1      -2.234   1.934  13.867  1.00  0.00     0.020 A 
ATOM     79  C   UNL     1      -2.316   1.003  14.905  1.00  0.00     0.054 A 
BRANCH  79  80
ATOM     80  S   UNL     1      -3.922   0.575  15.633  1.00  0.00     0.124 S 
ATOM     81  O   UNL     1      -4.187  -0.726  15.026  1.00  0.00    -0.237 OA
ATOM     82  O   UNL     1      -3.628   0.554  17.064  1.00  0.00    -0.237 OA
ATOM     83  O   UNL     1      -4.795   1.661  15.195  1.00  0.00    -0.744 OA
ENDBRANCH  79  80
ENDBRANCH  51  74
BRANCH  63  84
ATOM     84  C   UNL     1       4.667   6.812  12.674  1.00  0.00    -0.014 A 
ATOM     85  C   UNL     1       4.506   7.861  11.749  1.00  0.00     0.010 A 
ATOM     86  C   UNL     1       5.033   7.114  13.998  1.00  0.00     0.010 A 
ATOM     87  C   UNL     1       4.753   9.183  12.127  1.00  0.00     0.020 A 
ATOM     88  C   UNL     1       5.251   8.439  14.386  1.00  0.00     0.020 A 
ATOM     89  C   UNL     1       5.138   9.461  13.440  1.00  0.00     0.054 A 
BRANCH  89  90
ATOM     90  S   UNL     1       5.502  11.178  13.898  1.00  0.00     0.124 S 
ATOM     91  O   UNL     1       6.821  11.380  13.306  1.00  0.00    -0.237 OA
ATOM     92  O   UNL     1       4.410  11.918  13.271  1.00  0.00    -0.237 OA
ATOM     93  O   UNL     1       5.471  11.156  15.359  1.00  0.00    -0.744 OA
ENDBRANCH  89  90
ENDBRANCH  63  84
ENDBRANCH  37  38
ENDBRANCH  29  32
ENDBRANCH  27  28
ENDBRANCH   1  27
TORSDOF 16
