REMARK SMILES O=C(Cn1cnc(-c2ccccc2)c1-c1ccccc1)NCCCCCCNC(=O)c1ccc(-c2c3nc(c(-c4ccc(S(=O)(=O)[O-])cc4)c4ccc([nH]4)c(-c4ccc(S(=O)(=O)[O-])cc4)c4nc(c(-c5ccc(S(=O)(=O)[O-])cc5)c5ccc2[nH]5)C=C4)C=C3)cc1
REMARK SMILES IDX 25 1 24 2 23 3 22 4 21 5 1 6 2 7 3 9 4 10 5 11 14 12 6 13
REMARK SMILES IDX 7 14 15 15 16 16 20 17 17 18 19 19 18 20 8 21 9 22 13 23
REMARK SMILES IDX 10 24 12 25 11 26 26 27 27 28 28 29 29 30 30 32 31 33 32 34
REMARK SMILES IDX 90 35 33 36 89 37 34 38 35 39 36 40 83 41 37 42 88 43 82 44
REMARK SMILES IDX 84 45 38 46 87 47 81 48 80 49 39 51 69 52 50 53 68 54 51 55
REMARK SMILES IDX 54 56 67 57 85 58 52 59 53 60 66 62 86 63 55 64 40 65 41 66
REMARK SMILES IDX 49 67 42 68 48 69 43 70 44 71 45 72 46 73 47 74 70 75 71 76
REMARK SMILES IDX 79 77 72 78 78 79 73 80 74 81 75 82 76 83 77 84 56 85 57 86
REMARK SMILES IDX 65 87 58 88 64 89 59 90 60 91 61 92 62 93 63 94
REMARK H PARENT 21 8 28 31 84 50 54 61
REMARK Flexibility Score: inf
ROOT
ATOM      1  C   UNL     1       4.676   1.477  -4.079  1.00  0.00     0.002 C 
ENDROOT
BRANCH   1   2
ATOM      2  C   UNL     1       4.205   2.410  -2.954  1.00  0.00     0.002 C 
BRANCH   2   3
ATOM      3  C   UNL     1       2.708   2.369  -2.620  1.00  0.00     0.021 C 
BRANCH   3   4
ATOM      4  C   UNL     1       2.157   0.983  -2.286  1.00  0.00     0.116 C 
BRANCH   4   5
ATOM      5  N   UNL     1       2.836   0.393  -1.148  1.00  0.00    -0.355 N 
ATOM      6  O   UNL     1       1.001   0.339   0.225  1.00  0.00    -0.273 OA
ATOM      7  C   UNL     1       2.197   0.120   0.044  1.00  0.00     0.239 C 
ATOM      8  H   UNL     1       3.793   0.177  -1.230  1.00  0.00     0.163 HD
BRANCH   7   9
ATOM      9  C   UNL     1       3.084  -0.399   1.158  1.00  0.00     0.223 C 
BRANCH   9  10
ATOM     10  N   UNL     1       3.809  -1.605   0.794  1.00  0.00    -0.321 N 
ATOM     11  C   UNL     1       5.118  -1.619   0.391  1.00  0.00     0.201 A 
ATOM     12  C   UNL     1       3.378  -2.913   0.882  1.00  0.00     0.076 A 
ATOM     13  N   UNL     1       5.549  -2.839   0.173  1.00  0.00    -0.236 NA
ATOM     14  C   UNL     1       4.478  -3.651   0.458  1.00  0.00     0.096 A 
BRANCH  12  15
ATOM     15  C   UNL     1       2.082  -3.359   1.392  1.00  0.00     0.000 A 
ATOM     16  C   UNL     1       2.031  -4.197   2.515  1.00  0.00     0.010 A 
ATOM     17  C   UNL     1       0.891  -3.029   0.739  1.00  0.00     0.010 A 
ATOM     18  C   UNL     1       0.812  -4.699   2.975  1.00  0.00     0.001 A 
ATOM     19  C   UNL     1      -0.330  -3.522   1.206  1.00  0.00     0.001 A 
ATOM     20  C   UNL     1      -0.369  -4.359   2.319  1.00  0.00     0.000 A 
ENDBRANCH  12  15
BRANCH  14  21
ATOM     21  C   UNL     1       4.537  -5.098   0.375  1.00  0.00     0.002 A 
ATOM     22  C   UNL     1       5.546  -5.793   1.050  1.00  0.00     0.010 A 
ATOM     23  C   UNL     1       3.569  -5.816  -0.339  1.00  0.00     0.010 A 
ATOM     24  C   UNL     1       5.564  -7.190   1.042  1.00  0.00     0.001 A 
ATOM     25  C   UNL     1       3.591  -7.211  -0.352  1.00  0.00     0.001 A 
ATOM     26  C   UNL     1       4.583  -7.897   0.345  1.00  0.00     0.000 A 
ENDBRANCH  14  21
ENDBRANCH   9  10
ENDBRANCH   7   9
ENDBRANCH   4   5
ENDBRANCH   3   4
ENDBRANCH   2   3
ENDBRANCH   1   2
BRANCH   1  27
ATOM     27  C   UNL     1       3.971   1.627  -5.433  1.00  0.00     0.021 C 
BRANCH  27  28
ATOM     28  C   UNL     1       4.160   2.987  -6.093  1.00  0.00     0.116 C 
BRANCH  28  29
ATOM     29  N   UNL     1       5.541   3.227  -6.505  1.00  0.00    -0.352 N 
ATOM     30  C   UNL     1       6.071   4.362  -7.092  1.00  0.00     0.251 C 
ATOM     31  H   UNL     1       6.173   2.489  -6.345  1.00  0.00     0.163 HD
ATOM     32  O   UNL     1       7.118   4.310  -7.717  1.00  0.00    -0.269 OA
BRANCH  30  33
ATOM     33  C   UNL     1       5.343   5.638  -6.948  1.00  0.00     0.039 A 
ATOM     34  C   UNL     1       5.209   6.518  -8.026  1.00  0.00     0.014 A 
ATOM     35  C   UNL     1       4.773   5.935  -5.713  1.00  0.00     0.014 A 
ATOM     36  C   UNL     1       4.419   7.657  -7.875  1.00  0.00     0.010 A 
ATOM     37  C   UNL     1       3.893   6.984  -5.604  1.00  0.00     0.010 A 
ATOM     38  C   UNL     1       3.744   7.874  -6.665  1.00  0.00    -0.014 A 
BRANCH  38  39
ATOM     39  C   UNL     1       2.786   8.970  -6.526  1.00  0.00     0.031 A 
ATOM     40  C   UNL     1       1.655   8.955  -7.496  1.00  0.00     0.074 A 
ATOM     41  C   UNL     1       2.762   9.783  -5.448  1.00  0.00     0.049 A 
ATOM     42  N   UNL     1       1.380   9.821  -8.415  1.00  0.00    -0.248 NA
ATOM     43  C   UNL     1       0.781   7.769  -7.519  1.00  0.00     0.031 C 
ATOM     44  C   UNL     1       3.599   9.706  -4.243  1.00  0.00     0.029 A 
ATOM     45  N   UNL     1       1.879  10.771  -5.136  1.00  0.00    -0.354 N 
ATOM     46  C   UNL     1       0.182   9.406  -8.994  1.00  0.00     0.074 A 
ATOM     47  C   UNL     1      -0.038   8.058  -8.532  1.00  0.00     0.031 C 
ATOM     48  C   UNL     1       3.024  10.418  -3.249  1.00  0.00     0.029 A 
ATOM     49  C   UNL     1       1.892  11.142  -3.796  1.00  0.00     0.049 A 
ATOM     50  H   UNL     1       1.283  11.185  -5.800  1.00  0.00     0.167 HD
ATOM     51  C   UNL     1      -0.658  10.280  -9.618  1.00  0.00     0.031 A 
ATOM     52  C   UNL     1       1.015  11.961  -3.164  1.00  0.00     0.031 A 
ATOM     53  C   UNL     1      -0.021  11.550  -9.854  1.00  0.00     0.049 A 
ATOM     54  C   UNL     1       0.344  12.768  -4.210  1.00  0.00     0.074 A 
ATOM     55  C   UNL     1       1.085  11.972 -10.564  1.00  0.00     0.029 A 
ATOM     56  N   UNL     1      -0.323  12.565  -8.976  1.00  0.00    -0.354 N 
ATOM     57  N   UNL     1       0.966  13.641  -4.952  1.00  0.00    -0.248 NA
ATOM     58  C   UNL     1      -0.930  12.303  -4.734  1.00  0.00     0.031 C 
ATOM     59  C   UNL     1       1.667  12.996  -9.760  1.00  0.00     0.029 A 
ATOM     60  C   UNL     1       0.850  13.190  -8.643  1.00  0.00     0.049 A 
ATOM     61  H   UNL     1      -1.220  12.800  -8.647  1.00  0.00     0.167 HD
ATOM     62  C   UNL     1       0.400  13.505  -6.211  1.00  0.00     0.074 A 
ATOM     63  C   UNL     1      -0.835  12.758  -5.987  1.00  0.00     0.031 C 
ATOM     64  C   UNL     1       1.123  13.765  -7.341  1.00  0.00     0.031 A 
BRANCH  51  65
ATOM     65  C   UNL     1      -2.165  10.140  -9.651  1.00  0.00    -0.014 A 
ATOM     66  C   UNL     1      -2.923  11.109 -10.345  1.00  0.00     0.010 A 
ATOM     67  C   UNL     1      -2.877   9.268  -8.803  1.00  0.00     0.010 A 
ATOM     68  C   UNL     1      -4.301  11.250 -10.132  1.00  0.00     0.020 A 
ATOM     69  C   UNL     1      -4.258   9.370  -8.618  1.00  0.00     0.020 A 
ATOM     70  C   UNL     1      -4.955  10.387  -9.254  1.00  0.00     0.054 A 
BRANCH  70  71
ATOM     71  S   UNL     1      -6.708  10.650  -8.889  1.00  0.00     0.124 S 
ATOM     72  O   UNL     1      -6.678  11.922  -8.174  1.00  0.00    -0.237 OA
ATOM     73  O   UNL     1      -7.301  10.685 -10.223  1.00  0.00    -0.237 OA
ATOM     74  O   UNL     1      -7.067   9.486  -8.083  1.00  0.00    -0.744 OA
ENDBRANCH  70  71
ENDBRANCH  51  65
BRANCH  52  75
ATOM     75  C   UNL     1       0.536  11.888  -1.763  1.00  0.00    -0.014 A 
ATOM     76  C   UNL     1      -0.130  12.971  -1.163  1.00  0.00     0.010 A 
ATOM     77  C   UNL     1       0.494  10.643  -1.099  1.00  0.00     0.010 A 
ATOM     78  C   UNL     1      -0.862  12.802   0.026  1.00  0.00     0.020 A 
ATOM     79  C   UNL     1      -0.227  10.468   0.088  1.00  0.00     0.020 A 
ATOM     80  C   UNL     1      -0.922  11.544   0.633  1.00  0.00     0.054 A 
BRANCH  80  81
ATOM     81  S   UNL     1      -2.014  11.292   2.065  1.00  0.00     0.124 S 
ATOM     82  O   UNL     1      -1.324  12.032   3.116  1.00  0.00    -0.237 OA
ATOM     83  O   UNL     1      -3.276  11.868   1.608  1.00  0.00    -0.237 OA
ATOM     84  O   UNL     1      -2.027   9.839   2.236  1.00  0.00    -0.744 OA
ENDBRANCH  80  81
ENDBRANCH  52  75
BRANCH  64  85
ATOM     85  C   UNL     1       2.434  14.508  -7.202  1.00  0.00    -0.014 A 
ATOM     86  C   UNL     1       3.539  14.026  -6.472  1.00  0.00     0.010 A 
ATOM     87  C   UNL     1       2.599  15.671  -7.974  1.00  0.00     0.010 A 
ATOM     88  C   UNL     1       4.766  14.707  -6.496  1.00  0.00     0.020 A 
ATOM     89  C   UNL     1       3.823  16.342  -8.018  1.00  0.00     0.020 A 
ATOM     90  C   UNL     1       4.899  15.863  -7.271  1.00  0.00     0.054 A 
BRANCH  90  91
ATOM     91  S   UNL     1       6.500  16.716  -7.340  1.00  0.00     0.124 S 
ATOM     92  O   UNL     1       6.620  17.275  -5.996  1.00  0.00    -0.237 OA
ATOM     93  O   UNL     1       7.432  15.636  -7.658  1.00  0.00    -0.237 OA
ATOM     94  O   UNL     1       6.324  17.703  -8.406  1.00  0.00    -0.744 OA
ENDBRANCH  90  91
ENDBRANCH  64  85
ENDBRANCH  38  39
ENDBRANCH  30  33
ENDBRANCH  28  29
ENDBRANCH  27  28
ENDBRANCH   1  27
TORSDOF 19
