REMARK SMILES C[C@@H](C(=O)NCCCCCCNC(=O)c1ccc(-c2c3nc(c(-c4ccc(S(=O)(=O)[O-])cc4)c4ccc([nH]4)c(-c4ccc(S(=O)(=O)[O-])cc4)c4nc(c(-c5ccc(S(=O)(=O)[O-])cc5)c5ccc2[nH]5)C=C4)C=C3)cc1)N1C(=O)/C(=C/c2ccc(F)cc2)SC1=S
REMARK SMILES IDX 9 1 8 2 7 3 6 4 5 5 3 6 4 7 2 9 1 10 75 11 76 12 88 13 77 14
REMARK SMILES IDX 78 15 87 16 89 17 79 18 80 19 81 20 86 21 82 22 85 23 83 24
REMARK SMILES IDX 84 25 10 26 11 27 12 28 13 29 14 31 15 32 16 33 74 34 17 35
REMARK SMILES IDX 73 36 18 37 19 38 20 39 67 40 21 41 72 42 66 43 68 44 22 45
REMARK SMILES IDX 71 46 65 47 64 48 23 50 53 51 34 52 52 53 35 54 38 55 51 56
REMARK SMILES IDX 69 57 36 58 37 59 50 61 70 62 39 63 24 64 25 65 33 66 26 67
REMARK SMILES IDX 32 68 27 69 28 70 29 71 30 72 31 73 54 74 55 75 63 76 56 77
REMARK SMILES IDX 62 78 57 79 58 80 59 81 60 82 61 83 40 84 41 85 49 86 42 87
REMARK SMILES IDX 48 88 43 89 44 90 45 91 46 92 47 93
REMARK H PARENT 5 8 12 30 68 49 38 60
REMARK Flexibility Score: inf
ROOT
ATOM      1  C   UNL     1       5.848  -1.075   3.124  1.00  0.00     0.002 C 
ENDROOT
BRANCH   1   2
ATOM      2  C   UNL     1       4.859   0.060   2.836  1.00  0.00     0.002 C 
BRANCH   2   3
ATOM      3  C   UNL     1       4.084  -0.080   1.517  1.00  0.00     0.021 C 
BRANCH   3   4
ATOM      4  C   UNL     1       3.242  -1.354   1.442  1.00  0.00     0.116 C 
BRANCH   4   5
ATOM      5  N   UNL     1       2.125  -1.269   2.360  1.00  0.00    -0.354 N 
ATOM      6  C   UNL     1       0.810  -1.010   2.118  1.00  0.00     0.242 C 
ATOM      7  O   UNL     1       0.068  -0.906   3.099  1.00  0.00    -0.273 OA
ATOM      8  H   UNL     1       2.351  -1.424   3.305  1.00  0.00     0.163 HD
BRANCH   6   9
ATOM      9  C   UNL     1       0.280  -0.918   0.670  1.00  0.00     0.178 C 
ATOM     10  C   UNL     1       0.872   0.197  -0.191  1.00  0.00     0.042 C 
BRANCH   9  11
ATOM     11  N   UNL     1      -1.198  -0.897   0.749  1.00  0.00    -0.281 N 
ATOM     12  C   UNL     1      -1.846  -2.124   0.707  1.00  0.00     0.266 C 
ATOM     13  C   UNL     1      -1.995   0.197   1.032  1.00  0.00     0.149 C 
ATOM     14  O   UNL     1      -1.316  -3.220   0.593  1.00  0.00    -0.268 OA
ATOM     15  C   UNL     1      -3.316  -1.940   0.804  1.00  0.00     0.081 C 
ATOM     16  S   UNL     1      -3.688  -0.283   1.036  1.00  0.00    -0.054 SA
ATOM     17  S   UNL     1      -1.580   1.788   1.325  1.00  0.00    -0.052 S 
ATOM     18  C   UNL     1      -4.176  -2.962   0.688  1.00  0.00     0.029 C 
BRANCH  18  19
ATOM     19  C   UNL     1      -5.634  -2.814   0.653  1.00  0.00    -0.024 A 
ATOM     20  C   UNL     1      -6.426  -3.317   1.691  1.00  0.00     0.011 A 
ATOM     21  C   UNL     1      -6.242  -2.156  -0.427  1.00  0.00     0.011 A 
ATOM     22  C   UNL     1      -7.811  -3.139   1.659  1.00  0.00     0.040 A 
ATOM     23  C   UNL     1      -7.624  -1.974  -0.454  1.00  0.00     0.040 A 
ATOM     24  C   UNL     1      -8.395  -2.464   0.591  1.00  0.00     0.123 A 
ATOM     25  F   UNL     1      -9.722  -2.284   0.570  1.00  0.00    -0.207 F 
ENDBRANCH  18  19
ENDBRANCH   9  11
ENDBRANCH   6   9
ENDBRANCH   4   5
ENDBRANCH   3   4
ENDBRANCH   2   3
ENDBRANCH   1   2
BRANCH   1  26
ATOM     26  C   UNL     1       6.887  -1.313   2.026  1.00  0.00     0.021 C 
BRANCH  26  27
ATOM     27  C   UNL     1       7.790  -0.115   1.749  1.00  0.00     0.116 C 
BRANCH  27  28
ATOM     28  N   UNL     1       8.618   0.214   2.899  1.00  0.00    -0.352 N 
ATOM     29  C   UNL     1       9.984   0.321   2.981  1.00  0.00     0.251 C 
ATOM     30  H   UNL     1       8.130   0.385   3.736  1.00  0.00     0.163 HD
ATOM     31  O   UNL     1      10.530   0.386   4.078  1.00  0.00    -0.269 OA
BRANCH  29  32
ATOM     32  C   UNL     1      10.793   0.339   1.744  1.00  0.00     0.039 A 
ATOM     33  C   UNL     1      11.957  -0.431   1.682  1.00  0.00     0.014 A 
ATOM     34  C   UNL     1      10.403   1.114   0.648  1.00  0.00     0.014 A 
ATOM     35  C   UNL     1      12.698  -0.468   0.499  1.00  0.00     0.010 A 
ATOM     36  C   UNL     1      11.099   1.015  -0.553  1.00  0.00     0.010 A 
ATOM     37  C   UNL     1      12.256   0.227  -0.640  1.00  0.00    -0.014 A 
BRANCH  37  38
ATOM     38  C   UNL     1      12.989   0.138  -1.929  1.00  0.00     0.031 A 
ATOM     39  C   UNL     1      13.612   1.368  -2.533  1.00  0.00     0.074 A 
ATOM     40  C   UNL     1      13.047  -1.039  -2.583  1.00  0.00     0.049 A 
ATOM     41  N   UNL     1      14.246   1.497  -3.671  1.00  0.00    -0.248 NA
ATOM     42  C   UNL     1      13.487   2.622  -1.772  1.00  0.00     0.031 C 
ATOM     43  C   UNL     1      12.455  -2.297  -2.119  1.00  0.00     0.029 A 
ATOM     44  N   UNL     1      13.629  -1.371  -3.781  1.00  0.00    -0.354 N 
ATOM     45  C   UNL     1      14.584   2.842  -3.766  1.00  0.00     0.074 A 
ATOM     46  C   UNL     1      14.037   3.498  -2.600  1.00  0.00     0.031 C 
ATOM     47  C   UNL     1      12.733  -3.268  -3.004  1.00  0.00     0.029 A 
ATOM     48  C   UNL     1      13.480  -2.696  -4.120  1.00  0.00     0.049 A 
ATOM     49  H   UNL     1      14.108  -0.722  -4.345  1.00  0.00     0.167 HD
ATOM     50  C   UNL     1      15.303   3.470  -4.727  1.00  0.00     0.031 A 
ATOM     51  C   UNL     1      13.891  -3.375  -5.209  1.00  0.00     0.031 A 
ATOM     52  C   UNL     1      15.848   2.812  -5.885  1.00  0.00     0.049 A 
ATOM     53  C   UNL     1      14.660  -2.648  -6.278  1.00  0.00     0.074 A 
ATOM     54  C   UNL     1      16.629   3.352  -6.892  1.00  0.00     0.029 A 
ATOM     55  N   UNL     1      15.668   1.472  -6.194  1.00  0.00    -0.354 N 
ATOM     56  N   UNL     1      15.021  -1.387  -6.320  1.00  0.00    -0.248 NA
ATOM     57  C   UNL     1      15.088  -3.438  -7.441  1.00  0.00     0.031 C 
ATOM     58  C   UNL     1      16.870   2.353  -7.841  1.00  0.00     0.029 A 
ATOM     59  C   UNL     1      16.299   1.173  -7.390  1.00  0.00     0.049 A 
ATOM     60  H   UNL     1      15.166   0.828  -5.645  1.00  0.00     0.167 HD
ATOM     61  C   UNL     1      15.745  -1.241  -7.499  1.00  0.00     0.074 A 
ATOM     62  C   UNL     1      15.783  -2.544  -8.130  1.00  0.00     0.031 C 
ATOM     63  C   UNL     1      16.329  -0.128  -8.009  1.00  0.00     0.031 A 
BRANCH  50  64
ATOM     64  C   UNL     1      15.536   4.951  -4.569  1.00  0.00    -0.014 A 
ATOM     65  C   UNL     1      16.367   5.453  -3.551  1.00  0.00     0.010 A 
ATOM     66  C   UNL     1      14.955   5.852  -5.481  1.00  0.00     0.010 A 
ATOM     67  C   UNL     1      16.579   6.828  -3.421  1.00  0.00     0.020 A 
ATOM     68  C   UNL     1      15.190   7.226  -5.374  1.00  0.00     0.020 A 
ATOM     69  C   UNL     1      15.988   7.706  -4.334  1.00  0.00     0.054 A 
BRANCH  69  70
ATOM     70  S   UNL     1      16.304   9.483  -4.157  1.00  0.00     0.124 S 
ATOM     71  O   UNL     1      15.544   9.805  -2.952  1.00  0.00    -0.237 OA
ATOM     72  O   UNL     1      17.757   9.537  -4.016  1.00  0.00    -0.237 OA
ATOM     73  O   UNL     1      15.779  10.055  -5.394  1.00  0.00    -0.744 OA
ENDBRANCH  69  70
ENDBRANCH  50  64
BRANCH  51  74
ATOM     74  C   UNL     1      13.594  -4.829  -5.337  1.00  0.00    -0.014 A 
ATOM     75  C   UNL     1      14.628  -5.779  -5.265  1.00  0.00     0.010 A 
ATOM     76  C   UNL     1      12.272  -5.274  -5.523  1.00  0.00     0.010 A 
ATOM     77  C   UNL     1      14.350  -7.143  -5.399  1.00  0.00     0.020 A 
ATOM     78  C   UNL     1      11.985  -6.638  -5.625  1.00  0.00     0.020 A 
ATOM     79  C   UNL     1      13.029  -7.563  -5.575  1.00  0.00     0.054 A 
BRANCH  79  80
ATOM     80  S   UNL     1      12.687  -9.341  -5.698  1.00  0.00     0.124 S 
ATOM     81  O   UNL     1      13.222  -9.662  -7.017  1.00  0.00    -0.237 OA
ATOM     82  O   UNL     1      13.429  -9.883  -4.562  1.00  0.00    -0.237 OA
ATOM     83  O   UNL     1      11.232  -9.418  -5.576  1.00  0.00    -0.744 OA
ENDBRANCH  79  80
ENDBRANCH  51  74
BRANCH  63  84
ATOM     84  C   UNL     1      17.096  -0.274  -9.298  1.00  0.00    -0.014 A 
ATOM     85  C   UNL     1      16.439  -0.499 -10.521  1.00  0.00     0.010 A 
ATOM     86  C   UNL     1      18.496  -0.126  -9.290  1.00  0.00     0.010 A 
ATOM     87  C   UNL     1      17.172  -0.607 -11.706  1.00  0.00     0.020 A 
ATOM     88  C   UNL     1      19.228  -0.200 -10.477  1.00  0.00     0.020 A 
ATOM     89  C   UNL     1      18.562  -0.454 -11.677  1.00  0.00     0.054 A 
BRANCH  89  90
ATOM     90  S   UNL     1      19.482  -0.553 -13.236  1.00  0.00     0.124 S 
ATOM     91  O   UNL     1      19.404  -1.977 -13.546  1.00  0.00    -0.237 OA
ATOM     92  O   UNL     1      18.715   0.326 -14.116  1.00  0.00    -0.237 OA
ATOM     93  O   UNL     1      20.814  -0.064 -12.885  1.00  0.00    -0.744 OA
ENDBRANCH  89  90
ENDBRANCH  63  84
ENDBRANCH  37  38
ENDBRANCH  29  32
ENDBRANCH  27  28
ENDBRANCH  26  27
ENDBRANCH   1  26
TORSDOF 18
