REMARK SMILES CC1=C2C(=O)N(C[C@H]3CCCO3)C(=O)N=C2S[C@@H]1C(=O)NCCCCCCNC(=O)c1ccc(-c2c3nc(c(-c4ccc(S(=O)(=O)[O-])cc4)c4ccc([nH]4)c(-c4ccc(S(=O)(=O)[O-])cc4)c4nc(c(-c5ccc(S(=O)(=O)[O-])cc5)c5ccc2[nH]5)C=C4)C=C3)cc1
REMARK SMILES IDX 25 1 24 2 23 3 22 4 21 5 19 6 20 7 18 9 1 10 2 11 3 12 4 13
REMARK SMILES IDX 16 14 17 15 5 16 6 17 15 18 13 19 14 20 7 21 8 22 9 23 12 24
REMARK SMILES IDX 10 25 11 26 26 27 27 28 28 29 29 30 30 32 31 33 32 34 90 35
REMARK SMILES IDX 33 36 89 37 34 38 35 39 36 40 83 41 37 42 88 43 82 44 84 45
REMARK SMILES IDX 38 46 87 47 81 48 80 49 39 51 69 52 50 53 68 54 51 55 54 56
REMARK SMILES IDX 67 57 85 58 52 59 53 60 66 62 86 63 55 64 40 65 41 66 49 67
REMARK SMILES IDX 42 68 48 69 43 70 44 71 45 72 46 73 47 74 70 75 71 76 79 77
REMARK SMILES IDX 72 78 78 79 73 80 74 81 75 82 76 83 77 84 56 85 57 86 65 87
REMARK SMILES IDX 58 88 64 89 59 90 60 91 61 92 62 93 63 94
REMARK H PARENT 21 8 28 31 84 50 54 61
REMARK Flexibility Score: inf
ROOT
ATOM      1  C   UNL     1      -7.402   0.700   3.794  1.00  0.00     0.002 C 
ENDROOT
BRANCH   1   2
ATOM      2  C   UNL     1      -8.380  -0.480   3.812  1.00  0.00     0.002 C 
BRANCH   2   3
ATOM      3  C   UNL     1      -8.046  -1.619   2.843  1.00  0.00     0.021 C 
BRANCH   3   4
ATOM      4  C   UNL     1      -6.671  -2.240   3.064  1.00  0.00     0.116 C 
BRANCH   4   5
ATOM      5  N   UNL     1      -6.643  -3.050   4.268  1.00  0.00    -0.355 N 
ATOM      6  C   UNL     1      -6.314  -4.358   4.464  1.00  0.00     0.237 C 
ATOM      7  O   UNL     1      -6.380  -4.786   5.622  1.00  0.00    -0.273 OA
ATOM      8  H   UNL     1      -6.907  -2.571   5.086  1.00  0.00     0.163 HD
BRANCH   6   9
ATOM      9  C   UNL     1      -5.809  -5.272   3.340  1.00  0.00     0.169 C 
ATOM     10  C   UNL     1      -3.371  -4.445   3.435  1.00  0.00     0.042 C 
ATOM     11  C   UNL     1      -4.593  -4.752   2.626  1.00  0.00    -0.035 C 
ATOM     12  C   UNL     1      -4.709  -4.650   1.295  1.00  0.00     0.073 C 
ATOM     13  C   UNL     1      -3.761  -4.150   0.305  1.00  0.00     0.264 C 
ATOM     14  C   UNL     1      -5.978  -5.124   0.776  1.00  0.00     0.116 C 
ATOM     15  S   UNL     1      -7.075  -5.556   2.057  1.00  0.00    -0.087 SA
ATOM     16  O   UNL     1      -2.938  -3.296   0.602  1.00  0.00    -0.268 OA
ATOM     17  N   UNL     1      -3.977  -4.690  -0.938  1.00  0.00    -0.256 N 
ATOM     18  N   UNL     1      -6.271  -5.227  -0.463  1.00  0.00    -0.186 NA
ATOM     19  C   UNL     1      -5.275  -4.988  -1.389  1.00  0.00     0.351 C 
ATOM     20  O   UNL     1      -5.524  -5.074  -2.584  1.00  0.00    -0.246 OA
BRANCH  17  21
ATOM     21  C   UNL     1      -2.858  -5.045  -1.812  1.00  0.00     0.163 C 
BRANCH  21  22
ATOM     22  C   UNL     1      -1.619  -4.139  -1.956  1.00  0.00     0.138 C 
ATOM     23  C   UNL     1      -0.595  -4.144  -0.826  1.00  0.00     0.036 C 
ATOM     24  O   UNL     1      -0.870  -4.686  -3.079  1.00  0.00    -0.376 OA
ATOM     25  C   UNL     1       0.221  -5.380  -1.088  1.00  0.00     0.031 C 
ATOM     26  C   UNL     1       0.278  -5.402  -2.596  1.00  0.00     0.160 C 
ENDBRANCH  21  22
ENDBRANCH  17  21
ENDBRANCH   6   9
ENDBRANCH   4   5
ENDBRANCH   3   4
ENDBRANCH   2   3
ENDBRANCH   1   2
BRANCH   1  27
ATOM     27  C   UNL     1      -7.121   1.301   2.414  1.00  0.00     0.021 C 
BRANCH  27  28
ATOM     28  C   UNL     1      -8.355   1.780   1.657  1.00  0.00     0.116 C 
BRANCH  28  29
ATOM     29  N   UNL     1      -9.023   2.881   2.331  1.00  0.00    -0.352 N 
ATOM     30  C   UNL     1      -9.486   4.057   1.793  1.00  0.00     0.251 C 
ATOM     31  H   UNL     1      -9.162   2.769   3.300  1.00  0.00     0.163 HD
ATOM     32  O   UNL     1      -9.887   4.958   2.523  1.00  0.00    -0.269 OA
BRANCH  30  33
ATOM     33  C   UNL     1      -9.470   4.235   0.326  1.00  0.00     0.039 A 
ATOM     34  C   UNL     1      -8.889   5.384  -0.215  1.00  0.00     0.014 A 
ATOM     35  C   UNL     1     -10.013   3.254  -0.509  1.00  0.00     0.014 A 
ATOM     36  C   UNL     1      -8.798   5.525  -1.603  1.00  0.00     0.010 A 
ATOM     37  C   UNL     1      -9.875   3.373  -1.889  1.00  0.00     0.010 A 
ATOM     38  C   UNL     1      -9.266   4.508  -2.449  1.00  0.00    -0.014 A 
BRANCH  38  39
ATOM     39  C   UNL     1      -9.152   4.598  -3.926  1.00  0.00     0.031 A 
ATOM     40  C   UNL     1     -10.403   4.675  -4.759  1.00  0.00     0.074 A 
ATOM     41  C   UNL     1      -7.946   4.502  -4.519  1.00  0.00     0.049 A 
ATOM     42  N   UNL     1     -10.538   4.573  -6.055  1.00  0.00    -0.248 NA
ATOM     43  C   UNL     1     -11.671   4.864  -4.034  1.00  0.00     0.031 C 
ATOM     44  C   UNL     1      -6.660   4.405  -3.823  1.00  0.00     0.029 A 
ATOM     45  N   UNL     1      -7.607   4.445  -5.848  1.00  0.00    -0.354 N 
ATOM     46  C   UNL     1     -11.905   4.638  -6.297  1.00  0.00     0.074 A 
ATOM     47  C   UNL     1     -12.559   4.776  -5.014  1.00  0.00     0.031 C 
ATOM     48  C   UNL     1      -5.675   4.303  -4.732  1.00  0.00     0.029 A 
ATOM     49  C   UNL     1      -6.259   4.283  -6.069  1.00  0.00     0.049 A 
ATOM     50  H   UNL     1      -8.267   4.514  -6.575  1.00  0.00     0.167 HD
ATOM     51  C   UNL     1     -12.556   4.590  -7.483  1.00  0.00     0.031 A 
ATOM     52  C   UNL     1      -5.574   4.114  -7.217  1.00  0.00     0.031 A 
ATOM     53  C   UNL     1     -11.901   4.497  -8.759  1.00  0.00     0.049 A 
ATOM     54  C   UNL     1      -6.322   4.082  -8.523  1.00  0.00     0.074 A 
ATOM     55  C   UNL     1     -12.472   4.509 -10.020  1.00  0.00     0.029 A 
ATOM     56  N   UNL     1     -10.532   4.385  -8.938  1.00  0.00    -0.354 N 
ATOM     57  N   UNL     1      -7.612   4.189  -8.735  1.00  0.00    -0.248 NA
ATOM     58  C   UNL     1      -5.523   3.910  -9.746  1.00  0.00     0.031 C 
ATOM     59  C   UNL     1     -11.448   4.375 -10.962  1.00  0.00     0.029 A 
ATOM     60  C   UNL     1     -10.239   4.319 -10.288  1.00  0.00     0.049 A 
ATOM     61  H   UNL     1      -9.867   4.357  -8.213  1.00  0.00     0.167 HD
ATOM     62  C   UNL     1      -7.774   4.135 -10.115  1.00  0.00     0.074 A 
ATOM     63  C   UNL     1      -6.453   3.986 -10.689  1.00  0.00     0.031 C 
ATOM     64  C   UNL     1      -8.915   4.207 -10.841  1.00  0.00     0.031 A 
BRANCH  51  65
ATOM     65  C   UNL     1     -14.059   4.630  -7.461  1.00  0.00    -0.014 A 
ATOM     66  C   UNL     1     -14.749   5.824  -7.188  1.00  0.00     0.010 A 
ATOM     67  C   UNL     1     -14.790   3.471  -7.780  1.00  0.00     0.010 A 
ATOM     68  C   UNL     1     -16.146   5.851  -7.209  1.00  0.00     0.020 A 
ATOM     69  C   UNL     1     -16.186   3.500  -7.823  1.00  0.00     0.020 A 
ATOM     70  C   UNL     1     -16.856   4.688  -7.524  1.00  0.00     0.054 A 
BRANCH  70  71
ATOM     71  S   UNL     1     -18.667   4.761  -7.585  1.00  0.00     0.124 S 
ATOM     72  O   UNL     1     -19.015   4.765  -6.166  1.00  0.00    -0.237 OA
ATOM     73  O   UNL     1     -18.917   6.012  -8.295  1.00  0.00    -0.237 OA
ATOM     74  O   UNL     1     -19.038   3.550  -8.314  1.00  0.00    -0.744 OA
ENDBRANCH  70  71
ENDBRANCH  51  65
BRANCH  52  75
ATOM     75  C   UNL     1      -4.094   3.961  -7.194  1.00  0.00    -0.014 A 
ATOM     76  C   UNL     1      -3.269   5.000  -7.659  1.00  0.00     0.010 A 
ATOM     77  C   UNL     1      -3.503   2.773  -6.729  1.00  0.00     0.010 A 
ATOM     78  C   UNL     1      -1.880   4.844  -7.687  1.00  0.00     0.020 A 
ATOM     79  C   UNL     1      -2.113   2.622  -6.733  1.00  0.00     0.020 A 
ATOM     80  C   UNL     1      -1.311   3.652  -7.229  1.00  0.00     0.054 A 
BRANCH  80  81
ATOM     81  S   UNL     1       0.495   3.477  -7.247  1.00  0.00     0.124 S 
ATOM     82  O   UNL     1       0.754   3.161  -8.648  1.00  0.00    -0.237 OA
ATOM     83  O   UNL     1       0.949   4.792  -6.801  1.00  0.00    -0.237 OA
ATOM     84  O   UNL     1       0.740   2.390  -6.302  1.00  0.00    -0.744 OA
ENDBRANCH  80  81
ENDBRANCH  52  75
BRANCH  64  85
ATOM     85  C   UNL     1      -8.794   4.195 -12.339  1.00  0.00    -0.014 A 
ATOM     86  C   UNL     1      -8.571   3.000 -13.042  1.00  0.00     0.010 A 
ATOM     87  C   UNL     1      -9.011   5.388 -13.054  1.00  0.00     0.010 A 
ATOM     88  C   UNL     1      -8.560   2.999 -14.440  1.00  0.00     0.020 A 
ATOM     89  C   UNL     1      -9.019   5.386 -14.450  1.00  0.00     0.020 A 
ATOM     90  C   UNL     1      -8.788   4.191 -15.135  1.00  0.00     0.054 A 
BRANCH  90  91
ATOM     91  S   UNL     1      -8.855   4.152 -16.947  1.00  0.00     0.124 S 
ATOM     92  O   UNL     1      -7.441   4.082 -17.303  1.00  0.00    -0.237 OA
ATOM     93  O   UNL     1      -9.632   2.943 -17.216  1.00  0.00    -0.237 OA
ATOM     94  O   UNL     1      -9.525   5.403 -17.295  1.00  0.00    -0.744 OA
ENDBRANCH  90  91
ENDBRANCH  64  85
ENDBRANCH  38  39
ENDBRANCH  30  33
ENDBRANCH  28  29
ENDBRANCH  27  28
ENDBRANCH   1  27
TORSDOF 18
