REMARK SMILES CCc1[nH]nc(-n2cccc2)c1C(=O)NCCCCCCNC(=O)c1ccc(-c2c3nc(c(-c4ccc(S(=O)(=O)[O-])cc4)c4ccc([nH]4)c(-c4ccc(S(=O)(=O)[O-])cc4)c4nc(c(-c5ccc(S(=O)(=O)[O-])cc5)c5ccc2[nH]5)C=C4)C=C3)cc1
REMARK SMILES IDX 19 1 18 2 17 3 16 4 15 5 13 6 14 7 12 9 3 10 4 11 5 12 6 14
REMARK SMILES IDX 2 15 1 16 7 17 8 18 11 19 9 20 10 21 20 22 21 23 22 24 23 25
REMARK SMILES IDX 24 27 25 28 26 29 84 30 27 31 83 32 28 33 29 34 30 35 77 36
REMARK SMILES IDX 31 37 82 38 76 39 78 40 32 41 81 42 75 43 74 44 33 46 63 47
REMARK SMILES IDX 44 48 62 49 45 50 48 51 61 52 79 53 46 54 47 55 60 57 80 58
REMARK SMILES IDX 49 59 34 60 35 61 43 62 36 63 42 64 37 65 38 66 39 67 40 68
REMARK SMILES IDX 41 69 64 70 65 71 73 72 66 73 72 74 67 75 68 76 69 77 70 78
REMARK SMILES IDX 71 79 50 80 51 81 59 82 52 83 58 84 53 85 54 86 55 87 56 88
REMARK SMILES IDX 57 89
REMARK H PARENT 15 8 4 13 22 26 78 45 48 56
REMARK Flexibility Score: inf
ROOT
ATOM      1  C   UNL     1      -1.171  -0.666   2.954  1.00  0.00     0.002 C 
ENDROOT
BRANCH   1   2
ATOM      2  C   UNL     1      -2.334  -0.948   1.995  1.00  0.00     0.002 C 
BRANCH   2   3
ATOM      3  C   UNL     1      -2.267  -0.343   0.591  1.00  0.00     0.021 C 
BRANCH   3   4
ATOM      4  C   UNL     1      -0.983  -0.538  -0.202  1.00  0.00     0.116 C 
BRANCH   4   5
ATOM      5  N   UNL     1      -0.642  -1.889  -0.546  1.00  0.00    -0.352 N 
ATOM      6  C   UNL     1       0.190  -2.370  -1.529  1.00  0.00     0.256 C 
ATOM      7  O   UNL     1       0.372  -3.590  -1.496  1.00  0.00    -0.269 OA
ATOM      8  H   UNL     1      -1.071  -2.579   0.010  1.00  0.00     0.163 HD
BRANCH   6   9
ATOM      9  C   UNL     1       0.831  -1.543  -2.564  1.00  0.00     0.105 A 
ATOM     10  C   UNL     1       1.298  -0.217  -2.594  1.00  0.00     0.050 A 
ATOM     11  N   UNL     1       1.884  -0.051  -3.826  1.00  0.00    -0.280 N 
ATOM     12  N   UNL     1       2.044  -1.177  -4.513  1.00  0.00    -0.156 NA
ATOM     13  H   UNL     1       2.161   0.829  -4.170  1.00  0.00     0.190 HD
ATOM     14  C   UNL     1       1.336  -2.064  -3.808  1.00  0.00     0.171 A 
BRANCH  10  15
ATOM     15  C   UNL     1       1.357   0.957  -1.669  1.00  0.00     0.053 C 
ATOM     16  C   UNL     1       2.186   0.692  -0.423  1.00  0.00     0.011 C 
ENDBRANCH  10  15
BRANCH  14  17
ATOM     17  N   UNL     1       1.224  -3.374  -4.370  1.00  0.00    -0.307 N 
ATOM     18  C   UNL     1       0.129  -4.215  -4.348  1.00  0.00     0.093 A 
ATOM     19  C   UNL     1       2.213  -4.013  -5.103  1.00  0.00     0.093 A 
ATOM     20  C   UNL     1       0.447  -5.388  -5.001  1.00  0.00     0.020 A 
ATOM     21  C   UNL     1       1.782  -5.273  -5.447  1.00  0.00     0.020 A 
ENDBRANCH  14  17
ENDBRANCH   6   9
ENDBRANCH   4   5
ENDBRANCH   3   4
ENDBRANCH   2   3
ENDBRANCH   1   2
BRANCH   1  22
ATOM     22  C   UNL     1      -0.752   0.797   3.154  1.00  0.00     0.021 C 
BRANCH  22  23
ATOM     23  C   UNL     1      -1.866   1.743   3.589  1.00  0.00     0.116 C 
BRANCH  23  24
ATOM     24  N   UNL     1      -2.440   1.362   4.867  1.00  0.00    -0.352 N 
ATOM     25  C   UNL     1      -3.445   1.966   5.586  1.00  0.00     0.251 C 
ATOM     26  H   UNL     1      -2.055   0.554   5.278  1.00  0.00     0.163 HD
ATOM     27  O   UNL     1      -3.559   1.715   6.779  1.00  0.00    -0.269 OA
BRANCH  25  28
ATOM     28  C   UNL     1      -4.375   2.920   4.943  1.00  0.00     0.039 A 
ATOM     29  C   UNL     1      -4.826   4.014   5.693  1.00  0.00     0.014 A 
ATOM     30  C   UNL     1      -4.875   2.698   3.655  1.00  0.00     0.014 A 
ATOM     31  C   UNL     1      -5.733   4.907   5.132  1.00  0.00     0.010 A 
ATOM     32  C   UNL     1      -5.743   3.611   3.073  1.00  0.00     0.010 A 
ATOM     33  C   UNL     1      -6.175   4.711   3.815  1.00  0.00    -0.014 A 
BRANCH  33  34
ATOM     34  C   UNL     1      -7.035   5.735   3.187  1.00  0.00     0.031 A 
ATOM     35  C   UNL     1      -6.213   6.977   2.789  1.00  0.00     0.074 A 
ATOM     36  C   UNL     1      -8.372   5.442   3.133  1.00  0.00     0.049 A 
ATOM     37  N   UNL     1      -6.525   8.234   2.842  1.00  0.00    -0.248 NA
ATOM     38  C   UNL     1      -4.790   6.804   2.379  1.00  0.00     0.031 C 
ATOM     39  C   UNL     1      -8.973   4.142   3.529  1.00  0.00     0.029 A 
ATOM     40  N   UNL     1      -9.497   6.140   2.752  1.00  0.00    -0.354 N 
ATOM     41  C   UNL     1      -5.426   8.985   2.354  1.00  0.00     0.074 A 
ATOM     42  C   UNL     1      -4.354   8.052   2.178  1.00  0.00     0.031 C 
ATOM     43  C   UNL     1     -10.322   4.182   3.455  1.00  0.00     0.029 A 
ATOM     44  C   UNL     1     -10.737   5.499   3.023  1.00  0.00     0.049 A 
ATOM     45  H   UNL     1      -9.445   7.024   2.321  1.00  0.00     0.167 HD
ATOM     46  C   UNL     1      -5.509  10.311   2.025  1.00  0.00     0.031 A 
ATOM     47  C   UNL     1     -12.003   6.023   2.985  1.00  0.00     0.031 A 
ATOM     48  C   UNL     1      -6.827  10.785   2.284  1.00  0.00     0.049 A 
ATOM     49  C   UNL     1     -11.823   7.420   2.555  1.00  0.00     0.074 A 
ATOM     50  C   UNL     1      -7.504  11.068   3.441  1.00  0.00     0.029 A 
ATOM     51  N   UNL     1      -7.729  10.637   1.258  1.00  0.00    -0.354 N 
ATOM     52  N   UNL     1     -11.502   7.806   1.359  1.00  0.00    -0.248 NA
ATOM     53  C   UNL     1     -11.882   8.470   3.581  1.00  0.00     0.031 C 
ATOM     54  C   UNL     1      -8.791  10.544   3.186  1.00  0.00     0.029 A 
ATOM     55  C   UNL     1      -8.899  10.205   1.832  1.00  0.00     0.049 A 
ATOM     56  H   UNL     1      -7.569  10.806   0.301  1.00  0.00     0.167 HD
ATOM     57  C   UNL     1     -10.972   9.052   1.584  1.00  0.00     0.074 A 
ATOM     58  C   UNL     1     -11.506   9.513   2.848  1.00  0.00     0.031 C 
ATOM     59  C   UNL     1      -9.785   9.400   1.028  1.00  0.00     0.031 A 
BRANCH  46  60
ATOM     60  C   UNL     1      -4.599  11.240   1.260  1.00  0.00    -0.014 A 
ATOM     61  C   UNL     1      -4.899  12.629   1.317  1.00  0.00     0.010 A 
ATOM     62  C   UNL     1      -3.700  10.822   0.270  1.00  0.00     0.010 A 
ATOM     63  C   UNL     1      -4.437  13.532   0.357  1.00  0.00     0.020 A 
ATOM     64  C   UNL     1      -3.199  11.735  -0.680  1.00  0.00     0.020 A 
ATOM     65  C   UNL     1      -3.610  13.071  -0.658  1.00  0.00     0.054 A 
BRANCH  65  66
ATOM     66  S   UNL     1      -3.145  14.231  -1.974  1.00  0.00     0.124 S 
ATOM     67  O   UNL     1      -4.418  14.455  -2.654  1.00  0.00    -0.237 OA
ATOM     68  O   UNL     1      -2.631  15.373  -1.220  1.00  0.00    -0.237 OA
ATOM     69  O   UNL     1      -2.141  13.498  -2.740  1.00  0.00    -0.744 OA
ENDBRANCH  65  66
ENDBRANCH  46  60
BRANCH  47  70
ATOM     70  C   UNL     1     -13.394   5.645   3.454  1.00  0.00    -0.014 A 
ATOM     71  C   UNL     1     -13.812   4.389   3.913  1.00  0.00     0.010 A 
ATOM     72  C   UNL     1     -14.367   6.682   3.547  1.00  0.00     0.010 A 
ATOM     73  C   UNL     1     -15.053   4.232   4.582  1.00  0.00     0.020 A 
ATOM     74  C   UNL     1     -15.568   6.556   4.249  1.00  0.00     0.020 A 
ATOM     75  C   UNL     1     -15.893   5.331   4.798  1.00  0.00     0.054 A 
BRANCH  75  76
ATOM     76  S   UNL     1     -17.326   5.216   5.910  1.00  0.00     0.124 S 
ATOM     77  O   UNL     1     -18.354   4.648   5.043  1.00  0.00    -0.237 OA
ATOM     78  O   UNL     1     -16.839   4.339   6.973  1.00  0.00    -0.237 OA
ATOM     79  O   UNL     1     -17.552   6.601   6.321  1.00  0.00    -0.744 OA
ENDBRANCH  75  76
ENDBRANCH  47  70
BRANCH  59  80
ATOM     80  C   UNL     1      -9.379   8.614  -0.211  1.00  0.00    -0.014 A 
ATOM     81  C   UNL     1     -10.178   8.693  -1.364  1.00  0.00     0.010 A 
ATOM     82  C   UNL     1      -8.266   7.747  -0.255  1.00  0.00     0.010 A 
ATOM     83  C   UNL     1      -9.879   7.953  -2.517  1.00  0.00     0.020 A 
ATOM     84  C   UNL     1      -7.956   6.998  -1.407  1.00  0.00     0.020 A 
ATOM     85  C   UNL     1      -8.764   7.114  -2.538  1.00  0.00     0.054 A 
BRANCH  85  86
ATOM     86  S   UNL     1      -8.395   6.194  -4.062  1.00  0.00     0.124 S 
ATOM     87  O   UNL     1      -9.610   5.411  -4.271  1.00  0.00    -0.237 OA
ATOM     88  O   UNL     1      -8.170   7.266  -5.028  1.00  0.00    -0.237 OA
ATOM     89  O   UNL     1      -7.209   5.409  -3.722  1.00  0.00    -0.744 OA
ENDBRANCH  85  86
ENDBRANCH  59  80
ENDBRANCH  33  34
ENDBRANCH  25  28
ENDBRANCH  23  24
ENDBRANCH  22  23
ENDBRANCH   1  22
TORSDOF 18
