REMARK SMILES CCCc1cc(-n2ccc(C(=O)NCCCCCCNC(=O)c3ccc(-c4c5nc(c(-c6ccc(S(=O)(=O)[O-])cc6)c6ccc([nH]6)c(-c6ccc(S(=O)(=O)[O-])cc6)c6nc(c(-c7ccc(S(=O)(=O)[O-])cc7)c7ccc4[nH]7)C=C6)C=C5)cc3)n2)nc(-c2ccc(C(F)(F)F)cc2)n1
REMARK SMILES IDX 16 1 15 2 14 3 13 4 11 5 12 6 10 8 7 9 8 10 83 11 9 12 6 13
REMARK SMILES IDX 4 14 5 15 96 16 85 17 84 18 3 19 2 20 1 21 86 22 87 23 95 24
REMARK SMILES IDX 88 25 94 26 89 27 90 28 91 29 92 30 93 31 17 32 18 33 19 34
REMARK SMILES IDX 20 35 21 36 22 38 23 39 24 40 82 41 25 42 81 43 26 44 27 45
REMARK SMILES IDX 28 46 75 47 29 48 80 49 74 50 76 51 30 52 79 53 73 54 72 55
REMARK SMILES IDX 31 57 61 58 42 59 60 60 43 61 46 62 59 63 77 64 44 65 45 66
REMARK SMILES IDX 58 68 78 69 47 70 32 71 33 72 41 73 34 74 40 75 35 76 36 77
REMARK SMILES IDX 37 78 38 79 39 80 62 81 63 82 71 83 64 84 70 85 65 86 66 87
REMARK SMILES IDX 67 88 68 89 69 90 48 91 49 92 57 93 50 94 56 95 51 96 52 97
REMARK SMILES IDX 53 98 54 99 55 100
REMARK H PARENT 13 7 20 37 76 56 46 67
REMARK Flexibility Score: inf
ROOT
ATOM      1  C   UNL     1      -6.734  -4.958   6.492  1.00  0.00     0.002 C 
ENDROOT
BRANCH   1   2
ATOM      2  C   UNL     1      -5.559  -4.685   5.549  1.00  0.00     0.021 C 
BRANCH   2   3
ATOM      3  C   UNL     1      -4.216  -4.402   6.226  1.00  0.00     0.116 C 
BRANCH   3   4
ATOM      4  N   UNL     1      -3.728  -5.540   6.988  1.00  0.00    -0.351 N 
ATOM      5  C   UNL     1      -2.514  -6.190   6.936  1.00  0.00     0.271 C 
ATOM      6  O   UNL     1      -2.375  -7.204   7.623  1.00  0.00    -0.267 OA
ATOM      7  H   UNL     1      -4.365  -5.903   7.645  1.00  0.00     0.163 HD
BRANCH   5   8
ATOM      8  C   UNL     1      -1.444  -5.721   6.041  1.00  0.00     0.150 A 
ATOM      9  N   UNL     1      -0.348  -4.469   4.688  1.00  0.00    -0.222 N 
ATOM     10  C   UNL     1       0.240  -5.711   4.590  1.00  0.00     0.118 A 
ATOM     11  N   UNL     1      -1.262  -4.436   5.689  1.00  0.00    -0.161 NA
ATOM     12  C   UNL     1      -0.424  -6.528   5.472  1.00  0.00     0.056 A 
BRANCH   9  13
ATOM     13  C   UNL     1      -0.115  -3.319   3.875  1.00  0.00     0.157 A 
ATOM     14  C   UNL     1       0.449  -2.333   1.815  1.00  0.00     0.047 A 
ATOM     15  C   UNL     1       0.324  -3.484   2.571  1.00  0.00     0.073 A 
ATOM     16  N   UNL     1       0.236  -1.119   2.348  1.00  0.00    -0.233 NA
ATOM     17  C   UNL     1      -0.154  -1.050   3.629  1.00  0.00     0.161 A 
ATOM     18  N   UNL     1      -0.364  -2.106   4.421  1.00  0.00    -0.209 NA
BRANCH  14  19
ATOM     19  C   UNL     1       0.924  -2.397   0.382  1.00  0.00     0.056 C 
BRANCH  19  20
ATOM     20  C   UNL     1       0.416  -1.282  -0.545  1.00  0.00     0.003 C 
ATOM     21  C   UNL     1       1.036   0.089  -0.293  1.00  0.00     0.004 C 
ENDBRANCH  19  20
ENDBRANCH  14  19
BRANCH  17  22
ATOM     22  C   UNL     1      -0.189   0.285   4.227  1.00  0.00     0.019 A 
ATOM     23  C   UNL     1      -0.870   1.344   3.607  1.00  0.00     0.012 A 
ATOM     24  C   UNL     1       0.527   0.557   5.405  1.00  0.00     0.012 A 
ATOM     25  C   UNL     1      -0.836   2.635   4.145  1.00  0.00     0.014 A 
ATOM     26  C   UNL     1       0.580   1.849   5.935  1.00  0.00     0.014 A 
ATOM     27  C   UNL     1      -0.102   2.901   5.310  1.00  0.00     0.056 A 
BRANCH  27  28
ATOM     28  C   UNL     1      -0.048   4.301   5.866  1.00  0.00     0.416 C 
ATOM     29  F   UNL     1       0.441   5.205   4.972  1.00  0.00    -0.166 F 
ATOM     30  F   UNL     1      -1.274   4.766   6.236  1.00  0.00    -0.166 F 
ATOM     31  F   UNL     1       0.740   4.418   6.974  1.00  0.00    -0.166 F 
ENDBRANCH  27  28
ENDBRANCH  17  22
ENDBRANCH   9  13
ENDBRANCH   5   8
ENDBRANCH   3   4
ENDBRANCH   2   3
ENDBRANCH   1   2
BRANCH   1  32
ATOM     32  C   UNL     1      -6.995  -3.905   7.579  1.00  0.00     0.002 C 
BRANCH  32  33
ATOM     33  C   UNL     1      -7.142  -2.449   7.116  1.00  0.00     0.021 C 
BRANCH  33  34
ATOM     34  C   UNL     1      -8.313  -2.204   6.178  1.00  0.00     0.116 C 
BRANCH  34  35
ATOM     35  N   UNL     1      -9.614  -2.389   6.825  1.00  0.00    -0.352 N 
ATOM     36  C   UNL     1     -10.875  -2.244   6.269  1.00  0.00     0.251 C 
ATOM     37  H   UNL     1      -9.589  -2.649   7.775  1.00  0.00     0.163 HD
ATOM     38  O   UNL     1     -11.852  -2.050   6.971  1.00  0.00    -0.269 OA
BRANCH  36  39
ATOM     39  C   UNL     1     -11.007  -2.345   4.802  1.00  0.00     0.039 A 
ATOM     40  C   UNL     1     -11.883  -1.533   4.074  1.00  0.00     0.014 A 
ATOM     41  C   UNL     1     -10.203  -3.277   4.155  1.00  0.00     0.014 A 
ATOM     42  C   UNL     1     -11.880  -1.624   2.682  1.00  0.00     0.010 A 
ATOM     43  C   UNL     1     -10.060  -3.226   2.796  1.00  0.00     0.010 A 
ATOM     44  C   UNL     1     -10.951  -2.467   2.052  1.00  0.00    -0.014 A 
BRANCH  44  45
ATOM     45  C   UNL     1     -10.810  -2.513   0.603  1.00  0.00     0.031 A 
ATOM     46  C   UNL     1     -10.486  -1.204  -0.020  1.00  0.00     0.074 A 
ATOM     47  C   UNL     1     -10.717  -3.677  -0.079  1.00  0.00     0.049 A 
ATOM     48  N   UNL     1     -11.246  -0.481  -0.771  1.00  0.00    -0.248 NA
ATOM     49  C   UNL     1      -9.226  -0.542   0.364  1.00  0.00     0.031 C 
ATOM     50  C   UNL     1     -10.677  -5.047   0.455  1.00  0.00     0.029 A 
ATOM     51  N   UNL     1     -10.502  -3.879  -1.405  1.00  0.00    -0.354 N 
ATOM     52  C   UNL     1     -10.475   0.612  -1.152  1.00  0.00     0.074 A 
ATOM     53  C   UNL     1      -9.340   0.630  -0.264  1.00  0.00     0.031 C 
ATOM     54  C   UNL     1     -10.202  -5.890  -0.489  1.00  0.00     0.029 A 
ATOM     55  C   UNL     1     -10.079  -5.163  -1.738  1.00  0.00     0.049 A 
ATOM     56  H   UNL     1     -10.635  -3.172  -2.077  1.00  0.00     0.167 HD
ATOM     57  C   UNL     1     -10.689   1.253  -2.336  1.00  0.00     0.031 A 
ATOM     58  C   UNL     1      -9.631  -5.585  -2.949  1.00  0.00     0.031 A 
ATOM     59  C   UNL     1     -11.942   0.859  -2.930  1.00  0.00     0.049 A 
ATOM     60  C   UNL     1     -10.120  -4.603  -3.949  1.00  0.00     0.074 A 
ATOM     61  C   UNL     1     -13.263   0.907  -2.531  1.00  0.00     0.029 A 
ATOM     62  N   UNL     1     -11.884  -0.079  -3.937  1.00  0.00    -0.354 N 
ATOM     63  N   UNL     1     -11.385  -4.423  -4.212  1.00  0.00    -0.248 NA
ATOM     64  C   UNL     1      -9.248  -3.492  -4.293  1.00  0.00     0.031 C 
ATOM     65  C   UNL     1     -13.819  -0.333  -2.963  1.00  0.00     0.029 A 
ATOM     66  C   UNL     1     -12.839  -1.027  -3.677  1.00  0.00     0.049 A 
ATOM     67  H   UNL     1     -11.267  -0.070  -4.705  1.00  0.00     0.167 HD
ATOM     68  C   UNL     1     -11.530  -3.047  -4.329  1.00  0.00     0.074 A 
ATOM     69  C   UNL     1     -10.166  -2.535  -4.460  1.00  0.00     0.031 C 
ATOM     70  C   UNL     1     -12.710  -2.429  -4.022  1.00  0.00     0.031 A 
BRANCH  57  71
ATOM     71  C   UNL     1      -9.596   1.904  -3.149  1.00  0.00    -0.014 A 
ATOM     72  C   UNL     1      -9.944   2.586  -4.333  1.00  0.00     0.010 A 
ATOM     73  C   UNL     1      -8.225   1.644  -2.943  1.00  0.00     0.010 A 
ATOM     74  C   UNL     1      -8.978   2.927  -5.289  1.00  0.00     0.020 A 
ATOM     75  C   UNL     1      -7.249   2.019  -3.868  1.00  0.00     0.020 A 
ATOM     76  C   UNL     1      -7.636   2.629  -5.052  1.00  0.00     0.054 A 
BRANCH  76  77
ATOM     77  S   UNL     1      -6.408   2.989  -6.330  1.00  0.00     0.124 S 
ATOM     78  O   UNL     1      -6.808   2.077  -7.396  1.00  0.00    -0.237 OA
ATOM     79  O   UNL     1      -6.638   4.408  -6.587  1.00  0.00    -0.237 OA
ATOM     80  O   UNL     1      -5.137   2.676  -5.680  1.00  0.00    -0.744 OA
ENDBRANCH  76  77
ENDBRANCH  57  71
BRANCH  58  81
ATOM     81  C   UNL     1      -8.549  -6.563  -3.244  1.00  0.00    -0.014 A 
ATOM     82  C   UNL     1      -8.352  -7.064  -4.546  1.00  0.00     0.010 A 
ATOM     83  C   UNL     1      -7.522  -6.780  -2.303  1.00  0.00     0.010 A 
ATOM     84  C   UNL     1      -7.147  -7.695  -4.909  1.00  0.00     0.020 A 
ATOM     85  C   UNL     1      -6.321  -7.411  -2.655  1.00  0.00     0.020 A 
ATOM     86  C   UNL     1      -6.128  -7.843  -3.965  1.00  0.00     0.054 A 
BRANCH  86  87
ATOM     87  S   UNL     1      -4.502  -8.479  -4.482  1.00  0.00     0.124 S 
ATOM     88  O   UNL     1      -4.784  -9.889  -4.733  1.00  0.00    -0.237 OA
ATOM     89  O   UNL     1      -4.205  -7.673  -5.663  1.00  0.00    -0.237 OA
ATOM     90  O   UNL     1      -3.646  -8.214  -3.327  1.00  0.00    -0.744 OA
ENDBRANCH  86  87
ENDBRANCH  58  81
BRANCH  70  91
ATOM     91  C   UNL     1     -13.944  -3.283  -3.817  1.00  0.00    -0.014 A 
ATOM     92  C   UNL     1     -14.078  -4.259  -2.808  1.00  0.00     0.010 A 
ATOM     93  C   UNL     1     -15.075  -2.966  -4.589  1.00  0.00     0.010 A 
ATOM     94  C   UNL     1     -15.304  -4.914  -2.600  1.00  0.00     0.020 A 
ATOM     95  C   UNL     1     -16.301  -3.599  -4.376  1.00  0.00     0.020 A 
ATOM     96  C   UNL     1     -16.408  -4.579  -3.389  1.00  0.00     0.054 A 
BRANCH  96  97
ATOM     97  S   UNL     1     -18.003  -5.400  -3.103  1.00  0.00     0.124 S 
ATOM     98  O   UNL     1     -17.736  -6.770  -3.530  1.00  0.00    -0.237 OA
ATOM     99  O   UNL     1     -18.210  -5.217  -1.668  1.00  0.00    -0.237 OA
ATOM    100  O   UNL     1     -18.934  -4.659  -3.953  1.00  0.00    -0.744 OA
ENDBRANCH  96  97
ENDBRANCH  70  91
ENDBRANCH  44  45
ENDBRANCH  36  39
ENDBRANCH  34  35
ENDBRANCH  33  34
ENDBRANCH  32  33
ENDBRANCH   1  32
TORSDOF 21
