REMARK SMILES COc1cc(/C=C2/SC(=O)N(c3ccc(C)c(C)c3)C2=O)ccc1OCCC(=O)NCCCCCCNC(=O)c1ccc(-c2c3nc(c(-c4ccc(S(=O)(=O)[O-])cc4)c4ccc([nH]4)c(-c4ccc(S(=O)(=O)[O-])cc4)c4nc(c(-c5ccc(S(=O)(=O)[O-])cc5)c5ccc2[nH]5)C=C4)C=C3)cc1
REMARK SMILES IDX 32 1 31 2 30 3 28 4 29 5 27 7 26 8 25 9 24 10 3 11 4 12 5 13
REMARK SMILES IDX 23 14 22 15 2 16 1 17 6 18 7 19 8 20 20 21 9 22 11 23 21 24
REMARK SMILES IDX 10 25 12 26 13 27 19 28 14 29 17 30 15 31 18 32 16 33 33 34
REMARK SMILES IDX 34 35 35 36 36 37 37 38 38 39 39 41 40 42 41 43 99 44 42 45
REMARK SMILES IDX 98 46 43 47 44 48 45 49 92 50 46 51 97 52 91 53 93 54 47 55
REMARK SMILES IDX 96 56 90 57 89 58 48 60 78 61 59 62 77 63 60 64 63 65 76 66
REMARK SMILES IDX 94 67 61 68 62 69 75 71 95 72 64 73 49 74 50 75 58 76 51 77
REMARK SMILES IDX 57 78 52 79 53 80 54 81 55 82 56 83 79 84 80 85 88 86 81 87
REMARK SMILES IDX 87 88 82 89 83 90 84 91 85 92 86 93 65 94 66 95 74 96 67 97
REMARK SMILES IDX 73 98 68 99 69 100 70 101 71 102 72 103
REMARK H PARENT 30 6 37 40 93 59 63 70
REMARK Flexibility Score: inf
ROOT
ATOM      1  C   UNL     1       2.346   3.444   2.606  1.00  0.00     0.021 C 
ENDROOT
BRANCH   1   2
ATOM      2  C   UNL     1       1.541   2.471   3.456  1.00  0.00     0.116 C 
BRANCH   2   3
ATOM      3  N   UNL     1       0.495   1.794   2.708  1.00  0.00    -0.356 N 
ATOM      4  C   UNL     1       0.572   0.684   1.919  1.00  0.00     0.223 C 
ATOM      5  O   UNL     1      -0.475   0.150   1.552  1.00  0.00    -0.275 OA
ATOM      6  H   UNL     1      -0.400   2.195   2.781  1.00  0.00     0.163 HD
BRANCH   4   7
ATOM      7  C   UNL     1       1.919   0.073   1.611  1.00  0.00     0.141 C 
BRANCH   7   8
ATOM      8  C   UNL     1       2.470   0.182   0.193  1.00  0.00     0.239 C 
BRANCH   8   9
ATOM      9  O   UNL     1       2.745   1.451  -0.373  1.00  0.00    -0.489 OA
BRANCH   9  10
ATOM     10  C   UNL     1       1.837   2.330  -0.875  1.00  0.00     0.161 A 
ATOM     11  C   UNL     1       0.454   2.242  -1.041  1.00  0.00     0.161 A 
ATOM     12  C   UNL     1      -0.307   3.421  -1.214  1.00  0.00     0.058 A 
ATOM     13  C   UNL     1       0.305   4.667  -1.338  1.00  0.00    -0.020 A 
ATOM     14  C   UNL     1       2.451   3.560  -1.157  1.00  0.00     0.051 A 
ATOM     15  C   UNL     1       1.702   4.715  -1.384  1.00  0.00     0.012 A 
BRANCH  11  16
ATOM     16  O   UNL     1      -0.315   1.122  -0.942  1.00  0.00    -0.493 OA
ATOM     17  C   UNL     1       0.043   0.038  -1.788  1.00  0.00     0.278 C 
ENDBRANCH  11  16
BRANCH  13  18
ATOM     18  C   UNL     1      -0.460   5.928  -1.303  1.00  0.00     0.029 C 
ATOM     19  C   UNL     1      -0.359   6.847  -2.271  1.00  0.00     0.083 C 
ATOM     20  S   UNL     1      -0.622   8.530  -2.105  1.00  0.00    -0.022 SA
ATOM     21  C   UNL     1       0.374   6.609  -3.529  1.00  0.00     0.272 C 
ATOM     22  C   UNL     1       0.721   8.861  -3.230  1.00  0.00     0.298 C 
ATOM     23  N   UNL     1       1.221   7.678  -3.732  1.00  0.00    -0.236 N 
ATOM     24  O   UNL     1       0.158   5.629  -4.224  1.00  0.00    -0.268 OA
ATOM     25  O   UNL     1       1.038  10.015  -3.497  1.00  0.00    -0.260 OA
BRANCH  23  26
ATOM     26  C   UNL     1       2.466   7.537  -4.425  1.00  0.00     0.053 A 
ATOM     27  C   UNL     1       2.819   6.329  -5.044  1.00  0.00     0.027 A 
ATOM     28  C   UNL     1       3.442   8.545  -4.399  1.00  0.00     0.030 A 
ATOM     29  C   UNL     1       4.059   6.153  -5.660  1.00  0.00     0.006 A 
ATOM     30  C   UNL     1       4.717   8.368  -4.982  1.00  0.00    -0.046 A 
ATOM     31  C   UNL     1       5.012   7.172  -5.655  1.00  0.00    -0.048 A 
ATOM     32  C   UNL     1       5.733   9.473  -4.859  1.00  0.00     0.044 C 
ATOM     33  C   UNL     1       6.306   6.912  -6.374  1.00  0.00     0.044 C 
ENDBRANCH  23  26
ENDBRANCH  13  18
ENDBRANCH   9  10
ENDBRANCH   8   9
ENDBRANCH   7   8
ENDBRANCH   4   7
ENDBRANCH   2   3
ENDBRANCH   1   2
BRANCH   1  34
ATOM     34  C   UNL     1       1.496   4.568   2.010  1.00  0.00     0.002 C 
BRANCH  34  35
ATOM     35  C   UNL     1       1.272   5.786   2.900  1.00  0.00     0.002 C 
BRANCH  35  36
ATOM     36  C   UNL     1       2.536   6.620   3.130  1.00  0.00     0.021 C 
BRANCH  36  37
ATOM     37  C   UNL     1       3.140   7.241   1.869  1.00  0.00     0.116 C 
BRANCH  37  38
ATOM     38  N   UNL     1       2.347   8.350   1.357  1.00  0.00    -0.352 N 
ATOM     39  C   UNL     1       2.706   9.673   1.240  1.00  0.00     0.251 C 
ATOM     40  H   UNL     1       1.437   8.123   1.056  1.00  0.00     0.163 HD
ATOM     41  O   UNL     1       1.867  10.521   0.957  1.00  0.00    -0.269 OA
BRANCH  39  42
ATOM     42  C   UNL     1       4.110  10.062   1.493  1.00  0.00     0.039 A 
ATOM     43  C   UNL     1       4.380  11.052   2.439  1.00  0.00     0.014 A 
ATOM     44  C   UNL     1       5.156   9.405   0.837  1.00  0.00     0.014 A 
ATOM     45  C   UNL     1       5.705  11.331   2.784  1.00  0.00     0.010 A 
ATOM     46  C   UNL     1       6.472   9.636   1.234  1.00  0.00     0.010 A 
ATOM     47  C   UNL     1       6.762  10.596   2.217  1.00  0.00    -0.014 A 
BRANCH  47  48
ATOM     48  C   UNL     1       8.168  10.807   2.659  1.00  0.00     0.031 A 
ATOM     49  C   UNL     1       9.202  11.312   1.688  1.00  0.00     0.074 A 
ATOM     50  C   UNL     1       8.527  10.493   3.922  1.00  0.00     0.049 A 
ATOM     51  N   UNL     1      10.480  11.519   1.881  1.00  0.00    -0.248 NA
ATOM     52  C   UNL     1       8.749  11.606   0.318  1.00  0.00     0.031 C 
ATOM     53  C   UNL     1       7.632   9.957   4.951  1.00  0.00     0.029 A 
ATOM     54  N   UNL     1       9.744  10.573   4.557  1.00  0.00    -0.354 N 
ATOM     55  C   UNL     1      10.984  11.952   0.660  1.00  0.00     0.074 A 
ATOM     56  C   UNL     1       9.885  11.936  -0.280  1.00  0.00     0.031 C 
ATOM     57  C   UNL     1       8.321   9.785   6.091  1.00  0.00     0.029 A 
ATOM     58  C   UNL     1       9.716  10.151   5.867  1.00  0.00     0.049 A 
ATOM     59  H   UNL     1      10.560  10.903   4.115  1.00  0.00     0.167 HD
ATOM     60  C   UNL     1      12.243  12.344   0.353  1.00  0.00     0.031 A 
ATOM     61  C   UNL     1      10.701  10.056   6.782  1.00  0.00     0.031 A 
ATOM     62  C   UNL     1      13.333  12.374   1.293  1.00  0.00     0.049 A 
ATOM     63  C   UNL     1      12.097  10.480   6.405  1.00  0.00     0.074 A 
ATOM     64  C   UNL     1      14.629  12.816   1.088  1.00  0.00     0.029 A 
ATOM     65  N   UNL     1      13.262  11.943   2.608  1.00  0.00    -0.354 N 
ATOM     66  N   UNL     1      12.533  10.962   5.265  1.00  0.00    -0.248 NA
ATOM     67  C   UNL     1      13.133  10.358   7.441  1.00  0.00     0.031 C 
ATOM     68  C   UNL     1      15.359  12.588   2.258  1.00  0.00     0.029 A 
ATOM     69  C   UNL     1      14.499  12.077   3.216  1.00  0.00     0.049 A 
ATOM     70  H   UNL     1      12.452  11.593   3.046  1.00  0.00     0.167 HD
ATOM     71  C   UNL     1      13.883  11.234   5.461  1.00  0.00     0.074 A 
ATOM     72  C   UNL     1      14.188  10.881   6.831  1.00  0.00     0.031 C 
ATOM     73  C   UNL     1      14.790  11.732   4.584  1.00  0.00     0.031 A 
BRANCH  60  74
ATOM     74  C   UNL     1      12.527  12.774  -1.063  1.00  0.00    -0.014 A 
ATOM     75  C   UNL     1      12.021  13.983  -1.573  1.00  0.00     0.010 A 
ATOM     76  C   UNL     1      13.389  12.002  -1.864  1.00  0.00     0.010 A 
ATOM     77  C   UNL     1      12.356  14.402  -2.863  1.00  0.00     0.020 A 
ATOM     78  C   UNL     1      13.751  12.432  -3.143  1.00  0.00     0.020 A 
ATOM     79  C   UNL     1      13.225  13.627  -3.638  1.00  0.00     0.054 A 
BRANCH  79  80
ATOM     80  S   UNL     1      13.692  14.230  -5.283  1.00  0.00     0.124 S 
ATOM     81  O   UNL     1      12.444  14.078  -6.026  1.00  0.00    -0.237 OA
ATOM     82  O   UNL     1      14.098  15.607  -5.013  1.00  0.00    -0.237 OA
ATOM     83  O   UNL     1      14.771  13.333  -5.689  1.00  0.00    -0.744 OA
ENDBRANCH  79  80
ENDBRANCH  60  74
BRANCH  61  84
ATOM     84  C   UNL     1      10.417   9.528   8.148  1.00  0.00    -0.014 A 
ATOM     85  C   UNL     1      10.537  10.354   9.281  1.00  0.00     0.010 A 
ATOM     86  C   UNL     1      10.060   8.179   8.327  1.00  0.00     0.010 A 
ATOM     87  C   UNL     1      10.348   9.832  10.565  1.00  0.00     0.020 A 
ATOM     88  C   UNL     1       9.834   7.662   9.605  1.00  0.00     0.020 A 
ATOM     89  C   UNL     1       9.999   8.488  10.718  1.00  0.00     0.054 A 
BRANCH  89  90
ATOM     90  S   UNL     1       9.748   7.832  12.391  1.00  0.00     0.124 S 
ATOM     91  O   UNL     1      11.112   7.785  12.907  1.00  0.00    -0.237 OA
ATOM     92  O   UNL     1       8.876   8.837  12.995  1.00  0.00    -0.237 OA
ATOM     93  O   UNL     1       9.120   6.533  12.158  1.00  0.00    -0.744 OA
ENDBRANCH  89  90
ENDBRANCH  61  84
BRANCH  73  94
ATOM     94  C   UNL     1      16.189  11.975   5.088  1.00  0.00    -0.014 A 
ATOM     95  C   UNL     1      17.054  10.911   5.399  1.00  0.00     0.010 A 
ATOM     96  C   UNL     1      16.664  13.296   5.195  1.00  0.00     0.010 A 
ATOM     97  C   UNL     1      18.355  11.165   5.842  1.00  0.00     0.020 A 
ATOM     98  C   UNL     1      17.974  13.553   5.604  1.00  0.00     0.020 A 
ATOM     99  C   UNL     1      18.808  12.485   5.939  1.00  0.00     0.054 A 
BRANCH  99 100
ATOM    100  S   UNL     1      20.515  12.785   6.475  1.00  0.00     0.124 S 
ATOM    101  O   UNL     1      20.454  12.438   7.892  1.00  0.00    -0.237 OA
ATOM    102  O   UNL     1      21.278  11.865   5.634  1.00  0.00    -0.237 OA
ATOM    103  O   UNL     1      20.725  14.202   6.189  1.00  0.00    -0.744 OA
ENDBRANCH  99 100
ENDBRANCH  73  94
ENDBRANCH  47  48
ENDBRANCH  39  42
ENDBRANCH  37  38
ENDBRANCH  36  37
ENDBRANCH  35  36
ENDBRANCH  34  35
ENDBRANCH   1  34
TORSDOF 22
