REMARK SMILES Cc1cc(C)c(C(=O)NCCCCCCNC(=O)c2ccc(-c3c4nc(c(-c5ccc(S(=O)(=O)[O-])cc5)c5ccc([nH]5)c(-c5ccc(S(=O)(=O)[O-])cc5)c5nc(c(-c6ccc(S(=O)(=O)[O-])cc6)c6ccc3[nH]6)C=C5)C=C4)cc2)c(N[C@@H](CO)C(C)C)n1
REMARK SMILES IDX 12 1 11 2 10 3 9 4 7 5 8 6 6 8 1 9 2 10 3 11 87 12 4 13
REMARK SMILES IDX 79 14 5 15 80 16 81 18 82 19 83 20 84 22 85 23 86 24 13 25
REMARK SMILES IDX 14 26 15 27 16 28 17 29 18 31 19 32 20 33 78 34 21 35 77 36
REMARK SMILES IDX 22 37 23 38 24 39 71 40 25 41 76 42 70 43 72 44 26 45 75 46
REMARK SMILES IDX 69 47 68 48 27 50 57 51 38 52 56 53 39 54 42 55 55 56 73 57
REMARK SMILES IDX 40 58 41 59 54 61 74 62 43 63 28 64 29 65 37 66 30 67 36 68
REMARK SMILES IDX 31 69 32 70 33 71 34 72 35 73 58 74 59 75 67 76 60 77 66 78
REMARK SMILES IDX 61 79 62 80 63 81 64 82 65 83 44 84 45 85 53 86 46 87 52 88
REMARK SMILES IDX 47 89 48 90 49 91 50 92 51 93
REMARK H PARENT 9 7 80 17 83 21 16 30 72 49 42 60
REMARK Flexibility Score: inf
ROOT
ATOM      1  C   UNL     1       6.374  -0.622   1.331  1.00  0.00     0.002 C 
ENDROOT
BRANCH   1   2
ATOM      2  C   UNL     1       5.026  -0.115   1.858  1.00  0.00     0.021 C 
BRANCH   2   3
ATOM      3  C   UNL     1       3.874  -0.034   0.859  1.00  0.00     0.116 C 
BRANCH   3   4
ATOM      4  N   UNL     1       3.497  -1.289   0.241  1.00  0.00    -0.352 N 
ATOM      5  C   UNL     1       2.304  -1.703  -0.316  1.00  0.00     0.255 C 
ATOM      6  O   UNL     1       2.281  -2.835  -0.810  1.00  0.00    -0.269 OA
ATOM      7  H   UNL     1       4.215  -1.962   0.215  1.00  0.00     0.163 HD
BRANCH   5   8
ATOM      8  C   UNL     1       1.039  -0.898  -0.278  1.00  0.00     0.085 A 
ATOM      9  C   UNL     1      -2.729   1.068   0.115  1.00  0.00     0.067 C 
ATOM     10  C   UNL     1      -1.401   0.398  -0.061  1.00  0.00     0.040 A 
ATOM     11  C   UNL     1      -0.282   1.129  -0.412  1.00  0.00     0.028 A 
ATOM     12  N   UNL     1      -1.354  -0.935   0.107  1.00  0.00    -0.236 NA
ATOM     13  C   UNL     1       0.947   0.474  -0.592  1.00  0.00    -0.033 A 
ATOM     14  C   UNL     1      -0.170  -1.588  -0.012  1.00  0.00     0.139 A 
ATOM     15  C   UNL     1       2.045   1.307  -1.186  1.00  0.00     0.045 C 
BRANCH  14  16
ATOM     16  N   UNL     1      -0.224  -2.966   0.139  1.00  0.00    -0.364 N 
ATOM     17  H   UNL     1       0.609  -3.465   0.302  1.00  0.00     0.162 HD
BRANCH  16  18
ATOM     18  C   UNL     1      -1.493  -3.699   0.061  1.00  0.00     0.108 C 
BRANCH  18  19
ATOM     19  C   UNL     1      -1.543  -4.466  -1.283  1.00  0.00     0.181 C 
BRANCH  19  20
ATOM     20  O   UNL     1      -0.549  -5.489  -1.360  1.00  0.00    -0.394 OA
ATOM     21  H   UNL     1       0.332  -5.089  -1.295  1.00  0.00     0.210 HD
ENDBRANCH  19  20
ENDBRANCH  18  19
BRANCH  18  22
ATOM     22  C   UNL     1      -1.632  -4.616   1.303  1.00  0.00     0.007 C 
ATOM     23  C   UNL     1      -1.542  -3.798   2.600  1.00  0.00     0.009 C 
ATOM     24  C   UNL     1      -2.963  -5.379   1.299  1.00  0.00     0.009 C 
ENDBRANCH  18  22
ENDBRANCH  16  18
ENDBRANCH  14  16
ENDBRANCH   5   8
ENDBRANCH   3   4
ENDBRANCH   2   3
ENDBRANCH   1   2
BRANCH   1  25
ATOM     25  C   UNL     1       6.907  -0.022   0.026  1.00  0.00     0.002 C 
BRANCH  25  26
ATOM     26  C   UNL     1       7.006   1.502  -0.064  1.00  0.00     0.021 C 
BRANCH  26  27
ATOM     27  C   UNL     1       7.737   2.209   1.072  1.00  0.00     0.116 C 
BRANCH  27  28
ATOM     28  N   UNL     1       9.117   1.784   1.229  1.00  0.00    -0.352 N 
ATOM     29  C   UNL     1      10.254   2.543   1.375  1.00  0.00     0.251 C 
ATOM     30  H   UNL     1       9.258   0.810   1.231  1.00  0.00     0.163 HD
ATOM     31  O   UNL     1      11.353   1.995   1.399  1.00  0.00    -0.269 OA
BRANCH  29  32
ATOM     32  C   UNL     1      10.164   4.020   1.465  1.00  0.00     0.039 A 
ATOM     33  C   UNL     1      11.045   4.794   0.705  1.00  0.00     0.014 A 
ATOM     34  C   UNL     1       9.221   4.643   2.288  1.00  0.00     0.014 A 
ATOM     35  C   UNL     1      10.932   6.188   0.712  1.00  0.00     0.010 A 
ATOM     36  C   UNL     1       9.063   6.027   2.239  1.00  0.00     0.010 A 
ATOM     37  C   UNL     1       9.914   6.815   1.448  1.00  0.00    -0.014 A 
BRANCH  37  38
ATOM     38  C   UNL     1       9.714   8.288   1.393  1.00  0.00     0.031 A 
ATOM     39  C   UNL     1       9.884   9.126   2.632  1.00  0.00     0.074 A 
ATOM     40  C   UNL     1       9.314   8.865   0.241  1.00  0.00     0.049 A 
ATOM     41  N   UNL     1       9.688  10.410   2.792  1.00  0.00    -0.248 NA
ATOM     42  C   UNL     1      10.304   8.426   3.856  1.00  0.00     0.031 C 
ATOM     43  C   UNL     1       9.076   8.161  -1.022  1.00  0.00     0.029 A 
ATOM     44  N   UNL     1       9.027  10.176  -0.053  1.00  0.00    -0.354 N 
ATOM     45  C   UNL     1       9.944  10.669   4.134  1.00  0.00     0.074 A 
ATOM     46  C   UNL     1      10.261   9.400   4.753  1.00  0.00     0.031 C 
ATOM     47  C   UNL     1       8.705   9.049  -1.958  1.00  0.00     0.029 A 
ATOM     48  C   UNL     1       8.635  10.377  -1.357  1.00  0.00     0.049 A 
ATOM     49  H   UNL     1       9.095  10.903   0.607  1.00  0.00     0.167 HD
ATOM     50  C   UNL     1       9.933  11.855   4.788  1.00  0.00     0.031 A 
ATOM     51  C   UNL     1       8.254  11.501  -1.997  1.00  0.00     0.031 A 
ATOM     52  C   UNL     1       9.627  13.117   4.167  1.00  0.00     0.049 A 
ATOM     53  C   UNL     1       8.241  12.805  -1.248  1.00  0.00     0.074 A 
ATOM     54  C   UNL     1       9.642  14.380   4.734  1.00  0.00     0.029 A 
ATOM     55  N   UNL     1       9.249  13.278   2.843  1.00  0.00    -0.354 N 
ATOM     56  N   UNL     1       8.545  13.036   0.007  1.00  0.00    -0.248 NA
ATOM     57  C   UNL     1       7.844  14.002  -2.003  1.00  0.00     0.031 C 
ATOM     58  C   UNL     1       9.223  15.298   3.766  1.00  0.00     0.029 A 
ATOM     59  C   UNL     1       9.007  14.615   2.579  1.00  0.00     0.049 A 
ATOM     60  H   UNL     1       9.166  12.549   2.187  1.00  0.00     0.167 HD
ATOM     61  C   UNL     1       8.409  14.409   0.182  1.00  0.00     0.074 A 
ATOM     62  C   UNL     1       8.002  14.956  -1.095  1.00  0.00     0.031 C 
ATOM     63  C   UNL     1       8.608  15.149   1.301  1.00  0.00     0.031 A 
BRANCH  50  64
ATOM     64  C   UNL     1      10.256  11.842   6.260  1.00  0.00    -0.014 A 
ATOM     65  C   UNL     1      11.556  11.559   6.718  1.00  0.00     0.010 A 
ATOM     66  C   UNL     1       9.256  12.156   7.199  1.00  0.00     0.010 A 
ATOM     67  C   UNL     1      11.838  11.543   8.086  1.00  0.00     0.020 A 
ATOM     68  C   UNL     1       9.541  12.171   8.567  1.00  0.00     0.020 A 
ATOM     69  C   UNL     1      10.827  11.845   9.003  1.00  0.00     0.054 A 
BRANCH  69  70
ATOM     70  S   UNL     1      11.225  11.831  10.772  1.00  0.00     0.124 S 
ATOM     71  O   UNL     1      11.351  10.400  11.040  1.00  0.00    -0.237 OA
ATOM     72  O   UNL     1      12.471  12.591  10.826  1.00  0.00    -0.237 OA
ATOM     73  O   UNL     1      10.074  12.481  11.393  1.00  0.00    -0.744 OA
ENDBRANCH  69  70
ENDBRANCH  50  64
BRANCH  51  74
ATOM     74  C   UNL     1       7.870  11.441  -3.434  1.00  0.00    -0.014 A 
ATOM     75  C   UNL     1       8.701  12.002  -4.420  1.00  0.00     0.010 A 
ATOM     76  C   UNL     1       6.677  10.807  -3.827  1.00  0.00     0.010 A 
ATOM     77  C   UNL     1       8.340  11.944  -5.769  1.00  0.00     0.020 A 
ATOM     78  C   UNL     1       6.326  10.722  -5.177  1.00  0.00     0.020 A 
ATOM     79  C   UNL     1       7.155  11.301  -6.139  1.00  0.00     0.054 A 
BRANCH  79  80
ATOM     80  S   UNL     1       6.733  11.190  -7.901  1.00  0.00     0.124 S 
ATOM     81  O   UNL     1       6.326  12.558  -8.203  1.00  0.00    -0.237 OA
ATOM     82  O   UNL     1       7.993  10.755  -8.500  1.00  0.00    -0.237 OA
ATOM     83  O   UNL     1       5.662  10.195  -7.932  1.00  0.00    -0.744 OA
ENDBRANCH  79  80
ENDBRANCH  51  74
BRANCH  63  84
ATOM     84  C   UNL     1       8.434  16.640   1.192  1.00  0.00    -0.014 A 
ATOM     85  C   UNL     1       7.161  17.223   1.072  1.00  0.00     0.010 A 
ATOM     86  C   UNL     1       9.564  17.475   1.283  1.00  0.00     0.010 A 
ATOM     87  C   UNL     1       7.022  18.613   1.022  1.00  0.00     0.020 A 
ATOM     88  C   UNL     1       9.428  18.865   1.262  1.00  0.00     0.020 A 
ATOM     89  C   UNL     1       8.157  19.425   1.120  1.00  0.00     0.054 A 
BRANCH  89  90
ATOM     90  S   UNL     1       7.945  21.227   1.112  1.00  0.00     0.124 S 
ATOM     91  O   UNL     1       7.624  21.489  -0.288  1.00  0.00    -0.237 OA
ATOM     92  O   UNL     1       6.847  21.424   2.056  1.00  0.00    -0.237 OA
ATOM     93  O   UNL     1       9.241  21.730   1.560  1.00  0.00    -0.744 OA
ENDBRANCH  89  90
ENDBRANCH  63  84
ENDBRANCH  37  38
ENDBRANCH  29  32
ENDBRANCH  27  28
ENDBRANCH  26  27
ENDBRANCH  25  26
ENDBRANCH   1  25
TORSDOF 21
