REMARK SMILES CC[N@H+]1CCC[C@@H]1C[N@@H+](C)C[C@H]([NH3+])C(=O)NCCCCCCNC(=O)c1ccc(-c2c3nc(c(-c4ccc(S(=O)(=O)[O-])cc4)c4ccc([nH]4)c(-c4ccc(S(=O)(=O)[O-])cc4)c4nc(c(-c5ccc(S(=O)(=O)[O-])cc5)c5ccc2[nH]5)C=C4)C=C3)cc1
REMARK SMILES IDX 18 1 17 2 16 3 14 4 15 5 12 7 11 8 9 9 10 10 8 12 7 13 3 14
REMARK SMILES IDX 4 15 5 17 6 18 2 19 1 20 13 21 19 25 20 26 21 27 22 28 23 29
REMARK SMILES IDX 24 30 25 32 26 33 27 34 85 35 28 36 84 37 29 38 30 39 31 40
REMARK SMILES IDX 78 41 32 42 83 43 77 44 79 45 33 46 82 47 76 48 75 49 34 51
REMARK SMILES IDX 64 52 45 53 63 54 46 55 49 56 62 57 80 58 47 59 48 60 61 62
REMARK SMILES IDX 81 63 50 64 35 65 36 66 44 67 37 68 43 69 38 70 39 71 40 72
REMARK SMILES IDX 41 73 42 74 65 75 66 76 74 77 67 78 73 79 68 80 69 81 70 82
REMARK SMILES IDX 71 83 72 84 51 85 52 86 60 87 53 88 59 89 54 90 55 91 56 92
REMARK SMILES IDX 57 93 58 94
REMARK H PARENT 16 6 9 11 3 16 13 22 13 23 13 24 23 31 79 50 49 61
REMARK Flexibility Score: inf
ROOT
ATOM      1  C   UNL     1       0.601   7.731   0.298  1.00  0.00     0.021 C 
ENDROOT
BRANCH   1   2
ATOM      2  C   UNL     1      -0.193   6.441   0.093  1.00  0.00     0.116 C 
BRANCH   2   3
ATOM      3  N   UNL     1      -1.208   6.463  -0.947  1.00  0.00    -0.351 N 
ATOM      4  C   UNL     1      -1.811   5.404  -1.584  1.00  0.00     0.284 C 
ATOM      5  O   UNL     1      -2.989   5.570  -1.928  1.00  0.00    -0.268 OA
ATOM      6  H   UNL     1      -1.504   7.357  -1.234  1.00  0.00     0.163 HD
BRANCH   4   7
ATOM      7  C   UNL     1      -1.068   4.103  -1.995  1.00  0.00     0.326 C 
BRANCH   7   8
ATOM      8  C   UNL     1      -1.379   2.728  -1.311  1.00  0.00     0.338 C 
BRANCH   8   9
ATOM      9  N   UNL     1      -1.787   2.498   0.089  1.00  0.00    -0.327 N 
ATOM     10  C   UNL     1      -3.227   2.797   0.228  1.00  0.00     0.333 C 
ATOM     11  H   UNL     1      -1.559   1.519   0.259  1.00  0.00     0.348 HD
BRANCH   9  12
ATOM     12  C   UNL     1      -1.058   3.241   1.123  1.00  0.00     0.327 C 
BRANCH  12  13
ATOM     13  C   UNL     1       0.396   2.963   1.633  1.00  0.00     0.239 C 
ATOM     14  N   UNL     1       1.002   4.240   2.111  1.00  0.00    -0.328 N 
ATOM     15  C   UNL     1       2.452   4.146   1.901  1.00  0.00     0.262 C 
ATOM     16  H   UNL     1       0.573   4.990   1.569  1.00  0.00     0.348 HD
ATOM     17  C   UNL     1       2.560   3.408   0.589  1.00  0.00     0.068 C 
ATOM     18  C   UNL     1       1.433   2.391   0.660  1.00  0.00     0.077 C 
BRANCH  14  19
ATOM     19  C   UNL     1       0.714   4.603   3.504  1.00  0.00     0.259 C 
ATOM     20  C   UNL     1      -0.755   4.873   3.821  1.00  0.00     0.071 C 
ENDBRANCH  14  19
ENDBRANCH  12  13
ENDBRANCH   9  12
ENDBRANCH   8   9
ENDBRANCH   7   8
BRANCH   7  21
ATOM     21  N   UNL     1       0.364   4.315  -2.310  1.00  0.00    -0.343 N 
ATOM     22  H   UNL     1       0.878   4.497  -1.448  1.00  0.00     0.345 HD
ATOM     23  H   UNL     1       0.460   5.113  -2.938  1.00  0.00     0.345 HD
ATOM     24  H   UNL     1       0.740   3.481  -2.760  1.00  0.00     0.345 HD
ENDBRANCH   7  21
ENDBRANCH   4   7
ENDBRANCH   2   3
ENDBRANCH   1   2
BRANCH   1  25
ATOM     25  C   UNL     1      -0.159   8.953   0.837  1.00  0.00     0.002 C 
BRANCH  25  26
ATOM     26  C   UNL     1      -0.875   8.858   2.193  1.00  0.00     0.002 C 
BRANCH  26  27
ATOM     27  C   UNL     1      -0.095   8.382   3.423  1.00  0.00     0.021 C 
BRANCH  27  28
ATOM     28  C   UNL     1       1.281   8.977   3.719  1.00  0.00     0.116 C 
BRANCH  28  29
ATOM     29  N   UNL     1       1.204  10.278   4.355  1.00  0.00    -0.352 N 
ATOM     30  C   UNL     1       1.580  10.695   5.611  1.00  0.00     0.251 C 
ATOM     31  H   UNL     1       0.815  10.985   3.791  1.00  0.00     0.163 HD
ATOM     32  O   UNL     1       1.194  11.801   5.990  1.00  0.00    -0.269 OA
BRANCH  30  33
ATOM     33  C   UNL     1       2.433   9.880   6.525  1.00  0.00     0.039 A 
ATOM     34  C   UNL     1       2.228  10.008   7.907  1.00  0.00     0.014 A 
ATOM     35  C   UNL     1       3.511   9.110   6.077  1.00  0.00     0.014 A 
ATOM     36  C   UNL     1       3.080   9.374   8.822  1.00  0.00     0.010 A 
ATOM     37  C   UNL     1       4.332   8.431   6.993  1.00  0.00     0.010 A 
ATOM     38  C   UNL     1       4.144   8.575   8.378  1.00  0.00    -0.014 A 
BRANCH  38  39
ATOM     39  C   UNL     1       5.080   7.937   9.352  1.00  0.00     0.031 A 
ATOM     40  C   UNL     1       6.525   8.372   9.432  1.00  0.00     0.074 A 
ATOM     41  C   UNL     1       4.644   6.954  10.167  1.00  0.00     0.049 A 
ATOM     42  N   UNL     1       7.478   7.937  10.220  1.00  0.00    -0.248 NA
ATOM     43  C   UNL     1       6.959   9.419   8.494  1.00  0.00     0.031 C 
ATOM     44  C   UNL     1       3.286   6.408  10.181  1.00  0.00     0.029 A 
ATOM     45  N   UNL     1       5.299   6.236  11.140  1.00  0.00    -0.354 N 
ATOM     46  C   UNL     1       8.624   8.641   9.861  1.00  0.00     0.074 A 
ATOM     47  C   UNL     1       8.255   9.504   8.759  1.00  0.00     0.031 C 
ATOM     48  C   UNL     1       3.204   5.457  11.127  1.00  0.00     0.029 A 
ATOM     49  C   UNL     1       4.506   5.305  11.770  1.00  0.00     0.049 A 
ATOM     50  H   UNL     1       6.247   6.376  11.365  1.00  0.00     0.167 HD
ATOM     51  C   UNL     1       9.866   8.590  10.405  1.00  0.00     0.031 A 
ATOM     52  C   UNL     1       4.788   4.426  12.754  1.00  0.00     0.031 A 
ATOM     53  C   UNL     1      10.236   7.749  11.514  1.00  0.00     0.049 A 
ATOM     54  C   UNL     1       6.168   4.399  13.353  1.00  0.00     0.074 A 
ATOM     55  C   UNL     1      11.453   7.678  12.172  1.00  0.00     0.029 A 
ATOM     56  N   UNL     1       9.397   6.834  12.131  1.00  0.00    -0.354 N 
ATOM     57  N   UNL     1       7.216   5.123  13.042  1.00  0.00    -0.248 NA
ATOM     58  C   UNL     1       6.397   3.447  14.450  1.00  0.00     0.031 C 
ATOM     59  C   UNL     1      11.364   6.686  13.155  1.00  0.00     0.029 A 
ATOM     60  C   UNL     1      10.075   6.177  13.145  1.00  0.00     0.049 A 
ATOM     61  H   UNL     1       8.457   6.675  11.884  1.00  0.00     0.167 HD
ATOM     62  C   UNL     1       8.222   4.729  13.918  1.00  0.00     0.074 A 
ATOM     63  C   UNL     1       7.652   3.718  14.784  1.00  0.00     0.031 C 
ATOM     64  C   UNL     1       9.503   5.166  13.996  1.00  0.00     0.031 A 
BRANCH  51  65
ATOM     65  C   UNL     1      10.932   9.469   9.800  1.00  0.00    -0.014 A 
ATOM     66  C   UNL     1      10.912  10.865   9.975  1.00  0.00     0.010 A 
ATOM     67  C   UNL     1      11.999   8.887   9.091  1.00  0.00     0.010 A 
ATOM     68  C   UNL     1      11.914  11.664   9.418  1.00  0.00     0.020 A 
ATOM     69  C   UNL     1      13.018   9.680   8.554  1.00  0.00     0.020 A 
ATOM     70  C   UNL     1      12.959  11.067   8.706  1.00  0.00     0.054 A 
BRANCH  70  71
ATOM     71  S   UNL     1      14.260  12.123   8.009  1.00  0.00     0.124 S 
ATOM     72  O   UNL     1      13.569  12.737   6.874  1.00  0.00    -0.237 OA
ATOM     73  O   UNL     1      14.565  13.029   9.118  1.00  0.00    -0.237 OA
ATOM     74  O   UNL     1      15.320  11.189   7.662  1.00  0.00    -0.744 OA
ENDBRANCH  70  71
ENDBRANCH  51  65
BRANCH  52  75
ATOM     75  C   UNL     1       3.730   3.501  13.246  1.00  0.00    -0.014 A 
ATOM     76  C   UNL     1       3.155   3.679  14.517  1.00  0.00     0.010 A 
ATOM     77  C   UNL     1       3.285   2.438  12.438  1.00  0.00     0.010 A 
ATOM     78  C   UNL     1       2.167   2.804  14.978  1.00  0.00     0.020 A 
ATOM     79  C   UNL     1       2.278   1.578  12.884  1.00  0.00     0.020 A 
ATOM     80  C   UNL     1       1.733   1.760  14.156  1.00  0.00     0.054 A 
BRANCH  80  81
ATOM     81  S   UNL     1       0.406   0.671  14.747  1.00  0.00     0.124 S 
ATOM     82  O   UNL     1       1.111  -0.176  15.703  1.00  0.00    -0.237 OA
ATOM     83  O   UNL     1      -0.548   1.617  15.321  1.00  0.00    -0.237 OA
ATOM     84  O   UNL     1      -0.050   0.001  13.531  1.00  0.00    -0.744 OA
ENDBRANCH  80  81
ENDBRANCH  52  75
BRANCH  64  85
ATOM     85  C   UNL     1      10.373   4.568  15.071  1.00  0.00    -0.014 A 
ATOM     86  C   UNL     1      10.839   3.244  14.978  1.00  0.00     0.010 A 
ATOM     87  C   UNL     1      10.753   5.352  16.176  1.00  0.00     0.010 A 
ATOM     88  C   UNL     1      11.636   2.703  15.991  1.00  0.00     0.020 A 
ATOM     89  C   UNL     1      11.572   4.822  17.177  1.00  0.00     0.020 A 
ATOM     90  C   UNL     1      11.993   3.494  17.087  1.00  0.00     0.054 A 
BRANCH  90  91
ATOM     91  S   UNL     1      13.046   2.776  18.379  1.00  0.00     0.124 S 
ATOM     92  O   UNL     1      12.102   1.929  19.103  1.00  0.00    -0.237 OA
ATOM     93  O   UNL     1      14.064   2.067  17.609  1.00  0.00    -0.237 OA
ATOM     94  O   UNL     1      13.530   3.941  19.116  1.00  0.00    -0.744 OA
ENDBRANCH  90  91
ENDBRANCH  64  85
ENDBRANCH  38  39
ENDBRANCH  30  33
ENDBRANCH  28  29
ENDBRANCH  27  28
ENDBRANCH  26  27
ENDBRANCH  25  26
ENDBRANCH   1  25
TORSDOF 22
