REMARK SMILES O=C(NCCCCCCNC(=O)c1ccc2c(=O)n3cc(C(=O)c4cc(F)ccc4O)cc(Cl)c3nc2c1)c1ccc(-c2c3nc(c(-c4ccc(S(=O)(=O)[O-])cc4)c4ccc([nH]4)c(-c4ccc(S(=O)(=O)[O-])cc4)c4nc(c(-c5ccc(S(=O)(=O)[O-])cc5)c5ccc2[nH]5)C=C4)C=C3)cc1
REMARK SMILES IDX 6 1 5 2 4 3 3 4 1 5 2 6 39 8 40 9 98 10 41 11 97 12 42 13
REMARK SMILES IDX 43 14 44 15 91 16 45 17 96 18 90 19 92 20 46 21 95 22 89 23
REMARK SMILES IDX 88 24 47 26 77 27 58 28 76 29 59 30 62 31 75 32 93 33 60 34
REMARK SMILES IDX 61 35 74 37 94 38 63 39 48 40 49 41 57 42 50 43 56 44 51 45
REMARK SMILES IDX 52 46 53 47 54 48 55 49 78 50 79 51 87 52 80 53 86 54 81 55
REMARK SMILES IDX 82 56 83 57 84 58 85 59 64 60 65 61 73 62 66 63 72 64 67 65
REMARK SMILES IDX 68 66 69 67 70 68 71 69 7 70 8 71 9 72 10 73 11 74 12 76
REMARK SMILES IDX 13 77 14 78 38 79 15 80 37 81 16 82 36 83 17 84 35 85 18 86
REMARK SMILES IDX 19 87 33 88 20 89 32 90 34 91 21 92 22 93 23 94 24 95 25 96
REMARK SMILES IDX 30 97 26 98 29 99 27 100 28 101 31 102
REMARK H PARENT 3 7 92 25 62 36 10 75 31 103
REMARK Flexibility Score: inf
ROOT
ATOM      1  C   UNL     1       4.263  -3.346  -1.702  1.00  0.00     0.002 C 
ENDROOT
BRANCH   1   2
ATOM      2  C   UNL     1       4.773  -2.508  -0.529  1.00  0.00     0.021 C 
BRANCH   2   3
ATOM      3  C   UNL     1       4.547  -1.008  -0.667  1.00  0.00     0.116 C 
BRANCH   3   4
ATOM      4  N   UNL     1       3.139  -0.671  -0.751  1.00  0.00    -0.352 N 
ATOM      5  O   UNL     1       1.157   0.133  -0.071  1.00  0.00    -0.269 OA
ATOM      6  C   UNL     1       2.380   0.142   0.051  1.00  0.00     0.251 C 
ATOM      7  H   UNL     1       2.653  -1.091  -1.497  1.00  0.00     0.163 HD
BRANCH   6   8
ATOM      8  C   UNL     1       3.017   1.022   1.058  1.00  0.00     0.039 A 
ATOM      9  C   UNL     1       2.361   1.232   2.274  1.00  0.00     0.014 A 
ATOM     10  C   UNL     1       4.212   1.695   0.791  1.00  0.00     0.014 A 
ATOM     11  C   UNL     1       2.901   2.114   3.213  1.00  0.00     0.010 A 
ATOM     12  C   UNL     1       4.802   2.494   1.768  1.00  0.00     0.010 A 
ATOM     13  C   UNL     1       4.127   2.754   2.968  1.00  0.00    -0.014 A 
BRANCH  13  14
ATOM     14  C   UNL     1       4.651   3.785   3.902  1.00  0.00     0.031 A 
ATOM     15  C   UNL     1       4.772   5.215   3.435  1.00  0.00     0.074 A 
ATOM     16  C   UNL     1       5.001   3.451   5.160  1.00  0.00     0.049 A 
ATOM     17  N   UNL     1       5.184   6.264   4.099  1.00  0.00    -0.248 NA
ATOM     18  C   UNL     1       4.403   5.506   2.037  1.00  0.00     0.031 C 
ATOM     19  C   UNL     1       4.939   2.101   5.724  1.00  0.00     0.029 A 
ATOM     20  N   UNL     1       5.455   4.224   6.201  1.00  0.00    -0.354 N 
ATOM     21  C   UNL     1       5.133   7.325   3.200  1.00  0.00     0.074 A 
ATOM     22  C   UNL     1       4.719   6.787   1.927  1.00  0.00     0.031 C 
ATOM     23  C   UNL     1       5.279   2.152   7.021  1.00  0.00     0.029 A 
ATOM     24  C   UNL     1       5.625   3.527   7.376  1.00  0.00     0.049 A 
ATOM     25  H   UNL     1       5.641   5.187   6.116  1.00  0.00     0.167 HD
ATOM     26  C   UNL     1       5.370   8.637   3.425  1.00  0.00     0.031 A 
ATOM     27  C   UNL     1       5.997   3.947   8.603  1.00  0.00     0.031 A 
ATOM     28  C   UNL     1       5.729   9.175   4.709  1.00  0.00     0.049 A 
ATOM     29  C   UNL     1       6.261   5.414   8.826  1.00  0.00     0.074 A 
ATOM     30  C   UNL     1       5.942  10.500   5.048  1.00  0.00     0.029 A 
ATOM     31  N   UNL     1       5.907   8.430   5.863  1.00  0.00    -0.354 N 
ATOM     32  N   UNL     1       6.166   6.406   7.972  1.00  0.00    -0.248 NA
ATOM     33  C   UNL     1       6.659   5.824  10.180  1.00  0.00     0.031 C 
ATOM     34  C   UNL     1       6.316  10.549   6.391  1.00  0.00     0.029 A 
ATOM     35  C   UNL     1       6.248   9.266   6.912  1.00  0.00     0.049 A 
ATOM     36  H   UNL     1       5.807   7.453   5.928  1.00  0.00     0.167 HD
ATOM     37  C   UNL     1       6.446   7.560   8.698  1.00  0.00     0.074 A 
ATOM     38  C   UNL     1       6.709   7.144  10.059  1.00  0.00     0.031 C 
ATOM     39  C   UNL     1       6.478   8.846   8.272  1.00  0.00     0.031 A 
BRANCH  26  40
ATOM     40  C   UNL     1       5.214   9.606   2.281  1.00  0.00    -0.014 A 
ATOM     41  C   UNL     1       6.332  10.327   1.822  1.00  0.00     0.010 A 
ATOM     42  C   UNL     1       3.943   9.913   1.763  1.00  0.00     0.010 A 
ATOM     43  C   UNL     1       6.176  11.371   0.908  1.00  0.00     0.020 A 
ATOM     44  C   UNL     1       3.787  10.934   0.822  1.00  0.00     0.020 A 
ATOM     45  C   UNL     1       4.901  11.678   0.426  1.00  0.00     0.054 A 
BRANCH  45  46
ATOM     46  S   UNL     1       4.710  13.084  -0.703  1.00  0.00     0.124 S 
ATOM     47  O   UNL     1       4.902  14.223   0.189  1.00  0.00    -0.237 OA
ATOM     48  O   UNL     1       5.776  12.857  -1.677  1.00  0.00    -0.237 OA
ATOM     49  O   UNL     1       3.355  12.921  -1.227  1.00  0.00    -0.744 OA
ENDBRANCH  45  46
ENDBRANCH  26  40
BRANCH  27  50
ATOM     50  C   UNL     1       6.056   2.972   9.730  1.00  0.00    -0.014 A 
ATOM     51  C   UNL     1       7.004   1.932   9.734  1.00  0.00     0.010 A 
ATOM     52  C   UNL     1       5.124   3.044  10.781  1.00  0.00     0.010 A 
ATOM     53  C   UNL     1       6.989   0.960  10.739  1.00  0.00     0.020 A 
ATOM     54  C   UNL     1       5.128   2.094  11.807  1.00  0.00     0.020 A 
ATOM     55  C   UNL     1       6.043   1.041  11.764  1.00  0.00     0.054 A 
BRANCH  55  56
ATOM     56  S   UNL     1       6.021  -0.254  13.034  1.00  0.00     0.124 S 
ATOM     57  O   UNL     1       5.443  -1.379  12.303  1.00  0.00    -0.237 OA
ATOM     58  O   UNL     1       7.435  -0.387  13.377  1.00  0.00    -0.237 OA
ATOM     59  O   UNL     1       5.178   0.309  14.084  1.00  0.00    -0.744 OA
ENDBRANCH  55  56
ENDBRANCH  27  50
BRANCH  39  60
ATOM     60  C   UNL     1       6.760   9.935   9.276  1.00  0.00    -0.014 A 
ATOM     61  C   UNL     1       5.764  10.893   9.549  1.00  0.00     0.010 A 
ATOM     62  C   UNL     1       8.040  10.103   9.831  1.00  0.00     0.010 A 
ATOM     63  C   UNL     1       6.053  12.020  10.322  1.00  0.00     0.020 A 
ATOM     64  C   UNL     1       8.323  11.211  10.636  1.00  0.00     0.020 A 
ATOM     65  C   UNL     1       7.335  12.176  10.853  1.00  0.00     0.054 A 
BRANCH  65  66
ATOM     66  S   UNL     1       7.700  13.662  11.826  1.00  0.00     0.124 S 
ATOM     67  O   UNL     1       7.824  14.684  10.792  1.00  0.00    -0.237 OA
ATOM     68  O   UNL     1       6.528  13.777  12.690  1.00  0.00    -0.237 OA
ATOM     69  O   UNL     1       8.942  13.321  12.518  1.00  0.00    -0.744 OA
ENDBRANCH  65  66
ENDBRANCH  39  60
ENDBRANCH  13  14
ENDBRANCH   6   8
ENDBRANCH   3   4
ENDBRANCH   2   3
ENDBRANCH   1   2
BRANCH   1  70
ATOM     70  C   UNL     1       4.785  -2.932  -3.080  1.00  0.00     0.002 C 
BRANCH  70  71
ATOM     71  C   UNL     1       6.308  -2.839  -3.204  1.00  0.00     0.021 C 
BRANCH  71  72
ATOM     72  C   UNL     1       7.059  -4.104  -2.806  1.00  0.00     0.116 C 
BRANCH  72  73
ATOM     73  N   UNL     1       6.731  -5.230  -3.667  1.00  0.00    -0.352 N 
ATOM     74  C   UNL     1       7.579  -6.048  -4.369  1.00  0.00     0.251 C 
ATOM     75  H   UNL     1       5.772  -5.431  -3.759  1.00  0.00     0.163 HD
ATOM     76  O   UNL     1       7.151  -6.856  -5.186  1.00  0.00    -0.269 OA
BRANCH  74  77
ATOM     77  C   UNL     1       9.030  -5.939  -4.134  1.00  0.00     0.041 A 
ATOM     78  C   UNL     1       9.535  -6.025  -2.832  1.00  0.00     0.015 A 
ATOM     79  C   UNL     1       9.884  -5.740  -5.225  1.00  0.00     0.043 A 
ATOM     80  C   UNL     1      10.887  -5.804  -2.610  1.00  0.00     0.017 A 
ATOM     81  C   UNL     1      11.249  -5.550  -5.012  1.00  0.00     0.079 A 
ATOM     82  C   UNL     1      11.725  -5.551  -3.702  1.00  0.00     0.066 A 
ATOM     83  N   UNL     1      12.095  -5.381  -6.114  1.00  0.00    -0.228 NA
ATOM     84  C   UNL     1      13.146  -5.270  -3.489  1.00  0.00     0.265 A 
ATOM     85  C   UNL     1      13.362  -5.183  -5.912  1.00  0.00     0.159 A 
ATOM     86  O   UNL     1      13.579  -5.221  -2.338  1.00  0.00    -0.268 OA
ATOM     87  N   UNL     1      13.923  -5.093  -4.634  1.00  0.00    -0.266 N 
ATOM     88  C   UNL     1      14.330  -5.042  -7.056  1.00  0.00     0.085 A 
ATOM     89  C   UNL     1      15.277  -4.840  -4.452  1.00  0.00     0.109 A 
ATOM     90  C   UNL     1      15.637  -4.863  -6.819  1.00  0.00     0.038 A 
ATOM     91  Cl  UNL     1      13.726  -5.139  -8.665  1.00  0.00    -0.080 Cl
ATOM     92  C   UNL     1      16.149  -4.759  -5.468  1.00  0.00     0.041 A 
BRANCH  92  93
ATOM     93  C   UNL     1      17.607  -4.484  -5.237  1.00  0.00     0.198 C 
ATOM     94  O   UNL     1      18.344  -4.120  -6.152  1.00  0.00    -0.288 OA
BRANCH  93  95
ATOM     95  C   UNL     1      18.165  -4.513  -3.867  1.00  0.00     0.067 A 
ATOM     96  C   UNL     1      17.976  -5.613  -3.022  1.00  0.00     0.055 A 
ATOM     97  C   UNL     1      18.847  -3.383  -3.398  1.00  0.00     0.126 A 
ATOM     98  C   UNL     1      18.390  -5.524  -1.697  1.00  0.00     0.124 A 
ATOM     99  C   UNL     1      19.247  -3.304  -2.066  1.00  0.00     0.050 A 
ATOM    100  F   UNL     1      18.171  -6.558  -0.874  1.00  0.00    -0.207 F 
ATOM    101  C   UNL     1      19.005  -4.376  -1.208  1.00  0.00     0.043 A 
BRANCH  97 102
ATOM    102  O   UNL     1      19.134  -2.312  -4.198  1.00  0.00    -0.507 OA
ATOM    103  H   UNL     1      18.884  -2.321  -5.101  1.00  0.00     0.293 HD
ENDBRANCH  97 102
ENDBRANCH  93  95
ENDBRANCH  92  93
ENDBRANCH  74  77
ENDBRANCH  72  73
ENDBRANCH  71  72
ENDBRANCH  70  71
ENDBRANCH   1  70
TORSDOF 19
