REMARK SMILES Nc1nc2ccccc2nc1N1CCC(C(=O)NCCCCCCNC(=O)c2ccc(-c3c4nc(c(-c5ccc(S(=O)(=O)[O-])cc5)c5ccc([nH]5)c(-c5ccc(S(=O)(=O)[O-])cc5)c5nc(c(-c6ccc(S(=O)(=O)[O-])cc6)c6ccc3[nH]6)C=C5)C=C4)cc2)CC1
REMARK SMILES IDX 22 1 21 2 20 3 19 4 18 5 16 6 17 7 15 9 12 10 13 11 89 12
REMARK SMILES IDX 14 13 88 14 11 15 2 16 3 17 4 18 10 19 5 20 9 21 6 22 8 23
REMARK SMILES IDX 7 24 1 25 23 28 24 29 25 30 26 31 27 33 28 34 29 35 87 36
REMARK SMILES IDX 30 37 86 38 31 39 32 40 33 41 80 42 34 43 85 44 79 45 81 46
REMARK SMILES IDX 35 47 84 48 78 49 77 50 36 52 66 53 47 54 65 55 48 56 51 57
REMARK SMILES IDX 64 58 82 59 49 60 50 61 63 63 83 64 52 65 37 66 38 67 46 68
REMARK SMILES IDX 39 69 45 70 40 71 41 72 42 73 43 74 44 75 67 76 68 77 76 78
REMARK SMILES IDX 69 79 75 80 70 81 71 82 72 83 73 84 74 85 53 86 54 87 62 88
REMARK SMILES IDX 55 89 61 90 56 91 57 92 58 93 59 94 60 95
REMARK H PARENT 18 8 1 26 1 27 25 32 81 51 51 62
REMARK Flexibility Score: inf
ROOT
ATOM      1  C   UNL     1      -0.143  -3.724  -8.616  1.00  0.00     0.002 C 
ENDROOT
BRANCH   1   2
ATOM      2  C   UNL     1       1.120  -2.859  -8.542  1.00  0.00     0.002 C 
BRANCH   2   3
ATOM      3  C   UNL     1       1.259  -2.001  -7.280  1.00  0.00     0.021 C 
BRANCH   3   4
ATOM      4  C   UNL     1       1.225  -2.792  -5.973  1.00  0.00     0.116 C 
BRANCH   4   5
ATOM      5  N   UNL     1       2.424  -3.601  -5.815  1.00  0.00    -0.356 N 
ATOM      6  C   UNL     1       3.415  -3.554  -4.885  1.00  0.00     0.223 C 
ATOM      7  O   UNL     1       4.353  -4.348  -5.001  1.00  0.00    -0.275 OA
ATOM      8  H   UNL     1       2.536  -4.302  -6.497  1.00  0.00     0.163 HD
BRANCH   6   9
ATOM      9  C   UNL     1       3.372  -2.584  -3.712  1.00  0.00     0.082 C 
ATOM     10  N   UNL     1       1.938  -0.588  -2.298  1.00  0.00    -0.353 N 
ATOM     11  C   UNL     1       3.055  -0.118  -3.087  1.00  0.00     0.119 C 
ATOM     12  C   UNL     1       2.009  -1.899  -1.682  1.00  0.00     0.119 C 
ATOM     13  C   UNL     1       3.428  -1.119  -4.171  1.00  0.00     0.035 C 
ATOM     14  C   UNL     1       2.219  -2.946  -2.765  1.00  0.00     0.035 C 
BRANCH  10  15
ATOM     15  C   UNL     1       0.765   0.146  -2.229  1.00  0.00     0.172 A 
ATOM     16  C   UNL     1       0.188   0.492  -0.978  1.00  0.00     0.167 A 
ATOM     17  N   UNL     1      -0.968   1.170  -0.872  1.00  0.00    -0.226 NA
ATOM     18  C   UNL     1      -1.559   1.528  -2.022  1.00  0.00     0.091 A 
ATOM     19  N   UNL     1       0.183   0.546  -3.384  1.00  0.00    -0.225 NA
ATOM     20  C   UNL     1      -2.763   2.220  -1.967  1.00  0.00     0.031 A 
ATOM     21  C   UNL     1      -0.986   1.220  -3.282  1.00  0.00     0.091 A 
ATOM     22  C   UNL     1      -3.429   2.612  -3.128  1.00  0.00     0.002 A 
ATOM     23  C   UNL     1      -1.663   1.619  -4.431  1.00  0.00     0.031 A 
ATOM     24  C   UNL     1      -2.878   2.308  -4.365  1.00  0.00     0.002 A 
BRANCH  16  25
ATOM     25  N   UNL     1       0.791   0.154   0.232  1.00  0.00    -0.381 N 
ATOM     26  H   UNL     1       0.365   0.409   1.083  1.00  0.00     0.158 HD
ATOM     27  H   UNL     1       1.643  -0.340   0.237  1.00  0.00     0.158 HD
ENDBRANCH  16  25
ENDBRANCH  10  15
ENDBRANCH   6   9
ENDBRANCH   4   5
ENDBRANCH   3   4
ENDBRANCH   2   3
ENDBRANCH   1   2
BRANCH   1  28
ATOM     28  C   UNL     1      -1.460  -2.984  -8.376  1.00  0.00     0.021 C 
BRANCH  28  29
ATOM     29  C   UNL     1      -1.712  -1.801  -9.301  1.00  0.00     0.116 C 
BRANCH  29  30
ATOM     30  N   UNL     1      -1.873  -2.197 -10.693  1.00  0.00    -0.352 N 
ATOM     31  C   UNL     1      -2.858  -1.839 -11.582  1.00  0.00     0.251 C 
ATOM     32  H   UNL     1      -1.182  -2.804 -11.045  1.00  0.00     0.163 HD
ATOM     33  O   UNL     1      -2.921  -2.374 -12.685  1.00  0.00    -0.269 OA
BRANCH  31  34
ATOM     34  C   UNL     1      -3.864  -0.829 -11.184  1.00  0.00     0.039 A 
ATOM     35  C   UNL     1      -3.469   0.358 -10.564  1.00  0.00     0.014 A 
ATOM     36  C   UNL     1      -5.219  -1.092 -11.401  1.00  0.00     0.014 A 
ATOM     37  C   UNL     1      -4.430   1.200 -10.018  1.00  0.00     0.010 A 
ATOM     38  C   UNL     1      -6.184  -0.200 -10.924  1.00  0.00     0.010 A 
ATOM     39  C   UNL     1      -5.799   0.931 -10.188  1.00  0.00    -0.014 A 
BRANCH  39  40
ATOM     40  C   UNL     1      -6.798   1.864  -9.605  1.00  0.00     0.031 A 
ATOM     41  C   UNL     1      -7.718   1.432  -8.497  1.00  0.00     0.074 A 
ATOM     42  C   UNL     1      -6.828   3.138 -10.045  1.00  0.00     0.049 A 
ATOM     43  N   UNL     1      -8.572   2.154  -7.816  1.00  0.00    -0.248 NA
ATOM     44  C   UNL     1      -7.685   0.015  -8.101  1.00  0.00     0.031 C 
ATOM     45  C   UNL     1      -5.986   3.671 -11.117  1.00  0.00     0.029 A 
ATOM     46  N   UNL     1      -7.561   4.219  -9.625  1.00  0.00    -0.354 N 
ATOM     47  C   UNL     1      -9.193   1.280  -6.932  1.00  0.00     0.074 A 
ATOM     48  C   UNL     1      -8.633  -0.032  -7.175  1.00  0.00     0.031 C 
ATOM     49  C   UNL     1      -6.194   4.991 -11.220  1.00  0.00     0.029 A 
ATOM     50  C   UNL     1      -7.228   5.387 -10.267  1.00  0.00     0.049 A 
ATOM     51  H   UNL     1      -8.257   4.163  -8.931  1.00  0.00     0.167 HD
ATOM     52  C   UNL     1     -10.137   1.549  -5.999  1.00  0.00     0.031 A 
ATOM     53  C   UNL     1      -7.692   6.643 -10.115  1.00  0.00     0.031 A 
ATOM     54  C   UNL     1     -10.677   2.861  -5.749  1.00  0.00     0.049 A 
ATOM     55  C   UNL     1      -8.746   6.917  -9.086  1.00  0.00     0.074 A 
ATOM     56  C   UNL     1     -11.587   3.240  -4.777  1.00  0.00     0.029 A 
ATOM     57  N   UNL     1     -10.370   4.002  -6.475  1.00  0.00    -0.354 N 
ATOM     58  N   UNL     1      -9.287   6.084  -8.229  1.00  0.00    -0.248 NA
ATOM     59  C   UNL     1      -9.258   8.290  -9.003  1.00  0.00     0.031 C 
ATOM     60  C   UNL     1     -11.880   4.594  -4.957  1.00  0.00     0.029 A 
ATOM     61  C   UNL     1     -11.105   5.077  -6.000  1.00  0.00     0.049 A 
ATOM     62  H   UNL     1      -9.726   4.043  -7.219  1.00  0.00     0.167 HD
ATOM     63  C   UNL     1     -10.214   6.829  -7.511  1.00  0.00     0.074 A 
ATOM     64  C   UNL     1     -10.138   8.187  -8.013  1.00  0.00     0.031 C 
ATOM     65  C   UNL     1     -11.053   6.418  -6.529  1.00  0.00     0.031 A 
BRANCH  52  66
ATOM     66  C   UNL     1     -10.672   0.405  -5.177  1.00  0.00    -0.014 A 
ATOM     67  C   UNL     1     -12.003  -0.014  -5.358  1.00  0.00     0.010 A 
ATOM     68  C   UNL     1      -9.899  -0.192  -4.166  1.00  0.00     0.010 A 
ATOM     69  C   UNL     1     -12.557  -1.000  -4.536  1.00  0.00     0.020 A 
ATOM     70  C   UNL     1     -10.442  -1.196  -3.357  1.00  0.00     0.020 A 
ATOM     71  C   UNL     1     -11.774  -1.580  -3.536  1.00  0.00     0.054 A 
BRANCH  71  72
ATOM     72  S   UNL     1     -12.503  -2.864  -2.481  1.00  0.00     0.124 S 
ATOM     73  O   UNL     1     -13.275  -2.076  -1.526  1.00  0.00    -0.237 OA
ATOM     74  O   UNL     1     -13.287  -3.654  -3.429  1.00  0.00    -0.237 OA
ATOM     75  O   UNL     1     -11.337  -3.552  -1.930  1.00  0.00    -0.744 OA
ENDBRANCH  71  72
ENDBRANCH  52  66
BRANCH  53  76
ATOM     76  C   UNL     1      -7.109   7.718 -10.961  1.00  0.00    -0.014 A 
ATOM     77  C   UNL     1      -7.362   7.742 -12.346  1.00  0.00     0.010 A 
ATOM     78  C   UNL     1      -6.173   8.613 -10.417  1.00  0.00     0.010 A 
ATOM     79  C   UNL     1      -6.624   8.581 -13.184  1.00  0.00     0.020 A 
ATOM     80  C   UNL     1      -5.452   9.474 -11.251  1.00  0.00     0.020 A 
ATOM     81  C   UNL     1      -5.654   9.421 -12.632  1.00  0.00     0.054 A 
BRANCH  81  82
ATOM     82  S   UNL     1      -4.620  10.409 -13.748  1.00  0.00     0.124 S 
ATOM     83  O   UNL     1      -3.677   9.409 -14.242  1.00  0.00    -0.237 OA
ATOM     84  O   UNL     1      -5.584  10.904 -14.726  1.00  0.00    -0.237 OA
ATOM     85  O   UNL     1      -4.048  11.428 -12.870  1.00  0.00    -0.744 OA
ENDBRANCH  81  82
ENDBRANCH  53  76
BRANCH  65  86
ATOM     86  C   UNL     1     -12.001   7.431  -5.946  1.00  0.00    -0.014 A 
ATOM     87  C   UNL     1     -11.831   7.873  -4.621  1.00  0.00     0.010 A 
ATOM     88  C   UNL     1     -13.125   7.859  -6.674  1.00  0.00     0.010 A 
ATOM     89  C   UNL     1     -12.783   8.703  -4.024  1.00  0.00     0.020 A 
ATOM     90  C   UNL     1     -14.066   8.711  -6.088  1.00  0.00     0.020 A 
ATOM     91  C   UNL     1     -13.900   9.109  -4.759  1.00  0.00     0.054 A 
BRANCH  91  92
ATOM     92  S   UNL     1     -15.135  10.174  -3.965  1.00  0.00     0.124 S 
ATOM     93  O   UNL     1     -15.900   9.218  -3.171  1.00  0.00    -0.237 OA
ATOM     94  O   UNL     1     -14.312  11.110  -3.203  1.00  0.00    -0.237 OA
ATOM     95  O   UNL     1     -15.851  10.766  -5.093  1.00  0.00    -0.744 OA
ENDBRANCH  91  92
ENDBRANCH  65  86
ENDBRANCH  39  40
ENDBRANCH  31  34
ENDBRANCH  29  30
ENDBRANCH  28  29
ENDBRANCH   1  28
TORSDOF 18
