REMARK SMILES CC(C)(C)c1cc2c(cc1Cl)C=C(C(=O)NCCCCCCNC(=O)c1ccc(-c3c4nc(c(-c5ccc(S(=O)(=O)[O-])cc5)c5ccc([nH]5)c(-c5ccc(S(=O)(=O)[O-])cc5)c5nc(c(-c6ccc(S(=O)(=O)[O-])cc6)c6ccc3[nH]6)C=C5)C=C4)cc1)[C@@H](C(F)(F)F)O2
REMARK SMILES IDX 20 1 19 2 18 3 17 4 16 5 14 6 15 7 13 9 5 10 6 11 10 12 7 13
REMARK SMILES IDX 9 14 11 15 8 16 91 17 12 18 86 19 2 20 1 21 3 22 4 23 87 24
REMARK SMILES IDX 88 25 89 26 90 27 21 28 22 29 23 30 24 31 25 33 26 34 27 35
REMARK SMILES IDX 85 36 28 37 84 38 29 39 30 40 31 41 78 42 32 43 83 44 77 45
REMARK SMILES IDX 79 46 33 47 82 48 76 49 75 50 34 52 64 53 45 54 63 55 46 56
REMARK SMILES IDX 49 57 62 58 80 59 47 60 48 61 61 63 81 64 50 65 35 66 36 67
REMARK SMILES IDX 44 68 37 69 43 70 38 71 39 72 40 73 41 74 42 75 65 76 66 77
REMARK SMILES IDX 74 78 67 79 73 80 68 81 69 82 70 83 71 84 72 85 51 86 52 87
REMARK SMILES IDX 60 88 53 89 59 90 54 91 55 92 56 93 57 94 58 95
REMARK H PARENT 16 8 23 32 79 51 49 62
REMARK Flexibility Score: inf
ROOT
ATOM      1  C   UNL     1       9.135  -9.069   2.946  1.00  0.00     0.002 C 
ENDROOT
BRANCH   1   2
ATOM      2  C   UNL     1       8.000  -8.856   3.955  1.00  0.00     0.002 C 
BRANCH   2   3
ATOM      3  C   UNL     1       7.266  -7.514   3.859  1.00  0.00     0.021 C 
BRANCH   3   4
ATOM      4  C   UNL     1       6.684  -7.213   2.481  1.00  0.00     0.116 C 
BRANCH   4   5
ATOM      5  N   UNL     1       5.406  -7.872   2.275  1.00  0.00    -0.352 N 
ATOM      6  C   UNL     1       4.131  -7.507   2.008  1.00  0.00     0.251 C 
ATOM      7  O   UNL     1       3.334  -8.444   1.885  1.00  0.00    -0.270 OA
ATOM      8  H   UNL     1       5.491  -8.850   2.349  1.00  0.00     0.163 HD
BRANCH   6   9
ATOM      9  C   UNL     1       3.641  -6.102   1.862  1.00  0.00     0.067 C 
ATOM     10  C   UNL     1       0.669  -1.978   1.412  1.00  0.00    -0.020 A 
ATOM     11  C   UNL     1       2.045  -2.236   1.631  1.00  0.00     0.053 A 
ATOM     12  C   UNL     1      -0.150  -3.119   1.274  1.00  0.00     0.045 A 
ATOM     13  C   UNL     1       2.566  -3.525   1.736  1.00  0.00     0.128 A 
ATOM     14  C   UNL     1       0.384  -4.421   1.392  1.00  0.00     0.032 A 
ATOM     15  Cl  UNL     1      -1.845  -3.096   0.937  1.00  0.00    -0.084 Cl
ATOM     16  C   UNL     1       1.741  -4.629   1.630  1.00  0.00     0.019 A 
ATOM     17  O   UNL     1       3.900  -3.614   1.990  1.00  0.00    -0.475 OA
ATOM     18  C   UNL     1       2.303  -5.962   1.797  1.00  0.00     0.025 C 
ATOM     19  C   UNL     1       4.534  -4.897   1.741  1.00  0.00     0.314 C 
BRANCH  10  20
ATOM     20  C   UNL     1       0.259  -0.486   1.330  1.00  0.00    -0.012 C 
ATOM     21  C   UNL     1       0.869   0.117   0.043  1.00  0.00     0.016 C 
ATOM     22  C   UNL     1       0.821   0.285   2.558  1.00  0.00     0.016 C 
ATOM     23  C   UNL     1      -1.247  -0.159   1.307  1.00  0.00     0.016 C 
ENDBRANCH  10  20
BRANCH  19  24
ATOM     24  C   UNL     1       5.265  -4.832   0.389  1.00  0.00     0.429 C 
ATOM     25  F   UNL     1       6.265  -3.918   0.432  1.00  0.00    -0.167 F 
ATOM     26  F   UNL     1       5.837  -6.010   0.050  1.00  0.00    -0.167 F 
ATOM     27  F   UNL     1       4.439  -4.487  -0.625  1.00  0.00    -0.167 F 
ENDBRANCH  19  24
ENDBRANCH   6   9
ENDBRANCH   4   5
ENDBRANCH   3   4
ENDBRANCH   2   3
ENDBRANCH   1   2
BRANCH   1  28
ATOM     28  C   UNL     1      10.137  -7.919   2.815  1.00  0.00     0.021 C 
BRANCH  28  29
ATOM     29  C   UNL     1      10.837  -7.518   4.108  1.00  0.00     0.116 C 
BRANCH  29  30
ATOM     30  N   UNL     1      11.671  -8.580   4.647  1.00  0.00    -0.352 N 
ATOM     31  C   UNL     1      12.981  -8.526   5.059  1.00  0.00     0.251 C 
ATOM     32  H   UNL     1      11.237  -9.460   4.728  1.00  0.00     0.163 HD
ATOM     33  O   UNL     1      13.577  -9.557   5.357  1.00  0.00    -0.269 OA
BRANCH  31  34
ATOM     34  C   UNL     1      13.678  -7.222   5.106  1.00  0.00     0.039 A 
ATOM     35  C   UNL     1      13.070  -6.109   5.692  1.00  0.00     0.014 A 
ATOM     36  C   UNL     1      14.946  -7.108   4.528  1.00  0.00     0.014 A 
ATOM     37  C   UNL     1      13.660  -4.855   5.565  1.00  0.00     0.010 A 
ATOM     38  C   UNL     1      15.570  -5.858   4.467  1.00  0.00     0.010 A 
ATOM     39  C   UNL     1      14.912  -4.714   4.944  1.00  0.00    -0.014 A 
BRANCH  39  40
ATOM     40  C   UNL     1      15.512  -3.362   4.800  1.00  0.00     0.031 A 
ATOM     41  C   UNL     1      15.698  -2.746   3.439  1.00  0.00     0.074 A 
ATOM     42  C   UNL     1      15.836  -2.664   5.906  1.00  0.00     0.049 A 
ATOM     43  N   UNL     1      16.183  -1.570   3.131  1.00  0.00    -0.248 NA
ATOM     44  C   UNL     1      15.286  -3.545   2.273  1.00  0.00     0.031 C 
ATOM     45  C   UNL     1      15.676  -3.146   7.280  1.00  0.00     0.029 A 
ATOM     46  N   UNL     1      16.337  -1.395   6.055  1.00  0.00    -0.354 N 
ATOM     47  C   UNL     1      16.146  -1.492   1.744  1.00  0.00     0.074 A 
ATOM     48  C   UNL     1      15.618  -2.750   1.264  1.00  0.00     0.031 C 
ATOM     49  C   UNL     1      16.013  -2.165   8.130  1.00  0.00     0.029 A 
ATOM     50  C   UNL     1      16.476  -1.009   7.368  1.00  0.00     0.049 A 
ATOM     51  H   UNL     1      16.573  -0.815   5.295  1.00  0.00     0.167 HD
ATOM     52  C   UNL     1      16.508  -0.461   0.945  1.00  0.00     0.031 A 
ATOM     53  C   UNL     1      16.931   0.140   7.907  1.00  0.00     0.031 A 
ATOM     54  C   UNL     1      17.021   0.794   1.429  1.00  0.00     0.049 A 
ATOM     55  C   UNL     1      17.374   1.250   6.998  1.00  0.00     0.074 A 
ATOM     56  C   UNL     1      17.409   1.900   0.692  1.00  0.00     0.029 A 
ATOM     57  N   UNL     1      17.212   1.116   2.764  1.00  0.00    -0.354 N 
ATOM     58  N   UNL     1      17.340   1.298   5.688  1.00  0.00    -0.248 NA
ATOM     59  C   UNL     1      17.920   2.457   7.634  1.00  0.00     0.031 C 
ATOM     60  C   UNL     1      17.883   2.870   1.577  1.00  0.00     0.029 A 
ATOM     61  C   UNL     1      17.733   2.394   2.870  1.00  0.00     0.049 A 
ATOM     62  H   UNL     1      17.008   0.523   3.523  1.00  0.00     0.167 HD
ATOM     63  C   UNL     1      17.857   2.541   5.342  1.00  0.00     0.074 A 
ATOM     64  C   UNL     1      18.174   3.223   6.580  1.00  0.00     0.031 C 
ATOM     65  C   UNL     1      18.052   3.062   4.107  1.00  0.00     0.031 A 
BRANCH  52  66
ATOM     66  C   UNL     1      16.366  -0.625  -0.546  1.00  0.00    -0.014 A 
ATOM     67  C   UNL     1      17.517  -0.701  -1.353  1.00  0.00     0.010 A 
ATOM     68  C   UNL     1      15.101  -0.580  -1.159  1.00  0.00     0.010 A 
ATOM     69  C   UNL     1      17.408  -0.699  -2.746  1.00  0.00     0.020 A 
ATOM     70  C   UNL     1      14.988  -0.603  -2.553  1.00  0.00     0.020 A 
ATOM     71  C   UNL     1      16.144  -0.639  -3.337  1.00  0.00     0.054 A 
BRANCH  71  72
ATOM     72  S   UNL     1      16.021  -0.614  -5.147  1.00  0.00     0.124 S 
ATOM     73  O   UNL     1      16.377   0.766  -5.461  1.00  0.00    -0.237 OA
ATOM     74  O   UNL     1      16.995  -1.626  -5.549  1.00  0.00    -0.237 OA
ATOM     75  O   UNL     1      14.627  -0.974  -5.398  1.00  0.00    -0.744 OA
ENDBRANCH  71  72
ENDBRANCH  52  66
BRANCH  53  76
ATOM     76  C   UNL     1      16.968   0.279   9.388  1.00  0.00    -0.014 A 
ATOM     77  C   UNL     1      17.856  -0.501  10.152  1.00  0.00     0.010 A 
ATOM     78  C   UNL     1      16.052   1.116  10.047  1.00  0.00     0.010 A 
ATOM     79  C   UNL     1      17.786  -0.494  11.547  1.00  0.00     0.020 A 
ATOM     80  C   UNL     1      15.999   1.148  11.444  1.00  0.00     0.020 A 
ATOM     81  C   UNL     1      16.845   0.318  12.184  1.00  0.00     0.054 A 
BRANCH  81  82
ATOM     82  S   UNL     1      16.729   0.268  13.993  1.00  0.00     0.124 S 
ATOM     83  O   UNL     1      15.967  -0.959  14.209  1.00  0.00    -0.237 OA
ATOM     84  O   UNL     1      18.130   0.219  14.405  1.00  0.00    -0.237 OA
ATOM     85  O   UNL     1      16.029   1.507  14.323  1.00  0.00    -0.744 OA
ENDBRANCH  81  82
ENDBRANCH  53  76
BRANCH  65  86
ATOM     86  C   UNL     1      18.646   4.441   4.005  1.00  0.00    -0.014 A 
ATOM     87  C   UNL     1      17.855   5.509   3.542  1.00  0.00     0.010 A 
ATOM     88  C   UNL     1      20.017   4.649   4.232  1.00  0.00     0.010 A 
ATOM     89  C   UNL     1      18.432   6.752   3.271  1.00  0.00     0.020 A 
ATOM     90  C   UNL     1      20.593   5.899   3.986  1.00  0.00     0.020 A 
ATOM     91  C   UNL     1      19.801   6.934   3.481  1.00  0.00     0.054 A 
BRANCH  91  92
ATOM     92  S   UNL     1      20.542   8.541   3.085  1.00  0.00     0.124 S 
ATOM     93  O   UNL     1      20.659   8.476   1.632  1.00  0.00    -0.237 OA
ATOM     94  O   UNL     1      19.553   9.488   3.595  1.00  0.00    -0.237 OA
ATOM     95  O   UNL     1      21.808   8.523   3.816  1.00  0.00    -0.744 OA
ENDBRANCH  91  92
ENDBRANCH  65  86
ENDBRANCH  39  40
ENDBRANCH  31  34
ENDBRANCH  29  30
ENDBRANCH  28  29
ENDBRANCH   1  28
TORSDOF 18
