REMARK SMILES COc1ccc(-n2ccnc2C[N@@H+]2CCn3nc(C(=O)NCCCCCCNC(=O)c4ccc(-c5c6nc(c(-c7ccc(S(=O)(=O)[O-])cc7)c7ccc([nH]7)c(-c7ccc(S(=O)(=O)[O-])cc7)c7nc(c(-c8ccc(S(=O)(=O)[O-])cc8)c8ccc5[nH]8)C=C7)C=C6)cc4)cc3C2)cc1
REMARK SMILES IDX 24 1 23 2 22 3 21 4 19 5 20 6 18 8 13 9 14 10 93 11 15 13
REMARK SMILES IDX 92 14 16 15 91 16 17 17 12 18 11 19 7 20 8 21 9 22 10 23
REMARK SMILES IDX 6 24 3 25 4 26 95 27 5 28 94 29 2 30 1 31 25 32 26 33 27 34
REMARK SMILES IDX 28 35 29 36 30 38 31 39 32 40 90 41 33 42 89 43 34 44 35 45
REMARK SMILES IDX 36 46 83 47 37 48 88 49 82 50 84 51 38 52 87 53 81 54 80 55
REMARK SMILES IDX 39 57 69 58 50 59 68 60 51 61 54 62 67 63 85 64 52 65 53 66
REMARK SMILES IDX 66 68 86 69 55 70 40 71 41 72 49 73 42 74 48 75 43 76 44 77
REMARK SMILES IDX 45 78 46 79 47 80 70 81 71 82 79 83 72 84 78 85 73 86 74 87
REMARK SMILES IDX 75 88 76 89 77 90 56 91 57 92 65 93 58 94 64 95 59 96 60 97
REMARK SMILES IDX 61 98 62 99 63 100
REMARK H PARENT 21 7 13 12 28 37 84 56 54 67
REMARK Flexibility Score: inf
ROOT
ATOM      1  C   UNL     1       0.136   3.123  -5.774  1.00  0.00     0.002 C 
ENDROOT
BRANCH   1   2
ATOM      2  C   UNL     1       0.668   4.188  -4.813  1.00  0.00     0.021 C 
BRANCH   2   3
ATOM      3  C   UNL     1      -0.080   4.346  -3.493  1.00  0.00     0.116 C 
BRANCH   3   4
ATOM      4  N   UNL     1       0.079   3.232  -2.560  1.00  0.00    -0.351 N 
ATOM      5  C   UNL     1       0.996   3.287  -1.339  1.00  0.00     0.271 C 
ATOM      6  O   UNL     1       2.043   2.955  -2.030  1.00  0.00    -0.267 OA
ATOM      7  H   UNL     1      -0.429   2.405  -2.726  1.00  0.00     0.163 HD
BRANCH   5   8
ATOM      8  C   UNL     1       0.666   3.613   0.693  1.00  0.00     0.150 A 
ATOM      9  N   UNL     1       0.706   7.149   2.646  1.00  0.00    -0.322 N 
ATOM     10  C   UNL     1       2.089   6.680   2.941  1.00  0.00     0.286 C 
ATOM     11  C   UNL     1      -0.324   6.222   3.158  1.00  0.00     0.319 C 
ATOM     12  H   UNL     1       0.673   8.025   3.167  1.00  0.00     0.348 HD
ATOM     13  C   UNL     1       2.244   5.197   3.359  1.00  0.00     0.206 C 
ATOM     14  C   UNL     1      -0.034   4.890   2.580  1.00  0.00     0.094 A 
ATOM     15  N   UNL     1       1.224   4.419   2.682  1.00  0.00    -0.257 N 
ATOM     16  C   UNL     1      -0.601   4.147   1.580  1.00  0.00     0.065 A 
ATOM     17  N   UNL     1       1.534   3.452   1.820  1.00  0.00    -0.167 NA
BRANCH   9  18
ATOM     18  C   UNL     1       0.398   7.572   1.248  1.00  0.00     0.339 C 
BRANCH  18  19
ATOM     19  C   UNL     1       1.476   7.576   0.199  1.00  0.00     0.168 A 
ATOM     20  N   UNL     1       1.904   6.483  -0.540  1.00  0.00    -0.299 N 
ATOM     21  C   UNL     1       3.033   6.874  -1.214  1.00  0.00     0.113 A 
ATOM     22  C   UNL     1       3.182   8.212  -0.953  1.00  0.00     0.132 A 
ATOM     23  N   UNL     1       2.209   8.640  -0.092  1.00  0.00    -0.236 NA
BRANCH  20  24
ATOM     24  C   UNL     1       1.427   5.163  -0.540  1.00  0.00     0.047 A 
ATOM     25  C   UNL     1       0.306   1.708  -0.182  1.00  0.00     0.119 A 
ATOM     26  C   UNL     1      -0.911   3.011  -0.562  1.00  0.00     0.048 A 
ATOM     27  C   UNL     1       2.067   2.114   0.012  1.00  0.00     0.048 A 
ATOM     28  C   UNL     1      -0.337   4.767  -0.751  1.00  0.00     0.030 A 
ATOM     29  C   UNL     1       2.636   3.860  -0.167  1.00  0.00     0.030 A 
BRANCH  25  30
ATOM     30  O   UNL     1      -0.195   0.438  -0.101  1.00  0.00    -0.497 OA
ATOM     31  C   UNL     1       0.767  -0.501   0.357  1.00  0.00     0.278 C 
ENDBRANCH  25  30
ENDBRANCH  20  24
ENDBRANCH  18  19
ENDBRANCH   9  18
ENDBRANCH   5   8
ENDBRANCH   3   4
ENDBRANCH   2   3
ENDBRANCH   1   2
BRANCH   1  32
ATOM     32  C   UNL     1      -1.377   3.086  -6.040  1.00  0.00     0.002 C 
BRANCH  32  33
ATOM     33  C   UNL     1      -2.102   4.406  -6.340  1.00  0.00     0.021 C 
BRANCH  33  34
ATOM     34  C   UNL     1      -1.564   5.194  -7.519  1.00  0.00     0.116 C 
BRANCH  34  35
ATOM     35  N   UNL     1      -1.737   4.508  -8.798  1.00  0.00    -0.352 N 
ATOM     36  C   UNL     1      -1.271   4.908 -10.038  1.00  0.00     0.251 C 
ATOM     37  H   UNL     1      -2.243   3.664  -8.774  1.00  0.00     0.163 HD
ATOM     38  O   UNL     1      -1.790   4.496 -11.068  1.00  0.00    -0.269 OA
BRANCH  36  39
ATOM     39  C   UNL     1      -0.129   5.838 -10.087  1.00  0.00     0.039 A 
ATOM     40  C   UNL     1      -0.070   6.901 -10.993  1.00  0.00     0.014 A 
ATOM     41  C   UNL     1       0.883   5.644  -9.153  1.00  0.00     0.014 A 
ATOM     42  C   UNL     1       0.984   7.808 -10.892  1.00  0.00     0.010 A 
ATOM     43  C   UNL     1       1.796   6.636  -8.930  1.00  0.00     0.010 A 
ATOM     44  C   UNL     1       1.908   7.676  -9.844  1.00  0.00    -0.014 A 
BRANCH  44  45
ATOM     45  C   UNL     1       2.960   8.660  -9.616  1.00  0.00     0.031 A 
ATOM     46  C   UNL     1       2.477  10.057  -9.462  1.00  0.00     0.074 A 
ATOM     47  C   UNL     1       4.230   8.302  -9.317  1.00  0.00     0.049 A 
ATOM     48  N   UNL     1       2.617  11.039 -10.290  1.00  0.00    -0.248 NA
ATOM     49  C   UNL     1       1.593  10.362  -8.324  1.00  0.00     0.031 C 
ATOM     50  C   UNL     1       4.767   6.947  -9.116  1.00  0.00     0.029 A 
ATOM     51  N   UNL     1       5.292   9.085  -8.994  1.00  0.00    -0.354 N 
ATOM     52  C   UNL     1       2.065  12.149  -9.656  1.00  0.00     0.074 A 
ATOM     53  C   UNL     1       1.263  11.631  -8.577  1.00  0.00     0.031 C 
ATOM     54  C   UNL     1       5.949   7.015  -8.465  1.00  0.00     0.029 A 
ATOM     55  C   UNL     1       6.346   8.406  -8.389  1.00  0.00     0.049 A 
ATOM     56  H   UNL     1       5.314  10.053  -9.172  1.00  0.00     0.167 HD
ATOM     57  C   UNL     1       2.553  13.403  -9.875  1.00  0.00     0.031 A 
ATOM     58  C   UNL     1       7.466   8.949  -7.853  1.00  0.00     0.031 A 
ATOM     59  C   UNL     1       3.426  13.433 -11.023  1.00  0.00     0.049 A 
ATOM     60  C   UNL     1       7.619  10.287  -8.467  1.00  0.00     0.074 A 
ATOM     61  C   UNL     1       3.296  13.166 -12.370  1.00  0.00     0.029 A 
ATOM     62  N   UNL     1       4.774  13.398 -10.750  1.00  0.00    -0.354 N 
ATOM     63  N   UNL     1       7.826  10.471  -9.742  1.00  0.00    -0.248 NA
ATOM     64  C   UNL     1       7.108  11.441  -7.747  1.00  0.00     0.031 C 
ATOM     65  C   UNL     1       4.530  12.556 -12.747  1.00  0.00     0.029 A 
ATOM     66  C   UNL     1       5.376  12.543 -11.635  1.00  0.00     0.049 A 
ATOM     67  H   UNL     1       5.229  13.903 -10.039  1.00  0.00     0.167 HD
ATOM     68  C   UNL     1       7.072  11.589 -10.066  1.00  0.00     0.074 A 
ATOM     69  C   UNL     1       6.760  12.212  -8.781  1.00  0.00     0.031 C 
ATOM     70  C   UNL     1       6.542  11.741 -11.316  1.00  0.00     0.031 A 
BRANCH  57  71
ATOM     71  C   UNL     1       2.639  14.470  -8.800  1.00  0.00    -0.014 A 
ATOM     72  C   UNL     1       3.213  15.716  -9.135  1.00  0.00     0.010 A 
ATOM     73  C   UNL     1       2.470  14.202  -7.426  1.00  0.00     0.010 A 
ATOM     74  C   UNL     1       3.687  16.591  -8.149  1.00  0.00     0.020 A 
ATOM     75  C   UNL     1       2.899  15.087  -6.434  1.00  0.00     0.020 A 
ATOM     76  C   UNL     1       3.544  16.258  -6.803  1.00  0.00     0.054 A 
BRANCH  76  77
ATOM     77  S   UNL     1       4.278  17.325  -5.541  1.00  0.00     0.124 S 
ATOM     78  O   UNL     1       5.704  17.169  -5.812  1.00  0.00    -0.237 OA
ATOM     79  O   UNL     1       3.707  18.628  -5.869  1.00  0.00    -0.237 OA
ATOM     80  O   UNL     1       3.808  16.742  -4.286  1.00  0.00    -0.744 OA
ENDBRANCH  76  77
ENDBRANCH  57  71
BRANCH  58  81
ATOM     81  C   UNL     1       8.196   8.529  -6.631  1.00  0.00    -0.014 A 
ATOM     82  C   UNL     1       9.482   9.026  -6.347  1.00  0.00     0.010 A 
ATOM     83  C   UNL     1       7.505   7.872  -5.592  1.00  0.00     0.010 A 
ATOM     84  C   UNL     1      10.027   8.931  -5.054  1.00  0.00     0.020 A 
ATOM     85  C   UNL     1       8.043   7.770  -4.302  1.00  0.00     0.020 A 
ATOM     86  C   UNL     1       9.293   8.322  -4.033  1.00  0.00     0.054 A 
BRANCH  86  87
ATOM     87  S   UNL     1       9.922   8.367  -2.326  1.00  0.00     0.124 S 
ATOM     88  O   UNL     1      11.051   7.442  -2.387  1.00  0.00    -0.237 OA
ATOM     89  O   UNL     1      10.267   9.774  -2.149  1.00  0.00    -0.237 OA
ATOM     90  O   UNL     1       8.786   7.905  -1.529  1.00  0.00    -0.744 OA
ENDBRANCH  86  87
ENDBRANCH  58  81
BRANCH  70  91
ATOM     91  C   UNL     1       7.066  10.859 -12.428  1.00  0.00    -0.014 A 
ATOM     92  C   UNL     1       6.893   9.461 -12.479  1.00  0.00     0.010 A 
ATOM     93  C   UNL     1       7.625  11.504 -13.545  1.00  0.00     0.010 A 
ATOM     94  C   UNL     1       7.282   8.732 -13.616  1.00  0.00     0.020 A 
ATOM     95  C   UNL     1       7.999  10.788 -14.684  1.00  0.00     0.020 A 
ATOM     96  C   UNL     1       7.831   9.403 -14.714  1.00  0.00     0.054 A 
BRANCH  96  97
ATOM     97  S   UNL     1       8.278   8.471 -16.207  1.00  0.00     0.124 S 
ATOM     98  O   UNL     1       9.423   7.683 -15.760  1.00  0.00    -0.237 OA
ATOM     99  O   UNL     1       7.064   7.710 -16.492  1.00  0.00    -0.237 OA
ATOM    100  O   UNL     1       8.589   9.511 -17.187  1.00  0.00    -0.744 OA
ENDBRANCH  96  97
ENDBRANCH  70  91
ENDBRANCH  44  45
ENDBRANCH  36  39
ENDBRANCH  34  35
ENDBRANCH  33  34
ENDBRANCH  32  33
ENDBRANCH   1  32
TORSDOF 20
