REMARK SMILES O=C(CCSc1nc(-c2cccs2)cc(C(F)(F)F)n1)NCCCCCCNC(=O)c1ccc(-c2c3nc(c(-c4ccc(S(=O)(=O)[O-])cc4)c4ccc([nH]4)c(-c4ccc(S(=O)(=O)[O-])cc4)c4nc(c(-c5ccc(S(=O)(=O)[O-])cc5)c5ccc2[nH]5)C=C4)C=C3)cc1
REMARK SMILES IDX 24 1 23 2 22 3 21 4 1 5 2 6 3 8 4 9 5 10 6 11 7 12 20 13
REMARK SMILES IDX 8 14 15 15 14 16 9 17 10 18 13 19 11 20 12 21 16 22 17 23
REMARK SMILES IDX 18 24 19 25 25 26 26 27 27 28 28 29 29 30 30 32 31 33 32 34
REMARK SMILES IDX 90 35 33 36 89 37 34 38 35 39 36 40 83 41 37 42 88 43 82 44
REMARK SMILES IDX 84 45 38 46 87 47 81 48 80 49 39 51 69 52 50 53 68 54 51 55
REMARK SMILES IDX 54 56 67 57 85 58 52 59 53 60 66 62 86 63 55 64 40 65 41 66
REMARK SMILES IDX 49 67 42 68 48 69 43 70 44 71 45 72 46 73 47 74 70 75 71 76
REMARK SMILES IDX 79 77 72 78 78 79 73 80 74 81 75 82 76 83 77 84 56 85 57 86
REMARK SMILES IDX 65 87 58 88 64 89 59 90 60 91 61 92 62 93 63 94
REMARK H PARENT 21 7 28 31 84 50 54 61
REMARK Flexibility Score: inf
ROOT
ATOM      1  C   UNL     1       5.191  -2.418   2.154  1.00  0.00     0.002 C 
ENDROOT
BRANCH   1   2
ATOM      2  C   UNL     1       3.838  -2.941   1.492  1.00  0.00     0.021 C 
BRANCH   2   3
ATOM      3  C   UNL     1       2.688  -2.108   0.862  1.00  0.00     0.116 C 
BRANCH   3   4
ATOM      4  N   UNL     1       3.170  -1.098  -0.046  1.00  0.00    -0.356 N 
ATOM      5  O   UNL     1       1.179   0.013  -0.452  1.00  0.00    -0.275 OA
ATOM      6  C   UNL     1       2.390  -0.064  -0.525  1.00  0.00     0.220 C 
ATOM      7  H   UNL     1       4.107  -1.149  -0.342  1.00  0.00     0.163 HD
BRANCH   6   8
ATOM      8  C   UNL     1       3.253   1.052  -1.065  1.00  0.00     0.111 C 
BRANCH   8   9
ATOM      9  C   UNL     1       3.736   1.961   0.071  1.00  0.00     0.088 C 
BRANCH   9  10
ATOM     10  S   UNL     1       4.687   1.134   1.423  1.00  0.00    -0.086 SA
BRANCH  10  11
ATOM     11  C   UNL     1       3.425   0.802   2.662  1.00  0.00     0.188 A 
ATOM     12  N   UNL     1       3.172  -0.471   3.046  1.00  0.00    -0.222 NA
ATOM     13  N   UNL     1       2.944   1.862   3.296  1.00  0.00    -0.218 NA
ATOM     14  C   UNL     1       2.312  -0.709   4.073  1.00  0.00     0.085 A 
ATOM     15  C   UNL     1       2.165   1.623   4.384  1.00  0.00     0.149 A 
ATOM     16  C   UNL     1       1.799   0.342   4.792  1.00  0.00     0.063 A 
BRANCH  14  17
ATOM     17  C   UNL     1       1.964  -2.135   4.406  1.00  0.00     0.053 A 
ATOM     18  C   UNL     1       0.742  -2.703   4.748  1.00  0.00     0.022 A 
ATOM     19  S   UNL     1       3.137  -3.386   4.479  1.00  0.00    -0.142 S 
ATOM     20  C   UNL     1       0.792  -4.127   4.960  1.00  0.00     0.012 A 
ATOM     21  C   UNL     1       2.057  -4.631   4.808  1.00  0.00     0.065 A 
ENDBRANCH  14  17
BRANCH  15  22
ATOM     22  C   UNL     1       1.725   2.832   5.184  1.00  0.00     0.433 C 
ATOM     23  F   UNL     1       2.763   3.661   5.493  1.00  0.00    -0.165 F 
ATOM     24  F   UNL     1       0.815   3.596   4.520  1.00  0.00    -0.165 F 
ATOM     25  F   UNL     1       1.147   2.505   6.373  1.00  0.00    -0.165 F 
ENDBRANCH  15  22
ENDBRANCH  10  11
ENDBRANCH   9  10
ENDBRANCH   8   9
ENDBRANCH   6   8
ENDBRANCH   3   4
ENDBRANCH   2   3
ENDBRANCH   1   2
BRANCH   1  26
ATOM     26  C   UNL     1       5.849  -1.852   3.531  1.00  0.00     0.002 C 
BRANCH  26  27
ATOM     27  C   UNL     1       5.478  -1.316   4.973  1.00  0.00     0.021 C 
BRANCH  27  28
ATOM     28  C   UNL     1       5.367  -2.129   6.306  1.00  0.00     0.116 C 
BRANCH  28  29
ATOM     29  N   UNL     1       6.418  -3.082   6.586  1.00  0.00    -0.352 N 
ATOM     30  C   UNL     1       6.583  -3.855   7.721  1.00  0.00     0.251 C 
ATOM     31  H   UNL     1       7.098  -3.193   5.883  1.00  0.00     0.163 HD
ATOM     32  O   UNL     1       7.678  -4.374   7.934  1.00  0.00    -0.269 OA
BRANCH  30  33
ATOM     33  C   UNL     1       5.489  -4.075   8.711  1.00  0.00     0.039 A 
ATOM     34  C   UNL     1       5.737  -3.821  10.067  1.00  0.00     0.014 A 
ATOM     35  C   UNL     1       4.292  -4.701   8.352  1.00  0.00     0.014 A 
ATOM     36  C   UNL     1       4.789  -4.165  11.046  1.00  0.00     0.010 A 
ATOM     37  C   UNL     1       3.332  -5.024   9.333  1.00  0.00     0.010 A 
ATOM     38  C   UNL     1       3.569  -4.769  10.695  1.00  0.00    -0.014 A 
BRANCH  38  39
ATOM     39  C   UNL     1       2.567  -5.127  11.753  1.00  0.00     0.031 A 
ATOM     40  C   UNL     1       2.250  -6.569  12.081  1.00  0.00     0.074 A 
ATOM     41  C   UNL     1       1.935  -4.151  12.441  1.00  0.00     0.049 A 
ATOM     42  N   UNL     1       1.446  -7.054  12.998  1.00  0.00    -0.248 NA
ATOM     43  C   UNL     1       2.915  -7.599  11.269  1.00  0.00     0.031 C 
ATOM     44  C   UNL     1       2.122  -2.715  12.224  1.00  0.00     0.029 A 
ATOM     45  N   UNL     1       1.017  -4.212  13.464  1.00  0.00    -0.354 N 
ATOM     46  C   UNL     1       1.510  -8.440  12.876  1.00  0.00     0.074 A 
ATOM     47  C   UNL     1       2.392  -8.715  11.761  1.00  0.00     0.031 C 
ATOM     48  C   UNL     1       1.370  -2.034  13.104  1.00  0.00     0.029 A 
ATOM     49  C   UNL     1       0.618  -2.978  13.927  1.00  0.00     0.049 A 
ATOM     50  H   UNL     1       0.678  -5.060  13.832  1.00  0.00     0.167 HD
ATOM     51  C   UNL     1       0.911  -9.398  13.629  1.00  0.00     0.031 A 
ATOM     52  C   UNL     1      -0.252  -2.635  14.900  1.00  0.00     0.031 A 
ATOM     53  C   UNL     1       0.022  -9.130  14.733  1.00  0.00     0.049 A 
ATOM     54  C   UNL     1      -0.935  -3.715  15.699  1.00  0.00     0.074 A 
ATOM     55  C   UNL     1      -0.608 -10.035  15.573  1.00  0.00     0.029 A 
ATOM     56  N   UNL     1      -0.369  -7.867  15.151  1.00  0.00    -0.354 N 
ATOM     57  N   UNL     1      -0.809  -5.017  15.602  1.00  0.00    -0.248 NA
ATOM     58  C   UNL     1      -1.867  -3.278  16.750  1.00  0.00     0.031 C 
ATOM     59  C   UNL     1      -1.426  -9.323  16.456  1.00  0.00     0.029 A 
ATOM     60  C   UNL     1      -1.250  -7.970  16.217  1.00  0.00     0.049 A 
ATOM     61  H   UNL     1      -0.066  -7.020  14.750  1.00  0.00     0.167 HD
ATOM     62  C   UNL     1      -1.618  -5.552  16.601  1.00  0.00     0.074 A 
ATOM     63  C   UNL     1      -2.214  -4.433  17.300  1.00  0.00     0.031 C 
ATOM     64  C   UNL     1      -1.843  -6.853  16.911  1.00  0.00     0.031 A 
BRANCH  51  65
ATOM     65  C   UNL     1       1.189 -10.842  13.280  1.00  0.00    -0.014 A 
ATOM     66  C   UNL     1       2.460 -11.409  13.488  1.00  0.00     0.010 A 
ATOM     67  C   UNL     1       0.154 -11.661  12.789  1.00  0.00     0.010 A 
ATOM     68  C   UNL     1       2.704 -12.748  13.166  1.00  0.00     0.020 A 
ATOM     69  C   UNL     1       0.385 -13.009  12.495  1.00  0.00     0.020 A 
ATOM     70  C   UNL     1       1.665 -13.539  12.668  1.00  0.00     0.054 A 
BRANCH  70  71
ATOM     71  S   UNL     1       2.009 -15.276  12.270  1.00  0.00     0.124 S 
ATOM     72  O   UNL     1       2.847 -15.152  11.080  1.00  0.00    -0.237 OA
ATOM     73  O   UNL     1       2.690 -15.750  13.471  1.00  0.00    -0.237 OA
ATOM     74  O   UNL     1       0.685 -15.849  12.040  1.00  0.00    -0.744 OA
ENDBRANCH  70  71
ENDBRANCH  51  65
BRANCH  52  75
ATOM     75  C   UNL     1      -0.530  -1.196  15.184  1.00  0.00    -0.014 A 
ATOM     76  C   UNL     1      -0.133  -0.607  16.398  1.00  0.00     0.010 A 
ATOM     77  C   UNL     1      -1.209  -0.406  14.236  1.00  0.00     0.010 A 
ATOM     78  C   UNL     1      -0.432   0.732  16.670  1.00  0.00     0.020 A 
ATOM     79  C   UNL     1      -1.479   0.942  14.490  1.00  0.00     0.020 A 
ATOM     80  C   UNL     1      -1.101   1.499  15.712  1.00  0.00     0.054 A 
BRANCH  80  81
ATOM     81  S   UNL     1      -1.445   3.245  16.069  1.00  0.00     0.124 S 
ATOM     82  O   UNL     1      -2.497   3.148  17.075  1.00  0.00    -0.237 OA
ATOM     83  O   UNL     1      -0.152   3.728  16.548  1.00  0.00    -0.237 OA
ATOM     84  O   UNL     1      -1.862   3.782  14.776  1.00  0.00    -0.744 OA
ENDBRANCH  80  81
ENDBRANCH  52  75
BRANCH  64  85
ATOM     85  C   UNL     1      -2.742  -7.145  18.087  1.00  0.00    -0.014 A 
ATOM     86  C   UNL     1      -4.125  -6.893  18.037  1.00  0.00     0.010 A 
ATOM     87  C   UNL     1      -2.195  -7.721  19.249  1.00  0.00     0.010 A 
ATOM     88  C   UNL     1      -4.936  -7.173  19.142  1.00  0.00     0.020 A 
ATOM     89  C   UNL     1      -3.007  -8.033  20.343  1.00  0.00     0.020 A 
ATOM     90  C   UNL     1      -4.371  -7.741  20.288  1.00  0.00     0.054 A 
BRANCH  90  91
ATOM     91  S   UNL     1      -5.451  -8.125  21.695  1.00  0.00     0.124 S 
ATOM     92  O   UNL     1      -5.757  -6.796  22.215  1.00  0.00    -0.237 OA
ATOM     93  O   UNL     1      -6.565  -8.825  21.060  1.00  0.00    -0.237 OA
ATOM     94  O   UNL     1      -4.614  -8.954  22.559  1.00  0.00    -0.744 OA
ENDBRANCH  90  91
ENDBRANCH  64  85
ENDBRANCH  38  39
ENDBRANCH  30  33
ENDBRANCH  28  29
ENDBRANCH  27  28
ENDBRANCH  26  27
ENDBRANCH   1  26
TORSDOF 21
