REMARK SMILES O=C(NCCCCCCNC(=O)[C@@H]1[C@H](C(=O)Nc2cccc(Cl)c2F)[C@@H]2C=C[C@H]1C2)c1ccc(-c2c3nc(c(-c4ccc(S(=O)(=O)[O-])cc4)c4ccc([nH]4)c(-c4ccc(S(=O)(=O)[O-])cc4)c4nc(c(-c5ccc(S(=O)(=O)[O-])cc5)c5ccc2[nH]5)C=C4)C=C3)cc1
REMARK SMILES IDX 6 1 5 2 4 3 3 4 1 5 2 6 31 8 32 9 90 10 33 11 89 12 34 13
REMARK SMILES IDX 35 14 36 15 83 16 37 17 88 18 82 19 84 20 38 21 87 22 81 23
REMARK SMILES IDX 80 24 39 26 69 27 50 28 68 29 51 30 54 31 67 32 85 33 52 34
REMARK SMILES IDX 53 35 66 37 86 38 55 39 40 40 41 41 49 42 42 43 48 44 43 45
REMARK SMILES IDX 44 46 45 47 46 48 47 49 70 50 71 51 79 52 72 53 78 54 73 55
REMARK SMILES IDX 74 56 75 57 76 58 77 59 56 60 57 61 65 62 58 63 64 64 59 65
REMARK SMILES IDX 60 66 61 67 62 68 63 69 7 70 8 71 9 72 10 73 11 74 12 76
REMARK SMILES IDX 13 77 14 78 29 79 26 80 28 81 30 82 27 83 15 84 16 85 17 86
REMARK SMILES IDX 18 88 19 89 24 90 20 91 22 92 25 93 21 94 23 95
REMARK H PARENT 3 7 84 25 54 36 10 75 17 87
REMARK Flexibility Score: inf
ROOT
ATOM      1  C   UNL     1       3.903   0.208   3.714  1.00  0.00     0.002 C 
ENDROOT
BRANCH   1   2
ATOM      2  C   UNL     1       4.313   0.841   2.381  1.00  0.00     0.021 C 
BRANCH   2   3
ATOM      3  C   UNL     1       4.296  -0.105   1.182  1.00  0.00     0.116 C 
BRANCH   3   4
ATOM      4  N   UNL     1       2.941  -0.486   0.819  1.00  0.00    -0.352 N 
ATOM      5  O   UNL     1       1.006  -0.276  -0.331  1.00  0.00    -0.269 OA
ATOM      6  C   UNL     1       2.225  -0.097  -0.282  1.00  0.00     0.251 C 
ATOM      7  H   UNL     1       2.483  -1.099   1.439  1.00  0.00     0.163 HD
BRANCH   6   8
ATOM      8  C   UNL     1       2.930   0.543  -1.408  1.00  0.00     0.039 A 
ATOM      9  C   UNL     1       4.071  -0.061  -1.949  1.00  0.00     0.014 A 
ATOM     10  C   UNL     1       2.450   1.746  -1.928  1.00  0.00     0.014 A 
ATOM     11  C   UNL     1       4.785   0.585  -2.953  1.00  0.00     0.010 A 
ATOM     12  C   UNL     1       3.129   2.357  -2.983  1.00  0.00     0.010 A 
ATOM     13  C   UNL     1       4.305   1.786  -3.498  1.00  0.00    -0.014 A 
BRANCH  13  14
ATOM     14  C   UNL     1       4.981   2.389  -4.673  1.00  0.00     0.031 A 
ATOM     15  C   UNL     1       5.628   3.740  -4.588  1.00  0.00     0.074 A 
ATOM     16  C   UNL     1       4.958   1.718  -5.841  1.00  0.00     0.049 A 
ATOM     17  N   UNL     1       6.186   4.446  -5.538  1.00  0.00    -0.248 NA
ATOM     18  C   UNL     1       5.643   4.388  -3.268  1.00  0.00     0.031 C 
ATOM     19  C   UNL     1       4.349   0.401  -6.042  1.00  0.00     0.029 A 
ATOM     20  N   UNL     1       5.442   2.053  -7.080  1.00  0.00    -0.354 N 
ATOM     21  C   UNL     1       6.594   5.633  -4.941  1.00  0.00     0.074 A 
ATOM     22  C   UNL     1       6.200   5.558  -3.549  1.00  0.00     0.031 C 
ATOM     23  C   UNL     1       4.501   0.037  -7.323  1.00  0.00     0.029 A 
ATOM     24  C   UNL     1       5.153   1.121  -8.047  1.00  0.00     0.049 A 
ATOM     25  H   UNL     1       5.947   2.880  -7.258  1.00  0.00     0.167 HD
ATOM     26  C   UNL     1       7.232   6.686  -5.506  1.00  0.00     0.031 A 
ATOM     27  C   UNL     1       5.347   1.147  -9.380  1.00  0.00     0.031 A 
ATOM     28  C   UNL     1       7.596   6.752  -6.899  1.00  0.00     0.049 A 
ATOM     29  C   UNL     1       6.016   2.340  -9.994  1.00  0.00     0.074 A 
ATOM     30  C   UNL     1       8.280   7.755  -7.563  1.00  0.00     0.029 A 
ATOM     31  N   UNL     1       7.286   5.786  -7.847  1.00  0.00    -0.354 N 
ATOM     32  N   UNL     1       6.445   3.432  -9.406  1.00  0.00    -0.248 NA
ATOM     33  C   UNL     1       6.236   2.307 -11.445  1.00  0.00     0.031 C 
ATOM     34  C   UNL     1       8.323   7.428  -8.923  1.00  0.00     0.029 A 
ATOM     35  C   UNL     1       7.734   6.185  -9.096  1.00  0.00     0.049 A 
ATOM     36  H   UNL     1       6.816   4.941  -7.660  1.00  0.00     0.167 HD
ATOM     37  C   UNL     1       7.006   4.208 -10.412  1.00  0.00     0.074 A 
ATOM     38  C   UNL     1       6.869   3.456 -11.644  1.00  0.00     0.031 C 
ATOM     39  C   UNL     1       7.589   5.428 -10.317  1.00  0.00     0.031 A 
BRANCH  26  40
ATOM     40  C   UNL     1       7.527   7.875  -4.626  1.00  0.00    -0.014 A 
ATOM     41  C   UNL     1       8.460   7.802  -3.575  1.00  0.00     0.010 A 
ATOM     42  C   UNL     1       6.863   9.094  -4.861  1.00  0.00     0.010 A 
ATOM     43  C   UNL     1       8.670   8.901  -2.736  1.00  0.00     0.020 A 
ATOM     44  C   UNL     1       7.094  10.205  -4.045  1.00  0.00     0.020 A 
ATOM     45  C   UNL     1       7.976  10.092  -2.969  1.00  0.00     0.054 A 
BRANCH  45  46
ATOM     46  S   UNL     1       8.243  11.490  -1.845  1.00  0.00     0.124 S 
ATOM     47  O   UNL     1       7.554  11.039  -0.638  1.00  0.00    -0.237 OA
ATOM     48  O   UNL     1       9.699  11.551  -1.749  1.00  0.00    -0.237 OA
ATOM     49  O   UNL     1       7.618  12.616  -2.534  1.00  0.00    -0.744 OA
ENDBRANCH  45  46
ENDBRANCH  26  40
BRANCH  27  50
ATOM     50  C   UNL     1       4.864   0.004 -10.199  1.00  0.00    -0.014 A 
ATOM     51  C   UNL     1       5.768  -0.914 -10.758  1.00  0.00     0.010 A 
ATOM     52  C   UNL     1       3.481  -0.222 -10.343  1.00  0.00     0.010 A 
ATOM     53  C   UNL     1       5.298  -2.041 -11.439  1.00  0.00     0.020 A 
ATOM     54  C   UNL     1       3.007  -1.362 -10.996  1.00  0.00     0.020 A 
ATOM     55  C   UNL     1       3.921  -2.264 -11.543  1.00  0.00     0.054 A 
BRANCH  55  56
ATOM     56  S   UNL     1       3.340  -3.785 -12.343  1.00  0.00     0.124 S 
ATOM     57  O   UNL     1       3.642  -3.525 -13.747  1.00  0.00    -0.237 OA
ATOM     58  O   UNL     1       4.157  -4.811 -11.699  1.00  0.00    -0.237 OA
ATOM     59  O   UNL     1       1.919  -3.829 -12.006  1.00  0.00    -0.744 OA
ENDBRANCH  55  56
ENDBRANCH  27  50
BRANCH  39  60
ATOM     60  C   UNL     1       8.165   6.027 -11.573  1.00  0.00    -0.014 A 
ATOM     61  C   UNL     1       7.338   6.554 -12.579  1.00  0.00     0.010 A 
ATOM     62  C   UNL     1       9.561   6.149 -11.697  1.00  0.00     0.010 A 
ATOM     63  C   UNL     1       7.899   7.191 -13.690  1.00  0.00     0.020 A 
ATOM     64  C   UNL     1      10.124   6.810 -12.791  1.00  0.00     0.020 A 
ATOM     65  C   UNL     1       9.289   7.324 -13.783  1.00  0.00     0.054 A 
BRANCH  65  66
ATOM     66  S   UNL     1       9.986   8.236 -15.188  1.00  0.00     0.124 S 
ATOM     67  O   UNL     1       9.760   7.311 -16.295  1.00  0.00    -0.237 OA
ATOM     68  O   UNL     1       9.179   9.453 -15.209  1.00  0.00    -0.237 OA
ATOM     69  O   UNL     1      11.386   8.430 -14.815  1.00  0.00    -0.744 OA
ENDBRANCH  65  66
ENDBRANCH  39  60
ENDBRANCH  13  14
ENDBRANCH   6   8
ENDBRANCH   3   4
ENDBRANCH   2   3
ENDBRANCH   1   2
BRANCH   1  70
ATOM     70  C   UNL     1       4.619  -1.092   4.073  1.00  0.00     0.002 C 
BRANCH  70  71
ATOM     71  C   UNL     1       6.139  -1.073   3.935  1.00  0.00     0.021 C 
BRANCH  71  72
ATOM     72  C   UNL     1       6.939  -0.371   5.033  1.00  0.00     0.116 C 
BRANCH  72  73
ATOM     73  N   UNL     1       6.940  -1.085   6.301  1.00  0.00    -0.356 N 
ATOM     74  C   UNL     1       7.962  -1.590   7.052  1.00  0.00     0.224 C 
ATOM     75  H   UNL     1       6.045  -1.228   6.685  1.00  0.00     0.163 HD
ATOM     76  O   UNL     1       7.761  -1.694   8.268  1.00  0.00    -0.275 OA
BRANCH  74  77
ATOM     77  C   UNL     1       9.340  -1.874   6.481  1.00  0.00     0.098 C 
ATOM     78  C   UNL     1       9.627  -2.355   5.052  1.00  0.00     0.099 C 
ATOM     79  C   UNL     1      10.335  -2.766   7.309  1.00  0.00     0.025 C 
ATOM     80  C   UNL     1      10.960  -3.144   5.190  1.00  0.00     0.025 C 
ATOM     81  C   UNL     1      10.254  -4.263   7.032  1.00  0.00    -0.027 C 
ATOM     82  C   UNL     1      11.594  -2.530   6.452  1.00  0.00     0.017 C 
ATOM     83  C   UNL     1      10.652  -4.488   5.771  1.00  0.00    -0.027 C 
BRANCH  78  84
ATOM     84  C   UNL     1       8.629  -3.026   4.122  1.00  0.00     0.228 C 
ATOM     85  O   UNL     1       8.598  -2.560   2.962  1.00  0.00    -0.274 OA
ATOM     86  N   UNL     1       7.855  -4.128   4.244  1.00  0.00    -0.323 N 
ATOM     87  H   UNL     1       7.373  -4.285   3.401  1.00  0.00     0.170 HD
BRANCH  86  88
ATOM     88  C   UNL     1       7.507  -5.127   5.175  1.00  0.00     0.078 A 
ATOM     89  C   UNL     1       7.260  -6.388   4.611  1.00  0.00     0.029 A 
ATOM     90  C   UNL     1       7.362  -5.027   6.553  1.00  0.00     0.165 A 
ATOM     91  C   UNL     1       7.051  -7.520   5.407  1.00  0.00     0.004 A 
ATOM     92  C   UNL     1       7.167  -6.152   7.364  1.00  0.00     0.078 A 
ATOM     93  F   UNL     1       7.325  -3.841   7.139  1.00  0.00    -0.203 F 
ATOM     94  C   UNL     1       7.043  -7.409   6.792  1.00  0.00     0.024 A 
ATOM     95  Cl  UNL     1       7.097  -6.000   9.082  1.00  0.00    -0.081 Cl
ENDBRANCH  86  88
ENDBRANCH  78  84
ENDBRANCH  74  77
ENDBRANCH  72  73
ENDBRANCH  71  72
ENDBRANCH  70  71
ENDBRANCH   1  70
TORSDOF 18
