REMARK SMILES O=C(CSc1ccc2ccccc2c1)NCCCCCCNC(=O)c1ccc(-c2c3nc(c(-c4ccc(S(=O)(=O)[O-])cc4)c4ccc([nH]4)c(-c4ccc(S(=O)(=O)[O-])cc4)c4nc(c(-c5ccc(S(=O)(=O)[O-])cc5)c5ccc2[nH]5)C=C4)C=C3)cc1
REMARK SMILES IDX 19 1 18 2 17 3 16 4 15 5 1 6 2 7 3 9 4 10 5 11 6 12 14 13
REMARK SMILES IDX 7 14 13 15 8 16 12 17 9 18 11 19 10 20 20 21 21 22 22 23
REMARK SMILES IDX 23 24 24 26 25 27 26 28 84 29 27 30 83 31 28 32 29 33 30 34
REMARK SMILES IDX 77 35 31 36 82 37 76 38 78 39 32 40 81 41 75 42 74 43 33 45
REMARK SMILES IDX 63 46 44 47 62 48 45 49 48 50 61 51 79 52 46 53 47 54 60 56
REMARK SMILES IDX 80 57 49 58 34 59 35 60 43 61 36 62 42 63 37 64 38 65 39 66
REMARK SMILES IDX 40 67 41 68 64 69 65 70 73 71 66 72 72 73 67 74 68 75 69 76
REMARK SMILES IDX 70 77 71 78 50 79 51 80 59 81 52 82 58 83 53 84 54 85 55 86
REMARK SMILES IDX 56 87 57 88
REMARK H PARENT 15 8 22 25 78 44 48 55
REMARK Flexibility Score: inf
ROOT
ATOM      1  C   UNL     1       4.735  -2.636   3.366  1.00  0.00     0.002 C 
ENDROOT
BRANCH   1   2
ATOM      2  C   UNL     1       4.295  -3.126   1.982  1.00  0.00     0.002 C 
BRANCH   2   3
ATOM      3  C   UNL     1       2.795  -3.011   1.687  1.00  0.00     0.021 C 
BRANCH   3   4
ATOM      4  C   UNL     1       2.230  -1.599   1.804  1.00  0.00     0.116 C 
BRANCH   4   5
ATOM      5  N   UNL     1       2.873  -0.682   0.885  1.00  0.00    -0.355 N 
ATOM      6  O   UNL     1       1.023  -0.249  -0.398  1.00  0.00    -0.274 OA
ATOM      7  C   UNL     1       2.202  -0.034  -0.127  1.00  0.00     0.230 C 
ATOM      8  H   UNL     1       3.837  -0.515   0.989  1.00  0.00     0.163 HD
BRANCH   7   9
ATOM      9  C   UNL     1       3.038   0.937  -0.944  1.00  0.00     0.174 C 
BRANCH   9  10
ATOM     10  S   UNL     1       4.242   1.884   0.057  1.00  0.00    -0.116 SA
BRANCH  10  11
ATOM     11  C   UNL     1       3.182   3.055   0.894  1.00  0.00     0.008 A 
ATOM     12  C   UNL     1       3.471   4.417   0.782  1.00  0.00     0.016 A 
ATOM     13  C   UNL     1       2.138   2.655   1.733  1.00  0.00     0.023 A 
ATOM     14  C   UNL     1       2.723   5.364   1.490  1.00  0.00     0.010 A 
ATOM     15  C   UNL     1       1.372   3.591   2.447  1.00  0.00    -0.017 A 
ATOM     16  C   UNL     1       1.673   4.965   2.332  1.00  0.00    -0.018 A 
ATOM     17  C   UNL     1       0.325   3.180   3.287  1.00  0.00     0.009 A 
ATOM     18  C   UNL     1       0.923   5.892   3.074  1.00  0.00     0.009 A 
ATOM     19  C   UNL     1      -0.411   4.113   4.016  1.00  0.00     0.001 A 
ATOM     20  C   UNL     1      -0.110   5.468   3.913  1.00  0.00     0.001 A 
ENDBRANCH  10  11
ENDBRANCH   9  10
ENDBRANCH   7   9
ENDBRANCH   4   5
ENDBRANCH   3   4
ENDBRANCH   2   3
ENDBRANCH   1   2
BRANCH   1  21
ATOM     21  C   UNL     1       4.041  -3.311   4.551  1.00  0.00     0.021 C 
BRANCH  21  22
ATOM     22  C   UNL     1       4.185  -4.828   4.605  1.00  0.00     0.116 C 
BRANCH  22  23
ATOM     23  N   UNL     1       5.567  -5.250   4.772  1.00  0.00    -0.352 N 
ATOM     24  C   UNL     1       6.101  -6.142   5.668  1.00  0.00     0.251 C 
ATOM     25  H   UNL     1       6.212  -4.836   4.154  1.00  0.00     0.163 HD
ATOM     26  O   UNL     1       7.324  -6.242   5.773  1.00  0.00    -0.269 OA
BRANCH  24  27
ATOM     27  C   UNL     1       5.216  -6.966   6.520  1.00  0.00     0.039 A 
ATOM     28  C   UNL     1       5.547  -7.145   7.866  1.00  0.00     0.014 A 
ATOM     29  C   UNL     1       4.074  -7.580   5.996  1.00  0.00     0.014 A 
ATOM     30  C   UNL     1       4.711  -7.899   8.694  1.00  0.00     0.010 A 
ATOM     31  C   UNL     1       3.201  -8.264   6.840  1.00  0.00     0.010 A 
ATOM     32  C   UNL     1       3.517  -8.445   8.194  1.00  0.00    -0.014 A 
BRANCH  32  33
ATOM     33  C   UNL     1       2.608  -9.237   9.066  1.00  0.00     0.031 A 
ATOM     34  C   UNL     1       2.356 -10.693   8.765  1.00  0.00     0.074 A 
ATOM     35  C   UNL     1       1.982  -8.645  10.103  1.00  0.00     0.049 A 
ATOM     36  N   UNL     1       1.559 -11.535   9.371  1.00  0.00    -0.248 NA
ATOM     37  C   UNL     1       3.078 -11.273   7.619  1.00  0.00     0.031 C 
ATOM     38  C   UNL     1       2.111  -7.235  10.480  1.00  0.00     0.029 A 
ATOM     39  N   UNL     1       1.106  -9.155  11.029  1.00  0.00    -0.354 N 
ATOM     40  C   UNL     1       1.682 -12.737   8.683  1.00  0.00     0.074 A 
ATOM     41  C   UNL     1       2.578 -12.498   7.573  1.00  0.00     0.031 C 
ATOM     42  C   UNL     1       1.361  -7.000  11.569  1.00  0.00     0.029 A 
ATOM     43  C   UNL     1       0.667  -8.227  11.945  1.00  0.00     0.049 A 
ATOM     44  H   UNL     1       0.819 -10.096  11.037  1.00  0.00     0.167 HD
ATOM     45  C   UNL     1       1.128 -13.940   8.965  1.00  0.00     0.031 A 
ATOM     46  C   UNL     1      -0.203  -8.348  12.968  1.00  0.00     0.031 A 
ATOM     47  C   UNL     1       0.241 -14.180  10.073  1.00  0.00     0.049 A 
ATOM     48  C   UNL     1      -0.823  -9.693  13.247  1.00  0.00     0.074 A 
ATOM     49  C   UNL     1      -0.361 -15.368  10.451  1.00  0.00     0.029 A 
ATOM     50  N   UNL     1      -0.161 -13.219  10.987  1.00  0.00    -0.354 N 
ATOM     51  N   UNL     1      -0.662 -10.826  12.605  1.00  0.00    -0.248 NA
ATOM     52  C   UNL     1      -1.726  -9.780  14.403  1.00  0.00     0.031 C 
ATOM     53  C   UNL     1      -1.161 -15.115  11.570  1.00  0.00     0.029 A 
ATOM     54  C   UNL     1      -1.005 -13.786  11.927  1.00  0.00     0.049 A 
ATOM     55  H   UNL     1       0.112 -12.274  10.970  1.00  0.00     0.167 HD
ATOM     56  C   UNL     1      -1.409 -11.767  13.306  1.00  0.00     0.074 A 
ATOM     57  C   UNL     1      -2.008 -11.074  14.427  1.00  0.00     0.031 C 
ATOM     58  C   UNL     1      -1.581 -13.087  13.047  1.00  0.00     0.031 A 
BRANCH  45  59
ATOM     59  C   UNL     1       1.483 -15.099   8.069  1.00  0.00    -0.014 A 
ATOM     60  C   UNL     1       2.780 -15.645   8.081  1.00  0.00     0.010 A 
ATOM     61  C   UNL     1       0.502 -15.687   7.251  1.00  0.00     0.010 A 
ATOM     62  C   UNL     1       3.098 -16.736   7.270  1.00  0.00     0.020 A 
ATOM     63  C   UNL     1       0.808 -16.799   6.460  1.00  0.00     0.020 A 
ATOM     64  C   UNL     1       2.108 -17.309   6.466  1.00  0.00     0.054 A 
BRANCH  64  65
ATOM     65  S   UNL     1       2.541 -18.753   5.458  1.00  0.00     0.124 S 
ATOM     66  O   UNL     1       3.399 -18.161   4.435  1.00  0.00    -0.237 OA
ATOM     67  O   UNL     1       3.216 -19.622   6.419  1.00  0.00    -0.237 OA
ATOM     68  O   UNL     1       1.250 -19.243   4.980  1.00  0.00    -0.744 OA
ENDBRANCH  64  65
ENDBRANCH  45  59
BRANCH  46  69
ATOM     69  C   UNL     1      -0.546  -7.166  13.809  1.00  0.00    -0.014 A 
ATOM     70  C   UNL     1      -0.166  -7.109  15.163  1.00  0.00     0.010 A 
ATOM     71  C   UNL     1      -1.289  -6.103  13.265  1.00  0.00     0.010 A 
ATOM     72  C   UNL     1      -0.563  -6.035  15.966  1.00  0.00     0.020 A 
ATOM     73  C   UNL     1      -1.657  -5.011  14.056  1.00  0.00     0.020 A 
ATOM     74  C   UNL     1      -1.311  -4.995  15.408  1.00  0.00     0.054 A 
BRANCH  74  75
ATOM     75  S   UNL     1      -1.814  -3.610  16.466  1.00  0.00     0.124 S 
ATOM     76  O   UNL     1      -2.867  -4.214  17.276  1.00  0.00    -0.237 OA
ATOM     77  O   UNL     1      -0.577  -3.287  17.173  1.00  0.00    -0.237 OA
ATOM     78  O   UNL     1      -2.260  -2.596  15.512  1.00  0.00    -0.744 OA
ENDBRANCH  74  75
ENDBRANCH  46  69
BRANCH  58  79
ATOM     79  C   UNL     1      -2.394 -13.888  14.032  1.00  0.00    -0.014 A 
ATOM     80  C   UNL     1      -3.784 -13.717  14.155  1.00  0.00     0.010 A 
ATOM     81  C   UNL     1      -1.750 -14.857  14.824  1.00  0.00     0.010 A 
ATOM     82  C   UNL     1      -4.507 -14.466  15.088  1.00  0.00     0.020 A 
ATOM     83  C   UNL     1      -2.475 -15.632  15.733  1.00  0.00     0.020 A 
ATOM     84  C   UNL     1      -3.847 -15.417  15.873  1.00  0.00     0.054 A 
BRANCH  84  85
ATOM     85  S   UNL     1      -4.811 -16.392  17.060  1.00  0.00     0.124 S 
ATOM     86  O   UNL     1      -5.090 -15.410  18.104  1.00  0.00    -0.237 OA
ATOM     87  O   UNL     1      -5.964 -16.813  16.267  1.00  0.00    -0.237 OA
ATOM     88  O   UNL     1      -3.901 -17.469  17.445  1.00  0.00    -0.744 OA
ENDBRANCH  84  85
ENDBRANCH  58  79
ENDBRANCH  32  33
ENDBRANCH  24  27
ENDBRANCH  22  23
ENDBRANCH  21  22
ENDBRANCH   1  21
TORSDOF 18
