REMARK SMILES C[C@H](c1ccncc1)[N@H+]1[C@@H]2CC[C@H]1C[C@H](CC(=O)NCCCCCCNC(=O)c1ccc(-c3c4nc(c(-c5ccc(S(=O)(=O)[O-])cc5)c5ccc([nH]5)c(-c5ccc(S(=O)(=O)[O-])cc5)c5nc(c(-c6ccc(S(=O)(=O)[O-])cc6)c6ccc3[nH]6)C=C5)C=C4)cc1)C2
REMARK SMILES IDX 22 1 21 2 20 3 19 4 17 5 18 6 16 8 15 9 9 10 10 11 13 12
REMARK SMILES IDX 11 14 89 15 12 16 14 17 2 18 1 19 3 20 4 21 8 22 5 23 7 24
REMARK SMILES IDX 6 25 23 26 24 27 25 28 26 29 27 30 28 32 29 33 30 34 88 35
REMARK SMILES IDX 31 36 87 37 32 38 33 39 34 40 81 41 35 42 86 43 80 44 82 45
REMARK SMILES IDX 36 46 85 47 79 48 78 49 37 51 67 52 48 53 66 54 49 55 52 56
REMARK SMILES IDX 65 57 83 58 50 59 51 60 64 62 84 63 53 64 38 65 39 66 47 67
REMARK SMILES IDX 40 68 46 69 41 70 42 71 43 72 44 73 45 74 68 75 69 76 77 77
REMARK SMILES IDX 70 78 76 79 71 80 72 81 73 82 74 83 75 84 54 85 55 86 63 87
REMARK SMILES IDX 56 88 62 89 57 90 58 91 59 92 60 93 61 94
REMARK H PARENT 19 7 9 13 26 31 82 50 52 61
REMARK Flexibility Score: inf
ROOT
ATOM      1  C   UNL     1      -0.512  -6.084  -0.802  1.00  0.00     0.002 C 
ENDROOT
BRANCH   1   2
ATOM      2  C   UNL     1      -0.541  -4.558  -0.784  1.00  0.00     0.021 C 
BRANCH   2   3
ATOM      3  C   UNL     1       0.365  -3.899  -1.830  1.00  0.00     0.116 C 
BRANCH   3   4
ATOM      4  N   UNL     1      -0.404  -3.542  -3.010  1.00  0.00    -0.356 N 
ATOM      5  C   UNL     1      -0.944  -2.353  -3.397  1.00  0.00     0.220 C 
ATOM      6  O   UNL     1      -1.689  -2.350  -4.380  1.00  0.00    -0.275 OA
ATOM      7  H   UNL     1      -0.561  -4.286  -3.636  1.00  0.00     0.163 HD
BRANCH   5   8
ATOM      8  C   UNL     1      -0.613  -1.057  -2.678  1.00  0.00     0.104 C 
BRANCH   8   9
ATOM      9  C   UNL     1      -1.605  -0.627  -1.571  1.00  0.00     0.010 C 
ATOM     10  N   UNL     1      -0.980   0.502   1.095  1.00  0.00    -0.324 N 
ATOM     11  C   UNL     1      -1.649   1.363   0.135  1.00  0.00     0.185 C 
ATOM     12  C   UNL     1      -1.699  -0.758   1.028  1.00  0.00     0.185 C 
ATOM     13  H   UNL     1      -1.028   0.977   1.997  1.00  0.00     0.349 HD
ATOM     14  C   UNL     1      -3.103   1.158   0.593  1.00  0.00     0.071 C 
ATOM     15  C   UNL     1      -1.495   0.901  -1.327  1.00  0.00     0.069 C 
ATOM     16  C   UNL     1      -3.151  -0.283   1.101  1.00  0.00     0.071 C 
ATOM     17  C   UNL     1      -1.415  -1.464  -0.293  1.00  0.00     0.069 C 
BRANCH  10  18
ATOM     18  C   UNL     1       0.458   0.501   1.362  1.00  0.00     0.212 C 
ATOM     19  C   UNL     1       0.800   1.689   2.273  1.00  0.00     0.081 C 
BRANCH  18  20
ATOM     20  C   UNL     1       1.428   0.425   0.192  1.00  0.00     0.012 A 
ATOM     21  C   UNL     1       1.674   1.513  -0.653  1.00  0.00     0.030 A 
ATOM     22  C   UNL     1       2.171  -0.742  -0.036  1.00  0.00     0.030 A 
ATOM     23  C   UNL     1       2.558   1.366  -1.712  1.00  0.00     0.111 A 
ATOM     24  C   UNL     1       3.053  -0.788  -1.108  1.00  0.00     0.111 A 
ATOM     25  N   UNL     1       3.246   0.234  -1.965  1.00  0.00    -0.265 NA
ENDBRANCH  18  20
ENDBRANCH  10  18
ENDBRANCH   8   9
ENDBRANCH   5   8
ENDBRANCH   3   4
ENDBRANCH   2   3
ENDBRANCH   1   2
BRANCH   1  26
ATOM     26  C   UNL     1       0.746  -6.698  -0.183  1.00  0.00     0.002 C 
BRANCH  26  27
ATOM     27  C   UNL     1       0.995  -6.361   1.292  1.00  0.00     0.021 C 
BRANCH  27  28
ATOM     28  C   UNL     1      -0.177  -6.622   2.238  1.00  0.00     0.116 C 
BRANCH  28  29
ATOM     29  N   UNL     1      -0.644  -7.997   2.166  1.00  0.00    -0.352 N 
ATOM     30  C   UNL     1      -0.693  -8.963   3.134  1.00  0.00     0.251 C 
ATOM     31  H   UNL     1      -0.977  -8.277   1.283  1.00  0.00     0.163 HD
ATOM     32  O   UNL     1      -0.914 -10.133   2.810  1.00  0.00    -0.269 OA
BRANCH  30  33
ATOM     33  C   UNL     1      -0.479  -8.623   4.556  1.00  0.00     0.039 A 
ATOM     34  C   UNL     1       0.292  -9.480   5.346  1.00  0.00     0.014 A 
ATOM     35  C   UNL     1      -1.079  -7.496   5.128  1.00  0.00     0.014 A 
ATOM     36  C   UNL     1       0.492  -9.189   6.697  1.00  0.00     0.010 A 
ATOM     37  C   UNL     1      -0.823  -7.171   6.459  1.00  0.00     0.010 A 
ATOM     38  C   UNL     1      -0.048  -8.022   7.261  1.00  0.00    -0.014 A 
BRANCH  38  39
ATOM     39  C   UNL     1       0.175  -7.695   8.693  1.00  0.00     0.031 A 
ATOM     40  C   UNL     1      -0.982  -7.675   9.657  1.00  0.00     0.074 A 
ATOM     41  C   UNL     1       1.415  -7.382   9.120  1.00  0.00     0.049 A 
ATOM     42  N   UNL     1      -0.984  -7.404  10.937  1.00  0.00    -0.248 NA
ATOM     43  C   UNL     1      -2.314  -7.975   9.106  1.00  0.00     0.031 C 
ATOM     44  C   UNL     1       2.611  -7.324   8.276  1.00  0.00     0.029 A 
ATOM     45  N   UNL     1       1.875  -7.053  10.370  1.00  0.00    -0.354 N 
ATOM     46  C   UNL     1      -2.312  -7.487  11.341  1.00  0.00     0.074 A 
ATOM     47  C   UNL     1      -3.093  -7.783  10.160  1.00  0.00     0.031 C 
ATOM     48  C   UNL     1       3.671  -7.011   9.038  1.00  0.00     0.029 A 
ATOM     49  C   UNL     1       3.228  -6.815  10.415  1.00  0.00     0.049 A 
ATOM     50  H   UNL     1       1.291  -6.994  11.160  1.00  0.00     0.167 HD
ATOM     51  C   UNL     1      -2.833  -7.351  12.584  1.00  0.00     0.031 A 
ATOM     52  C   UNL     1       4.025  -6.479  11.448  1.00  0.00     0.031 A 
ATOM     53  C   UNL     1      -2.051  -7.070  13.759  1.00  0.00     0.049 A 
ATOM     54  C   UNL     1       3.425  -6.343  12.821  1.00  0.00     0.074 A 
ATOM     55  C   UNL     1      -2.476  -6.966  15.072  1.00  0.00     0.029 A 
ATOM     56  N   UNL     1      -0.682  -6.848  13.764  1.00  0.00    -0.354 N 
ATOM     57  N   UNL     1       2.176  -6.489  13.192  1.00  0.00    -0.248 NA
ATOM     58  C   UNL     1       4.348  -6.014  13.916  1.00  0.00     0.031 C 
ATOM     59  C   UNL     1      -1.371  -6.636  15.865  1.00  0.00     0.029 A 
ATOM     60  C   UNL     1      -0.248  -6.589  15.053  1.00  0.00     0.049 A 
ATOM     61  H   UNL     1      -0.103  -6.871  12.968  1.00  0.00     0.167 HD
ATOM     62  C   UNL     1       2.166  -6.296  14.569  1.00  0.00     0.074 A 
ATOM     63  C   UNL     1       3.537  -6.039  14.965  1.00  0.00     0.031 C 
ATOM     64  C   UNL     1       1.118  -6.330  15.429  1.00  0.00     0.031 A 
BRANCH  51  65
ATOM     65  C   UNL     1      -4.324  -7.502  12.734  1.00  0.00    -0.014 A 
ATOM     66  C   UNL     1      -4.948  -8.754  12.574  1.00  0.00     0.010 A 
ATOM     67  C   UNL     1      -5.112  -6.386  13.070  1.00  0.00     0.010 A 
ATOM     68  C   UNL     1      -6.334  -8.877  12.702  1.00  0.00     0.020 A 
ATOM     69  C   UNL     1      -6.496  -6.510  13.227  1.00  0.00     0.020 A 
ATOM     70  C   UNL     1      -7.100  -7.753  13.023  1.00  0.00     0.054 A 
BRANCH  70  71
ATOM     71  S   UNL     1      -8.895  -7.944  13.199  1.00  0.00     0.124 S 
ATOM     72  O   UNL     1      -9.319  -8.091  11.808  1.00  0.00    -0.237 OA
ATOM     73  O   UNL     1      -9.011  -9.147  14.020  1.00  0.00    -0.237 OA
ATOM     74  O   UNL     1      -9.314  -6.706  13.850  1.00  0.00    -0.744 OA
ENDBRANCH  70  71
ENDBRANCH  51  65
BRANCH  52  75
ATOM     75  C   UNL     1       5.482  -6.276  11.225  1.00  0.00    -0.014 A 
ATOM     76  C   UNL     1       6.415  -7.210  11.707  1.00  0.00     0.010 A 
ATOM     77  C   UNL     1       5.943  -5.153  10.514  1.00  0.00     0.010 A 
ATOM     78  C   UNL     1       7.784  -7.017  11.499  1.00  0.00     0.020 A 
ATOM     79  C   UNL     1       7.309  -4.970  10.280  1.00  0.00     0.020 A 
ATOM     80  C   UNL     1       8.222  -5.899  10.784  1.00  0.00     0.054 A 
BRANCH  80  81
ATOM     81  S   UNL     1       9.999  -5.696  10.477  1.00  0.00     0.124 S 
ATOM     82  O   UNL     1      10.486  -5.272  11.786  1.00  0.00    -0.237 OA
ATOM     83  O   UNL     1      10.402  -7.034  10.053  1.00  0.00    -0.237 OA
ATOM     84  O   UNL     1      10.049  -4.678   9.430  1.00  0.00    -0.744 OA
ENDBRANCH  80  81
ENDBRANCH  52  75
BRANCH  64  85
ATOM     85  C   UNL     1       1.418  -6.115  16.889  1.00  0.00    -0.014 A 
ATOM     86  C   UNL     1       1.773  -4.846  17.382  1.00  0.00     0.010 A 
ATOM     87  C   UNL     1       1.306  -7.193  17.786  1.00  0.00     0.010 A 
ATOM     88  C   UNL     1       2.051  -4.670  18.740  1.00  0.00     0.020 A 
ATOM     89  C   UNL     1       1.554  -7.013  19.149  1.00  0.00     0.020 A 
ATOM     90  C   UNL     1       1.943  -5.756  19.614  1.00  0.00     0.054 A 
BRANCH  90  91
ATOM     91  S   UNL     1       2.283  -5.496  21.377  1.00  0.00     0.124 S 
ATOM     92  O   UNL     1       3.740  -5.406  21.395  1.00  0.00    -0.237 OA
ATOM     93  O   UNL     1       1.572  -4.252  21.661  1.00  0.00    -0.237 OA
ATOM     94  O   UNL     1       1.723  -6.685  22.015  1.00  0.00    -0.744 OA
ENDBRANCH  90  91
ENDBRANCH  64  85
ENDBRANCH  38  39
ENDBRANCH  30  33
ENDBRANCH  28  29
ENDBRANCH  27  28
ENDBRANCH  26  27
ENDBRANCH   1  26
TORSDOF 19
