REMARK SMILES Cc1ccc(NC(=O)COc2ccc(Cl)cc2C=C2SC(=S)N(CC(=O)NCCCCCCNC(=O)c3ccc(-c4c5nc(c(-c6ccc(S(=O)(=O)[O-])cc6)c6ccc([nH]6)c(-c6ccc(S(=O)(=O)[O-])cc6)c6nc(c(-c7ccc(S(=O)(=O)[O-])cc7)c7ccc4[nH]7)C=C6)C=C5)cc3)C2=O)cc1
REMARK SMILES IDX 29 1 28 2 27 3 25 4 26 5 24 7 23 8 18 9 19 10 20 11 97 12
REMARK SMILES IDX 21 13 98 14 22 15 17 16 11 17 12 18 13 19 16 20 14 21 15 22
REMARK SMILES IDX 10 23 9 24 7 25 6 26 8 28 5 29 1 30 2 31 3 32 100 33 4 34
REMARK SMILES IDX 99 35 30 36 31 37 32 38 33 39 34 40 35 41 36 43 37 44 38 45
REMARK SMILES IDX 96 46 39 47 95 48 40 49 41 50 42 51 89 52 43 53 94 54 88 55
REMARK SMILES IDX 90 56 44 57 93 58 87 59 86 60 45 62 75 63 56 64 74 65 57 66
REMARK SMILES IDX 60 67 73 68 91 69 58 70 59 71 72 73 92 74 61 75 46 76 47 77
REMARK SMILES IDX 55 78 48 79 54 80 49 81 50 82 51 83 52 84 53 85 76 86 77 87
REMARK SMILES IDX 85 88 78 89 84 90 79 91 80 92 81 93 82 94 83 95 62 96 63 97
REMARK SMILES IDX 71 98 64 99 70 100 65 101 66 102 67 103 68 104 69 105
REMARK H PARENT 27 6 6 27 34 42 90 61 60 72
REMARK Flexibility Score: inf
ROOT
ATOM      1  C   UNL     1       2.723  -0.955   1.945  1.00  0.00     0.021 C 
ENDROOT
BRANCH   1   2
ATOM      2  C   UNL     1       2.084  -1.751   3.129  1.00  0.00     0.116 C 
BRANCH   2   3
ATOM      3  N   UNL     1       1.124  -1.072   4.014  1.00  0.00    -0.355 N 
ATOM      4  C   UNL     1      -0.169  -1.354   4.398  1.00  0.00     0.240 C 
ATOM      5  O   UNL     1      -0.610  -0.772   5.396  1.00  0.00    -0.273 OA
ATOM      6  H   UNL     1       1.478  -0.245   4.414  1.00  0.00     0.163 HD
BRANCH   4   7
ATOM      7  C   UNL     1      -1.052  -2.387   3.666  1.00  0.00     0.227 C 
BRANCH   7   8
ATOM      8  N   UNL     1      -1.403  -2.130   2.273  1.00  0.00    -0.283 N 
ATOM      9  C   UNL     1      -2.670  -2.471  -0.785  1.00  0.00     0.033 C 
ATOM     10  C   UNL     1      -1.805  -3.037   0.075  1.00  0.00     0.081 C 
ATOM     11  S   UNL     1      -0.251  -2.199   0.056  1.00  0.00    -0.054 SA
ATOM     12  C   UNL     1      -2.235  -2.959   1.557  1.00  0.00     0.266 C 
ATOM     13  C   UNL     1      -0.722  -1.275   1.475  1.00  0.00     0.148 C 
ATOM     14  O   UNL     1      -3.231  -3.514   2.007  1.00  0.00    -0.268 OA
ATOM     15  S   UNL     1      -0.671   0.371   1.732  1.00  0.00    -0.052 S 
BRANCH   9  16
ATOM     16  C   UNL     1      -3.114  -2.881  -2.159  1.00  0.00     0.019 A 
ATOM     17  C   UNL     1      -4.265  -3.611  -2.126  1.00  0.00     0.127 A 
ATOM     18  C   UNL     1      -4.539  -4.497  -3.169  1.00  0.00     0.048 A 
ATOM     19  C   UNL     1      -4.005  -4.231  -4.433  1.00  0.00     0.024 A 
ATOM     20  C   UNL     1      -2.826  -2.415  -3.459  1.00  0.00     0.032 A 
ATOM     21  C   UNL     1      -3.319  -3.050  -4.593  1.00  0.00     0.041 A 
ATOM     22  Cl  UNL     1      -3.149  -2.310  -6.136  1.00  0.00    -0.084 Cl
BRANCH  17  23
ATOM     23  O   UNL     1      -5.150  -3.322  -1.127  1.00  0.00    -0.483 OA
BRANCH  23  24
ATOM     24  C   UNL     1      -5.498  -1.926  -0.970  1.00  0.00     0.329 C 
BRANCH  24  25
ATOM     25  C   UNL     1      -5.178  -0.286  -0.608  1.00  0.00     0.262 C 
ATOM     26  N   UNL     1      -4.200   0.657  -0.714  1.00  0.00    -0.323 N 
ATOM     27  H   UNL     1      -4.550   1.459  -0.263  1.00  0.00     0.170 HD
ATOM     28  O   UNL     1      -6.160   0.250  -0.026  1.00  0.00    -0.271 OA
BRANCH  26  29
ATOM     29  C   UNL     1      -2.908   1.008  -1.179  1.00  0.00     0.041 A 
ATOM     30  C   UNL     1       1.250   1.324  -1.505  1.00  0.00     0.044 C 
ATOM     31  C   UNL     1      -0.196   1.487  -1.706  1.00  0.00    -0.051 A 
ATOM     32  C   UNL     1      -0.801   0.403  -2.273  1.00  0.00     0.005 A 
ATOM     33  C   UNL     1      -0.947   2.458  -1.057  1.00  0.00     0.005 A 
ATOM     34  C   UNL     1      -2.112   0.191  -1.918  1.00  0.00     0.026 A 
ATOM     35  C   UNL     1      -2.317   2.227  -0.827  1.00  0.00     0.026 A 
ENDBRANCH  26  29
ENDBRANCH  24  25
ENDBRANCH  23  24
ENDBRANCH  17  23
ENDBRANCH   9  16
ENDBRANCH   7   8
ENDBRANCH   4   7
ENDBRANCH   2   3
ENDBRANCH   1   2
BRANCH   1  36
ATOM     36  C   UNL     1       3.382   0.435   2.164  1.00  0.00     0.002 C 
BRANCH  36  37
ATOM     37  C   UNL     1       4.945   0.546   2.307  1.00  0.00     0.002 C 
BRANCH  37  38
ATOM     38  C   UNL     1       6.057   0.255   1.165  1.00  0.00     0.021 C 
BRANCH  38  39
ATOM     39  C   UNL     1       6.470   1.425   0.150  1.00  0.00     0.116 C 
BRANCH  39  40
ATOM     40  N   UNL     1       7.633   1.335  -0.966  1.00  0.00    -0.352 N 
ATOM     41  C   UNL     1       8.002   1.333  -2.370  1.00  0.00     0.251 C 
ATOM     42  H   UNL     1       8.476   1.235  -0.467  1.00  0.00     0.163 HD
ATOM     43  O   UNL     1       9.116   1.873  -2.545  1.00  0.00    -0.269 OA
BRANCH  41  44
ATOM     44  C   UNL     1       7.372   0.874  -3.745  1.00  0.00     0.039 A 
ATOM     45  C   UNL     1       7.348   1.742  -4.886  1.00  0.00     0.014 A 
ATOM     46  C   UNL     1       6.757  -0.348  -4.004  1.00  0.00     0.014 A 
ATOM     47  C   UNL     1       6.328   1.614  -5.918  1.00  0.00     0.010 A 
ATOM     48  C   UNL     1       5.728  -0.467  -4.992  1.00  0.00     0.010 A 
ATOM     49  C   UNL     1       5.365   0.593  -5.835  1.00  0.00    -0.014 A 
BRANCH  49  50
ATOM     50  C   UNL     1       3.927   0.702  -6.322  1.00  0.00     0.031 A 
ATOM     51  C   UNL     1       3.413  -0.027  -7.480  1.00  0.00     0.074 A 
ATOM     52  C   UNL     1       2.907   1.314  -5.654  1.00  0.00     0.049 A 
ATOM     53  N   UNL     1       2.615   0.468  -8.371  1.00  0.00    -0.248 NA
ATOM     54  C   UNL     1       3.690  -1.440  -7.641  1.00  0.00     0.031 C 
ATOM     55  C   UNL     1       1.447   1.372  -5.833  1.00  0.00     0.029 A 
ATOM     56  N   UNL     1       3.036   2.070  -4.521  1.00  0.00    -0.354 N 
ATOM     57  C   UNL     1       2.003  -0.616  -8.964  1.00  0.00     0.074 A 
ATOM     58  C   UNL     1       2.850  -1.746  -8.632  1.00  0.00     0.031 C 
ATOM     59  C   UNL     1       0.930   2.359  -5.066  1.00  0.00     0.029 A 
ATOM     60  C   UNL     1       2.026   3.026  -4.394  1.00  0.00     0.049 A 
ATOM     61  H   UNL     1       3.762   1.952  -3.867  1.00  0.00     0.167 HD
ATOM     62  C   UNL     1       0.723  -0.542  -9.451  1.00  0.00     0.031 A 
ATOM     63  C   UNL     1       2.386   4.351  -4.410  1.00  0.00     0.031 A 
ATOM     64  C   UNL     1       0.054   0.733  -9.112  1.00  0.00     0.049 A 
ATOM     65  C   UNL     1       2.073   4.920  -5.803  1.00  0.00     0.074 A 
ATOM     66  C   UNL     1      -1.051   1.071  -8.339  1.00  0.00     0.029 A 
ATOM     67  N   UNL     1       0.706   1.937  -9.348  1.00  0.00    -0.354 N 
ATOM     68  N   UNL     1       1.294   4.298  -6.651  1.00  0.00    -0.248 NA
ATOM     69  C   UNL     1       2.591   6.156  -6.397  1.00  0.00     0.031 C 
ATOM     70  C   UNL     1      -1.027   2.481  -8.098  1.00  0.00     0.029 A 
ATOM     71  C   UNL     1       0.066   3.013  -8.754  1.00  0.00     0.049 A 
ATOM     72  H   UNL     1       1.532   2.017  -9.878  1.00  0.00     0.167 HD
ATOM     73  C   UNL     1       1.279   4.911  -7.868  1.00  0.00     0.074 A 
ATOM     74  C   UNL     1       2.077   6.107  -7.648  1.00  0.00     0.031 C 
ATOM     75  C   UNL     1       0.626   4.356  -8.938  1.00  0.00     0.031 A 
BRANCH  62  76
ATOM     76  C   UNL     1      -0.011  -1.762 -10.002  1.00  0.00    -0.014 A 
ATOM     77  C   UNL     1      -1.413  -1.785 -10.135  1.00  0.00     0.010 A 
ATOM     78  C   UNL     1       0.654  -2.921 -10.457  1.00  0.00     0.010 A 
ATOM     79  C   UNL     1      -2.104  -2.921 -10.605  1.00  0.00     0.020 A 
ATOM     80  C   UNL     1      -0.016  -4.083 -10.862  1.00  0.00     0.020 A 
ATOM     81  C   UNL     1      -1.399  -4.075 -10.944  1.00  0.00     0.054 A 
BRANCH  81  82
ATOM     82  S   UNL     1      -2.282  -5.533 -11.561  1.00  0.00     0.124 S 
ATOM     83  O   UNL     1      -3.228  -5.818 -10.485  1.00  0.00    -0.237 OA
ATOM     84  O   UNL     1      -2.869  -5.041 -12.804  1.00  0.00    -0.237 OA
ATOM     85  O   UNL     1      -1.228  -6.533 -11.732  1.00  0.00    -0.744 OA
ENDBRANCH  81  82
ENDBRANCH  62  76
BRANCH  63  86
ATOM     86  C   UNL     1       3.601   4.625  -3.471  1.00  0.00    -0.014 A 
ATOM     87  C   UNL     1       3.341   4.442  -2.079  1.00  0.00     0.010 A 
ATOM     88  C   UNL     1       4.795   4.062  -3.898  1.00  0.00     0.010 A 
ATOM     89  C   UNL     1       3.829   3.305  -1.370  1.00  0.00     0.020 A 
ATOM     90  C   UNL     1       5.139   2.857  -3.241  1.00  0.00     0.020 A 
ATOM     91  C   UNL     1       4.579   2.385  -2.075  1.00  0.00     0.054 A 
BRANCH  91  92
ATOM     92  S   UNL     1       4.322   0.424  -1.834  1.00  0.00     0.124 S 
ATOM     93  O   UNL     1       3.576   0.355  -0.620  1.00  0.00    -0.237 OA
ATOM     94  O   UNL     1       3.592   0.031  -3.041  1.00  0.00    -0.237 OA
ATOM     95  O   UNL     1       5.624  -0.209  -1.712  1.00  0.00    -0.744 OA
ENDBRANCH  91  92
ENDBRANCH  63  86
BRANCH  75  96
ATOM     96  C   UNL     1       0.459   4.991 -10.301  1.00  0.00    -0.014 A 
ATOM     97  C   UNL     1       0.376   6.374 -10.509  1.00  0.00     0.010 A 
ATOM     98  C   UNL     1       0.232   4.166 -11.432  1.00  0.00     0.010 A 
ATOM     99  C   UNL     1       0.176   6.901 -11.797  1.00  0.00     0.020 A 
ATOM    100  C   UNL     1       0.019   4.675 -12.712  1.00  0.00     0.020 A 
ATOM    101  C   UNL     1       0.021   6.047 -12.893  1.00  0.00     0.054 A 
BRANCH 101 102
ATOM    102  S   UNL     1      -0.200   6.741 -14.547  1.00  0.00     0.124 S 
ATOM    103  O   UNL     1      -1.262   7.722 -14.341  1.00  0.00    -0.237 OA
ATOM    104  O   UNL     1       1.123   7.296 -14.820  1.00  0.00    -0.237 OA
ATOM    105  O   UNL     1      -0.572   5.590 -15.367  1.00  0.00    -0.744 OA
ENDBRANCH 101 102
ENDBRANCH  75  96
ENDBRANCH  49  50
ENDBRANCH  41  44
ENDBRANCH  39  40
ENDBRANCH  38  39
ENDBRANCH  37  38
ENDBRANCH  36  37
ENDBRANCH   1  36
TORSDOF 22
