REMARK SMILES Cc1ccc2c(c1)[C@@]1([NH2+][C@@H](CCC(=O)NCCCCCCNC(=O)c3ccc(-c4c5nc(c(-c6ccc(S(=O)(=O)[O-])cc6)c6ccc([nH]6)c(-c6ccc(S(=O)(=O)[O-])cc6)c6nc(c(-c7ccc(S(=O)(=O)[O-])cc7)c7ccc4[nH]7)C=C6)C=C5)cc3)[C@H]3C(=O)N(Cc4ccccc4)C(=O)[C@H]31)C(=O)N2
REMARK SMILES IDX 18 1 17 2 16 3 15 4 13 5 14 6 12 8 11 9 10 10 1 11 2 12 3 13
REMARK SMILES IDX 7 14 4 15 6 16 5 17 8 18 101 19 9 20 98 21 99 22 85 26 96 27
REMARK SMILES IDX 100 28 86 29 88 30 97 31 87 32 89 33 90 34 91 35 95 36 92 37
REMARK SMILES IDX 94 38 93 39 19 40 20 41 21 42 22 43 23 44 24 46 25 47 26 48
REMARK SMILES IDX 84 49 27 50 83 51 28 52 29 53 30 54 77 55 31 56 82 57 76 58
REMARK SMILES IDX 78 59 32 60 81 61 75 62 74 63 33 65 63 66 44 67 62 68 45 69
REMARK SMILES IDX 48 70 61 71 79 72 46 73 47 74 60 76 80 77 49 78 34 79 35 80
REMARK SMILES IDX 43 81 36 82 42 83 37 84 38 85 39 86 40 87 41 88 64 89 65 90
REMARK SMILES IDX 73 91 66 92 72 93 67 94 68 95 69 96 70 97 71 98 50 99 51 100
REMARK SMILES IDX 59 101 52 102 58 103 53 104 54 105 55 106 56 107 57 108
REMARK H PARENT 15 7 101 23 9 24 9 25 22 45 78 64 48 75
REMARK Flexibility Score: inf
ROOT
ATOM      1  C   UNL     1      -1.762   0.874   1.657  1.00  0.00     0.002 C 
ENDROOT
BRANCH   1   2
ATOM      2  C   UNL     1      -1.709   1.573   2.926  1.00  0.00     0.021 C 
BRANCH   2   3
ATOM      3  C   UNL     1      -1.535   3.049   2.773  1.00  0.00     0.116 C 
BRANCH   3   4
ATOM      4  N   UNL     1      -2.866   3.442   2.494  1.00  0.00    -0.356 N 
ATOM      5  C   UNL     1      -3.753   3.852   3.433  1.00  0.00     0.220 C 
ATOM      6  O   UNL     1      -4.944   3.839   3.133  1.00  0.00    -0.275 OA
ATOM      7  H   UNL     1      -3.166   3.417   1.557  1.00  0.00     0.163 HD
BRANCH   5   8
ATOM      8  C   UNL     1      -3.247   4.293   4.798  1.00  0.00     0.106 C 
BRANCH   8   9
ATOM      9  C   UNL     1      -3.145   3.189   5.896  1.00  0.00     0.076 C 
BRANCH   9  10
ATOM     10  C   UNL     1      -2.175   2.012   5.636  1.00  0.00     0.197 C 
ATOM     11  C   UNL     1       0.548  -0.435  -0.371  1.00  0.00     0.044 C 
ATOM     12  C   UNL     1      -0.124  -1.214   1.209  1.00  0.00    -0.050 A 
ATOM     13  C   UNL     1      -0.321  -2.579   1.343  1.00  0.00     0.005 A 
ATOM     14  C   UNL     1      -0.151  -0.611   2.687  1.00  0.00     0.016 A 
ATOM     15  C   UNL     1      -0.426  -3.132   2.695  1.00  0.00     0.027 A 
ATOM     16  C   UNL     1      -0.759  -1.012   3.871  1.00  0.00     0.047 A 
ATOM     17  C   UNL     1      -0.713  -2.360   3.874  1.00  0.00     0.051 A 
ATOM     18  C   UNL     1      -1.230  -0.317   5.238  1.00  0.00     0.216 C 
ATOM     19  N   UNL     1      -1.097  -2.789   5.130  1.00  0.00    -0.320 N 
ATOM     20  N   UNL     1      -2.449   0.567   5.533  1.00  0.00    -0.326 N 
ATOM     21  C   UNL     1      -0.176   0.562   5.961  1.00  0.00     0.174 C 
ATOM     22  C   UNL     1      -1.683  -1.745   5.862  1.00  0.00     0.291 C 
ATOM     23  H   UNL     1      -0.975  -3.706   5.466  1.00  0.00     0.170 HD
ATOM     24  H   UNL     1      -2.852   0.260   6.418  1.00  0.00     0.347 HD
ATOM     25  H   UNL     1      -3.075   0.457   4.736  1.00  0.00     0.347 HD
ATOM     26  C   UNL     1      -0.722   2.106   5.950  1.00  0.00     0.157 C 
ATOM     27  C   UNL     1       0.698   1.016   7.223  1.00  0.00     0.240 C 
ATOM     28  O   UNL     1      -2.576  -1.929   6.681  1.00  0.00    -0.267 OA
ATOM     29  C   UNL     1      -0.634   2.566   7.339  1.00  0.00     0.239 C 
ATOM     30  N   UNL     1      -0.499   1.389   7.921  1.00  0.00    -0.277 N 
ATOM     31  O   UNL     1       1.671   0.593   6.616  1.00  0.00    -0.274 OA
ATOM     32  O   UNL     1      -0.752   3.688   7.860  1.00  0.00    -0.274 OA
BRANCH  30  33
ATOM     33  C   UNL     1      -1.785   0.850   8.706  1.00  0.00     0.164 C 
BRANCH  33  34
ATOM     34  C   UNL     1      -3.364   1.443   8.599  1.00  0.00    -0.028 A 
ATOM     35  C   UNL     1      -4.529   0.605   8.548  1.00  0.00     0.005 A 
ATOM     36  C   UNL     1      -3.736   2.802   8.771  1.00  0.00     0.005 A 
ATOM     37  C   UNL     1      -5.877   1.098   8.357  1.00  0.00     0.000 A 
ATOM     38  C   UNL     1      -5.084   3.300   8.613  1.00  0.00     0.000 A 
ATOM     39  C   UNL     1      -6.146   2.457   8.316  1.00  0.00     0.000 A 
ENDBRANCH  33  34
ENDBRANCH  30  33
ENDBRANCH   9  10
ENDBRANCH   8   9
ENDBRANCH   5   8
ENDBRANCH   3   4
ENDBRANCH   2   3
ENDBRANCH   1   2
BRANCH   1  40
ATOM     40  C   UNL     1      -0.384   1.295   0.999  1.00  0.00     0.002 C 
BRANCH  40  41
ATOM     41  C   UNL     1       1.442   0.881   1.480  1.00  0.00     0.021 C 
BRANCH  41  42
ATOM     42  C   UNL     1       2.279  -0.804   1.669  1.00  0.00     0.116 C 
BRANCH  42  43
ATOM     43  N   UNL     1       2.205  -1.909   0.498  1.00  0.00    -0.352 N 
ATOM     44  C   UNL     1       2.583  -3.151   0.180  1.00  0.00     0.251 C 
ATOM     45  H   UNL     1       1.697  -1.533  -0.257  1.00  0.00     0.163 HD
ATOM     46  O   UNL     1       2.125  -3.757  -0.776  1.00  0.00    -0.269 OA
BRANCH  44  47
ATOM     47  C   UNL     1       3.696  -3.508   0.947  1.00  0.00     0.039 A 
ATOM     48  C   UNL     1       3.497  -3.516   2.330  1.00  0.00     0.014 A 
ATOM     49  C   UNL     1       4.823  -3.053   0.278  1.00  0.00     0.014 A 
ATOM     50  C   UNL     1       4.520  -3.016   3.089  1.00  0.00     0.010 A 
ATOM     51  C   UNL     1       5.901  -2.773   1.051  1.00  0.00     0.010 A 
ATOM     52  C   UNL     1       5.734  -2.708   2.450  1.00  0.00    -0.014 A 
BRANCH  52  53
ATOM     53  C   UNL     1       6.889  -2.268   3.225  1.00  0.00     0.031 A 
ATOM     54  C   UNL     1       7.493  -0.937   2.944  1.00  0.00     0.074 A 
ATOM     55  C   UNL     1       7.448  -3.143   4.079  1.00  0.00     0.049 A 
ATOM     56  N   UNL     1       8.621  -0.477   3.401  1.00  0.00    -0.248 NA
ATOM     57  C   UNL     1       6.774  -0.015   2.041  1.00  0.00     0.031 C 
ATOM     58  C   UNL     1       6.888  -4.449   4.421  1.00  0.00     0.029 A 
ATOM     59  N   UNL     1       8.616  -3.078   4.793  1.00  0.00    -0.354 N 
ATOM     60  C   UNL     1       8.767   0.772   2.830  1.00  0.00     0.074 A 
ATOM     61  C   UNL     1       7.623   1.000   1.977  1.00  0.00     0.031 C 
ATOM     62  C   UNL     1       7.713  -5.063   5.278  1.00  0.00     0.029 A 
ATOM     63  C   UNL     1       8.886  -4.226   5.504  1.00  0.00     0.049 A 
ATOM     64  H   UNL     1       9.204  -2.289   4.797  1.00  0.00     0.167 HD
ATOM     65  C   UNL     1       9.782   1.638   3.017  1.00  0.00     0.031 A 
ATOM     66  C   UNL     1       9.955  -4.591   6.245  1.00  0.00     0.031 A 
ATOM     67  C   UNL     1      10.899   1.370   3.886  1.00  0.00     0.049 A 
ATOM     68  C   UNL     1      11.084  -3.616   6.407  1.00  0.00     0.074 A 
ATOM     69  C   UNL     1      11.944   2.225   4.175  1.00  0.00     0.029 A 
ATOM     70  N   UNL     1      11.130   0.201   4.605  1.00  0.00    -0.354 N 
ATOM     71  N   UNL     1      11.188  -2.411   5.908  1.00  0.00    -0.248 NA
ATOM     72  C   UNL     1      12.235  -4.029   7.225  1.00  0.00     0.031 C 
ATOM     73  C   UNL     1      12.845   1.556   4.989  1.00  0.00     0.029 A 
ATOM     74  C   UNL     1      12.329   0.310   5.298  1.00  0.00     0.049 A 
ATOM     75  H   UNL     1      10.535  -0.583   4.620  1.00  0.00     0.167 HD
ATOM     76  C   UNL     1      12.392  -1.909   6.379  1.00  0.00     0.074 A 
ATOM     77  C   UNL     1      12.994  -2.941   7.193  1.00  0.00     0.031 C 
ATOM     78  C   UNL     1      12.930  -0.690   6.151  1.00  0.00     0.031 A 
BRANCH  65  79
ATOM     79  C   UNL     1       9.733   2.971   2.312  1.00  0.00    -0.014 A 
ATOM     80  C   UNL     1      10.799   3.371   1.484  1.00  0.00     0.010 A 
ATOM     81  C   UNL     1       8.711   3.894   2.593  1.00  0.00     0.010 A 
ATOM     82  C   UNL     1      10.913   4.702   1.071  1.00  0.00     0.020 A 
ATOM     83  C   UNL     1       8.746   5.181   2.056  1.00  0.00     0.020 A 
ATOM     84  C   UNL     1       9.883   5.599   1.364  1.00  0.00     0.054 A 
BRANCH  84  85
ATOM     85  S   UNL     1      10.061   7.341   0.890  1.00  0.00     0.124 S 
ATOM     86  O   UNL     1      11.229   7.762   1.659  1.00  0.00    -0.237 OA
ATOM     87  O   UNL     1      10.250   7.253  -0.555  1.00  0.00    -0.237 OA
ATOM     88  O   UNL     1       8.794   7.939   1.310  1.00  0.00    -0.744 OA
ENDBRANCH  84  85
ENDBRANCH  65  79
BRANCH  66  89
ATOM     89  C   UNL     1       9.975  -5.920   6.925  1.00  0.00    -0.014 A 
ATOM     90  C   UNL     1       9.872  -7.114   6.186  1.00  0.00     0.010 A 
ATOM     91  C   UNL     1      10.031  -6.000   8.327  1.00  0.00     0.010 A 
ATOM     92  C   UNL     1       9.654  -8.332   6.836  1.00  0.00     0.020 A 
ATOM     93  C   UNL     1       9.966  -7.235   8.977  1.00  0.00     0.020 A 
ATOM     94  C   UNL     1       9.694  -8.382   8.232  1.00  0.00     0.054 A 
BRANCH  94  95
ATOM     95  S   UNL     1       9.310  -9.945   9.069  1.00  0.00     0.124 S 
ATOM     96  O   UNL     1       7.929 -10.182   8.654  1.00  0.00    -0.237 OA
ATOM     97  O   UNL     1      10.303 -10.854   8.507  1.00  0.00    -0.237 OA
ATOM     98  O   UNL     1       9.484  -9.627  10.485  1.00  0.00    -0.744 OA
ENDBRANCH  94  95
ENDBRANCH  66  89
BRANCH  78  99
ATOM     99  C   UNL     1      14.248  -0.323   6.800  1.00  0.00    -0.014 A 
ATOM    100  C   UNL     1      14.305   0.822   7.621  1.00  0.00     0.010 A 
ATOM    101  C   UNL     1      15.450  -0.944   6.423  1.00  0.00     0.010 A 
ATOM    102  C   UNL     1      15.529   1.436   7.897  1.00  0.00     0.020 A 
ATOM    103  C   UNL     1      16.680  -0.414   6.826  1.00  0.00     0.020 A 
ATOM    104  C   UNL     1      16.712   0.817   7.487  1.00  0.00     0.054 A 
BRANCH 104 105
ATOM    105  S   UNL     1      18.292   1.666   7.768  1.00  0.00     0.124 S 
ATOM    106  O   UNL     1      18.144   2.884   6.976  1.00  0.00    -0.237 OA
ATOM    107  O   UNL     1      18.294   1.852   9.216  1.00  0.00    -0.237 OA
ATOM    108  O   UNL     1      19.285   0.718   7.264  1.00  0.00    -0.744 OA
ENDBRANCH 104 105
ENDBRANCH  78  99
ENDBRANCH  52  53
ENDBRANCH  44  47
ENDBRANCH  42  43
ENDBRANCH  41  42
ENDBRANCH  40  41
ENDBRANCH   1  40
TORSDOF 20
