REMARK SMILES O=C(NCCCCCCNC(=O)[C@H]1CCC[N@@H+]1Cc1ccccc1[N+](=O)[O-])c1ccc(-c2c3nc(c(-c4ccc(S(=O)(=O)[O-])cc4)c4ccc([nH]4)c(-c4ccc(S(=O)(=O)[O-])cc4)c4nc(c(-c5ccc(S(=O)(=O)[O-])cc5)c5ccc2[nH]5)C=C4)C=C3)cc1
REMARK SMILES IDX 6 1 5 2 4 3 3 4 1 5 2 6 28 8 29 9 87 10 30 11 86 12 31 13
REMARK SMILES IDX 32 14 33 15 80 16 34 17 85 18 79 19 81 20 35 21 84 22 78 23
REMARK SMILES IDX 77 24 36 26 66 27 47 28 65 29 48 30 51 31 64 32 82 33 49 34
REMARK SMILES IDX 50 35 63 37 83 38 52 39 37 40 38 41 46 42 39 43 45 44 40 45
REMARK SMILES IDX 41 46 42 47 43 48 44 49 67 50 68 51 76 52 69 53 75 54 70 55
REMARK SMILES IDX 71 56 72 57 73 58 74 59 53 60 54 61 62 62 55 63 61 64 56 65
REMARK SMILES IDX 57 66 58 67 59 68 60 69 7 70 8 71 9 72 10 73 11 74 12 76
REMARK SMILES IDX 13 77 14 78 17 79 15 80 16 81 18 83 19 84 20 85 24 86 21 87
REMARK SMILES IDX 23 88 22 89 25 90 26 91 27 92
REMARK H PARENT 3 7 81 25 51 36 10 75 17 82
REMARK Flexibility Score: inf
ROOT
ATOM      1  C   UNL     1       5.146  -0.563   2.877  1.00  0.00     0.002 C 
ENDROOT
BRANCH   1   2
ATOM      2  C   UNL     1       3.844  -1.087   3.480  1.00  0.00     0.021 C 
BRANCH   2   3
ATOM      3  C   UNL     1       2.655  -0.148   3.332  1.00  0.00     0.116 C 
BRANCH   3   4
ATOM      4  N   UNL     1       2.267   0.036   1.944  1.00  0.00    -0.352 N 
ATOM      5  O   UNL     1       0.892  -0.094   0.160  1.00  0.00    -0.269 OA
ATOM      6  C   UNL     1       1.023  -0.111   1.376  1.00  0.00     0.251 C 
ATOM      7  H   UNL     1       2.989   0.300   1.330  1.00  0.00     0.163 HD
BRANCH   6   8
ATOM      8  C   UNL     1      -0.150  -0.309   2.255  1.00  0.00     0.039 A 
ATOM      9  C   UNL     1      -0.335   0.497   3.381  1.00  0.00     0.014 A 
ATOM     10  C   UNL     1      -1.068  -1.316   1.949  1.00  0.00     0.014 A 
ATOM     11  C   UNL     1      -1.370   0.220   4.266  1.00  0.00     0.010 A 
ATOM     12  C   UNL     1      -2.155  -1.541   2.798  1.00  0.00     0.010 A 
ATOM     13  C   UNL     1      -2.303  -0.788   3.974  1.00  0.00    -0.014 A 
BRANCH  13  14
ATOM     14  C   UNL     1      -3.474  -0.976   4.866  1.00  0.00     0.031 A 
ATOM     15  C   UNL     1      -3.668  -2.245   5.646  1.00  0.00     0.074 A 
ATOM     16  C   UNL     1      -4.366   0.028   4.968  1.00  0.00     0.049 A 
ATOM     17  N   UNL     1      -4.633  -2.558   6.473  1.00  0.00    -0.248 NA
ATOM     18  C   UNL     1      -2.658  -3.300   5.474  1.00  0.00     0.031 C 
ATOM     19  C   UNL     1      -4.288   1.301   4.243  1.00  0.00     0.029 A 
ATOM     20  N   UNL     1      -5.504   0.147   5.722  1.00  0.00    -0.354 N 
ATOM     21  C   UNL     1      -4.362  -3.852   6.904  1.00  0.00     0.074 A 
ATOM     22  C   UNL     1      -3.151  -4.272   6.231  1.00  0.00     0.031 C 
ATOM     23  C   UNL     1      -5.310   2.083   4.615  1.00  0.00     0.029 A 
ATOM     24  C   UNL     1      -6.150   1.348   5.553  1.00  0.00     0.049 A 
ATOM     25  H   UNL     1      -5.828  -0.560   6.326  1.00  0.00     0.167 HD
ATOM     26  C   UNL     1      -5.061  -4.615   7.779  1.00  0.00     0.031 A 
ATOM     27  C   UNL     1      -7.303   1.805   6.074  1.00  0.00     0.031 A 
ATOM     28  C   UNL     1      -6.269  -4.189   8.438  1.00  0.00     0.049 A 
ATOM     29  C   UNL     1      -8.067   0.933   7.025  1.00  0.00     0.074 A 
ATOM     30  C   UNL     1      -7.029  -4.875   9.370  1.00  0.00     0.029 A 
ATOM     31  N   UNL     1      -6.902  -2.973   8.226  1.00  0.00    -0.354 N 
ATOM     32  N   UNL     1      -7.768  -0.270   7.455  1.00  0.00    -0.248 NA
ATOM     33  C   UNL     1      -9.320   1.477   7.562  1.00  0.00     0.031 C 
ATOM     34  C   UNL     1      -8.148  -4.095   9.683  1.00  0.00     0.029 A 
ATOM     35  C   UNL     1      -8.056  -2.899   8.988  1.00  0.00     0.049 A 
ATOM     36  H   UNL     1      -6.578  -2.266   7.622  1.00  0.00     0.167 HD
ATOM     37  C   UNL     1      -8.792  -0.623   8.325  1.00  0.00     0.074 A 
ATOM     38  C   UNL     1      -9.705   0.502   8.375  1.00  0.00     0.031 C 
ATOM     39  C   UNL     1      -8.961  -1.776   9.017  1.00  0.00     0.031 A 
BRANCH  26  40
ATOM     40  C   UNL     1      -4.551  -6.007   8.051  1.00  0.00    -0.014 A 
ATOM     41  C   UNL     1      -3.384  -6.224   8.804  1.00  0.00     0.010 A 
ATOM     42  C   UNL     1      -5.274  -7.118   7.577  1.00  0.00     0.010 A 
ATOM     43  C   UNL     1      -2.923  -7.523   9.039  1.00  0.00     0.020 A 
ATOM     44  C   UNL     1      -4.830  -8.420   7.830  1.00  0.00     0.020 A 
ATOM     45  C   UNL     1      -3.646  -8.613   8.543  1.00  0.00     0.054 A 
BRANCH  45  46
ATOM     46  S   UNL     1      -3.026 -10.288   8.864  1.00  0.00     0.124 S 
ATOM     47  O   UNL     1      -1.890 -10.367   7.949  1.00  0.00    -0.237 OA
ATOM     48  O   UNL     1      -2.684 -10.238  10.283  1.00  0.00    -0.237 OA
ATOM     49  O   UNL     1      -4.158 -11.148   8.529  1.00  0.00    -0.744 OA
ENDBRANCH  45  46
ENDBRANCH  26  40
BRANCH  27  50
ATOM     50  C   UNL     1      -7.800   3.150   5.679  1.00  0.00    -0.014 A 
ATOM     51  C   UNL     1      -7.768   4.222   6.585  1.00  0.00     0.010 A 
ATOM     52  C   UNL     1      -8.255   3.373   4.365  1.00  0.00     0.010 A 
ATOM     53  C   UNL     1      -8.187   5.495   6.186  1.00  0.00     0.020 A 
ATOM     54  C   UNL     1      -8.649   4.649   3.956  1.00  0.00     0.020 A 
ATOM     55  C   UNL     1      -8.620   5.701   4.873  1.00  0.00     0.054 A 
BRANCH  55  56
ATOM     56  S   UNL     1      -9.089   7.375   4.356  1.00  0.00     0.124 S 
ATOM     57  O   UNL     1     -10.401   7.527   4.976  1.00  0.00    -0.237 OA
ATOM     58  O   UNL     1      -8.021   8.193   4.926  1.00  0.00    -0.237 OA
ATOM     59  O   UNL     1      -9.088   7.294   2.897  1.00  0.00    -0.744 OA
ENDBRANCH  55  56
ENDBRANCH  27  50
BRANCH  39  60
ATOM     60  C   UNL     1     -10.173  -1.871   9.903  1.00  0.00    -0.014 A 
ATOM     61  C   UNL     1     -11.459  -2.037   9.360  1.00  0.00     0.010 A 
ATOM     62  C   UNL     1     -10.015  -1.833  11.300  1.00  0.00     0.010 A 
ATOM     63  C   UNL     1     -12.571  -2.135  10.199  1.00  0.00     0.020 A 
ATOM     64  C   UNL     1     -11.123  -1.956  12.143  1.00  0.00     0.020 A 
ATOM     65  C   UNL     1     -12.396  -2.092  11.586  1.00  0.00     0.054 A 
BRANCH  65  66
ATOM     66  S   UNL     1     -13.850  -2.262  12.657  1.00  0.00     0.124 S 
ATOM     67  O   UNL     1     -14.478  -0.951  12.526  1.00  0.00    -0.237 OA
ATOM     68  O   UNL     1     -14.575  -3.371  12.041  1.00  0.00    -0.237 OA
ATOM     69  O   UNL     1     -13.279  -2.552  13.971  1.00  0.00    -0.744 OA
ENDBRANCH  65  66
ENDBRANCH  39  60
ENDBRANCH  13  14
ENDBRANCH   6   8
ENDBRANCH   3   4
ENDBRANCH   2   3
ENDBRANCH   1   2
BRANCH   1  70
ATOM     70  C   UNL     1       5.591   0.812   3.386  1.00  0.00     0.002 C 
BRANCH  70  71
ATOM     71  C   UNL     1       5.687   0.953   4.911  1.00  0.00     0.021 C 
BRANCH  71  72
ATOM     72  C   UNL     1       6.565  -0.091   5.598  1.00  0.00     0.116 C 
BRANCH  72  73
ATOM     73  N   UNL     1       7.916  -0.043   5.083  1.00  0.00    -0.351 N 
ATOM     74  C   UNL     1       9.110   0.117   5.710  1.00  0.00     0.278 C 
ATOM     75  H   UNL     1       7.981  -0.145   4.106  1.00  0.00     0.163 HD
ATOM     76  O   UNL     1      10.104   0.202   4.982  1.00  0.00    -0.268 OA
BRANCH  74  77
ATOM     77  C   UNL     1       9.198   0.108   7.256  1.00  0.00     0.274 C 
ATOM     78  C   UNL     1      10.148  -1.016   7.656  1.00  0.00     0.081 C 
ATOM     79  N   UNL     1       9.844   1.346   7.744  1.00  0.00    -0.321 N 
ATOM     80  C   UNL     1      11.525  -0.369   7.684  1.00  0.00     0.068 C 
ATOM     81  C   UNL     1      11.286   1.135   7.603  1.00  0.00     0.263 C 
ATOM     82  H   UNL     1       9.538   2.133   7.172  1.00  0.00     0.349 HD
BRANCH  79  83
ATOM     83  C   UNL     1       9.404   1.847   9.055  1.00  0.00     0.307 C 
BRANCH  83  84
ATOM     84  C   UNL     1       9.413   0.881  10.226  1.00  0.00     0.084 A 
ATOM     85  C   UNL     1       8.229   0.170  10.513  1.00  0.00     0.017 A 
ATOM     86  C   UNL     1      10.533   0.598  11.030  1.00  0.00     0.278 A 
ATOM     87  C   UNL     1       8.192  -0.821  11.500  1.00  0.00     0.001 A 
ATOM     88  C   UNL     1      10.509  -0.413  12.007  1.00  0.00     0.086 A 
ATOM     89  C   UNL     1       9.336  -1.128  12.230  1.00  0.00     0.007 A 
BRANCH  86  90
ATOM     90  N   UNL     1      11.765   1.367  10.929  1.00  0.00     0.063 N 
ATOM     91  O   UNL     1      12.822   0.730  10.811  1.00  0.00    -0.258 OA
ATOM     92  O   UNL     1      11.680   2.598  11.018  1.00  0.00    -0.258 OA
ENDBRANCH  86  90
ENDBRANCH  83  84
ENDBRANCH  79  83
ENDBRANCH  74  77
ENDBRANCH  72  73
ENDBRANCH  71  72
ENDBRANCH  70  71
ENDBRANCH   1  70
TORSDOF 19
