REMARK SMILES Cc1ccc(S(=O)(=O)Nc2cc(C(=O)NCCCCCCNC(=O)c3ccc(-c4c5nc(c(-c6ccc(S(=O)(=O)[O-])cc6)c6ccc([nH]6)c(-c6ccc(S(=O)(=O)[O-])cc6)c6nc(c(-c7ccc(S(=O)(=O)[O-])cc7)c7ccc4[nH]7)C=C6)C=C5)cc3)cnc2N2CCCC2)c(C)c1
REMARK SMILES IDX 18 1 17 2 16 3 15 4 13 5 14 6 12 8 10 9 11 10 87 11 86 12
REMARK SMILES IDX 85 13 9 14 6 16 7 17 8 18 5 19 1 20 2 21 3 22 95 23 4 24
REMARK SMILES IDX 93 25 94 26 88 27 89 28 92 29 90 30 91 31 19 32 20 33 21 34
REMARK SMILES IDX 22 35 23 36 24 38 25 39 26 40 84 41 27 42 83 43 28 44 29 45
REMARK SMILES IDX 30 46 77 47 31 48 82 49 76 50 78 51 32 52 81 53 75 54 74 55
REMARK SMILES IDX 33 57 63 58 44 59 62 60 45 61 48 62 61 63 79 64 46 65 47 66
REMARK SMILES IDX 60 68 80 69 49 70 34 71 35 72 43 73 36 74 42 75 37 76 38 77
REMARK SMILES IDX 39 78 40 79 41 80 64 81 65 82 73 83 66 84 72 85 67 86 68 87
REMARK SMILES IDX 69 88 70 89 71 90 50 91 51 92 59 93 52 94 58 95 53 96 54 97
REMARK SMILES IDX 55 98 56 99 57 100
REMARK H PARENT 15 7 9 15 22 37 78 56 48 67
REMARK Flexibility Score: inf
ROOT
ATOM      1  C   UNL     1       1.210  -1.193   5.176  1.00  0.00     0.002 C 
ENDROOT
BRANCH   1   2
ATOM      2  C   UNL     1       0.439  -1.849   4.024  1.00  0.00     0.021 C 
BRANCH   2   3
ATOM      3  C   UNL     1       1.207  -1.819   2.703  1.00  0.00     0.116 C 
BRANCH   3   4
ATOM      4  N   UNL     1       2.132  -2.938   2.630  1.00  0.00    -0.352 N 
ATOM      5  C   UNL     1       2.096  -4.135   1.964  1.00  0.00     0.252 C 
ATOM      6  O   UNL     1       3.065  -4.886   2.085  1.00  0.00    -0.269 OA
ATOM      7  H   UNL     1       2.948  -2.809   3.165  1.00  0.00     0.163 HD
BRANCH   5   8
ATOM      8  C   UNL     1       0.995  -4.539   1.058  1.00  0.00     0.060 A 
ATOM      9  C   UNL     1      -1.179  -4.389   0.063  1.00  0.00     0.092 A 
ATOM     10  C   UNL     1      -0.314  -4.078   1.109  1.00  0.00     0.046 A 
ATOM     11  C   UNL     1      -0.798  -5.342  -0.910  1.00  0.00     0.153 A 
ATOM     12  N   UNL     1       0.433  -5.889  -0.897  1.00  0.00    -0.236 NA
ATOM     13  C   UNL     1       1.305  -5.450   0.049  1.00  0.00     0.127 A 
BRANCH   9  14
ATOM     14  N   UNL     1      -2.449  -3.764  -0.072  1.00  0.00    -0.276 N 
ATOM     15  H   UNL     1      -3.213  -4.341  -0.302  1.00  0.00     0.180 HD
BRANCH  14  16
ATOM     16  S   UNL     1      -2.755  -2.136   0.128  1.00  0.00     0.262 S 
ATOM     17  O   UNL     1      -2.867  -1.924   1.559  1.00  0.00    -0.201 OA
ATOM     18  O   UNL     1      -3.855  -1.866  -0.772  1.00  0.00    -0.201 OA
BRANCH  16  19
ATOM     19  C   UNL     1      -1.384  -1.109  -0.412  1.00  0.00     0.090 A 
ATOM     20  C   UNL     1       2.322   1.097  -0.419  1.00  0.00     0.044 C 
ATOM     21  C   UNL     1       1.022   0.352  -0.495  1.00  0.00    -0.051 A 
ATOM     22  C   UNL     1       0.951  -0.925  -1.054  1.00  0.00     0.005 A 
ATOM     23  C   UNL     1      -0.156   0.953  -0.045  1.00  0.00     0.008 A 
ATOM     24  C   UNL     1      -0.251  -1.644  -1.034  1.00  0.00     0.023 A 
ATOM     25  C   UNL     1      -1.371   0.243  -0.009  1.00  0.00    -0.030 A 
ATOM     26  C   UNL     1      -2.590   1.003   0.446  1.00  0.00     0.046 C 
ENDBRANCH  16  19
ENDBRANCH  14  16
ENDBRANCH   9  14
BRANCH  11  27
ATOM     27  N   UNL     1      -1.688  -5.780  -1.853  1.00  0.00    -0.355 N 
ATOM     28  C   UNL     1      -2.273  -5.024  -2.942  1.00  0.00     0.118 C 
ATOM     29  C   UNL     1      -2.071  -7.182  -1.879  1.00  0.00     0.118 C 
ATOM     30  C   UNL     1      -3.566  -5.800  -3.180  1.00  0.00     0.023 C 
ATOM     31  C   UNL     1      -3.128  -7.250  -2.986  1.00  0.00     0.023 C 
ENDBRANCH  11  27
ENDBRANCH   5   8
ENDBRANCH   3   4
ENDBRANCH   2   3
ENDBRANCH   1   2
BRANCH   1  32
ATOM     32  C   UNL     1       1.398   0.323   5.037  1.00  0.00     0.002 C 
BRANCH  32  33
ATOM     33  C   UNL     1       0.106   1.132   4.879  1.00  0.00     0.021 C 
BRANCH  33  34
ATOM     34  C   UNL     1      -0.896   0.967   6.020  1.00  0.00     0.116 C 
BRANCH  34  35
ATOM     35  N   UNL     1      -0.356   1.437   7.287  1.00  0.00    -0.352 N 
ATOM     36  C   UNL     1      -0.916   2.285   8.208  1.00  0.00     0.251 C 
ATOM     37  H   UNL     1       0.539   1.097   7.515  1.00  0.00     0.163 HD
ATOM     38  O   UNL     1      -0.233   2.726   9.128  1.00  0.00    -0.269 OA
BRANCH  36  39
ATOM     39  C   UNL     1      -2.336   2.681   8.084  1.00  0.00     0.039 A 
ATOM     40  C   UNL     1      -2.679   4.025   8.254  1.00  0.00     0.014 A 
ATOM     41  C   UNL     1      -3.327   1.728   7.829  1.00  0.00     0.014 A 
ATOM     42  C   UNL     1      -4.011   4.423   8.122  1.00  0.00     0.010 A 
ATOM     43  C   UNL     1      -4.647   2.133   7.649  1.00  0.00     0.010 A 
ATOM     44  C   UNL     1      -5.002   3.482   7.799  1.00  0.00    -0.014 A 
BRANCH  44  45
ATOM     45  C   UNL     1      -6.415   3.891   7.614  1.00  0.00     0.031 A 
ATOM     46  C   UNL     1      -7.466   3.446   8.591  1.00  0.00     0.074 A 
ATOM     47  C   UNL     1      -6.764   4.601   6.525  1.00  0.00     0.049 A 
ATOM     48  N   UNL     1      -8.758   3.653   8.564  1.00  0.00    -0.248 NA
ATOM     49  C   UNL     1      -7.007   2.642   9.735  1.00  0.00     0.031 C 
ATOM     50  C   UNL     1      -5.846   5.050   5.477  1.00  0.00     0.029 A 
ATOM     51  N   UNL     1      -7.991   5.055   6.112  1.00  0.00    -0.354 N 
ATOM     52  C   UNL     1      -9.270   2.985   9.669  1.00  0.00     0.074 A 
ATOM     53  C   UNL     1      -8.153   2.340  10.328  1.00  0.00     0.031 C 
ATOM     54  C   UNL     1      -6.540   5.721   4.545  1.00  0.00     0.029 A 
ATOM     55  C   UNL     1      -7.953   5.730   4.916  1.00  0.00     0.049 A 
ATOM     56  H   UNL     1      -8.820   4.911   6.624  1.00  0.00     0.167 HD
ATOM     57  C   UNL     1     -10.552   2.921  10.104  1.00  0.00     0.031 A 
ATOM     58  C   UNL     1      -8.942   6.288   4.194  1.00  0.00     0.031 A 
ATOM     59  C   UNL     1     -11.660   3.570   9.457  1.00  0.00     0.049 A 
ATOM     60  C   UNL     1     -10.351   6.237   4.709  1.00  0.00     0.074 A 
ATOM     61  C   UNL     1     -12.984   3.619   9.855  1.00  0.00     0.029 A 
ATOM     62  N   UNL     1     -11.572   4.280   8.269  1.00  0.00    -0.354 N 
ATOM     63  N   UNL     1     -10.807   5.662   5.795  1.00  0.00    -0.248 NA
ATOM     64  C   UNL     1     -11.375   6.923   3.909  1.00  0.00     0.031 C 
ATOM     65  C   UNL     1     -13.704   4.334   8.890  1.00  0.00     0.029 A 
ATOM     66  C   UNL     1     -12.821   4.759   7.910  1.00  0.00     0.049 A 
ATOM     67  H   UNL     1     -10.744   4.423   7.756  1.00  0.00     0.167 HD
ATOM     68  C   UNL     1     -12.171   5.926   5.818  1.00  0.00     0.074 A 
ATOM     69  C   UNL     1     -12.463   6.724   4.644  1.00  0.00     0.031 C 
ATOM     70  C   UNL     1     -13.097   5.543   6.732  1.00  0.00     0.031 A 
BRANCH  57  71
ATOM     71  C   UNL     1     -10.811   2.097  11.336  1.00  0.00    -0.014 A 
ATOM     72  C   UNL     1     -10.397   2.541  12.606  1.00  0.00     0.010 A 
ATOM     73  C   UNL     1     -11.456   0.853  11.222  1.00  0.00     0.010 A 
ATOM     74  C   UNL     1     -10.566   1.728  13.729  1.00  0.00     0.020 A 
ATOM     75  C   UNL     1     -11.648   0.046  12.347  1.00  0.00     0.020 A 
ATOM     76  C   UNL     1     -11.176   0.477  13.589  1.00  0.00     0.054 A 
BRANCH  76  77
ATOM     77  S   UNL     1     -11.360  -0.579  15.053  1.00  0.00     0.124 S 
ATOM     78  O   UNL     1     -10.027  -1.168  15.164  1.00  0.00    -0.237 OA
ATOM     79  O   UNL     1     -11.713   0.375  16.102  1.00  0.00    -0.237 OA
ATOM     80  O   UNL     1     -12.423  -1.506  14.676  1.00  0.00    -0.744 OA
ENDBRANCH  76  77
ENDBRANCH  57  71
BRANCH  58  81
ATOM     81  C   UNL     1      -8.609   6.967   2.915  1.00  0.00    -0.014 A 
ATOM     82  C   UNL     1      -8.521   8.368   2.860  1.00  0.00     0.010 A 
ATOM     83  C   UNL     1      -8.301   6.212   1.770  1.00  0.00     0.010 A 
ATOM     84  C   UNL     1      -8.119   9.004   1.682  1.00  0.00     0.020 A 
ATOM     85  C   UNL     1      -7.882   6.843   0.595  1.00  0.00     0.020 A 
ATOM     86  C   UNL     1      -7.794   8.237   0.559  1.00  0.00     0.054 A 
BRANCH  86  87
ATOM     87  S   UNL     1      -7.166   9.073  -0.925  1.00  0.00     0.124 S 
ATOM     88  O   UNL     1      -8.393   9.578  -1.532  1.00  0.00    -0.237 OA
ATOM     89  O   UNL     1      -6.272  10.085  -0.367  1.00  0.00    -0.237 OA
ATOM     90  O   UNL     1      -6.496   8.002  -1.659  1.00  0.00    -0.744 OA
ENDBRANCH  86  87
ENDBRANCH  58  81
BRANCH  70  91
ATOM     91  C   UNL     1     -14.513   5.992   6.505  1.00  0.00    -0.014 A 
ATOM     92  C   UNL     1     -15.324   5.365   5.543  1.00  0.00     0.010 A 
ATOM     93  C   UNL     1     -15.054   7.020   7.298  1.00  0.00     0.010 A 
ATOM     94  C   UNL     1     -16.648   5.775   5.362  1.00  0.00     0.020 A 
ATOM     95  C   UNL     1     -16.383   7.419   7.132  1.00  0.00     0.020 A 
ATOM     96  C   UNL     1     -17.168   6.802   6.156  1.00  0.00     0.054 A 
BRANCH  96  97
ATOM     97  S   UNL     1     -18.902   7.289   5.938  1.00  0.00     0.124 S 
ATOM     98  O   UNL     1     -18.833   8.131   4.747  1.00  0.00    -0.237 OA
ATOM     99  O   UNL     1     -19.580   6.007   5.762  1.00  0.00    -0.237 OA
ATOM    100  O   UNL     1     -19.222   7.989   7.180  1.00  0.00    -0.744 OA
ENDBRANCH  96  97
ENDBRANCH  70  91
ENDBRANCH  44  45
ENDBRANCH  36  39
ENDBRANCH  34  35
ENDBRANCH  33  34
ENDBRANCH  32  33
ENDBRANCH   1  32
TORSDOF 20
