REMARK SMILES O=C(NCCCCCCNC(=O)c1cc2c(c(S(=O)(=O)Nc3cc(C(F)(F)F)ccc3-n3cccn3)c1)CCC2)c1ccc(-c2c3nc(c(-c4ccc(S(=O)(=O)[O-])cc4)c4ccc([nH]4)c(-c4ccc(S(=O)(=O)[O-])cc4)c4nc(c(-c5ccc(S(=O)(=O)[O-])cc5)c5ccc2[nH]5)C=C4)C=C3)cc1
REMARK SMILES IDX 7 1 6 2 5 3 4 4 3 5 1 6 2 7 41 9 42 10 100 11 43 12 99 13
REMARK SMILES IDX 44 14 45 15 46 16 93 17 47 18 98 19 92 20 94 21 48 22 97 23
REMARK SMILES IDX 91 24 90 25 49 27 79 28 60 29 78 30 61 31 64 32 77 33 95 34
REMARK SMILES IDX 62 35 63 36 76 38 96 39 65 40 50 41 51 42 59 43 52 44 58 45
REMARK SMILES IDX 53 46 54 47 55 48 56 49 57 50 80 51 81 52 89 53 82 54 88 55
REMARK SMILES IDX 83 56 84 57 85 58 86 59 87 60 66 61 67 62 75 63 68 64 74 65
REMARK SMILES IDX 69 66 70 67 71 68 72 69 73 70 8 71 9 72 10 73 11 74 12 76
REMARK SMILES IDX 13 77 14 78 37 79 15 80 17 81 16 82 40 83 38 84 39 85 18 86
REMARK SMILES IDX 19 87 20 88 21 89 22 91 23 92 31 93 24 94 30 95 29 96 32 97
REMARK SMILES IDX 33 98 36 99 34 100 35 101 25 102 26 103 27 104 28 105
REMARK H PARENT 3 8 94 26 64 37 10 75 21 90
REMARK Flexibility Score: inf
ROOT
ATOM      1  C   UNL     1       4.667  -3.582   1.935  1.00  0.00     0.002 C 
ENDROOT
BRANCH   1   2
ATOM      2  C   UNL     1       4.190  -2.272   2.574  1.00  0.00     0.002 C 
BRANCH   2   3
ATOM      3  C   UNL     1       4.759  -0.978   1.977  1.00  0.00     0.021 C 
BRANCH   3   4
ATOM      4  C   UNL     1       4.605  -0.837   0.464  1.00  0.00     0.116 C 
BRANCH   4   5
ATOM      5  N   UNL     1       3.240  -0.893  -0.011  1.00  0.00    -0.352 N 
ATOM      6  O   UNL     1       1.209  -0.376  -0.703  1.00  0.00    -0.269 OA
ATOM      7  C   UNL     1       2.216   0.007  -0.102  1.00  0.00     0.251 C 
ATOM      8  H   UNL     1       2.992  -1.785  -0.347  1.00  0.00     0.163 HD
BRANCH   7   9
ATOM      9  C   UNL     1       2.207   1.355   0.527  1.00  0.00     0.039 A 
ATOM     10  C   UNL     1       3.328   2.080   0.937  1.00  0.00     0.014 A 
ATOM     11  C   UNL     1       0.932   1.924   0.715  1.00  0.00     0.014 A 
ATOM     12  C   UNL     1       3.175   3.301   1.593  1.00  0.00     0.010 A 
ATOM     13  C   UNL     1       0.774   3.144   1.361  1.00  0.00     0.010 A 
ATOM     14  C   UNL     1       1.897   3.820   1.827  1.00  0.00    -0.014 A 
BRANCH  14  15
ATOM     15  C   UNL     1       1.773   5.175   2.362  1.00  0.00     0.031 A 
ATOM     16  C   UNL     1       2.250   6.233   1.426  1.00  0.00     0.074 A 
ATOM     17  C   UNL     1       1.125   5.488   3.504  1.00  0.00     0.049 A 
ATOM     18  N   UNL     1       3.260   7.027   1.569  1.00  0.00    -0.248 NA
ATOM     19  C   UNL     1       1.607   6.319   0.103  1.00  0.00     0.031 C 
ATOM     20  C   UNL     1       0.350   4.592   4.365  1.00  0.00     0.029 A 
ATOM     21  N   UNL     1       0.923   6.710   4.080  1.00  0.00    -0.354 N 
ATOM     22  C   UNL     1       3.241   7.869   0.458  1.00  0.00     0.074 A 
ATOM     23  C   UNL     1       2.333   7.270  -0.486  1.00  0.00     0.031 C 
ATOM     24  C   UNL     1      -0.420   5.328   5.201  1.00  0.00     0.029 A 
ATOM     25  C   UNL     1      -0.099   6.736   5.028  1.00  0.00     0.049 A 
ATOM     26  H   UNL     1       1.453   7.505   3.845  1.00  0.00     0.167 HD
ATOM     27  C   UNL     1       3.766   9.125   0.501  1.00  0.00     0.031 A 
ATOM     28  C   UNL     1      -0.679   7.833   5.584  1.00  0.00     0.031 A 
ATOM     29  C   UNL     1       4.626   9.307   1.641  1.00  0.00     0.049 A 
ATOM     30  C   UNL     1       0.252   8.970   5.394  1.00  0.00     0.074 A 
ATOM     31  C   UNL     1       5.774   8.700   2.109  1.00  0.00     0.029 A 
ATOM     32  N   UNL     1       4.109  10.012   2.701  1.00  0.00    -0.354 N 
ATOM     33  N   UNL     1       1.410   9.056   5.983  1.00  0.00    -0.248 NA
ATOM     34  C   UNL     1       0.088   9.799   4.211  1.00  0.00     0.031 C 
ATOM     35  C   UNL     1       5.623   8.675   3.526  1.00  0.00     0.029 A 
ATOM     36  C   UNL     1       4.433   9.333   3.844  1.00  0.00     0.049 A 
ATOM     37  H   UNL     1       3.600  10.853   2.648  1.00  0.00     0.167 HD
ATOM     38  C   UNL     1       2.256   9.581   5.017  1.00  0.00     0.074 A 
ATOM     39  C   UNL     1       1.367  10.108   3.982  1.00  0.00     0.031 C 
ATOM     40  C   UNL     1       3.590   9.290   5.019  1.00  0.00     0.031 A 
BRANCH  27  41
ATOM     41  C   UNL     1       3.156  10.307  -0.223  1.00  0.00    -0.014 A 
ATOM     42  C   UNL     1       3.774  11.569  -0.099  1.00  0.00     0.010 A 
ATOM     43  C   UNL     1       1.852  10.288  -0.760  1.00  0.00     0.010 A 
ATOM     44  C   UNL     1       3.088  12.751  -0.406  1.00  0.00     0.020 A 
ATOM     45  C   UNL     1       1.175  11.457  -1.114  1.00  0.00     0.020 A 
ATOM     46  C   UNL     1       1.785  12.685  -0.898  1.00  0.00     0.054 A 
BRANCH  46  47
ATOM     47  S   UNL     1       0.869  14.216  -1.193  1.00  0.00     0.124 S 
ATOM     48  O   UNL     1       0.717  14.739   0.162  1.00  0.00    -0.237 OA
ATOM     49  O   UNL     1       1.780  14.957  -2.061  1.00  0.00    -0.237 OA
ATOM     50  O   UNL     1      -0.362  13.760  -1.833  1.00  0.00    -0.744 OA
ENDBRANCH  46  47
ENDBRANCH  27  41
BRANCH  28  51
ATOM     51  C   UNL     1      -2.098   8.039   5.986  1.00  0.00    -0.014 A 
ATOM     52  C   UNL     1      -2.490   9.167   6.737  1.00  0.00     0.010 A 
ATOM     53  C   UNL     1      -3.117   7.281   5.377  1.00  0.00     0.010 A 
ATOM     54  C   UNL     1      -3.841   9.557   6.816  1.00  0.00     0.020 A 
ATOM     55  C   UNL     1      -4.464   7.659   5.456  1.00  0.00     0.020 A 
ATOM     56  C   UNL     1      -4.818   8.811   6.154  1.00  0.00     0.054 A 
BRANCH  56  57
ATOM     57  S   UNL     1      -6.532   9.420   6.095  1.00  0.00     0.124 S 
ATOM     58  O   UNL     1      -6.983   9.217   7.468  1.00  0.00    -0.237 OA
ATOM     59  O   UNL     1      -6.364  10.811   5.684  1.00  0.00    -0.237 OA
ATOM     60  O   UNL     1      -7.169   8.558   5.100  1.00  0.00    -0.744 OA
ENDBRANCH  56  57
ENDBRANCH  28  51
BRANCH  40  61
ATOM     61  C   UNL     1       4.196   8.672   6.255  1.00  0.00    -0.014 A 
ATOM     62  C   UNL     1       3.800   7.435   6.801  1.00  0.00     0.010 A 
ATOM     63  C   UNL     1       5.319   9.318   6.802  1.00  0.00     0.010 A 
ATOM     64  C   UNL     1       4.497   6.877   7.885  1.00  0.00     0.020 A 
ATOM     65  C   UNL     1       6.029   8.759   7.865  1.00  0.00     0.020 A 
ATOM     66  C   UNL     1       5.609   7.545   8.409  1.00  0.00     0.054 A 
BRANCH  66  67
ATOM     67  S   UNL     1       6.535   6.804   9.781  1.00  0.00     0.124 S 
ATOM     68  O   UNL     1       5.587   6.890  10.888  1.00  0.00    -0.237 OA
ATOM     69  O   UNL     1       6.814   5.455   9.293  1.00  0.00    -0.237 OA
ATOM     70  O   UNL     1       7.714   7.661   9.910  1.00  0.00    -0.744 OA
ENDBRANCH  66  67
ENDBRANCH  40  61
ENDBRANCH  14  15
ENDBRANCH   7   9
ENDBRANCH   4   5
ENDBRANCH   3   4
ENDBRANCH   2   3
ENDBRANCH   1   2
BRANCH   1  71
ATOM     71  C   UNL     1       6.181  -3.774   1.863  1.00  0.00     0.021 C 
BRANCH  71  72
ATOM     72  C   UNL     1       6.899  -3.789   3.209  1.00  0.00     0.116 C 
BRANCH  72  73
ATOM     73  N   UNL     1       6.637  -4.999   3.986  1.00  0.00    -0.352 N 
ATOM     74  C   UNL     1       7.539  -5.866   4.573  1.00  0.00     0.251 C 
ATOM     75  H   UNL     1       5.688  -5.228   4.109  1.00  0.00     0.163 HD
ATOM     76  O   UNL     1       7.168  -6.924   5.076  1.00  0.00    -0.269 OA
BRANCH  74  77
ATOM     77  C   UNL     1       8.979  -5.521   4.560  1.00  0.00     0.041 A 
ATOM     78  C   UNL     1       9.357  -4.238   4.944  1.00  0.00     0.018 A 
ATOM     79  C   UNL     1       9.925  -6.429   4.040  1.00  0.00     0.036 A 
ATOM     80  C   UNL     1      10.600  -3.803   4.545  1.00  0.00    -0.043 A 
ATOM     81  C   UNL     1      11.235  -6.002   3.723  1.00  0.00     0.092 A 
ATOM     82  C   UNL     1      11.505  -4.645   3.865  1.00  0.00    -0.024 A 
ATOM     83  C   UNL     1      11.093  -2.389   4.620  1.00  0.00     0.036 C 
ATOM     84  C   UNL     1      12.570  -3.770   3.284  1.00  0.00     0.037 C 
ATOM     85  C   UNL     1      12.564  -2.605   4.281  1.00  0.00     0.010 C 
BRANCH  81  86
ATOM     86  S   UNL     1      12.331  -7.169   2.943  1.00  0.00     0.262 S 
ATOM     87  O   UNL     1      11.725  -8.482   3.084  1.00  0.00    -0.201 OA
ATOM     88  O   UNL     1      12.629  -6.665   1.620  1.00  0.00    -0.201 OA
BRANCH  86  89
ATOM     89  N   UNL     1      13.843  -7.356   3.724  1.00  0.00    -0.277 N 
ATOM     90  H   UNL     1      14.246  -8.254   3.750  1.00  0.00     0.180 HD
BRANCH  89  91
ATOM     91  C   UNL     1      14.555  -6.273   4.342  1.00  0.00     0.075 A 
ATOM     92  C   UNL     1      15.532  -5.595   3.588  1.00  0.00     0.042 A 
ATOM     93  C   UNL     1      14.238  -5.806   5.627  1.00  0.00     0.089 A 
ATOM     94  C   UNL     1      16.139  -4.417   4.074  1.00  0.00     0.058 A 
ATOM     95  C   UNL     1      14.863  -4.652   6.127  1.00  0.00     0.031 A 
ATOM     96  C   UNL     1      15.806  -3.965   5.358  1.00  0.00     0.015 A 
BRANCH  93  97
ATOM     97  N   UNL     1      13.243  -6.428   6.418  1.00  0.00    -0.239 N 
ATOM     98  C   UNL     1      12.887  -7.758   6.452  1.00  0.00     0.115 A 
ATOM     99  N   UNL     1      12.416  -5.679   7.188  1.00  0.00    -0.177 NA
ATOM    100  C   UNL     1      11.667  -7.825   7.079  1.00  0.00     0.042 A 
ATOM    101  C   UNL     1      11.406  -6.505   7.475  1.00  0.00     0.135 A 
ENDBRANCH  93  97
BRANCH  94 102
ATOM    102  C   UNL     1      17.066  -3.615   3.189  1.00  0.00     0.416 C 
ATOM    103  F   UNL     1      18.252  -4.245   2.968  1.00  0.00    -0.166 F 
ATOM    104  F   UNL     1      16.530  -3.384   1.958  1.00  0.00    -0.166 F 
ATOM    105  F   UNL     1      17.378  -2.389   3.692  1.00  0.00    -0.166 F 
ENDBRANCH  94 102
ENDBRANCH  89  91
ENDBRANCH  86  89
ENDBRANCH  81  86
ENDBRANCH  74  77
ENDBRANCH  72  73
ENDBRANCH  71  72
ENDBRANCH   1  71
TORSDOF 21
