REMARK SMILES Cc1c(C[NH2+]C2CCCCC2)c(C(=O)NCCCCCCNC(=O)c2ccc(-c3c4nc(c(-c5ccc(S(=O)(=O)[O-])cc5)c5ccc([nH]5)c(-c5ccc(S(=O)(=O)[O-])cc5)c5nc(c(-c6ccc(S(=O)(=O)[O-])cc6)c6ccc3[nH]6)C=C5)C=C4)cc2)c(C)n1Cc1ccccc1
REMARK SMILES IDX 18 1 17 2 16 3 15 4 13 5 14 6 12 8 1 9 2 10 3 11 87 12 85 13
REMARK SMILES IDX 86 14 4 15 5 16 6 19 7 20 11 21 8 22 10 23 9 24 88 25 89 26
REMARK SMILES IDX 90 27 94 28 91 29 93 30 92 31 19 32 20 33 21 34 22 35 23 36
REMARK SMILES IDX 24 38 25 39 26 40 84 41 27 42 83 43 28 44 29 45 30 46 77 47
REMARK SMILES IDX 31 48 82 49 76 50 78 51 32 52 81 53 75 54 74 55 33 57 63 58
REMARK SMILES IDX 44 59 62 60 45 61 48 62 61 63 79 64 46 65 47 66 60 68 80 69
REMARK SMILES IDX 49 70 34 71 35 72 43 73 36 74 42 75 37 76 38 77 39 78 40 79
REMARK SMILES IDX 41 80 64 81 65 82 73 83 66 84 72 85 67 86 68 87 69 88 70 89
REMARK SMILES IDX 71 90 50 91 51 92 59 93 52 94 58 95 53 96 54 97 55 98 56 99
REMARK SMILES IDX 57 100
REMARK H PARENT 15 7 5 17 5 18 22 37 78 56 48 67
REMARK Flexibility Score: inf
ROOT
ATOM      1  C   UNL     1      -0.496   9.002  -1.340  1.00  0.00     0.002 C 
ENDROOT
BRANCH   1   2
ATOM      2  C   UNL     1      -0.116   7.537  -1.549  1.00  0.00     0.021 C 
BRANCH   2   3
ATOM      3  C   UNL     1      -0.180   6.614  -0.341  1.00  0.00     0.116 C 
BRANCH   3   4
ATOM      4  N   UNL     1      -1.462   6.001  -0.089  1.00  0.00    -0.352 N 
ATOM      5  C   UNL     1      -1.777   4.688   0.209  1.00  0.00     0.253 C 
ATOM      6  O   UNL     1      -2.981   4.438   0.295  1.00  0.00    -0.269 OA
ATOM      7  H   UNL     1      -2.232   6.613  -0.136  1.00  0.00     0.163 HD
BRANCH   5   8
ATOM      8  C   UNL     1      -0.735   3.642   0.302  1.00  0.00     0.069 A 
ATOM      9  C   UNL     1       0.656   0.168  -0.018  1.00  0.00     0.065 C 
ATOM     10  C   UNL     1       0.327   1.618   0.105  1.00  0.00     0.025 A 
ATOM     11  C   UNL     1      -0.939   2.214   0.131  1.00  0.00     0.040 A 
ATOM     12  N   UNL     1       1.256   2.640   0.204  1.00  0.00    -0.343 N 
ATOM     13  C   UNL     1       0.589   3.730   0.749  1.00  0.00     0.028 A 
ATOM     14  C   UNL     1       1.260   4.713   1.649  1.00  0.00     0.065 C 
BRANCH  11  15
ATOM     15  C   UNL     1      -2.263   1.494  -0.012  1.00  0.00     0.300 C 
BRANCH  15  16
ATOM     16  N   UNL     1      -2.993   1.563   1.256  1.00  0.00    -0.340 N 
ATOM     17  H   UNL     1      -3.135   2.545   1.494  1.00  0.00     0.346 HD
ATOM     18  H   UNL     1      -2.431   1.073   1.952  1.00  0.00     0.346 HD
BRANCH  16  19
ATOM     19  C   UNL     1      -4.302   0.902   1.216  1.00  0.00     0.182 C 
ATOM     20  C   UNL     1      -4.198  -0.577   1.625  1.00  0.00     0.065 C 
ATOM     21  C   UNL     1      -5.266   1.648   2.158  1.00  0.00     0.065 C 
ATOM     22  C   UNL     1      -5.570  -1.249   1.706  1.00  0.00     0.006 C 
ATOM     23  C   UNL     1      -6.636   0.970   2.230  1.00  0.00     0.006 C 
ATOM     24  C   UNL     1      -6.517  -0.495   2.635  1.00  0.00     0.000 C 
ENDBRANCH  16  19
ENDBRANCH  15  16
ENDBRANCH  11  15
BRANCH  12  25
ATOM     25  C   UNL     1       2.710   2.550  -0.004  1.00  0.00     0.157 C 
BRANCH  25  26
ATOM     26  C   UNL     1       3.222   3.213  -1.274  1.00  0.00    -0.028 A 
ATOM     27  C   UNL     1       3.831   2.447  -2.283  1.00  0.00     0.005 A 
ATOM     28  C   UNL     1       3.212   4.607  -1.440  1.00  0.00     0.005 A 
ATOM     29  C   UNL     1       4.399   3.056  -3.411  1.00  0.00     0.000 A 
ATOM     30  C   UNL     1       3.767   5.216  -2.571  1.00  0.00     0.000 A 
ATOM     31  C   UNL     1       4.363   4.440  -3.556  1.00  0.00     0.000 A 
ENDBRANCH  25  26
ENDBRANCH  12  25
ENDBRANCH   5   8
ENDBRANCH   3   4
ENDBRANCH   2   3
ENDBRANCH   1   2
BRANCH   1  32
ATOM     32  C   UNL     1       0.320   9.825  -0.333  1.00  0.00     0.002 C 
BRANCH  32  33
ATOM     33  C   UNL     1       1.858   9.685  -0.300  1.00  0.00     0.021 C 
BRANCH  33  34
ATOM     34  C   UNL     1       2.657   9.540  -1.618  1.00  0.00     0.116 C 
BRANCH  34  35
ATOM     35  N   UNL     1       3.202  10.767  -2.142  1.00  0.00    -0.352 N 
ATOM     36  C   UNL     1       4.320  10.987  -2.929  1.00  0.00     0.251 C 
ATOM     37  H   UNL     1       2.699  11.579  -1.903  1.00  0.00     0.163 HD
ATOM     38  O   UNL     1       4.600  12.172  -3.126  1.00  0.00    -0.269 OA
BRANCH  36  39
ATOM     39  C   UNL     1       5.297   9.915  -3.390  1.00  0.00     0.039 A 
ATOM     40  C   UNL     1       6.589  10.075  -2.934  1.00  0.00     0.014 A 
ATOM     41  C   UNL     1       5.149   8.915  -4.375  1.00  0.00     0.014 A 
ATOM     42  C   UNL     1       7.649   9.238  -3.391  1.00  0.00     0.010 A 
ATOM     43  C   UNL     1       6.292   8.118  -4.919  1.00  0.00     0.010 A 
ATOM     44  C   UNL     1       7.616   8.258  -4.456  1.00  0.00    -0.014 A 
BRANCH  44  45
ATOM     45  C   UNL     1       9.104   7.800  -5.089  1.00  0.00     0.031 A 
ATOM     46  C   UNL     1       9.926   9.015  -4.846  1.00  0.00     0.074 A 
ATOM     47  C   UNL     1       9.862   6.894  -5.857  1.00  0.00     0.049 A 
ATOM     48  N   UNL     1       9.533  10.109  -5.419  1.00  0.00    -0.248 NA
ATOM     49  C   UNL     1      10.838   9.198  -3.715  1.00  0.00     0.031 C 
ATOM     50  C   UNL     1       9.432   5.690  -6.590  1.00  0.00     0.029 A 
ATOM     51  N   UNL     1      11.273   6.857  -6.191  1.00  0.00    -0.354 N 
ATOM     52  C   UNL     1      10.221  11.141  -4.848  1.00  0.00     0.074 A 
ATOM     53  C   UNL     1      10.926  10.537  -3.719  1.00  0.00     0.031 C 
ATOM     54  C   UNL     1      10.492   4.990  -7.110  1.00  0.00     0.029 A 
ATOM     55  C   UNL     1      11.769   5.667  -6.860  1.00  0.00     0.049 A 
ATOM     56  H   UNL     1      11.870   7.608  -5.973  1.00  0.00     0.167 HD
ATOM     57  C   UNL     1      10.608  12.134  -5.694  1.00  0.00     0.031 A 
ATOM     58  C   UNL     1      13.062   5.303  -7.273  1.00  0.00     0.031 A 
ATOM     59  C   UNL     1      11.962  11.898  -6.124  1.00  0.00     0.049 A 
ATOM     60  C   UNL     1      13.725   6.575  -7.601  1.00  0.00     0.074 A 
ATOM     61  C   UNL     1      13.105  11.547  -5.432  1.00  0.00     0.029 A 
ATOM     62  N   UNL     1      12.123  11.454  -7.424  1.00  0.00    -0.354 N 
ATOM     63  N   UNL     1      13.430   7.226  -8.685  1.00  0.00    -0.248 NA
ATOM     64  C   UNL     1      14.854   7.102  -6.842  1.00  0.00     0.031 C 
ATOM     65  C   UNL     1      13.624  10.455  -6.163  1.00  0.00     0.029 A 
ATOM     66  C   UNL     1      13.053  10.436  -7.433  1.00  0.00     0.049 A 
ATOM     67  H   UNL     1      11.651  11.806  -8.213  1.00  0.00     0.167 HD
ATOM     68  C   UNL     1      13.933   8.466  -8.441  1.00  0.00     0.074 A 
ATOM     69  C   UNL     1      15.010   8.259  -7.490  1.00  0.00     0.031 C 
ATOM     70  C   UNL     1      13.073   9.512  -8.545  1.00  0.00     0.031 A 
BRANCH  57  71
ATOM     71  C   UNL     1       9.526  12.623  -6.636  1.00  0.00    -0.014 A 
ATOM     72  C   UNL     1       9.145  13.970  -6.594  1.00  0.00     0.010 A 
ATOM     73  C   UNL     1       8.833  11.764  -7.525  1.00  0.00     0.010 A 
ATOM     74  C   UNL     1       8.084  14.430  -7.388  1.00  0.00     0.020 A 
ATOM     75  C   UNL     1       7.755  12.207  -8.290  1.00  0.00     0.020 A 
ATOM     76  C   UNL     1       7.388  13.544  -8.220  1.00  0.00     0.054 A 
BRANCH  76  77
ATOM     77  S   UNL     1       5.984  14.166  -9.181  1.00  0.00     0.124 S 
ATOM     78  O   UNL     1       5.234  14.937  -8.193  1.00  0.00    -0.237 OA
ATOM     79  O   UNL     1       6.645  14.956 -10.211  1.00  0.00    -0.237 OA
ATOM     80  O   UNL     1       5.304  12.951  -9.644  1.00  0.00    -0.744 OA
ENDBRANCH  76  77
ENDBRANCH  57  71
BRANCH  58  81
ATOM     81  C   UNL     1      14.022   4.150  -7.780  1.00  0.00    -0.014 A 
ATOM     82  C   UNL     1      15.052   4.443  -8.750  1.00  0.00     0.010 A 
ATOM     83  C   UNL     1      14.264   2.972  -7.050  1.00  0.00     0.010 A 
ATOM     84  C   UNL     1      16.271   3.721  -8.879  1.00  0.00     0.020 A 
ATOM     85  C   UNL     1      15.478   2.213  -7.198  1.00  0.00     0.020 A 
ATOM     86  C   UNL     1      16.495   2.617  -8.073  1.00  0.00     0.054 A 
BRANCH  86  87
ATOM     87  S   UNL     1      18.154   1.821  -8.080  1.00  0.00     0.124 S 
ATOM     88  O   UNL     1      18.249   1.261  -9.425  1.00  0.00    -0.237 OA
ATOM     89  O   UNL     1      19.053   2.941  -7.805  1.00  0.00    -0.237 OA
ATOM     90  O   UNL     1      18.068   0.834  -7.004  1.00  0.00    -0.744 OA
ENDBRANCH  86  87
ENDBRANCH  58  81
BRANCH  70  91
ATOM     91  C   UNL     1      12.061   9.479  -9.686  1.00  0.00    -0.014 A 
ATOM     92  C   UNL     1      11.274   8.357 -10.041  1.00  0.00     0.010 A 
ATOM     93  C   UNL     1      11.948  10.616 -10.505  1.00  0.00     0.010 A 
ATOM     94  C   UNL     1      10.491   8.335 -11.205  1.00  0.00     0.020 A 
ATOM     95  C   UNL     1      11.128  10.622 -11.645  1.00  0.00     0.020 A 
ATOM     96  C   UNL     1      10.437   9.467 -12.012  1.00  0.00     0.054 A 
BRANCH  96  97
ATOM     97  S   UNL     1       9.488   9.398 -13.558  1.00  0.00     0.124 S 
ATOM     98  O   UNL     1      10.302   8.505 -14.381  1.00  0.00    -0.237 OA
ATOM     99  O   UNL     1       8.205   8.847 -13.131  1.00  0.00    -0.237 OA
ATOM    100  O   UNL     1       9.460  10.787 -14.011  1.00  0.00    -0.744 OA
ENDBRANCH  96  97
ENDBRANCH  70  91
ENDBRANCH  44  45
ENDBRANCH  36  39
ENDBRANCH  34  35
ENDBRANCH  33  34
ENDBRANCH  32  33
ENDBRANCH   1  32
TORSDOF 21
