REMARK SMILES C[N@H+]1[C@H]2CC[C@@H]1[C@@H](C(=O)NCCCCCCNC(=O)c1ccc(-c3c4nc(c(-c5ccc(S(=O)(=O)[O-])cc5)c5ccc([nH]5)c(-c5ccc(S(=O)(=O)[O-])cc5)c5nc(c(-c6ccc(S(=O)(=O)[O-])cc6)c6ccc3[nH]6)C=C5)C=C4)cc1)[C@@H](OC(=O)c1ccccc1)C2
REMARK SMILES IDX 13 1 12 2 11 3 10 4 8 5 9 6 7 8 1 9 2 10 3 11 6 12 4 14
REMARK SMILES IDX 90 15 5 16 80 17 81 18 82 19 83 20 84 21 85 22 89 23 86 24
REMARK SMILES IDX 88 25 87 26 14 27 15 28 16 29 17 30 18 31 19 33 20 34 21 35
REMARK SMILES IDX 79 36 22 37 78 38 23 39 24 40 25 41 72 42 26 43 77 44 71 45
REMARK SMILES IDX 73 46 27 47 76 48 70 49 69 50 28 52 58 53 39 54 57 55 40 56
REMARK SMILES IDX 43 57 56 58 74 59 41 60 42 61 55 63 75 64 44 65 29 66 30 67
REMARK SMILES IDX 38 68 31 69 37 70 32 71 33 72 34 73 35 74 36 75 59 76 60 77
REMARK SMILES IDX 68 78 61 79 67 80 62 81 63 82 64 83 65 84 66 85 45 86 46 87
REMARK SMILES IDX 54 88 47 89 53 90 48 91 49 92 50 93 51 94 52 95
REMARK H PARENT 10 7 2 13 17 32 73 51 43 62
REMARK Flexibility Score: inf
ROOT
ATOM      1  C   UNL     1      -3.812  -3.721  -1.692  1.00  0.00     0.002 C 
ENDROOT
BRANCH   1   2
ATOM      2  C   UNL     1      -2.447  -3.049  -1.696  1.00  0.00     0.021 C 
BRANCH   2   3
ATOM      3  C   UNL     1      -2.217  -2.025  -0.597  1.00  0.00     0.116 C 
BRANCH   3   4
ATOM      4  N   UNL     1      -1.813  -2.575   0.683  1.00  0.00    -0.356 N 
ATOM      5  C   UNL     1      -0.866  -2.189   1.582  1.00  0.00     0.232 C 
ATOM      6  O   UNL     1      -0.957  -2.713   2.704  1.00  0.00    -0.274 OA
ATOM      7  H   UNL     1      -2.317  -3.377   0.951  1.00  0.00     0.163 HD
BRANCH   5   8
ATOM      8  C   UNL     1       0.293  -1.201   1.332  1.00  0.00     0.177 C 
ATOM      9  C   UNL     1      -1.775   1.484  -0.068  1.00  0.00     0.333 C 
ATOM     10  N   UNL     1      -0.760   0.448  -0.033  1.00  0.00    -0.332 N 
ATOM     11  C   UNL     1       0.353   0.548  -0.984  1.00  0.00     0.188 C 
ATOM     12  C   UNL     1      -0.125   0.278   1.266  1.00  0.00     0.200 C 
ATOM     13  H   UNL     1      -1.349  -0.343  -0.294  1.00  0.00     0.348 HD
ATOM     14  C   UNL     1       1.288   1.527  -0.295  1.00  0.00     0.071 C 
ATOM     15  C   UNL     1       0.997  -0.868  -1.143  1.00  0.00     0.111 C 
ATOM     16  C   UNL     1       1.075   1.250   1.196  1.00  0.00     0.072 C 
ATOM     17  C   UNL     1       1.266  -1.591   0.204  1.00  0.00     0.201 C 
BRANCH  17  18
ATOM     18  O   UNL     1       1.506  -3.030   0.271  1.00  0.00    -0.457 OA
BRANCH  18  19
ATOM     19  C   UNL     1       1.091  -3.899  -0.668  1.00  0.00     0.338 C 
ATOM     20  O   UNL     1       0.748  -3.630  -1.812  1.00  0.00    -0.246 OA
BRANCH  19  21
ATOM     21  C   UNL     1       1.016  -5.291  -0.140  1.00  0.00     0.060 A 
ATOM     22  C   UNL     1       0.151  -6.185  -0.793  1.00  0.00     0.015 A 
ATOM     23  C   UNL     1       1.781  -5.752   0.939  1.00  0.00     0.015 A 
ATOM     24  C   UNL     1       0.069  -7.521  -0.398  1.00  0.00     0.001 A 
ATOM     25  C   UNL     1       1.706  -7.098   1.325  1.00  0.00     0.001 A 
ATOM     26  C   UNL     1       0.857  -7.981   0.653  1.00  0.00     0.000 A 
ENDBRANCH  19  21
ENDBRANCH  18  19
ENDBRANCH  17  18
ENDBRANCH   5   8
ENDBRANCH   3   4
ENDBRANCH   2   3
ENDBRANCH   1   2
BRANCH   1  27
ATOM     27  C   UNL     1      -5.007  -2.780  -1.868  1.00  0.00     0.002 C 
BRANCH  27  28
ATOM     28  C   UNL     1      -4.926  -1.808  -3.049  1.00  0.00     0.021 C 
BRANCH  28  29
ATOM     29  C   UNL     1      -4.591  -2.445  -4.394  1.00  0.00     0.116 C 
BRANCH  29  30
ATOM     30  N   UNL     1      -5.553  -3.470  -4.765  1.00  0.00    -0.352 N 
ATOM     31  C   UNL     1      -6.311  -3.552  -5.905  1.00  0.00     0.251 C 
ATOM     32  H   UNL     1      -5.675  -4.199  -4.115  1.00  0.00     0.163 HD
ATOM     33  O   UNL     1      -7.232  -4.356  -5.993  1.00  0.00    -0.269 OA
BRANCH  31  34
ATOM     34  C   UNL     1      -6.000  -2.640  -7.022  1.00  0.00     0.039 A 
ATOM     35  C   UNL     1      -7.011  -1.847  -7.564  1.00  0.00     0.014 A 
ATOM     36  C   UNL     1      -4.686  -2.550  -7.493  1.00  0.00     0.014 A 
ATOM     37  C   UNL     1      -6.694  -0.917  -8.556  1.00  0.00     0.010 A 
ATOM     38  C   UNL     1      -4.363  -1.581  -8.433  1.00  0.00     0.010 A 
ATOM     39  C   UNL     1      -5.364  -0.759  -8.977  1.00  0.00    -0.014 A 
BRANCH  39  40
ATOM     40  C   UNL     1      -4.980   0.228 -10.016  1.00  0.00     0.031 A 
ATOM     41  C   UNL     1      -4.408  -0.266 -11.317  1.00  0.00     0.074 A 
ATOM     42  C   UNL     1      -5.061   1.548  -9.760  1.00  0.00     0.049 A 
ATOM     43  N   UNL     1      -3.843   0.412 -12.280  1.00  0.00    -0.248 NA
ATOM     44  C   UNL     1      -4.455  -1.720 -11.551  1.00  0.00     0.031 C 
ATOM     45  C   UNL     1      -5.589   2.147  -8.532  1.00  0.00     0.029 A 
ATOM     46  N   UNL     1      -4.676   2.629 -10.514  1.00  0.00    -0.354 N 
ATOM     47  C   UNL     1      -3.456  -0.530 -13.225  1.00  0.00     0.074 A 
ATOM     48  C   UNL     1      -3.801  -1.831 -12.698  1.00  0.00     0.031 C 
ATOM     49  C   UNL     1      -5.498   3.485  -8.619  1.00  0.00     0.029 A 
ATOM     50  C   UNL     1      -4.858   3.838  -9.883  1.00  0.00     0.049 A 
ATOM     51  H   UNL     1      -4.304   2.547 -11.422  1.00  0.00     0.167 HD
ATOM     52  C   UNL     1      -2.885  -0.328 -14.435  1.00  0.00     0.031 A 
ATOM     53  C   UNL     1      -4.521   5.085 -10.267  1.00  0.00     0.031 A 
ATOM     54  C   UNL     1      -2.554   0.970 -14.957  1.00  0.00     0.049 A 
ATOM     55  C   UNL     1      -3.839   5.279 -11.597  1.00  0.00     0.074 A 
ATOM     56  C   UNL     1      -1.982   1.286 -16.176  1.00  0.00     0.029 A 
ATOM     57  N   UNL     1      -2.777   2.167 -14.294  1.00  0.00    -0.354 N 
ATOM     58  N   UNL     1      -3.500   4.377 -12.488  1.00  0.00    -0.248 NA
ATOM     59  C   UNL     1      -3.499   6.658 -11.980  1.00  0.00     0.031 C 
ATOM     60  C   UNL     1      -1.823   2.672 -16.235  1.00  0.00     0.029 A 
ATOM     61  C   UNL     1      -2.353   3.223 -15.078  1.00  0.00     0.049 A 
ATOM     62  H   UNL     1      -3.179   2.252 -13.399  1.00  0.00     0.167 HD
ATOM     63  C   UNL     1      -2.953   5.085 -13.554  1.00  0.00     0.074 A 
ATOM     64  C   UNL     1      -3.006   6.487 -13.199  1.00  0.00     0.031 C 
ATOM     65  C   UNL     1      -2.456   4.615 -14.723  1.00  0.00     0.031 A 
BRANCH  52  66
ATOM     66  C   UNL     1      -2.597  -1.535 -15.286  1.00  0.00    -0.014 A 
ATOM     67  C   UNL     1      -3.646  -2.264 -15.876  1.00  0.00     0.010 A 
ATOM     68  C   UNL     1      -1.268  -1.906 -15.557  1.00  0.00     0.010 A 
ATOM     69  C   UNL     1      -3.372  -3.356 -16.701  1.00  0.00     0.020 A 
ATOM     70  C   UNL     1      -0.989  -2.982 -16.406  1.00  0.00     0.020 A 
ATOM     71  C   UNL     1      -2.044  -3.706 -16.963  1.00  0.00     0.054 A 
BRANCH  71  72
ATOM     72  S   UNL     1      -1.722  -5.098 -18.081  1.00  0.00     0.124 S 
ATOM     73  O   UNL     1      -2.138  -6.239 -17.270  1.00  0.00    -0.237 OA
ATOM     74  O   UNL     1      -2.580  -4.794 -19.224  1.00  0.00    -0.237 OA
ATOM     75  O   UNL     1      -0.288  -5.010 -18.342  1.00  0.00    -0.744 OA
ENDBRANCH  71  72
ENDBRANCH  52  66
BRANCH  53  76
ATOM     76  C   UNL     1      -4.798   6.251  -9.382  1.00  0.00    -0.014 A 
ATOM     77  C   UNL     1      -5.728   7.235  -9.762  1.00  0.00     0.010 A 
ATOM     78  C   UNL     1      -4.102   6.405  -8.168  1.00  0.00     0.010 A 
ATOM     79  C   UNL     1      -5.921   8.373  -8.973  1.00  0.00     0.020 A 
ATOM     80  C   UNL     1      -4.317   7.525  -7.359  1.00  0.00     0.020 A 
ATOM     81  C   UNL     1      -5.208   8.514  -7.779  1.00  0.00     0.054 A 
BRANCH  81  82
ATOM     82  S   UNL     1      -5.466  10.001  -6.773  1.00  0.00     0.124 S 
ATOM     83  O   UNL     1      -4.768  11.018  -7.553  1.00  0.00    -0.237 OA
ATOM     84  O   UNL     1      -6.922  10.114  -6.743  1.00  0.00    -0.237 OA
ATOM     85  O   UNL     1      -4.849   9.659  -5.493  1.00  0.00    -0.744 OA
ENDBRANCH  81  82
ENDBRANCH  53  76
BRANCH  65  86
ATOM     86  C   UNL     1      -2.002   5.616 -15.751  1.00  0.00    -0.014 A 
ATOM     87  C   UNL     1      -0.792   6.314 -15.611  1.00  0.00     0.010 A 
ATOM     88  C   UNL     1      -2.751   5.762 -16.935  1.00  0.00     0.010 A 
ATOM     89  C   UNL     1      -0.338   7.146 -16.639  1.00  0.00     0.020 A 
ATOM     90  C   UNL     1      -2.287   6.571 -17.974  1.00  0.00     0.020 A 
ATOM     91  C   UNL     1      -1.083   7.260 -17.818  1.00  0.00     0.054 A 
BRANCH  91  92
ATOM     92  S   UNL     1      -0.420   8.263 -19.176  1.00  0.00     0.124 S 
ATOM     93  O   UNL     1      -0.595   9.620 -18.666  1.00  0.00    -0.237 OA
ATOM     94  O   UNL     1       0.963   7.800 -19.268  1.00  0.00    -0.237 OA
ATOM     95  O   UNL     1      -1.266   7.912 -20.314  1.00  0.00    -0.744 OA
ENDBRANCH  91  92
ENDBRANCH  65  86
ENDBRANCH  39  40
ENDBRANCH  31  34
ENDBRANCH  29  30
ENDBRANCH  28  29
ENDBRANCH  27  28
ENDBRANCH   1  27
TORSDOF 19
