REMARK SMILES O=C(NCCCCCCNC(=O)[C@@H]1[C@H](C(=O)Nc2ccccc2Cc2ccccc2)[C@H]2C=C[C@@H]1O2)c1ccc(-c2c3nc(c(-c4ccc(S(=O)(=O)[O-])cc4)c4ccc([nH]4)c(-c4ccc(S(=O)(=O)[O-])cc4)c4nc(c(-c5ccc(S(=O)(=O)[O-])cc5)c5ccc2[nH]5)C=C4)C=C3)cc1
REMARK SMILES IDX 7 1 6 2 5 3 4 4 3 5 1 6 2 7 36 9 37 10 95 11 38 12 94 13
REMARK SMILES IDX 39 14 40 15 41 16 88 17 42 18 93 19 87 20 89 21 43 22 92 23
REMARK SMILES IDX 86 24 85 25 44 27 74 28 55 29 73 30 56 31 59 32 72 33 90 34
REMARK SMILES IDX 57 35 58 36 71 38 91 39 60 40 45 41 46 42 54 43 47 44 53 45
REMARK SMILES IDX 48 46 49 47 50 48 51 49 52 50 75 51 76 52 84 53 77 54 83 55
REMARK SMILES IDX 78 56 79 57 80 58 81 59 82 60 61 61 62 62 70 63 63 64 69 65
REMARK SMILES IDX 64 66 65 67 66 68 67 69 68 70 8 71 9 72 10 73 11 74 12 76
REMARK SMILES IDX 13 77 14 78 34 79 31 80 33 81 35 82 32 83 15 84 16 85 17 86
REMARK SMILES IDX 18 88 19 89 23 90 20 91 22 92 21 93 24 94 25 95 26 96 30 97
REMARK SMILES IDX 27 98 29 99 28 100
REMARK H PARENT 3 8 89 26 59 37 10 75 17 87
REMARK Flexibility Score: inf
ROOT
ATOM      1  C   UNL     1       5.156   1.215   3.470  1.00  0.00     0.002 C 
ENDROOT
BRANCH   1   2
ATOM      2  C   UNL     1       4.487   2.332   2.659  1.00  0.00     0.002 C 
BRANCH   2   3
ATOM      3  C   UNL     1       4.655   2.281   1.147  1.00  0.00     0.021 C 
BRANCH   3   4
ATOM      4  C   UNL     1       4.267   0.959   0.518  1.00  0.00     0.116 C 
BRANCH   4   5
ATOM      5  N   UNL     1       2.850   0.665   0.619  1.00  0.00    -0.352 N 
ATOM      6  O   UNL     1       0.894  -0.170  -0.163  1.00  0.00    -0.269 OA
ATOM      7  C   UNL     1       2.099  -0.058  -0.283  1.00  0.00     0.251 C 
ATOM      8  H   UNL     1       2.379   1.017   1.409  1.00  0.00     0.163 HD
BRANCH   7   9
ATOM      9  C   UNL     1       2.814  -0.661  -1.431  1.00  0.00     0.039 A 
ATOM     10  C   UNL     1       3.932  -1.470  -1.208  1.00  0.00     0.014 A 
ATOM     11  C   UNL     1       2.410  -0.338  -2.727  1.00  0.00     0.014 A 
ATOM     12  C   UNL     1       4.713  -1.871  -2.283  1.00  0.00     0.010 A 
ATOM     13  C   UNL     1       3.150  -0.815  -3.810  1.00  0.00     0.010 A 
ATOM     14  C   UNL     1       4.311  -1.576  -3.596  1.00  0.00    -0.014 A 
BRANCH  14  15
ATOM     15  C   UNL     1       5.033  -2.190  -4.735  1.00  0.00     0.031 A 
ATOM     16  C   UNL     1       5.770  -1.356  -5.742  1.00  0.00     0.074 A 
ATOM     17  C   UNL     1       4.976  -3.531  -4.860  1.00  0.00     0.049 A 
ATOM     18  N   UNL     1       6.386  -1.744  -6.829  1.00  0.00    -0.248 NA
ATOM     19  C   UNL     1       5.819   0.096  -5.511  1.00  0.00     0.031 C 
ATOM     20  C   UNL     1       4.273  -4.434  -3.941  1.00  0.00     0.029 A 
ATOM     21  N   UNL     1       5.505  -4.370  -5.804  1.00  0.00    -0.354 N 
ATOM     22  C   UNL     1       6.868  -0.588  -7.430  1.00  0.00     0.074 A 
ATOM     23  C   UNL     1       6.472   0.520  -6.587  1.00  0.00     0.031 C 
ATOM     24  C   UNL     1       4.432  -5.698  -4.354  1.00  0.00     0.029 A 
ATOM     25  C   UNL     1       5.180  -5.691  -5.603  1.00  0.00     0.049 A 
ATOM     26  H   UNL     1       6.063  -4.059  -6.553  1.00  0.00     0.167 HD
ATOM     27  C   UNL     1       7.569  -0.470  -8.583  1.00  0.00     0.031 A 
ATOM     28  C   UNL     1       5.415  -6.777  -6.362  1.00  0.00     0.031 A 
ATOM     29  C   UNL     1       7.959  -1.587  -9.405  1.00  0.00     0.049 A 
ATOM     30  C   UNL     1       6.161  -6.608  -7.651  1.00  0.00     0.074 A 
ATOM     31  C   UNL     1       8.729  -1.579 -10.556  1.00  0.00     0.029 A 
ATOM     32  N   UNL     1       7.598  -2.907  -9.177  1.00  0.00    -0.354 N 
ATOM     33  N   UNL     1       6.666  -5.513  -8.168  1.00  0.00    -0.248 NA
ATOM     34  C   UNL     1       6.363  -7.814  -8.462  1.00  0.00     0.031 C 
ATOM     35  C   UNL     1       8.781  -2.884 -11.056  1.00  0.00     0.029 A 
ATOM     36  C   UNL     1       8.091  -3.714 -10.188  1.00  0.00     0.049 A 
ATOM     37  H   UNL     1       7.068  -3.223  -8.409  1.00  0.00     0.167 HD
ATOM     38  C   UNL     1       7.251  -5.900  -9.365  1.00  0.00     0.074 A 
ATOM     39  C   UNL     1       7.061  -7.332  -9.482  1.00  0.00     0.031 C 
ATOM     40  C   UNL     1       7.884  -5.137 -10.289  1.00  0.00     0.031 A 
BRANCH  27  41
ATOM     41  C   UNL     1       7.938   0.911  -9.056  1.00  0.00    -0.014 A 
ATOM     42  C   UNL     1       8.960   1.650  -8.435  1.00  0.00     0.010 A 
ATOM     43  C   UNL     1       7.312   1.440 -10.200  1.00  0.00     0.010 A 
ATOM     44  C   UNL     1       9.334   2.901  -8.937  1.00  0.00     0.020 A 
ATOM     45  C   UNL     1       7.696   2.681 -10.718  1.00  0.00     0.020 A 
ATOM     46  C   UNL     1       8.699   3.409 -10.076  1.00  0.00     0.054 A 
BRANCH  46  47
ATOM     47  S   UNL     1       9.235   5.014 -10.730  1.00  0.00     0.124 S 
ATOM     48  O   UNL     1       8.693   5.939  -9.738  1.00  0.00    -0.237 OA
ATOM     49  O   UNL     1      10.690   4.887 -10.738  1.00  0.00    -0.237 OA
ATOM     50  O   UNL     1       8.611   5.079 -12.049  1.00  0.00    -0.744 OA
ENDBRANCH  46  47
ENDBRANCH  27  41
BRANCH  28  51
ATOM     51  C   UNL     1       4.884  -8.099  -5.939  1.00  0.00    -0.014 A 
ATOM     52  C   UNL     1       5.750  -9.119  -5.513  1.00  0.00     0.010 A 
ATOM     53  C   UNL     1       3.495  -8.332  -5.934  1.00  0.00     0.010 A 
ATOM     54  C   UNL     1       5.238 -10.355  -5.109  1.00  0.00     0.020 A 
ATOM     55  C   UNL     1       2.978  -9.554  -5.502  1.00  0.00     0.020 A 
ATOM     56  C   UNL     1       3.856 -10.565  -5.106  1.00  0.00     0.054 A 
BRANCH  56  57
ATOM     57  S   UNL     1       3.211 -12.162  -4.540  1.00  0.00     0.124 S 
ATOM     58  O   UNL     1       3.490 -13.023  -5.684  1.00  0.00    -0.237 OA
ATOM     59  O   UNL     1       4.008 -12.420  -3.343  1.00  0.00    -0.237 OA
ATOM     60  O   UNL     1       1.797 -11.889  -4.289  1.00  0.00    -0.744 OA
ENDBRANCH  56  57
ENDBRANCH  28  51
BRANCH  40  61
ATOM     61  C   UNL     1       8.426  -5.839 -11.502  1.00  0.00    -0.014 A 
ATOM     62  C   UNL     1       7.565  -6.285 -12.520  1.00  0.00     0.010 A 
ATOM     63  C   UNL     1       9.814  -6.002 -11.650  1.00  0.00     0.010 A 
ATOM     64  C   UNL     1       8.085  -6.900 -13.661  1.00  0.00     0.020 A 
ATOM     65  C   UNL     1      10.339  -6.593 -12.802  1.00  0.00     0.020 A 
ATOM     66  C   UNL     1       9.470  -7.047 -13.796  1.00  0.00     0.054 A 
BRANCH  66  67
ATOM     67  S   UNL     1      10.123  -7.790 -15.315  1.00  0.00     0.124 S 
ATOM     68  O   UNL     1       9.803  -9.202 -15.125  1.00  0.00    -0.237 OA
ATOM     69  O   UNL     1       9.362  -7.108 -16.359  1.00  0.00    -0.237 OA
ATOM     70  O   UNL     1      11.547  -7.463 -15.276  1.00  0.00    -0.744 OA
ENDBRANCH  66  67
ENDBRANCH  40  61
ENDBRANCH  14  15
ENDBRANCH   7   9
ENDBRANCH   4   5
ENDBRANCH   3   4
ENDBRANCH   2   3
ENDBRANCH   1   2
BRANCH   1  71
ATOM     71  C   UNL     1       6.612   0.807   3.163  1.00  0.00     0.021 C 
BRANCH  71  72
ATOM     72  C   UNL     1       7.665   1.904   2.941  1.00  0.00     0.116 C 
BRANCH  72  73
ATOM     73  N   UNL     1       7.502   3.008   3.851  1.00  0.00    -0.356 N 
ATOM     74  C   UNL     1       7.972   3.037   5.119  1.00  0.00     0.227 C 
ATOM     75  H   UNL     1       7.013   3.799   3.527  1.00  0.00     0.163 HD
ATOM     76  O   UNL     1       7.104   3.173   5.974  1.00  0.00    -0.275 OA
BRANCH  74  77
ATOM     77  C   UNL     1       9.457   2.902   5.387  1.00  0.00     0.127 C 
ATOM     78  C   UNL     1       9.758   2.067   6.639  1.00  0.00     0.127 C 
ATOM     79  C   UNL     1      10.267   4.183   5.721  1.00  0.00     0.155 C 
ATOM     80  C   UNL     1      10.827   2.865   7.362  1.00  0.00     0.155 C 
ATOM     81  C   UNL     1      11.728   3.876   5.526  1.00  0.00     0.004 C 
ATOM     82  O   UNL     1      10.287   4.191   7.180  1.00  0.00    -0.365 OA
ATOM     83  C   UNL     1      12.058   3.018   6.505  1.00  0.00     0.004 C 
BRANCH  78  84
ATOM     84  C   UNL     1       8.579   1.699   7.505  1.00  0.00     0.231 C 
ATOM     85  O   UNL     1       8.199   0.514   7.401  1.00  0.00    -0.274 OA
ATOM     86  N   UNL     1       7.887   2.400   8.425  1.00  0.00    -0.325 N 
ATOM     87  H   UNL     1       7.245   1.766   8.819  1.00  0.00     0.169 HD
BRANCH  86  88
ATOM     88  C   UNL     1       7.664   3.640   9.086  1.00  0.00     0.044 A 
ATOM     89  C   UNL     1       7.402   3.333  10.456  1.00  0.00     0.026 A 
ATOM     90  C   UNL     1       7.562   5.010   8.703  1.00  0.00    -0.020 A 
ATOM     91  C   UNL     1       7.119   4.282  11.433  1.00  0.00     0.002 A 
ATOM     92  C   UNL     1       7.291   5.952   9.742  1.00  0.00     0.006 A 
ATOM     93  C   UNL     1       7.071   5.606  11.072  1.00  0.00     0.000 A 
BRANCH  90  94
ATOM     94  C   UNL     1       7.725   5.697   7.348  1.00  0.00     0.073 C 
BRANCH  94  95
ATOM     95  C   UNL     1       6.583   6.472   6.655  1.00  0.00    -0.044 A 
ATOM     96  C   UNL     1       6.019   5.988   5.461  1.00  0.00     0.004 A 
ATOM     97  C   UNL     1       6.182   7.761   7.037  1.00  0.00     0.004 A 
ATOM     98  C   UNL     1       5.120   6.724   4.681  1.00  0.00     0.000 A 
ATOM     99  C   UNL     1       5.266   8.505   6.268  1.00  0.00     0.000 A 
ATOM    100  C   UNL     1       4.741   7.991   5.086  1.00  0.00     0.000 A 
ENDBRANCH  94  95
ENDBRANCH  90  94
ENDBRANCH  86  88
ENDBRANCH  78  84
ENDBRANCH  74  77
ENDBRANCH  72  73
ENDBRANCH  71  72
ENDBRANCH   1  71
TORSDOF 20
