REMARK SMILES O=C(NCCCCCCNC(=O)c1cc(F)c(F)cc1NS(=O)(=O)c1ccc2c(c1)CCC2)c1ccc(-c2c3nc(c(-c4ccc(S(=O)(=O)[O-])cc4)c4ccc([nH]4)c(-c4ccc(S(=O)(=O)[O-])cc4)c4nc(c(-c5ccc(S(=O)(=O)[O-])cc5)c5ccc2[nH]5)C=C4)C=C3)cc1
REMARK SMILES IDX 6 1 5 2 4 3 3 4 1 5 2 6 34 8 35 9 93 10 36 11 92 12 37 13
REMARK SMILES IDX 38 14 39 15 86 16 40 17 91 18 85 19 87 20 41 21 90 22 84 23
REMARK SMILES IDX 83 24 42 26 72 27 53 28 71 29 54 30 57 31 70 32 88 33 55 34
REMARK SMILES IDX 56 35 69 37 89 38 58 39 43 40 44 41 52 42 45 43 51 44 46 45
REMARK SMILES IDX 47 46 48 47 49 48 50 49 73 50 74 51 82 52 75 53 81 54 76 55
REMARK SMILES IDX 77 56 78 57 79 58 80 59 59 60 60 61 68 62 61 63 67 64 62 65
REMARK SMILES IDX 63 66 64 67 65 68 66 69 7 70 8 71 9 72 10 73 11 74 12 76
REMARK SMILES IDX 13 77 14 78 20 79 15 80 19 81 16 82 17 83 18 84 21 85 22 87
REMARK SMILES IDX 23 88 24 89 25 90 26 91 30 92 27 93 29 94 28 95 31 96 33 97
REMARK SMILES IDX 32 98
REMARK H PARENT 3 7 87 25 57 36 10 75 21 86
REMARK Flexibility Score: inf
ROOT
ATOM      1  C   UNL     1       4.154  -1.277   3.693  1.00  0.00     0.002 C 
ENDROOT
BRANCH   1   2
ATOM      2  C   UNL     1       4.695  -0.245   2.698  1.00  0.00     0.021 C 
BRANCH   2   3
ATOM      3  C   UNL     1       4.475  -0.581   1.225  1.00  0.00     0.116 C 
BRANCH   3   4
ATOM      4  N   UNL     1       3.067  -0.722   0.899  1.00  0.00    -0.352 N 
ATOM      5  O   UNL     1       1.093  -0.185  -0.034  1.00  0.00    -0.269 OA
ATOM      6  C   UNL     1       2.315  -0.059  -0.037  1.00  0.00     0.251 C 
ATOM      7  H   UNL     1       2.580  -1.393   1.429  1.00  0.00     0.163 HD
BRANCH   6   8
ATOM      8  C   UNL     1       2.966   0.815  -1.036  1.00  0.00     0.039 A 
ATOM      9  C   UNL     1       4.098   0.392  -1.741  1.00  0.00     0.014 A 
ATOM     10  C   UNL     1       2.399   2.064  -1.304  1.00  0.00     0.014 A 
ATOM     11  C   UNL     1       4.716   1.254  -2.646  1.00  0.00     0.010 A 
ATOM     12  C   UNL     1       2.988   2.905  -2.250  1.00  0.00     0.010 A 
ATOM     13  C   UNL     1       4.161   2.514  -2.915  1.00  0.00    -0.014 A 
BRANCH  13  14
ATOM     14  C   UNL     1       4.770   3.405  -3.933  1.00  0.00     0.031 A 
ATOM     15  C   UNL     1       5.400   4.708  -3.534  1.00  0.00     0.074 A 
ATOM     16  C   UNL     1       4.709   3.053  -5.231  1.00  0.00     0.049 A 
ATOM     17  N   UNL     1       5.903   5.646  -4.295  1.00  0.00    -0.248 NA
ATOM     18  C   UNL     1       5.464   5.000  -2.094  1.00  0.00     0.031 C 
ATOM     19  C   UNL     1       4.115   1.815  -5.742  1.00  0.00     0.029 A 
ATOM     20  N   UNL     1       5.132   3.710  -6.358  1.00  0.00    -0.354 N 
ATOM     21  C   UNL     1       6.319   6.652  -3.433  1.00  0.00     0.074 A 
ATOM     22  C   UNL     1       5.997   6.215  -2.090  1.00  0.00     0.031 C 
ATOM     23  C   UNL     1       4.212   1.802  -7.079  1.00  0.00     0.029 A 
ATOM     24  C   UNL     1       4.825   3.050  -7.524  1.00  0.00     0.049 A 
ATOM     25  H   UNL     1       5.610   4.571  -6.335  1.00  0.00     0.167 HD
ATOM     26  C   UNL     1       6.913   7.833  -3.732  1.00  0.00     0.031 A 
ATOM     27  C   UNL     1       4.983   3.417  -8.810  1.00  0.00     0.031 A 
ATOM     28  C   UNL     1       7.220   8.266  -5.070  1.00  0.00     0.049 A 
ATOM     29  C   UNL     1       5.618   4.740  -9.124  1.00  0.00     0.074 A 
ATOM     30  C   UNL     1       7.856   9.427  -5.474  1.00  0.00     0.029 A 
ATOM     31  N   UNL     1       6.902   7.562  -6.223  1.00  0.00    -0.354 N 
ATOM     32  N   UNL     1       6.049   5.658  -8.293  1.00  0.00    -0.248 NA
ATOM     33  C   UNL     1       5.793   5.076 -10.543  1.00  0.00     0.031 C 
ATOM     34  C   UNL     1       7.880   9.447  -6.873  1.00  0.00     0.029 A 
ATOM     35  C   UNL     1       7.304   8.275  -7.339  1.00  0.00     0.049 A 
ATOM     36  H   UNL     1       6.455   6.685  -6.243  1.00  0.00     0.167 HD
ATOM     37  C   UNL     1       6.565   6.675  -9.087  1.00  0.00     0.074 A 
ATOM     38  C   UNL     1       6.396   6.256 -10.465  1.00  0.00     0.031 C 
ATOM     39  C   UNL     1       7.131   7.846  -8.705  1.00  0.00     0.031 A 
BRANCH  26  40
ATOM     40  C   UNL     1       7.225   8.757  -2.585  1.00  0.00    -0.014 A 
ATOM     41  C   UNL     1       8.260   8.470  -1.676  1.00  0.00     0.010 A 
ATOM     42  C   UNL     1       6.470   9.931  -2.414  1.00  0.00     0.010 A 
ATOM     43  C   UNL     1       8.490   9.307  -0.581  1.00  0.00     0.020 A 
ATOM     44  C   UNL     1       6.714  10.784  -1.334  1.00  0.00     0.020 A 
ATOM     45  C   UNL     1       7.705  10.451  -0.408  1.00  0.00     0.054 A 
BRANCH  45  46
ATOM     46  S   UNL     1       7.999  11.504   1.039  1.00  0.00     0.124 S 
ATOM     47  O   UNL     1       7.364  10.730   2.104  1.00  0.00    -0.237 OA
ATOM     48  O   UNL     1       9.457  11.573   1.099  1.00  0.00    -0.237 OA
ATOM     49  O   UNL     1       7.333  12.758   0.697  1.00  0.00    -0.744 OA
ENDBRANCH  45  46
ENDBRANCH  26  40
BRANCH  27  50
ATOM     50  C   UNL     1       4.508   2.502  -9.880  1.00  0.00    -0.014 A 
ATOM     51  C   UNL     1       5.420   1.727 -10.614  1.00  0.00     0.010 A 
ATOM     52  C   UNL     1       3.127   2.328 -10.094  1.00  0.00     0.010 A 
ATOM     53  C   UNL     1       4.960   0.780 -11.534  1.00  0.00     0.020 A 
ATOM     54  C   UNL     1       2.664   1.367 -10.996  1.00  0.00     0.020 A 
ATOM     55  C   UNL     1       3.584   0.598 -11.710  1.00  0.00     0.054 A 
BRANCH  55  56
ATOM     56  S   UNL     1       3.010  -0.718 -12.820  1.00  0.00     0.124 S 
ATOM     57  O   UNL     1       3.239  -0.128 -14.135  1.00  0.00    -0.237 OA
ATOM     58  O   UNL     1       3.883  -1.834 -12.466  1.00  0.00    -0.237 OA
ATOM     59  O   UNL     1       1.608  -0.893 -12.445  1.00  0.00    -0.744 OA
ENDBRANCH  55  56
ENDBRANCH  27  50
BRANCH  39  60
ATOM     60  C   UNL     1       7.645   8.757  -9.786  1.00  0.00    -0.014 A 
ATOM     61  C   UNL     1       6.768   9.553 -10.541  1.00  0.00     0.010 A 
ATOM     62  C   UNL     1       9.032   8.888  -9.976  1.00  0.00     0.010 A 
ATOM     63  C   UNL     1       7.271  10.465 -11.473  1.00  0.00     0.020 A 
ATOM     64  C   UNL     1       9.539   9.812 -10.892  1.00  0.00     0.020 A 
ATOM     65  C   UNL     1       8.654  10.593 -11.639  1.00  0.00     0.054 A 
BRANCH  65  66
ATOM     66  S   UNL     1       9.287  11.845 -12.789  1.00  0.00     0.124 S 
ATOM     67  O   UNL     1       9.041  11.220 -14.085  1.00  0.00    -0.237 OA
ATOM     68  O   UNL     1       8.459  13.010 -12.485  1.00  0.00    -0.237 OA
ATOM     69  O   UNL     1      10.694  11.976 -12.417  1.00  0.00    -0.744 OA
ENDBRANCH  65  66
ENDBRANCH  39  60
ENDBRANCH  13  14
ENDBRANCH   6   8
ENDBRANCH   3   4
ENDBRANCH   2   3
ENDBRANCH   1   2
BRANCH   1  70
ATOM     70  C   UNL     1       4.657  -2.711   3.502  1.00  0.00     0.002 C 
BRANCH  70  71
ATOM     71  C   UNL     1       6.177  -2.873   3.472  1.00  0.00     0.021 C 
BRANCH  71  72
ATOM     72  C   UNL     1       6.895  -2.367   4.719  1.00  0.00     0.116 C 
BRANCH  72  73
ATOM     73  N   UNL     1       6.663  -3.224   5.877  1.00  0.00    -0.352 N 
ATOM     74  C   UNL     1       7.599  -3.836   6.680  1.00  0.00     0.253 C 
ATOM     75  H   UNL     1       5.721  -3.385   6.112  1.00  0.00     0.163 HD
ATOM     76  O   UNL     1       7.280  -4.667   7.518  1.00  0.00    -0.269 OA
BRANCH  74  77
ATOM     77  C   UNL     1       9.013  -3.498   6.445  1.00  0.00     0.067 A 
ATOM     78  C   UNL     1       9.406  -2.165   6.648  1.00  0.00     0.058 A 
ATOM     79  C   UNL     1       9.854  -4.412   5.792  1.00  0.00     0.065 A 
ATOM     80  C   UNL     1      10.603  -1.728   6.100  1.00  0.00     0.159 A 
ATOM     81  C   UNL     1      11.012  -3.926   5.181  1.00  0.00     0.070 A 
ATOM     82  F   UNL     1      10.969  -0.450   6.256  1.00  0.00    -0.204 F 
ATOM     83  C   UNL     1      11.381  -2.592   5.341  1.00  0.00     0.160 A 
ATOM     84  F   UNL     1      12.511  -2.155   4.770  1.00  0.00    -0.204 F 
BRANCH  79  85
ATOM     85  N   UNL     1       9.624  -5.835   5.789  1.00  0.00    -0.279 N 
ATOM     86  H   UNL     1       9.055  -6.265   5.111  1.00  0.00     0.180 HD
BRANCH  85  87
ATOM     87  S   UNL     1      10.395  -6.744   7.035  1.00  0.00     0.261 S 
ATOM     88  O   UNL     1      10.190  -6.074   8.301  1.00  0.00    -0.201 OA
ATOM     89  O   UNL     1       9.983  -8.118   6.838  1.00  0.00    -0.201 OA
BRANCH  87  90
ATOM     90  C   UNL     1      12.133  -6.641   6.657  1.00  0.00     0.088 A 
ATOM     91  C   UNL     1      12.789  -7.690   5.988  1.00  0.00     0.022 A 
ATOM     92  C   UNL     1      12.825  -5.487   7.043  1.00  0.00     0.026 A 
ATOM     93  C   UNL     1      14.136  -7.554   5.630  1.00  0.00     0.005 A 
ATOM     94  C   UNL     1      14.118  -5.326   6.587  1.00  0.00    -0.043 A 
ATOM     95  C   UNL     1      14.773  -6.353   5.901  1.00  0.00    -0.045 A 
ATOM     96  C   UNL     1      14.981  -4.107   6.694  1.00  0.00     0.036 C 
ATOM     97  C   UNL     1      16.172  -5.937   5.565  1.00  0.00     0.036 C 
ATOM     98  C   UNL     1      16.034  -4.408   5.618  1.00  0.00     0.010 C 
ENDBRANCH  87  90
ENDBRANCH  85  87
ENDBRANCH  79  85
ENDBRANCH  74  77
ENDBRANCH  72  73
ENDBRANCH  71  72
ENDBRANCH  70  71
ENDBRANCH   1  70
TORSDOF 19
