REMARK SMILES CC(=O)N1CCC[C@@H](Cc2nccnc2C(=O)NCCCCCCNC(=O)c2ccc(-c3c4nc(c(-c5ccc(S(=O)(=O)[O-])cc5)c5ccc([nH]5)c(-c5ccc(S(=O)(=O)[O-])cc5)c5nc(c(-c6ccc(S(=O)(=O)[O-])cc6)c6ccc3[nH]6)C=C5)C=C4)cc2)C1
REMARK SMILES IDX 21 1 20 2 19 3 18 4 16 5 17 6 15 8 10 9 11 10 12 11 14 12
REMARK SMILES IDX 13 13 9 14 8 15 4 16 5 17 88 18 6 19 7 20 2 21 1 22 3 23
REMARK SMILES IDX 22 24 23 25 24 26 25 27 26 28 27 30 28 31 29 32 87 33 30 34
REMARK SMILES IDX 86 35 31 36 32 37 33 38 80 39 34 40 85 41 79 42 81 43 35 44
REMARK SMILES IDX 84 45 78 46 77 47 36 49 66 50 47 51 65 52 48 53 51 54 64 55
REMARK SMILES IDX 82 56 49 57 50 58 63 60 83 61 52 62 37 63 38 64 46 65 39 66
REMARK SMILES IDX 45 67 40 68 41 69 42 70 43 71 44 72 67 73 68 74 76 75 69 76
REMARK SMILES IDX 75 77 70 78 71 79 72 80 73 81 74 82 53 83 54 84 62 85 55 86
REMARK SMILES IDX 61 87 56 88 57 89 58 90 59 91 60 92
REMARK H PARENT 18 7 25 29 81 48 51 59
REMARK Flexibility Score: inf
ROOT
ATOM      1  C   UNL     1       4.722  -7.322  -2.496  1.00  0.00     0.002 C 
ENDROOT
BRANCH   1   2
ATOM      2  C   UNL     1       4.358  -5.947  -3.052  1.00  0.00     0.021 C 
BRANCH   2   3
ATOM      3  C   UNL     1       5.488  -5.243  -3.830  1.00  0.00     0.116 C 
BRANCH   3   4
ATOM      4  N   UNL     1       5.161  -5.221  -5.248  1.00  0.00    -0.351 N 
ATOM      5  C   UNL     1       4.619  -4.357  -6.166  1.00  0.00     0.271 C 
ATOM      6  O   UNL     1       4.474  -4.880  -7.283  1.00  0.00    -0.267 OA
ATOM      7  H   UNL     1       5.398  -6.077  -5.672  1.00  0.00     0.163 HD
BRANCH   5   8
ATOM      8  C   UNL     1       4.233  -2.895  -6.031  1.00  0.00     0.149 A 
ATOM      9  C   UNL     1       3.684  -2.187  -4.950  1.00  0.00     0.072 A 
ATOM     10  N   UNL     1       3.302  -0.877  -5.069  1.00  0.00    -0.257 NA
ATOM     11  C   UNL     1       3.422  -0.304  -6.283  1.00  0.00     0.131 A 
ATOM     12  N   UNL     1       4.357  -2.264  -7.247  1.00  0.00    -0.248 NA
ATOM     13  C   UNL     1       3.938  -0.989  -7.354  1.00  0.00     0.132 A 
BRANCH   9  14
ATOM     14  C   UNL     1       3.489  -2.718  -3.572  1.00  0.00     0.064 C 
BRANCH  14  15
ATOM     15  C   UNL     1       2.109  -2.675  -2.908  1.00  0.00     0.015 C 
ATOM     16  N   UNL     1       0.311  -1.438  -1.826  1.00  0.00    -0.343 N 
ATOM     17  C   UNL     1      -0.731  -2.190  -2.523  1.00  0.00     0.119 C 
ATOM     18  C   UNL     1       1.571  -1.280  -2.564  1.00  0.00     0.123 C 
ATOM     19  C   UNL     1      -0.236  -3.576  -2.922  1.00  0.00     0.022 C 
ATOM     20  C   UNL     1       1.071  -3.480  -3.707  1.00  0.00     0.007 C 
BRANCH  16  21
ATOM     21  C   UNL     1       0.083  -1.025  -0.522  1.00  0.00     0.219 C 
ATOM     22  C   UNL     1       1.086  -0.084   0.094  1.00  0.00     0.114 C 
ATOM     23  O   UNL     1      -0.906  -1.380   0.120  1.00  0.00    -0.275 OA
ENDBRANCH  16  21
ENDBRANCH  14  15
ENDBRANCH   9  14
ENDBRANCH   5   8
ENDBRANCH   3   4
ENDBRANCH   2   3
ENDBRANCH   1   2
BRANCH   1  24
ATOM     24  C   UNL     1       5.714  -7.280  -1.331  1.00  0.00     0.002 C 
BRANCH  24  25
ATOM     25  C   UNL     1       5.269  -6.456  -0.117  1.00  0.00     0.021 C 
BRANCH  25  26
ATOM     26  C   UNL     1       3.931  -6.872   0.491  1.00  0.00     0.116 C 
BRANCH  26  27
ATOM     27  N   UNL     1       3.962  -8.247   0.965  1.00  0.00    -0.352 N 
ATOM     28  C   UNL     1       3.937  -8.723   2.250  1.00  0.00     0.251 C 
ATOM     29  H   UNL     1       4.009  -8.934   0.261  1.00  0.00     0.163 HD
ATOM     30  O   UNL     1       4.258  -9.890   2.478  1.00  0.00    -0.269 OA
BRANCH  28  31
ATOM     31  C   UNL     1       3.526  -7.839   3.359  1.00  0.00     0.039 A 
ATOM     32  C   UNL     1       4.254  -7.849   4.552  1.00  0.00     0.014 A 
ATOM     33  C   UNL     1       2.396  -7.025   3.233  1.00  0.00     0.014 A 
ATOM     34  C   UNL     1       3.878  -7.006   5.601  1.00  0.00     0.010 A 
ATOM     35  C   UNL     1       2.064  -6.138   4.253  1.00  0.00     0.010 A 
ATOM     36  C   UNL     1       2.794  -6.127   5.451  1.00  0.00    -0.014 A 
BRANCH  36  37
ATOM     37  C   UNL     1       2.381  -5.204   6.539  1.00  0.00     0.031 A 
ATOM     38  C   UNL     1       1.028  -5.364   7.181  1.00  0.00     0.074 A 
ATOM     39  C   UNL     1       3.184  -4.181   6.894  1.00  0.00     0.049 A 
ATOM     40  N   UNL     1       0.438  -4.600   8.063  1.00  0.00    -0.248 NA
ATOM     41  C   UNL     1       0.224  -6.521   6.755  1.00  0.00     0.031 C 
ATOM     42  C   UNL     1       4.507  -3.905   6.329  1.00  0.00     0.029 A 
ATOM     43  N   UNL     1       2.997  -3.174   7.808  1.00  0.00    -0.354 N 
ATOM     44  C   UNL     1      -0.813  -5.168   8.278  1.00  0.00     0.074 A 
ATOM     45  C   UNL     1      -0.913  -6.315   7.403  1.00  0.00     0.031 C 
ATOM     46  C   UNL     1       5.017  -2.811   6.919  1.00  0.00     0.029 A 
ATOM     47  C   UNL     1       4.043  -2.283   7.870  1.00  0.00     0.049 A 
ATOM     48  H   UNL     1       2.190  -3.096   8.366  1.00  0.00     0.167 HD
ATOM     49  C   UNL     1      -1.785  -4.779   9.137  1.00  0.00     0.031 A 
ATOM     50  C   UNL     1       4.196  -1.160   8.599  1.00  0.00     0.031 A 
ATOM     51  C   UNL     1      -1.675  -3.646  10.016  1.00  0.00     0.049 A 
ATOM     52  C   UNL     1       3.098  -0.742   9.539  1.00  0.00     0.074 A 
ATOM     53  C   UNL     1      -2.583  -3.197  10.959  1.00  0.00     0.029 A 
ATOM     54  N   UNL     1      -0.590  -2.783  10.062  1.00  0.00    -0.354 N 
ATOM     55  N   UNL     1       1.943  -1.321   9.765  1.00  0.00    -0.248 NA
ATOM     56  C   UNL     1       3.327   0.475  10.331  1.00  0.00     0.031 C 
ATOM     57  C   UNL     1      -2.066  -2.036  11.543  1.00  0.00     0.029 A 
ATOM     58  C   UNL     1      -0.811  -1.796  11.006  1.00  0.00     0.049 A 
ATOM     59  H   UNL     1       0.218  -2.862   9.505  1.00  0.00     0.167 HD
ATOM     60  C   UNL     1       1.324  -0.560  10.751  1.00  0.00     0.074 A 
ATOM     61  C   UNL     1       2.234   0.517  11.081  1.00  0.00     0.031 C 
ATOM     62  C   UNL     1       0.113  -0.740  11.333  1.00  0.00     0.031 A 
BRANCH  49  63
ATOM     63  C   UNL     1      -3.056  -5.587   9.167  1.00  0.00    -0.014 A 
ATOM     64  C   UNL     1      -3.075  -6.892   9.692  1.00  0.00     0.010 A 
ATOM     65  C   UNL     1      -4.257  -5.020   8.703  1.00  0.00     0.010 A 
ATOM     66  C   UNL     1      -4.261  -7.630   9.715  1.00  0.00     0.020 A 
ATOM     67  C   UNL     1      -5.453  -5.744   8.752  1.00  0.00     0.020 A 
ATOM     68  C   UNL     1      -5.443  -7.051   9.243  1.00  0.00     0.054 A 
BRANCH  68  69
ATOM     69  S   UNL     1      -6.973  -8.023   9.311  1.00  0.00     0.124 S 
ATOM     70  O   UNL     1      -6.761  -8.994   8.241  1.00  0.00    -0.237 OA
ATOM     71  O   UNL     1      -6.947  -8.568  10.666  1.00  0.00    -0.237 OA
ATOM     72  O   UNL     1      -8.022  -7.038   9.059  1.00  0.00    -0.744 OA
ENDBRANCH  68  69
ENDBRANCH  49  63
BRANCH  50  73
ATOM     73  C   UNL     1       5.443  -0.357   8.477  1.00  0.00    -0.014 A 
ATOM     74  C   UNL     1       6.373  -0.318   9.531  1.00  0.00     0.010 A 
ATOM     75  C   UNL     1       5.713   0.369   7.302  1.00  0.00     0.010 A 
ATOM     76  C   UNL     1       7.537   0.448   9.422  1.00  0.00     0.020 A 
ATOM     77  C   UNL     1       6.889   1.114   7.178  1.00  0.00     0.020 A 
ATOM     78  C   UNL     1       7.788   1.159   8.245  1.00  0.00     0.054 A 
BRANCH  78  79
ATOM     79  S   UNL     1       9.327   2.110   8.108  1.00  0.00     0.124 S 
ATOM     80  O   UNL     1       9.055   3.255   8.971  1.00  0.00    -0.237 OA
ATOM     81  O   UNL     1      10.328   1.167   8.602  1.00  0.00    -0.237 OA
ATOM     82  O   UNL     1       9.417   2.409   6.680  1.00  0.00    -0.744 OA
ENDBRANCH  78  79
ENDBRANCH  50  73
BRANCH  62  83
ATOM     83  C   UNL     1      -0.284   0.212  12.429  1.00  0.00    -0.014 A 
ATOM     84  C   UNL     1      -0.670   1.534  12.147  1.00  0.00     0.010 A 
ATOM     85  C   UNL     1      -0.346  -0.254  13.755  1.00  0.00     0.010 A 
ATOM     86  C   UNL     1      -1.093   2.379  13.177  1.00  0.00     0.020 A 
ATOM     87  C   UNL     1      -0.794   0.579  14.783  1.00  0.00     0.020 A 
ATOM     88  C   UNL     1      -1.156   1.894  14.488  1.00  0.00     0.054 A 
BRANCH  88  89
ATOM     89  S   UNL     1      -1.770   2.990  15.796  1.00  0.00     0.124 S 
ATOM     90  O   UNL     1      -0.647   3.906  15.978  1.00  0.00    -0.237 OA
ATOM     91  O   UNL     1      -2.965   3.574  15.191  1.00  0.00    -0.237 OA
ATOM     92  O   UNL     1      -2.024   2.086  16.916  1.00  0.00    -0.744 OA
ENDBRANCH  88  89
ENDBRANCH  62  83
ENDBRANCH  36  37
ENDBRANCH  28  31
ENDBRANCH  26  27
ENDBRANCH  25  26
ENDBRANCH  24  25
ENDBRANCH   1  24
TORSDOF 19
