REMARK SMILES Cc1ccc(C(=O)NCCCCCCNC(=O)c2ccc(-c3c4nc(c(-c5ccc(S(=O)(=O)[O-])cc5)c5ccc([nH]5)c(-c5ccc(S(=O)(=O)[O-])cc5)c5nc(c(-c6ccc(S(=O)(=O)[O-])cc6)c6ccc3[nH]6)C=C5)C=C4)cc2)c(Oc2cccc(F)c2C(N)=O)c1
REMARK SMILES IDX 11 1 10 2 9 3 8 4 6 5 7 6 5 8 1 9 2 10 3 11 90 12 4 13 78 14
REMARK SMILES IDX 79 15 80 16 81 17 86 18 82 19 84 20 83 21 85 22 87 23 88 24
REMARK SMILES IDX 89 25 12 28 13 29 14 30 15 31 16 32 17 34 18 35 19 36 77 37
REMARK SMILES IDX 20 38 76 39 21 40 22 41 23 42 70 43 24 44 75 45 69 46 71 47
REMARK SMILES IDX 25 48 74 49 68 50 67 51 26 53 56 54 37 55 55 56 38 57 41 58
REMARK SMILES IDX 54 59 72 60 39 61 40 62 53 64 73 65 42 66 27 67 28 68 36 69
REMARK SMILES IDX 29 70 35 71 30 72 31 73 32 74 33 75 34 76 57 77 58 78 66 79
REMARK SMILES IDX 59 80 65 81 60 82 61 83 62 84 63 85 64 86 43 87 44 88 52 89
REMARK SMILES IDX 45 90 51 91 46 92 47 93 48 94 49 95 50 96
REMARK H PARENT 8 7 88 26 88 27 15 33 71 52 41 63
REMARK Flexibility Score: inf
ROOT
ATOM      1  C   UNL     1      -5.958   3.523  -1.092  1.00  0.00     0.002 C 
ENDROOT
BRANCH   1   2
ATOM      2  C   UNL     1      -4.533   3.165  -1.518  1.00  0.00     0.021 C 
BRANCH   2   3
ATOM      3  C   UNL     1      -3.625   2.480  -0.503  1.00  0.00     0.116 C 
BRANCH   3   4
ATOM      4  N   UNL     1      -3.914   1.105  -0.193  1.00  0.00    -0.352 N 
ATOM      5  C   UNL     1      -3.076   0.080   0.185  1.00  0.00     0.255 C 
ATOM      6  O   UNL     1      -3.623  -0.969   0.543  1.00  0.00    -0.269 OA
ATOM      7  H   UNL     1      -4.864   0.857  -0.263  1.00  0.00     0.163 HD
BRANCH   5   8
ATOM      8  C   UNL     1      -1.572   0.094   0.131  1.00  0.00     0.082 A 
ATOM      9  C   UNL     1       2.735  -0.502   0.053  1.00  0.00     0.044 C 
ATOM     10  C   UNL     1       1.247  -0.314   0.098  1.00  0.00    -0.047 A 
ATOM     11  C   UNL     1       0.384  -1.355  -0.230  1.00  0.00     0.004 A 
ATOM     12  C   UNL     1       0.699   0.908   0.494  1.00  0.00     0.051 A 
ATOM     13  C   UNL     1      -1.000  -1.155  -0.200  1.00  0.00     0.018 A 
ATOM     14  C   UNL     1      -0.690   1.140   0.456  1.00  0.00     0.140 A 
BRANCH  14  15
ATOM     15  O   UNL     1      -1.170   2.356   0.864  1.00  0.00    -0.456 OA
BRANCH  15  16
ATOM     16  C   UNL     1      -0.612   3.547   0.429  1.00  0.00     0.143 A 
ATOM     17  C   UNL     1      -0.869   4.594   1.335  1.00  0.00     0.048 A 
ATOM     18  C   UNL     1       0.053   3.842  -0.776  1.00  0.00     0.117 A 
ATOM     19  C   UNL     1      -0.459   5.901   1.072  1.00  0.00     0.007 A 
ATOM     20  C   UNL     1       0.459   5.160  -1.024  1.00  0.00     0.139 A 
ATOM     21  C   UNL     1       0.206   6.184  -0.114  1.00  0.00     0.040 A 
ATOM     22  F   UNL     1       1.086   5.481  -2.165  1.00  0.00    -0.206 F 
BRANCH  18  23
ATOM     23  C   UNL     1       0.462   2.870  -1.805  1.00  0.00     0.255 C 
ATOM     24  N   UNL     1      -0.511   2.289  -2.565  1.00  0.00    -0.365 N 
ATOM     25  O   UNL     1       1.647   2.610  -1.973  1.00  0.00    -0.269 OA
ATOM     26  H   UNL     1      -1.456   2.515  -2.411  1.00  0.00     0.159 HD
ATOM     27  H   UNL     1      -0.267   1.645  -3.268  1.00  0.00     0.159 HD
ENDBRANCH  18  23
ENDBRANCH  15  16
ENDBRANCH  14  15
ENDBRANCH   5   8
ENDBRANCH   3   4
ENDBRANCH   2   3
ENDBRANCH   1   2
BRANCH   1  28
ATOM     28  C   UNL     1      -6.166   4.198   0.271  1.00  0.00     0.002 C 
BRANCH  28  29
ATOM     29  C   UNL     1      -5.230   5.345   0.649  1.00  0.00     0.021 C 
BRANCH  29  30
ATOM     30  C   UNL     1      -5.297   6.566  -0.258  1.00  0.00     0.116 C 
BRANCH  30  31
ATOM     31  N   UNL     1      -5.951   7.705   0.371  1.00  0.00    -0.352 N 
ATOM     32  C   UNL     1      -5.897   9.034  -0.022  1.00  0.00     0.251 C 
ATOM     33  H   UNL     1      -6.494   7.510   1.168  1.00  0.00     0.163 HD
ATOM     34  O   UNL     1      -6.281   9.950   0.673  1.00  0.00    -0.269 OA
BRANCH  32  35
ATOM     35  C   UNL     1      -5.449   9.278  -1.409  1.00  0.00     0.039 A 
ATOM     36  C   UNL     1      -6.436   9.598  -2.347  1.00  0.00     0.014 A 
ATOM     37  C   UNL     1      -4.169   8.897  -1.798  1.00  0.00     0.014 A 
ATOM     38  C   UNL     1      -6.190   9.367  -3.696  1.00  0.00     0.010 A 
ATOM     39  C   UNL     1      -3.960   8.579  -3.125  1.00  0.00     0.010 A 
ATOM     40  C   UNL     1      -4.983   8.773  -4.065  1.00  0.00    -0.014 A 
BRANCH  40  41
ATOM     41  C   UNL     1      -4.723   8.256  -5.401  1.00  0.00     0.031 A 
ATOM     42  C   UNL     1      -3.861   9.019  -6.328  1.00  0.00     0.074 A 
ATOM     43  C   UNL     1      -5.206   7.050  -5.774  1.00  0.00     0.049 A 
ATOM     44  N   UNL     1      -3.930   8.940  -7.615  1.00  0.00    -0.248 NA
ATOM     45  C   UNL     1      -2.863   9.977  -5.859  1.00  0.00     0.031 C 
ATOM     46  C   UNL     1      -4.809   6.275  -6.947  1.00  0.00     0.029 A 
ATOM     47  N   UNL     1      -6.325   6.372  -5.286  1.00  0.00    -0.354 N 
ATOM     48  C   UNL     1      -2.806   9.556  -8.113  1.00  0.00     0.074 A 
ATOM     49  C   UNL     1      -2.225  10.265  -6.996  1.00  0.00     0.031 C 
ATOM     50  C   UNL     1      -5.813   5.445  -7.271  1.00  0.00     0.029 A 
ATOM     51  C   UNL     1      -6.932   5.770  -6.401  1.00  0.00     0.049 A 
ATOM     52  H   UNL     1      -6.628   6.325  -4.350  1.00  0.00     0.167 HD
ATOM     53  C   UNL     1      -2.371   9.274  -9.372  1.00  0.00     0.031 A 
ATOM     54  C   UNL     1      -8.202   6.041  -6.821  1.00  0.00     0.031 A 
ATOM     55  C   UNL     1      -3.253   8.344 -10.066  1.00  0.00     0.049 A 
ATOM     56  C   UNL     1      -8.262   6.512  -8.259  1.00  0.00     0.074 A 
ATOM     57  C   UNL     1      -3.183   6.981 -10.310  1.00  0.00     0.029 A 
ATOM     58  N   UNL     1      -4.555   8.729 -10.362  1.00  0.00    -0.354 N 
ATOM     59  N   UNL     1      -7.230   6.942  -8.931  1.00  0.00    -0.248 NA
ATOM     60  C   UNL     1      -9.492   6.574  -9.042  1.00  0.00     0.031 C 
ATOM     61  C   UNL     1      -4.470   6.538 -10.710  1.00  0.00     0.029 A 
ATOM     62  C   UNL     1      -5.314   7.634 -10.727  1.00  0.00     0.049 A 
ATOM     63  H   UNL     1      -4.890   9.654 -10.317  1.00  0.00     0.167 HD
ATOM     64  C   UNL     1      -7.614   7.314 -10.195  1.00  0.00     0.074 A 
ATOM     65  C   UNL     1      -9.044   7.060 -10.214  1.00  0.00     0.031 C 
ATOM     66  C   UNL     1      -6.713   7.797 -11.104  1.00  0.00     0.031 A 
BRANCH  53  67
ATOM     67  C   UNL     1      -0.964   9.602  -9.809  1.00  0.00    -0.014 A 
ATOM     68  C   UNL     1      -0.239   8.674 -10.583  1.00  0.00     0.010 A 
ATOM     69  C   UNL     1      -0.286  10.778  -9.434  1.00  0.00     0.010 A 
ATOM     70  C   UNL     1       1.119   8.854 -10.876  1.00  0.00     0.020 A 
ATOM     71  C   UNL     1       1.084  10.954  -9.688  1.00  0.00     0.020 A 
ATOM     72  C   UNL     1       1.782   9.982 -10.400  1.00  0.00     0.054 A 
BRANCH  72  73
ATOM     73  S   UNL     1       3.561  10.144 -10.705  1.00  0.00     0.124 S 
ATOM     74  O   UNL     1       4.084   8.869 -10.219  1.00  0.00    -0.237 OA
ATOM     75  O   UNL     1       3.613  10.334 -12.152  1.00  0.00    -0.237 OA
ATOM     76  O   UNL     1       3.944  11.308  -9.909  1.00  0.00    -0.744 OA
ENDBRANCH  72  73
ENDBRANCH  53  67
BRANCH  54  77
ATOM     77  C   UNL     1      -9.130   6.470  -5.738  1.00  0.00    -0.014 A 
ATOM     78  C   UNL     1      -9.484   5.509  -4.766  1.00  0.00     0.010 A 
ATOM     79  C   UNL     1      -9.292   7.833  -5.436  1.00  0.00     0.010 A 
ATOM     80  C   UNL     1      -9.832   5.901  -3.470  1.00  0.00     0.020 A 
ATOM     81  C   UNL     1      -9.649   8.227  -4.137  1.00  0.00     0.020 A 
ATOM     82  C   UNL     1      -9.854   7.258  -3.150  1.00  0.00     0.054 A 
BRANCH  82  83
ATOM     83  S   UNL     1      -9.961   7.718  -1.393  1.00  0.00     0.124 S 
ATOM     84  O   UNL     1     -11.271   7.200  -1.016  1.00  0.00    -0.237 OA
ATOM     85  O   UNL     1      -8.816   7.009  -0.822  1.00  0.00    -0.237 OA
ATOM     86  O   UNL     1      -9.840   9.172  -1.420  1.00  0.00    -0.744 OA
ENDBRANCH  82  83
ENDBRANCH  54  77
BRANCH  66  87
ATOM     87  C   UNL     1      -6.999   8.398 -12.469  1.00  0.00    -0.014 A 
ATOM     88  C   UNL     1      -8.262   8.792 -12.931  1.00  0.00     0.010 A 
ATOM     89  C   UNL     1      -5.902   8.682 -13.325  1.00  0.00     0.010 A 
ATOM     90  C   UNL     1      -8.428   9.395 -14.190  1.00  0.00     0.020 A 
ATOM     91  C   UNL     1      -6.048   9.320 -14.560  1.00  0.00     0.020 A 
ATOM     92  C   UNL     1      -7.320   9.656 -14.996  1.00  0.00     0.054 A 
BRANCH  92  93
ATOM     93  S   UNL     1      -7.543  10.503 -16.580  1.00  0.00     0.124 S 
ATOM     94  O   UNL     1      -7.927   9.402 -17.459  1.00  0.00    -0.237 OA
ATOM     95  O   UNL     1      -8.601  11.467 -16.285  1.00  0.00    -0.237 OA
ATOM     96  O   UNL     1      -6.233  11.091 -16.846  1.00  0.00    -0.744 OA
ENDBRANCH  92  93
ENDBRANCH  66  87
ENDBRANCH  40  41
ENDBRANCH  32  35
ENDBRANCH  30  31
ENDBRANCH  29  30
ENDBRANCH  28  29
ENDBRANCH   1  28
TORSDOF 19
