REMARK SMILES Cc1cc(C)c2c(c1)C=C(C(=O)NCCCCCCNC(=O)c1ccc(-c3c4nc(c(-c5ccc(S(=O)(=O)[O-])cc5)c5ccc([nH]5)c(-c5ccc(S(=O)(=O)[O-])cc5)c5nc(c(-c6ccc(S(=O)(=O)[O-])cc6)c6ccc3[nH]6)C=C5)C=C4)cc1)[C@@H](C(F)(F)F)O2
REMARK SMILES IDX 17 1 16 2 15 3 14 4 13 5 11 6 12 7 10 9 1 10 2 11 3 12 8 13
REMARK SMILES IDX 4 14 7 15 5 16 6 17 9 18 88 19 83 20 84 21 85 22 86 23 87 24
REMARK SMILES IDX 18 25 19 26 20 27 21 28 22 30 23 31 24 32 82 33 25 34 81 35
REMARK SMILES IDX 26 36 27 37 28 38 75 39 29 40 80 41 74 42 76 43 30 44 79 45
REMARK SMILES IDX 73 46 72 47 31 49 61 50 42 51 60 52 43 53 46 54 59 55 77 56
REMARK SMILES IDX 44 57 45 58 58 60 78 61 47 62 32 63 33 64 41 65 34 66 40 67
REMARK SMILES IDX 35 68 36 69 37 70 38 71 39 72 62 73 63 74 71 75 64 76 70 77
REMARK SMILES IDX 65 78 66 79 67 80 68 81 69 82 48 83 49 84 57 85 50 86 56 87
REMARK SMILES IDX 51 88 52 89 53 90 54 91 55 92
REMARK H PARENT 13 8 20 29 76 48 46 59
REMARK Flexibility Score: inf
ROOT
ATOM      1  C   UNL     1       0.162  10.603   6.078  1.00  0.00     0.002 C 
ENDROOT
BRANCH   1   2
ATOM      2  C   UNL     1       1.432   9.787   5.801  1.00  0.00     0.002 C 
BRANCH   2   3
ATOM      3  C   UNL     1       1.242   8.268   5.760  1.00  0.00     0.021 C 
BRANCH   3   4
ATOM      4  C   UNL     1       0.199   7.802   4.749  1.00  0.00     0.116 C 
BRANCH   4   5
ATOM      5  N   UNL     1       0.763   7.663   3.418  1.00  0.00    -0.352 N 
ATOM      6  C   UNL     1       0.938   6.671   2.514  1.00  0.00     0.251 C 
ATOM      7  O   UNL     1       1.474   7.018   1.456  1.00  0.00    -0.270 OA
ATOM      8  H   UNL     1       1.114   8.520   3.085  1.00  0.00     0.163 HD
BRANCH   6   9
ATOM      9  C   UNL     1       0.543   5.243   2.708  1.00  0.00     0.067 C 
ATOM     10  C   UNL     1       1.029  -0.228  -0.140  1.00  0.00     0.044 C 
ATOM     11  C   UNL     1       0.656   0.723   0.959  1.00  0.00    -0.050 A 
ATOM     12  C   UNL     1       0.038   0.259   2.127  1.00  0.00     0.010 A 
ATOM     13  C   UNL     1       0.958   2.086   0.838  1.00  0.00     0.015 A 
ATOM     14  C   UNL     1      -0.289   1.141   3.165  1.00  0.00    -0.008 A 
ATOM     15  C   UNL     1       0.639   2.978   1.865  1.00  0.00     0.018 A 
ATOM     16  C   UNL     1      -0.947   0.636   4.418  1.00  0.00     0.048 C 
ATOM     17  C   UNL     1       0.013   2.501   3.017  1.00  0.00     0.130 A 
ATOM     18  C   UNL     1       0.992   4.389   1.769  1.00  0.00     0.025 C 
ATOM     19  O   UNL     1      -0.284   3.314   4.072  1.00  0.00    -0.475 OA
ATOM     20  C   UNL     1      -0.327   4.743   3.826  1.00  0.00     0.314 C 
BRANCH  20  21
ATOM     21  C   UNL     1      -1.796   5.180   3.681  1.00  0.00     0.429 C 
ATOM     22  F   UNL     1      -2.464   4.994   4.846  1.00  0.00    -0.167 F 
ATOM     23  F   UNL     1      -1.919   6.493   3.376  1.00  0.00    -0.167 F 
ATOM     24  F   UNL     1      -2.449   4.489   2.720  1.00  0.00    -0.167 F 
ENDBRANCH  20  21
ENDBRANCH   6   9
ENDBRANCH   4   5
ENDBRANCH   3   4
ENDBRANCH   2   3
ENDBRANCH   1   2
BRANCH   1  25
ATOM     25  C   UNL     1      -0.679  10.130   7.267  1.00  0.00     0.021 C 
BRANCH  25  26
ATOM     26  C   UNL     1       0.072  10.072   8.592  1.00  0.00     0.116 C 
BRANCH  26  27
ATOM     27  N   UNL     1       0.543  11.382   9.005  1.00  0.00    -0.352 N 
ATOM     28  C   UNL     1       0.215  12.106  10.123  1.00  0.00     0.251 C 
ATOM     29  H   UNL     1       1.189  11.811   8.398  1.00  0.00     0.163 HD
ATOM     30  O   UNL     1       0.540  13.286  10.212  1.00  0.00    -0.269 OA
BRANCH  28  31
ATOM     31  C   UNL     1      -0.545  11.458  11.211  1.00  0.00     0.039 A 
ATOM     32  C   UNL     1      -1.653  12.116  11.748  1.00  0.00     0.014 A 
ATOM     33  C   UNL     1      -0.161  10.205  11.700  1.00  0.00     0.014 A 
ATOM     34  C   UNL     1      -2.405  11.495  12.747  1.00  0.00     0.010 A 
ATOM     35  C   UNL     1      -0.951   9.559  12.646  1.00  0.00     0.010 A 
ATOM     36  C   UNL     1      -2.071  10.204  13.188  1.00  0.00    -0.014 A 
BRANCH  36  37
ATOM     37  C   UNL     1      -2.870   9.535  14.244  1.00  0.00     0.031 A 
ATOM     38  C   UNL     1      -2.257   9.268  15.592  1.00  0.00     0.074 A 
ATOM     39  C   UNL     1      -4.137   9.154  13.986  1.00  0.00     0.049 A 
ATOM     40  N   UNL     1      -2.799   8.715  16.646  1.00  0.00    -0.248 NA
ATOM     41  C   UNL     1      -0.849   9.658  15.775  1.00  0.00     0.031 C 
ATOM     42  C   UNL     1      -4.829   9.328  12.706  1.00  0.00     0.029 A 
ATOM     43  N   UNL     1      -5.072   8.553  14.790  1.00  0.00    -0.354 N 
ATOM     44  C   UNL     1      -1.801   8.691  17.613  1.00  0.00     0.074 A 
ATOM     45  C   UNL     1      -0.604   9.226  17.003  1.00  0.00     0.031 C 
ATOM     46  C   UNL     1      -6.091   8.885  12.827  1.00  0.00     0.029 A 
ATOM     47  C   UNL     1      -6.289   8.368  14.178  1.00  0.00     0.049 A 
ATOM     48  H   UNL     1      -4.888   8.279  15.718  1.00  0.00     0.167 HD
ATOM     49  C   UNL     1      -1.881   8.290  18.903  1.00  0.00     0.031 A 
ATOM     50  C   UNL     1      -7.439   7.851  14.654  1.00  0.00     0.031 A 
ATOM     51  C   UNL     1      -3.075   7.772  19.511  1.00  0.00     0.049 A 
ATOM     52  C   UNL     1      -7.495   7.382  16.082  1.00  0.00     0.074 A 
ATOM     53  C   UNL     1      -3.271   7.381  20.824  1.00  0.00     0.029 A 
ATOM     54  N   UNL     1      -4.276   7.572  18.848  1.00  0.00    -0.354 N 
ATOM     55  N   UNL     1      -6.557   7.425  16.999  1.00  0.00    -0.248 NA
ATOM     56  C   UNL     1      -8.763   6.799  16.542  1.00  0.00     0.031 C 
ATOM     57  C   UNL     1      -4.579   6.903  20.944  1.00  0.00     0.029 A 
ATOM     58  C   UNL     1      -5.211   7.040  19.718  1.00  0.00     0.049 A 
ATOM     59  H   UNL     1      -4.439   7.779  17.900  1.00  0.00     0.167 HD
ATOM     60  C   UNL     1      -7.126   6.888  18.148  1.00  0.00     0.074 A 
ATOM     61  C   UNL     1      -8.494   6.542  17.816  1.00  0.00     0.031 C 
ATOM     62  C   UNL     1      -6.566   6.697  19.367  1.00  0.00     0.031 A 
BRANCH  49  63
ATOM     63  C   UNL     1      -0.640   8.413  19.746  1.00  0.00    -0.014 A 
ATOM     64  C   UNL     1      -0.171   9.675  20.153  1.00  0.00     0.010 A 
ATOM     65  C   UNL     1       0.044   7.259  20.167  1.00  0.00     0.010 A 
ATOM     66  C   UNL     1       0.981   9.784  20.935  1.00  0.00     0.020 A 
ATOM     67  C   UNL     1       1.183   7.362  20.972  1.00  0.00     0.020 A 
ATOM     68  C   UNL     1       1.652   8.626  21.337  1.00  0.00     0.054 A 
BRANCH  68  69
ATOM     69  S   UNL     1       3.133   8.799  22.370  1.00  0.00     0.124 S 
ATOM     70  O   UNL     1       4.104   9.329  21.416  1.00  0.00    -0.237 OA
ATOM     71  O   UNL     1       2.695   9.732  23.404  1.00  0.00    -0.237 OA
ATOM     72  O   UNL     1       3.395   7.438  22.833  1.00  0.00    -0.744 OA
ENDBRANCH  68  69
ENDBRANCH  49  63
BRANCH  50  73
ATOM     73  C   UNL     1      -8.639   7.782  13.779  1.00  0.00    -0.014 A 
ATOM     74  C   UNL     1      -9.722   8.653  13.993  1.00  0.00     0.010 A 
ATOM     75  C   UNL     1      -8.697   6.868  12.711  1.00  0.00     0.010 A 
ATOM     76  C   UNL     1     -10.844   8.606  13.160  1.00  0.00     0.020 A 
ATOM     77  C   UNL     1      -9.808   6.833  11.863  1.00  0.00     0.020 A 
ATOM     78  C   UNL     1     -10.878   7.699  12.098  1.00  0.00     0.054 A 
BRANCH  78  79
ATOM     79  S   UNL     1     -12.320   7.699  10.996  1.00  0.00     0.124 S 
ATOM     80  O   UNL     1     -13.351   7.107  11.843  1.00  0.00    -0.237 OA
ATOM     81  O   UNL     1     -12.485   9.119  10.695  1.00  0.00    -0.237 OA
ATOM     82  O   UNL     1     -11.888   6.877   9.867  1.00  0.00    -0.744 OA
ENDBRANCH  78  79
ENDBRANCH  50  73
BRANCH  62  83
ATOM     83  C   UNL     1      -7.420   6.084  20.441  1.00  0.00    -0.014 A 
ATOM     84  C   UNL     1      -7.699   4.706  20.435  1.00  0.00     0.010 A 
ATOM     85  C   UNL     1      -7.856   6.871  21.522  1.00  0.00     0.010 A 
ATOM     86  C   UNL     1      -8.404   4.126  21.492  1.00  0.00     0.020 A 
ATOM     87  C   UNL     1      -8.540   6.290  22.593  1.00  0.00     0.020 A 
ATOM     88  C   UNL     1      -8.813   4.921  22.569  1.00  0.00     0.054 A 
BRANCH  88  89
ATOM     89  S   UNL     1      -9.647   4.124  23.968  1.00  0.00     0.124 S 
ATOM     90  O   UNL     1     -10.956   3.807  23.403  1.00  0.00    -0.237 OA
ATOM     91  O   UNL     1      -8.786   2.975  24.241  1.00  0.00    -0.237 OA
ATOM     92  O   UNL     1      -9.649   5.154  25.004  1.00  0.00    -0.744 OA
ENDBRANCH  88  89
ENDBRANCH  62  83
ENDBRANCH  36  37
ENDBRANCH  28  31
ENDBRANCH  26  27
ENDBRANCH  25  26
ENDBRANCH   1  25
TORSDOF 17
