REMARK SMILES CC[C@@H](C)[C@@H](C(=O)NCCCCCCNC(=O)c1ccc(-c2c3nc(c(-c4ccc(S(=O)(=O)[O-])cc4)c4ccc([nH]4)c(-c4ccc(S(=O)(=O)[O-])cc4)c4nc(c(-c5ccc(S(=O)(=O)[O-])cc5)c5ccc2[nH]5)C=C4)C=C3)cc1)N1C(=O)/C(=C/c2ccc(O)cc2)SC1=S
REMARK SMILES IDX 11 1 10 2 9 3 8 4 6 5 7 6 5 8 3 9 4 10 2 11 1 12 78 13 79 14
REMARK SMILES IDX 91 15 80 16 81 17 90 18 92 19 82 20 83 21 84 22 89 23 85 24
REMARK SMILES IDX 88 25 86 26 87 27 12 29 13 30 14 31 15 32 16 33 17 35 18 36
REMARK SMILES IDX 19 37 77 38 20 39 76 40 21 41 22 42 23 43 70 44 24 45 75 46
REMARK SMILES IDX 69 47 71 48 25 49 74 50 68 51 67 52 26 54 56 55 37 56 55 57
REMARK SMILES IDX 38 58 41 59 54 60 72 61 39 62 40 63 53 65 73 66 42 67 27 68
REMARK SMILES IDX 28 69 36 70 29 71 35 72 30 73 31 74 32 75 33 76 34 77 57 78
REMARK SMILES IDX 58 79 66 80 59 81 65 82 60 83 61 84 62 85 63 86 64 87 43 88
REMARK SMILES IDX 44 89 52 90 45 91 51 92 46 93 47 94 48 95 49 96 50 97
REMARK H PARENT 8 7 87 28 15 34 71 53 41 64
REMARK Flexibility Score: inf
ROOT
ATOM      1  C   UNL     1       0.604   4.834  -1.108  1.00  0.00     0.002 C 
ENDROOT
BRANCH   1   2
ATOM      2  C   UNL     1       0.379   3.321  -1.169  1.00  0.00     0.021 C 
BRANCH   2   3
ATOM      3  C   UNL     1      -0.149   2.809  -2.516  1.00  0.00     0.116 C 
BRANCH   3   4
ATOM      4  N   UNL     1       0.966   2.506  -3.398  1.00  0.00    -0.354 N 
ATOM      5  C   UNL     1       1.534   1.299  -3.693  1.00  0.00     0.243 C 
ATOM      6  O   UNL     1       2.732   1.292  -3.997  1.00  0.00    -0.273 OA
ATOM      7  H   UNL     1       1.369   3.283  -3.849  1.00  0.00     0.163 HD
BRANCH   5   8
ATOM      8  C   UNL     1       0.705  -0.020  -3.636  1.00  0.00     0.184 C 
BRANCH   8   9
ATOM      9  C   UNL     1       1.368  -0.853  -2.450  1.00  0.00     0.018 C 
ATOM     10  C   UNL     1       1.107  -2.360  -2.411  1.00  0.00     0.010 C 
BRANCH   9  11
ATOM     11  C   UNL     1       0.975  -0.216  -1.093  1.00  0.00     0.002 C 
ATOM     12  C   UNL     1       1.501  -0.909   0.155  1.00  0.00     0.004 C 
ENDBRANCH   9  11
ENDBRANCH   8   9
BRANCH   8  13
ATOM     13  N   UNL     1       0.691  -0.739  -4.955  1.00  0.00    -0.280 N 
ATOM     14  C   UNL     1       1.281  -0.223  -6.101  1.00  0.00     0.266 C 
ATOM     15  C   UNL     1      -0.150  -1.790  -5.258  1.00  0.00     0.149 C 
ATOM     16  O   UNL     1       1.527   0.948  -6.351  1.00  0.00    -0.268 OA
ATOM     17  C   UNL     1       1.385  -1.275  -7.153  1.00  0.00     0.081 C 
ATOM     18  S   UNL     1       0.444  -2.627  -6.690  1.00  0.00    -0.054 SA
ATOM     19  S   UNL     1      -1.581  -2.240  -4.523  1.00  0.00    -0.052 S 
ATOM     20  C   UNL     1       2.128  -1.097  -8.256  1.00  0.00     0.029 C 
BRANCH  20  21
ATOM     21  C   UNL     1       2.372  -2.064  -9.337  1.00  0.00    -0.024 A 
ATOM     22  C   UNL     1       3.692  -2.275  -9.761  1.00  0.00     0.012 A 
ATOM     23  C   UNL     1       1.338  -2.758  -9.979  1.00  0.00     0.012 A 
ATOM     24  C   UNL     1       3.975  -3.202 -10.767  1.00  0.00     0.047 A 
ATOM     25  C   UNL     1       1.621  -3.695 -10.978  1.00  0.00     0.047 A 
ATOM     26  C   UNL     1       2.940  -3.916 -11.356  1.00  0.00     0.115 A 
BRANCH  26  27
ATOM     27  O   UNL     1       3.261  -4.835 -12.310  1.00  0.00    -0.508 OA
ATOM     28  H   UNL     1       4.157  -4.969 -12.550  1.00  0.00     0.293 HD
ENDBRANCH  26  27
ENDBRANCH  20  21
ENDBRANCH   8  13
ENDBRANCH   5   8
ENDBRANCH   3   4
ENDBRANCH   2   3
ENDBRANCH   1   2
BRANCH   1  29
ATOM     29  C   UNL     1      -0.666   5.671  -0.940  1.00  0.00     0.002 C 
BRANCH  29  30
ATOM     30  C   UNL     1      -1.560   5.305   0.251  1.00  0.00     0.021 C 
BRANCH  30  31
ATOM     31  C   UNL     1      -0.863   5.199   1.607  1.00  0.00     0.116 C 
BRANCH  31  32
ATOM     32  N   UNL     1      -0.266   6.454   2.027  1.00  0.00    -0.352 N 
ATOM     33  C   UNL     1      -0.453   7.174   3.180  1.00  0.00     0.251 C 
ATOM     34  H   UNL     1       0.369   6.849   1.386  1.00  0.00     0.163 HD
ATOM     35  O   UNL     1       0.026   8.302   3.272  1.00  0.00    -0.269 OA
BRANCH  33  36
ATOM     36  C   UNL     1      -1.239   6.617   4.306  1.00  0.00     0.039 A 
ATOM     37  C   UNL     1      -2.159   7.447   4.954  1.00  0.00     0.014 A 
ATOM     38  C   UNL     1      -1.041   5.310   4.762  1.00  0.00     0.014 A 
ATOM     39  C   UNL     1      -2.908   6.958   6.028  1.00  0.00     0.010 A 
ATOM     40  C   UNL     1      -1.825   4.806   5.801  1.00  0.00     0.010 A 
ATOM     41  C   UNL     1      -2.759   5.628   6.451  1.00  0.00    -0.014 A 
BRANCH  41  42
ATOM     42  C   UNL     1      -3.556   5.097   7.587  1.00  0.00     0.031 A 
ATOM     43  C   UNL     1      -2.884   4.746   8.887  1.00  0.00     0.074 A 
ATOM     44  C   UNL     1      -4.880   4.895   7.441  1.00  0.00     0.049 A 
ATOM     45  N   UNL     1      -3.408   4.248   9.979  1.00  0.00    -0.248 NA
ATOM     46  C   UNL     1      -1.431   4.965   8.963  1.00  0.00     0.031 C 
ATOM     47  C   UNL     1      -5.649   5.157   6.223  1.00  0.00     0.029 A 
ATOM     48  N   UNL     1      -5.814   4.418   8.328  1.00  0.00    -0.354 N 
ATOM     49  C   UNL     1      -2.349   4.074  10.862  1.00  0.00     0.074 A 
ATOM     50  C   UNL     1      -1.148   4.488  10.167  1.00  0.00     0.031 C 
ATOM     51  C   UNL     1      -6.940   4.857   6.446  1.00  0.00     0.029 A 
ATOM     52  C   UNL     1      -7.086   4.361   7.811  1.00  0.00     0.049 A 
ATOM     53  H   UNL     1      -5.592   4.142   9.246  1.00  0.00     0.167 HD
ATOM     54  C   UNL     1      -2.371   3.625  12.141  1.00  0.00     0.031 A 
ATOM     55  C   UNL     1      -8.243   3.961   8.374  1.00  0.00     0.031 A 
ATOM     56  C   UNL     1      -3.563   3.233  12.843  1.00  0.00     0.049 A 
ATOM     57  C   UNL     1      -8.251   3.504   9.806  1.00  0.00     0.074 A 
ATOM     58  C   UNL     1      -3.691   2.805  14.153  1.00  0.00     0.029 A 
ATOM     59  N   UNL     1      -4.837   3.227  12.295  1.00  0.00    -0.354 N 
ATOM     60  N   UNL     1      -7.244   3.391  10.639  1.00  0.00    -0.248 NA
ATOM     61  C   UNL     1      -9.554   3.138  10.378  1.00  0.00     0.031 C 
ATOM     62  C   UNL     1      -5.041   2.518  14.391  1.00  0.00     0.029 A 
ATOM     63  C   UNL     1      -5.756   2.801  13.239  1.00  0.00     0.049 A 
ATOM     64  H   UNL     1      -5.055   3.488  11.371  1.00  0.00     0.167 HD
ATOM     65  C   UNL     1      -7.796   2.964  11.841  1.00  0.00     0.074 A 
ATOM     66  C   UNL     1      -9.225   2.849  11.630  1.00  0.00     0.031 C 
ATOM     67  C   UNL     1      -7.174   2.695  13.015  1.00  0.00     0.031 A 
BRANCH  54  68
ATOM     68  C   UNL     1      -1.052   3.532  12.859  1.00  0.00    -0.014 A 
ATOM     69  C   UNL     1      -0.386   4.690  13.299  1.00  0.00     0.010 A 
ATOM     70  C   UNL     1      -0.478   2.273  13.109  1.00  0.00     0.010 A 
ATOM     71  C   UNL     1       0.856   4.593  13.932  1.00  0.00     0.020 A 
ATOM     72  C   UNL     1       0.753   2.171  13.763  1.00  0.00     0.020 A 
ATOM     73  C   UNL     1       1.422   3.334  14.151  1.00  0.00     0.054 A 
BRANCH  73  74
ATOM     74  S   UNL     1       3.035   3.229  14.975  1.00  0.00     0.124 S 
ATOM     75  O   UNL     1       3.950   3.554  13.883  1.00  0.00    -0.237 OA
ATOM     76  O   UNL     1       2.930   4.239  16.026  1.00  0.00    -0.237 OA
ATOM     77  O   UNL     1       3.092   1.848  15.446  1.00  0.00    -0.744 OA
ENDBRANCH  73  74
ENDBRANCH  54  68
BRANCH  55  78
ATOM     78  C   UNL     1      -9.502   4.011   7.586  1.00  0.00    -0.014 A 
ATOM     79  C   UNL     1     -10.446   5.026   7.822  1.00  0.00     0.010 A 
ATOM     80  C   UNL     1      -9.754   3.057   6.585  1.00  0.00     0.010 A 
ATOM     81  C   UNL     1     -11.627   5.079   7.077  1.00  0.00     0.020 A 
ATOM     82  C   UNL     1     -10.925   3.120   5.824  1.00  0.00     0.020 A 
ATOM     83  C   UNL     1     -11.859   4.125   6.082  1.00  0.00     0.054 A 
BRANCH  83  84
ATOM     84  S   UNL     1     -13.367   4.247   5.080  1.00  0.00     0.124 S 
ATOM     85  O   UNL     1     -14.368   3.660   5.966  1.00  0.00    -0.237 OA
ATOM     86  O   UNL     1     -13.487   5.686   4.855  1.00  0.00    -0.237 OA
ATOM     87  O   UNL     1     -13.045   3.465   3.889  1.00  0.00    -0.744 OA
ENDBRANCH  83  84
ENDBRANCH  55  78
BRANCH  67  88
ATOM     88  C   UNL     1      -8.041   2.282  14.172  1.00  0.00    -0.014 A 
ATOM     89  C   UNL     1      -8.582   0.987  14.248  1.00  0.00     0.010 A 
ATOM     90  C   UNL     1      -8.284   3.192  15.216  1.00  0.00     0.010 A 
ATOM     91  C   UNL     1      -9.381   0.619  15.334  1.00  0.00     0.020 A 
ATOM     92  C   UNL     1      -9.067   2.822  16.312  1.00  0.00     0.020 A 
ATOM     93  C   UNL     1      -9.623   1.542  16.357  1.00  0.00     0.054 A 
BRANCH  93  94
ATOM     94  S   UNL     1     -10.634   1.037  17.776  1.00  0.00     0.124 S 
ATOM     95  O   UNL     1     -11.988   1.173  17.246  1.00  0.00    -0.237 OA
ATOM     96  O   UNL     1     -10.191  -0.333  18.022  1.00  0.00    -0.237 OA
ATOM     97  O   UNL     1     -10.271   1.998  18.816  1.00  0.00    -0.744 OA
ENDBRANCH  93  94
ENDBRANCH  67  88
ENDBRANCH  41  42
ENDBRANCH  33  36
ENDBRANCH  31  32
ENDBRANCH  30  31
ENDBRANCH  29  30
ENDBRANCH   1  29
TORSDOF 21
