REMARK SMILES Cc1cccc(-c2ccc(Cl)c(C(=O)NCCCCCCNC(=O)c3ccc(-c4c5nc(c(-c6ccc(S(=O)(=O)[O-])cc6)c6ccc([nH]6)c(-c6ccc(S(=O)(=O)[O-])cc6)c6nc(c(-c7ccc(S(=O)(=O)[O-])cc7)c7ccc4[nH]7)C=C6)C=C5)cc3)c2)c1
REMARK SMILES IDX 19 1 18 2 17 3 16 4 15 5 13 6 14 7 12 9 7 10 8 11 85 12 9 13
REMARK SMILES IDX 10 14 11 15 6 16 1 17 2 18 3 19 86 20 4 21 5 22 20 23 21 24
REMARK SMILES IDX 22 25 23 26 24 28 25 29 26 30 84 31 27 32 83 33 28 34 29 35
REMARK SMILES IDX 30 36 77 37 31 38 82 39 76 40 78 41 32 42 81 43 75 44 74 45
REMARK SMILES IDX 33 47 63 48 44 49 62 50 45 51 48 52 61 53 79 54 46 55 47 56
REMARK SMILES IDX 60 58 80 59 49 60 34 61 35 62 43 63 36 64 42 65 37 66 38 67
REMARK SMILES IDX 39 68 40 69 41 70 64 71 65 72 73 73 66 74 72 75 67 76 68 77
REMARK SMILES IDX 69 78 70 79 71 80 50 81 51 82 59 83 52 84 58 85 53 86 54 87
REMARK SMILES IDX 55 88 56 89 57 90
REMARK H PARENT 15 8 22 27 78 46 48 57
REMARK Flexibility Score: inf
ROOT
ATOM      1  C   UNL     1      -6.741   8.743   2.263  1.00  0.00     0.002 C 
ENDROOT
BRANCH   1   2
ATOM      2  C   UNL     1      -7.516   7.509   1.777  1.00  0.00     0.002 C 
BRANCH   2   3
ATOM      3  C   UNL     1      -6.905   6.630   0.676  1.00  0.00     0.021 C 
BRANCH   3   4
ATOM      4  C   UNL     1      -5.415   6.303   0.759  1.00  0.00     0.116 C 
BRANCH   4   5
ATOM      5  N   UNL     1      -4.997   5.512   1.901  1.00  0.00    -0.352 N 
ATOM      6  C   UNL     1      -3.901   4.688   2.052  1.00  0.00     0.252 C 
ATOM      7  O   UNL     1      -3.696   4.170   3.150  1.00  0.00    -0.269 OA
ATOM      8  H   UNL     1      -5.585   5.572   2.688  1.00  0.00     0.163 HD
BRANCH   6   9
ATOM      9  C   UNL     1      -3.002   4.314   0.922  1.00  0.00     0.059 A 
ATOM     10  C   UNL     1      -1.744   2.478  -0.139  1.00  0.00    -0.017 A 
ATOM     11  C   UNL     1      -1.338   3.375  -1.136  1.00  0.00     0.010 A 
ATOM     12  C   UNL     1      -2.632   2.949   0.846  1.00  0.00     0.024 A 
ATOM     13  C   UNL     1      -1.648   4.729  -1.044  1.00  0.00     0.022 A 
ATOM     14  C   UNL     1      -2.403   5.210   0.031  1.00  0.00     0.053 A 
ATOM     15  Cl  UNL     1      -2.335   6.919   0.274  1.00  0.00    -0.083 Cl
BRANCH  10  16
ATOM     16  C   UNL     1      -1.120   1.143  -0.070  1.00  0.00    -0.018 A 
ATOM     17  C   UNL     1       2.453  -0.238   0.029  1.00  0.00     0.044 C 
ATOM     18  C   UNL     1       0.954  -0.181   0.018  1.00  0.00    -0.051 A 
ATOM     19  C   UNL     1       0.195  -1.350   0.058  1.00  0.00     0.003 A 
ATOM     20  C   UNL     1       0.289   1.050  -0.046  1.00  0.00     0.012 A 
ATOM     21  C   UNL     1      -1.201  -1.283   0.045  1.00  0.00     0.001 A 
ATOM     22  C   UNL     1      -1.855  -0.045  -0.015  1.00  0.00     0.009 A 
ENDBRANCH  10  16
ENDBRANCH   6   9
ENDBRANCH   4   5
ENDBRANCH   3   4
ENDBRANCH   2   3
ENDBRANCH   1   2
BRANCH   1  23
ATOM     23  C   UNL     1      -6.227   9.728   1.213  1.00  0.00     0.021 C 
BRANCH  23  24
ATOM     24  C   UNL     1      -7.306  10.502   0.461  1.00  0.00     0.116 C 
BRANCH  24  25
ATOM     25  N   UNL     1      -7.315  11.934   0.775  1.00  0.00    -0.352 N 
ATOM     26  C   UNL     1      -7.805  12.984   0.013  1.00  0.00     0.251 C 
ATOM     27  H   UNL     1      -6.920  12.183   1.642  1.00  0.00     0.163 HD
ATOM     28  O   UNL     1      -7.713  14.158   0.315  1.00  0.00    -0.269 OA
BRANCH  26  29
ATOM     29  C   UNL     1      -8.574  12.601  -1.185  1.00  0.00     0.039 A 
ATOM     30  C   UNL     1      -9.966  12.582  -1.047  1.00  0.00     0.014 A 
ATOM     31  C   UNL     1      -7.920  11.902  -2.197  1.00  0.00     0.014 A 
ATOM     32  C   UNL     1     -10.692  11.658  -1.781  1.00  0.00     0.010 A 
ATOM     33  C   UNL     1      -8.631  10.921  -2.859  1.00  0.00     0.010 A 
ATOM     34  C   UNL     1      -9.994  10.752  -2.585  1.00  0.00    -0.014 A 
BRANCH  34  35
ATOM     35  C   UNL     1     -10.618   9.521  -3.050  1.00  0.00     0.031 A 
ATOM     36  C   UNL     1     -11.124   9.459  -4.430  1.00  0.00     0.074 A 
ATOM     37  C   UNL     1     -10.809   8.485  -2.202  1.00  0.00     0.049 A 
ATOM     38  N   UNL     1     -12.206   8.851  -4.785  1.00  0.00    -0.248 NA
ATOM     39  C   UNL     1     -10.463  10.167  -5.519  1.00  0.00     0.031 C 
ATOM     40  C   UNL     1     -11.341   7.168  -2.540  1.00  0.00     0.029 A 
ATOM     41  N   UNL     1     -10.799   8.501  -0.803  1.00  0.00    -0.354 N 
ATOM     42  C   UNL     1     -12.226   8.841  -6.161  1.00  0.00     0.074 A 
ATOM     43  C   UNL     1     -11.183   9.758  -6.565  1.00  0.00     0.031 C 
ATOM     44  C   UNL     1     -11.902   6.645  -1.438  1.00  0.00     0.029 A 
ATOM     45  C   UNL     1     -11.834   7.652  -0.389  1.00  0.00     0.049 A 
ATOM     46  H   UNL     1     -10.185   9.008  -0.224  1.00  0.00     0.167 HD
ATOM     47  C   UNL     1     -12.994   7.936  -6.830  1.00  0.00     0.031 A 
ATOM     48  C   UNL     1     -12.874   8.053   0.394  1.00  0.00     0.031 A 
ATOM     49  C   UNL     1     -13.781   7.112  -5.914  1.00  0.00     0.049 A 
ATOM     50  C   UNL     1     -14.216   7.855  -0.280  1.00  0.00     0.074 A 
ATOM     51  C   UNL     1     -13.590   5.837  -5.407  1.00  0.00     0.029 A 
ATOM     52  N   UNL     1     -14.769   7.701  -5.130  1.00  0.00    -0.354 N 
ATOM     53  N   UNL     1     -14.367   7.639  -1.559  1.00  0.00    -0.248 NA
ATOM     54  C   UNL     1     -15.494   7.912   0.426  1.00  0.00     0.031 C 
ATOM     55  C   UNL     1     -14.408   5.693  -4.257  1.00  0.00     0.029 A 
ATOM     56  C   UNL     1     -15.123   6.865  -4.086  1.00  0.00     0.049 A 
ATOM     57  H   UNL     1     -15.162   8.588  -5.296  1.00  0.00     0.167 HD
ATOM     58  C   UNL     1     -15.701   7.510  -1.854  1.00  0.00     0.074 A 
ATOM     59  C   UNL     1     -16.365   7.684  -0.574  1.00  0.00     0.031 C 
ATOM     60  C   UNL     1     -16.145   7.262  -3.124  1.00  0.00     0.031 A 
BRANCH  47  61
ATOM     61  C   UNL     1     -12.695   7.584  -8.271  1.00  0.00    -0.014 A 
ATOM     62  C   UNL     1     -12.787   6.246  -8.701  1.00  0.00     0.010 A 
ATOM     63  C   UNL     1     -12.214   8.512  -9.217  1.00  0.00     0.010 A 
ATOM     64  C   UNL     1     -12.286   5.832  -9.945  1.00  0.00     0.020 A 
ATOM     65  C   UNL     1     -11.662   8.106 -10.442  1.00  0.00     0.020 A 
ATOM     66  C   UNL     1     -11.684   6.760 -10.791  1.00  0.00     0.054 A 
BRANCH  66  67
ATOM     67  S   UNL     1     -10.908   6.185 -12.325  1.00  0.00     0.124 S 
ATOM     68  O   UNL     1     -10.042   5.104 -11.857  1.00  0.00    -0.237 OA
ATOM     69  O   UNL     1     -12.060   5.771 -13.120  1.00  0.00    -0.237 OA
ATOM     70  O   UNL     1     -10.202   7.366 -12.819  1.00  0.00    -0.744 OA
ENDBRANCH  66  67
ENDBRANCH  47  61
BRANCH  48  71
ATOM     71  C   UNL     1     -12.549   9.097   1.403  1.00  0.00    -0.014 A 
ATOM     72  C   UNL     1     -11.764   8.710   2.511  1.00  0.00     0.010 A 
ATOM     73  C   UNL     1     -12.690  10.467   1.127  1.00  0.00     0.010 A 
ATOM     74  C   UNL     1     -11.048   9.655   3.254  1.00  0.00     0.020 A 
ATOM     75  C   UNL     1     -11.968  11.418   1.869  1.00  0.00     0.020 A 
ATOM     76  C   UNL     1     -11.115  11.000   2.896  1.00  0.00     0.054 A 
BRANCH  76  77
ATOM     77  S   UNL     1     -10.023  12.178   3.751  1.00  0.00     0.124 S 
ATOM     78  O   UNL     1     -10.240  11.845   5.156  1.00  0.00    -0.237 OA
ATOM     79  O   UNL     1      -8.708  11.818   3.222  1.00  0.00    -0.237 OA
ATOM     80  O   UNL     1     -10.538  13.476   3.330  1.00  0.00    -0.744 OA
ENDBRANCH  76  77
ENDBRANCH  48  71
BRANCH  60  81
ATOM     81  C   UNL     1     -17.587   7.261  -3.589  1.00  0.00    -0.014 A 
ATOM     82  C   UNL     1     -18.642   7.903  -2.924  1.00  0.00     0.010 A 
ATOM     83  C   UNL     1     -17.892   6.675  -4.845  1.00  0.00     0.010 A 
ATOM     84  C   UNL     1     -19.942   7.915  -3.456  1.00  0.00     0.020 A 
ATOM     85  C   UNL     1     -19.171   6.721  -5.405  1.00  0.00     0.020 A 
ATOM     86  C   UNL     1     -20.198   7.324  -4.694  1.00  0.00     0.054 A 
BRANCH  86  87
ATOM     87  S   UNL     1     -21.857   7.419  -5.415  1.00  0.00     0.124 S 
ATOM     88  O   UNL     1     -22.494   6.227  -4.864  1.00  0.00    -0.237 OA
ATOM     89  O   UNL     1     -22.364   8.692  -4.907  1.00  0.00    -0.237 OA
ATOM     90  O   UNL     1     -21.604   7.389  -6.854  1.00  0.00    -0.744 OA
ENDBRANCH  86  87
ENDBRANCH  60  81
ENDBRANCH  34  35
ENDBRANCH  26  29
ENDBRANCH  24  25
ENDBRANCH  23  24
ENDBRANCH   1  23
TORSDOF 17
