REMARK SMILES CC(C)Cc1cc(C(=O)N[C@@H](Cc2ccco2)C(=O)NCCCCCCNC(=O)c2ccc(-c3c4nc(c(-c5ccc(S(=O)(=O)[O-])cc5)c5ccc([nH]5)c(-c5ccc(S(=O)(=O)[O-])cc5)c5nc(c(-c6ccc(S(=O)(=O)[O-])cc6)c6ccc3[nH]6)C=C5)C=C4)cc2)on1
REMARK SMILES IDX 23 1 22 2 21 3 20 4 18 5 19 6 11 8 10 9 8 10 9 11 7 13 5 14
REMARK SMILES IDX 6 15 91 16 90 17 4 18 2 19 1 20 3 21 12 22 13 23 14 24 17 25
REMARK SMILES IDX 15 26 16 27 24 28 25 29 26 30 27 31 28 32 29 34 30 35 31 36
REMARK SMILES IDX 89 37 32 38 88 39 33 40 34 41 35 42 82 43 36 44 87 45 81 46
REMARK SMILES IDX 83 47 37 48 86 49 80 50 79 51 38 53 68 54 49 55 67 56 50 57
REMARK SMILES IDX 53 58 66 59 84 60 51 61 52 62 65 64 85 65 54 66 39 67 40 68
REMARK SMILES IDX 48 69 41 70 47 71 42 72 43 73 44 74 45 75 46 76 69 77 70 78
REMARK SMILES IDX 78 79 71 80 77 81 72 82 73 83 74 84 75 85 76 86 55 87 56 88
REMARK SMILES IDX 64 89 57 90 63 91 58 92 59 93 60 94 61 95 62 96
REMARK H PARENT 20 7 10 12 27 33 83 52 53 63
REMARK Flexibility Score: inf
ROOT
ATOM      1  C   UNL     1       3.433  -8.948   0.829  1.00  0.00     0.002 C 
ENDROOT
BRANCH   1   2
ATOM      2  C   UNL     1       2.021  -8.493   0.446  1.00  0.00     0.021 C 
BRANCH   2   3
ATOM      3  C   UNL     1       1.353  -7.593   1.471  1.00  0.00     0.116 C 
BRANCH   3   4
ATOM      4  N   UNL     1       1.944  -6.278   1.554  1.00  0.00    -0.354 N 
ATOM      5  C   UNL     1       1.393  -5.116   1.994  1.00  0.00     0.243 C 
ATOM      6  O   UNL     1       2.178  -4.234   2.365  1.00  0.00    -0.273 OA
ATOM      7  H   UNL     1       2.878  -6.214   1.250  1.00  0.00     0.163 HD
BRANCH   5   8
ATOM      8  C   UNL     1      -0.127  -4.895   2.155  1.00  0.00     0.179 C 
BRANCH   8   9
ATOM      9  N   UNL     1      -0.988  -5.321   1.044  1.00  0.00    -0.337 N 
ATOM     10  C   UNL     1      -1.646  -4.591   0.075  1.00  0.00     0.290 C 
ATOM     11  O   UNL     1      -2.110  -5.234  -0.864  1.00  0.00    -0.266 OA
ATOM     12  H   UNL     1      -1.118  -6.295   0.979  1.00  0.00     0.164 HD
BRANCH  10  13
ATOM     13  C   UNL     1      -1.754  -3.152   0.170  1.00  0.00     0.224 A 
ATOM     14  C   UNL     1      -1.579  -0.988   0.537  1.00  0.00     0.085 A 
ATOM     15  C   UNL     1      -1.702  -2.230   1.191  1.00  0.00     0.083 A 
ATOM     16  N   UNL     1      -1.822  -1.103  -0.771  1.00  0.00    -0.084 NA
ATOM     17  O   UNL     1      -1.943  -2.466  -1.001  1.00  0.00    -0.351 OA
BRANCH  14  18
ATOM     18  C   UNL     1      -1.081   0.287   1.128  1.00  0.00     0.063 C 
BRANCH  18  19
ATOM     19  C   UNL     1       0.461   0.255   1.276  1.00  0.00    -0.011 C 
ATOM     20  C   UNL     1       1.165   0.299  -0.085  1.00  0.00     0.008 C 
ATOM     21  C   UNL     1       0.949   1.405   2.154  1.00  0.00     0.008 C 
ENDBRANCH  18  19
ENDBRANCH  14  18
ENDBRANCH  10  13
ENDBRANCH   8   9
BRANCH   8  22
ATOM     22  C   UNL     1      -0.690  -5.272   3.532  1.00  0.00     0.110 C 
BRANCH  22  23
ATOM     23  C   UNL     1      -0.488  -6.677   3.962  1.00  0.00     0.106 A 
ATOM     24  C   UNL     1       0.374  -7.269   4.863  1.00  0.00     0.045 A 
ATOM     25  O   UNL     1      -1.312  -7.618   3.418  1.00  0.00    -0.469 OA
ATOM     26  C   UNL     1       0.064  -8.650   4.865  1.00  0.00     0.042 A 
ATOM     27  C   UNL     1      -0.976  -8.811   3.979  1.00  0.00     0.195 A 
ENDBRANCH  22  23
ENDBRANCH   8  22
ENDBRANCH   5   8
ENDBRANCH   3   4
ENDBRANCH   2   3
ENDBRANCH   1   2
BRANCH   1  28
ATOM     28  C   UNL     1       3.580  -9.585   2.217  1.00  0.00     0.002 C 
BRANCH  28  29
ATOM     29  C   UNL     1       2.608 -10.724   2.535  1.00  0.00     0.021 C 
BRANCH  29  30
ATOM     30  C   UNL     1       2.588 -11.858   1.518  1.00  0.00     0.116 C 
BRANCH  30  31
ATOM     31  N   UNL     1       3.894 -12.468   1.346  1.00  0.00    -0.352 N 
ATOM     32  C   UNL     1       4.245 -13.793   1.377  1.00  0.00     0.251 C 
ATOM     33  H   UNL     1       4.635 -11.839   1.182  1.00  0.00     0.163 HD
ATOM     34  O   UNL     1       5.430 -14.112   1.387  1.00  0.00    -0.269 OA
BRANCH  32  35
ATOM     35  C   UNL     1       3.193 -14.831   1.425  1.00  0.00     0.039 A 
ATOM     36  C   UNL     1       3.348 -15.905   2.305  1.00  0.00     0.014 A 
ATOM     37  C   UNL     1       2.061 -14.748   0.609  1.00  0.00     0.014 A 
ATOM     38  C   UNL     1       2.341 -16.867   2.403  1.00  0.00     0.010 A 
ATOM     39  C   UNL     1       1.024 -15.663   0.767  1.00  0.00     0.010 A 
ATOM     40  C   UNL     1       1.156 -16.737   1.660  1.00  0.00    -0.014 A 
BRANCH  40  41
ATOM     41  C   UNL     1       0.051 -17.719   1.800  1.00  0.00     0.031 A 
ATOM     42  C   UNL     1      -0.367 -18.559   0.622  1.00  0.00     0.074 A 
ATOM     43  C   UNL     1      -0.606 -17.820   2.973  1.00  0.00     0.049 A 
ATOM     44  N   UNL     1      -1.339 -19.430   0.536  1.00  0.00    -0.248 NA
ATOM     45  C   UNL     1       0.391 -18.382  -0.629  1.00  0.00     0.031 C 
ATOM     46  C   UNL     1      -0.319 -17.035   4.177  1.00  0.00     0.029 A 
ATOM     47  N   UNL     1      -1.655 -18.623   3.346  1.00  0.00    -0.354 N 
ATOM     48  C   UNL     1      -1.314 -19.897  -0.773  1.00  0.00     0.074 A 
ATOM     49  C   UNL     1      -0.270 -19.173  -1.462  1.00  0.00     0.031 C 
ATOM     50  C   UNL     1      -1.152 -17.415   5.159  1.00  0.00     0.029 A 
ATOM     51  C   UNL     1      -2.061 -18.435   4.646  1.00  0.00     0.049 A 
ATOM     52  H   UNL     1      -2.077 -19.274   2.739  1.00  0.00     0.167 HD
ATOM     53  C   UNL     1      -2.076 -20.860  -1.345  1.00  0.00     0.031 A 
ATOM     54  C   UNL     1      -3.061 -19.008   5.345  1.00  0.00     0.031 A 
ATOM     55  C   UNL     1      -3.109 -21.584  -0.653  1.00  0.00     0.049 A 
ATOM     56  C   UNL     1      -3.911 -20.055   4.677  1.00  0.00     0.074 A 
ATOM     57  C   UNL     1      -3.908 -22.608  -1.133  1.00  0.00     0.029 A 
ATOM     58  N   UNL     1      -3.487 -21.365   0.663  1.00  0.00    -0.354 N 
ATOM     59  N   UNL     1      -3.830 -20.526   3.455  1.00  0.00    -0.248 NA
ATOM     60  C   UNL     1      -4.980 -20.658   5.485  1.00  0.00     0.031 C 
ATOM     61  C   UNL     1      -4.808 -22.968  -0.125  1.00  0.00     0.029 A 
ATOM     62  C   UNL     1      -4.523 -22.218   1.004  1.00  0.00     0.049 A 
ATOM     63  H   UNL     1      -3.079 -20.702   1.265  1.00  0.00     0.167 HD
ATOM     64  C   UNL     1      -4.816 -21.502   3.360  1.00  0.00     0.074 A 
ATOM     65  C   UNL     1      -5.466 -21.567   4.652  1.00  0.00     0.031 C 
ATOM     66  C   UNL     1      -5.155 -22.275   2.298  1.00  0.00     0.031 A 
BRANCH  53  67
ATOM     67  C   UNL     1      -1.818 -21.194  -2.791  1.00  0.00    -0.014 A 
ATOM     68  C   UNL     1      -0.638 -21.852  -3.183  1.00  0.00     0.010 A 
ATOM     69  C   UNL     1      -2.797 -20.910  -3.762  1.00  0.00     0.010 A 
ATOM     70  C   UNL     1      -0.429 -22.196  -4.521  1.00  0.00     0.020 A 
ATOM     71  C   UNL     1      -2.605 -21.279  -5.096  1.00  0.00     0.020 A 
ATOM     72  C   UNL     1      -1.416 -21.911  -5.469  1.00  0.00     0.054 A 
BRANCH  72  73
ATOM     73  S   UNL     1      -1.137 -22.417  -7.188  1.00  0.00     0.124 S 
ATOM     74  O   UNL     1      -0.083 -21.496  -7.606  1.00  0.00    -0.237 OA
ATOM     75  O   UNL     1      -0.732 -23.813  -7.047  1.00  0.00    -0.237 OA
ATOM     76  O   UNL     1      -2.434 -22.208  -7.827  1.00  0.00    -0.744 OA
ENDBRANCH  72  73
ENDBRANCH  53  67
BRANCH  54  77
ATOM     77  C   UNL     1      -3.320 -18.602   6.755  1.00  0.00    -0.014 A 
ATOM     78  C   UNL     1      -3.108 -19.503   7.814  1.00  0.00     0.010 A 
ATOM     79  C   UNL     1      -3.802 -17.312   7.045  1.00  0.00     0.010 A 
ATOM     80  C   UNL     1      -3.406 -19.134   9.130  1.00  0.00     0.020 A 
ATOM     81  C   UNL     1      -4.068 -16.928   8.361  1.00  0.00     0.020 A 
ATOM     82  C   UNL     1      -3.886 -17.849   9.394  1.00  0.00     0.054 A 
BRANCH  82  83
ATOM     83  S   UNL     1      -4.247 -17.384  11.111  1.00  0.00     0.124 S 
ATOM     84  O   UNL     1      -5.463 -18.142  11.381  1.00  0.00    -0.237 OA
ATOM     85  O   UNL     1      -3.049 -17.832  11.816  1.00  0.00    -0.237 OA
ATOM     86  O   UNL     1      -4.414 -15.933  11.043  1.00  0.00    -0.744 OA
ENDBRANCH  82  83
ENDBRANCH  54  77
BRANCH  66  87
ATOM     87  C   UNL     1      -6.248 -23.292   2.498  1.00  0.00    -0.014 A 
ATOM     88  C   UNL     1      -7.590 -22.904   2.654  1.00  0.00     0.010 A 
ATOM     89  C   UNL     1      -5.929 -24.662   2.474  1.00  0.00     0.010 A 
ATOM     90  C   UNL     1      -8.589 -23.867   2.816  1.00  0.00     0.020 A 
ATOM     91  C   UNL     1      -6.929 -25.629   2.603  1.00  0.00     0.020 A 
ATOM     92  C   UNL     1      -8.252 -25.224   2.788  1.00  0.00     0.054 A 
BRANCH  92  93
ATOM     93  S   UNL     1      -9.574 -26.454   2.956  1.00  0.00     0.124 S 
ATOM     94  O   UNL     1      -9.931 -26.325   4.366  1.00  0.00    -0.237 OA
ATOM     95  O   UNL     1     -10.577 -25.976   2.007  1.00  0.00    -0.237 OA
ATOM     96  O   UNL     1      -8.927 -27.712   2.590  1.00  0.00    -0.744 OA
ENDBRANCH  92  93
ENDBRANCH  66  87
ENDBRANCH  40  41
ENDBRANCH  32  35
ENDBRANCH  30  31
ENDBRANCH  29  30
ENDBRANCH  28  29
ENDBRANCH   1  28
TORSDOF 22
