REMARK SMILES Cc1cc(F)ccc1OC1(C(=O)NCCCCCCNC(=O)c2ccc(-c3c4nc(c(-c5ccc(S(=O)(=O)[O-])cc5)c5ccc([nH]5)c(-c5ccc(S(=O)(=O)[O-])cc5)c5nc(c(-c6ccc(S(=O)(=O)[O-])cc6)c6ccc3[nH]6)C=C5)C=C4)cc2)CCN(C(=O)[C@H]2CCOC2)CC1
REMARK SMILES IDX 17 1 16 2 15 3 14 4 13 5 11 6 12 7 10 9 83 10 94 11 84 12
REMARK SMILES IDX 93 13 85 14 86 15 87 16 9 17 8 18 1 19 2 20 3 21 4 22 7 23
REMARK SMILES IDX 5 24 6 25 88 26 89 27 92 28 90 29 91 30 18 31 19 32 20 33
REMARK SMILES IDX 21 34 22 36 23 37 24 38 82 39 25 40 81 41 26 42 27 43 28 44
REMARK SMILES IDX 75 45 29 46 80 47 74 48 76 49 30 50 79 51 73 52 72 53 31 55
REMARK SMILES IDX 61 56 42 57 60 58 43 59 46 60 59 61 77 62 44 63 45 64 58 66
REMARK SMILES IDX 78 67 47 68 32 69 33 70 41 71 34 72 40 73 35 74 36 75 37 76
REMARK SMILES IDX 38 77 39 78 62 79 63 80 71 81 64 82 70 83 65 84 66 85 67 86
REMARK SMILES IDX 68 87 69 88 48 89 49 90 57 91 50 92 56 93 51 94 52 95 53 96
REMARK SMILES IDX 54 97 55 98
REMARK H PARENT 13 8 20 35 76 54 46 65
REMARK Flexibility Score: inf
ROOT
ATOM      1  C   UNL     1      12.763   5.004   0.883  1.00  0.00     0.002 C 
ENDROOT
BRANCH   1   2
ATOM      2  C   UNL     1      12.474   6.104  -0.143  1.00  0.00     0.002 C 
BRANCH   2   3
ATOM      3  C   UNL     1      11.108   6.002  -0.828  1.00  0.00     0.021 C 
BRANCH   3   4
ATOM      4  C   UNL     1       9.926   6.002   0.139  1.00  0.00     0.116 C 
BRANCH   4   5
ATOM      5  N   UNL     1       9.699   7.314   0.710  1.00  0.00    -0.353 N 
ATOM      6  C   UNL     1       8.703   8.231   0.521  1.00  0.00     0.264 C 
ATOM      7  O   UNL     1       8.813   9.263   1.196  1.00  0.00    -0.270 OA
ATOM      8  H   UNL     1      10.388   7.596   1.354  1.00  0.00     0.163 HD
BRANCH   6   9
ATOM      9  C   UNL     1       7.496   7.985  -0.471  1.00  0.00     0.190 C 
ATOM     10  C   UNL     1       8.075   7.861  -1.872  1.00  0.00     0.080 C 
ATOM     11  C   UNL     1       6.679   6.833   0.116  1.00  0.00     0.080 C 
ATOM     12  C   UNL     1       7.955   6.508  -2.552  1.00  0.00     0.124 C 
ATOM     13  C   UNL     1       6.207   5.761  -0.849  1.00  0.00     0.124 C 
ATOM     14  N   UNL     1       7.059   5.492  -2.002  1.00  0.00    -0.342 N 
ATOM     15  C   UNL     1       6.970   4.325  -2.772  1.00  0.00     0.228 C 
ATOM     16  O   UNL     1       7.753   4.138  -3.707  1.00  0.00    -0.274 OA
BRANCH   9  17
ATOM     17  O   UNL     1       6.779   9.230  -0.312  1.00  0.00    -0.477 OA
BRANCH  17  18
ATOM     18  C   UNL     1       5.744   9.834  -0.941  1.00  0.00     0.124 A 
ATOM     19  C   UNL     1       5.070   8.289  -2.923  1.00  0.00     0.048 C 
ATOM     20  C   UNL     1       4.949   9.487  -2.043  1.00  0.00    -0.006 A 
ATOM     21  C   UNL     1       3.935  10.382  -2.466  1.00  0.00     0.046 A 
ATOM     22  C   UNL     1       3.711  11.586  -1.819  1.00  0.00     0.123 A 
ATOM     23  C   UNL     1       5.487  11.073  -0.309  1.00  0.00     0.050 A 
ATOM     24  F   UNL     1       2.746  12.403  -2.256  1.00  0.00    -0.207 F 
ATOM     25  C   UNL     1       4.485  11.945  -0.738  1.00  0.00     0.043 A 
ENDBRANCH  17  18
ENDBRANCH   9  17
BRANCH  15  26
ATOM     26  C   UNL     1       5.837   3.347  -2.501  1.00  0.00     0.107 C 
ATOM     27  C   UNL     1       4.573   3.754  -3.234  1.00  0.00     0.044 C 
ATOM     28  C   UNL     1       6.121   1.974  -3.088  1.00  0.00     0.173 C 
ATOM     29  C   UNL     1       3.888   2.441  -3.550  1.00  0.00     0.161 C 
ATOM     30  O   UNL     1       4.860   1.401  -3.451  1.00  0.00    -0.381 OA
ENDBRANCH  15  26
ENDBRANCH   6   9
ENDBRANCH   4   5
ENDBRANCH   3   4
ENDBRANCH   2   3
ENDBRANCH   1   2
BRANCH   1  31
ATOM     31  C   UNL     1      12.570   3.575   0.370  1.00  0.00     0.021 C 
BRANCH  31  32
ATOM     32  C   UNL     1      13.424   3.224  -0.842  1.00  0.00     0.116 C 
BRANCH  32  33
ATOM     33  N   UNL     1      14.844   3.274  -0.532  1.00  0.00    -0.352 N 
ATOM     34  C   UNL     1      15.790   2.287  -0.667  1.00  0.00     0.251 C 
ATOM     35  H   UNL     1      15.172   4.132  -0.177  1.00  0.00     0.163 HD
ATOM     36  O   UNL     1      16.892   2.411  -0.149  1.00  0.00    -0.269 OA
BRANCH  34  37
ATOM     37  C   UNL     1      15.453   1.070  -1.435  1.00  0.00     0.039 A 
ATOM     38  C   UNL     1      15.776  -0.182  -0.907  1.00  0.00     0.014 A 
ATOM     39  C   UNL     1      14.810   1.173  -2.671  1.00  0.00     0.014 A 
ATOM     40  C   UNL     1      15.405  -1.337  -1.600  1.00  0.00     0.010 A 
ATOM     41  C   UNL     1      14.371   0.024  -3.318  1.00  0.00     0.010 A 
ATOM     42  C   UNL     1      14.677  -1.243  -2.797  1.00  0.00    -0.014 A 
BRANCH  42  43
ATOM     43  C   UNL     1      14.244  -2.450  -3.545  1.00  0.00     0.031 A 
ATOM     44  C   UNL     1      14.766  -2.690  -4.936  1.00  0.00     0.074 A 
ATOM     45  C   UNL     1      13.329  -3.282  -3.011  1.00  0.00     0.049 A 
ATOM     46  N   UNL     1      14.433  -3.618  -5.795  1.00  0.00    -0.248 NA
ATOM     47  C   UNL     1      15.774  -1.740  -5.437  1.00  0.00     0.031 C 
ATOM     48  C   UNL     1      12.726  -3.142  -1.684  1.00  0.00     0.029 A 
ATOM     49  N   UNL     1      12.733  -4.405  -3.530  1.00  0.00    -0.354 N 
ATOM     50  C   UNL     1      15.170  -3.350  -6.943  1.00  0.00     0.074 A 
ATOM     51  C   UNL     1      15.925  -2.143  -6.689  1.00  0.00     0.031 C 
ATOM     52  C   UNL     1      11.860  -4.150  -1.487  1.00  0.00     0.029 A 
ATOM     53  C   UNL     1      11.809  -4.978  -2.688  1.00  0.00     0.049 A 
ATOM     54  H   UNL     1      12.947  -4.766  -4.420  1.00  0.00     0.167 HD
ATOM     55  C   UNL     1      15.228  -4.056  -8.098  1.00  0.00     0.031 A 
ATOM     56  C   UNL     1      10.999  -6.040  -2.868  1.00  0.00     0.031 A 
ATOM     57  C   UNL     1      14.475  -5.257  -8.342  1.00  0.00     0.049 A 
ATOM     58  C   UNL     1      11.062  -6.797  -4.167  1.00  0.00     0.074 A 
ATOM     59  C   UNL     1      14.497  -6.073  -9.459  1.00  0.00     0.029 A 
ATOM     60  N   UNL     1      13.561  -5.811  -7.458  1.00  0.00    -0.354 N 
ATOM     61  N   UNL     1      11.806  -6.563  -5.221  1.00  0.00    -0.248 NA
ATOM     62  C   UNL     1      10.184  -7.968  -4.295  1.00  0.00     0.031 C 
ATOM     63  C   UNL     1      13.552  -7.087  -9.275  1.00  0.00     0.029 A 
ATOM     64  C   UNL     1      12.995  -6.946  -8.013  1.00  0.00     0.049 A 
ATOM     65  H   UNL     1      13.347  -5.451  -6.567  1.00  0.00     0.167 HD
ATOM     66  C   UNL     1      11.512  -7.578  -6.126  1.00  0.00     0.074 A 
ATOM     67  C   UNL     1      10.529  -8.431  -5.490  1.00  0.00     0.031 C 
ATOM     68  C   UNL     1      12.018  -7.788  -7.367  1.00  0.00     0.031 A 
BRANCH  55  69
ATOM     69  C   UNL     1      16.126  -3.527  -9.188  1.00  0.00    -0.014 A 
ATOM     70  C   UNL     1      17.526  -3.509  -9.038  1.00  0.00     0.010 A 
ATOM     71  C   UNL     1      15.564  -3.054 -10.388  1.00  0.00     0.010 A 
ATOM     72  C   UNL     1      18.340  -2.973 -10.039  1.00  0.00     0.020 A 
ATOM     73  C   UNL     1      16.377  -2.550 -11.407  1.00  0.00     0.020 A 
ATOM     74  C   UNL     1      17.759  -2.491 -11.216  1.00  0.00     0.054 A 
BRANCH  74  75
ATOM     75  S   UNL     1      18.840  -1.801 -12.498  1.00  0.00     0.124 S 
ATOM     76  O   UNL     1      19.257  -0.539 -11.892  1.00  0.00    -0.237 OA
ATOM     77  O   UNL     1      19.884  -2.815 -12.616  1.00  0.00    -0.237 OA
ATOM     78  O   UNL     1      17.964  -1.674 -13.660  1.00  0.00    -0.744 OA
ENDBRANCH  74  75
ENDBRANCH  55  69
BRANCH  56  79
ATOM     79  C   UNL     1      10.071  -6.453  -1.779  1.00  0.00    -0.014 A 
ATOM     80  C   UNL     1      10.298  -7.636  -1.056  1.00  0.00     0.010 A 
ATOM     81  C   UNL     1       8.971  -5.644  -1.436  1.00  0.00     0.010 A 
ATOM     82  C   UNL     1       9.440  -8.008  -0.016  1.00  0.00     0.020 A 
ATOM     83  C   UNL     1       8.128  -5.997  -0.378  1.00  0.00     0.020 A 
ATOM     84  C   UNL     1       8.364  -7.182   0.321  1.00  0.00     0.054 A 
BRANCH  84  85
ATOM     85  S   UNL     1       7.309  -7.649   1.721  1.00  0.00     0.124 S 
ATOM     86  O   UNL     1       6.580  -8.793   1.185  1.00  0.00    -0.237 OA
ATOM     87  O   UNL     1       8.287  -7.953   2.764  1.00  0.00    -0.237 OA
ATOM     88  O   UNL     1       6.507  -6.451   1.961  1.00  0.00    -0.744 OA
ENDBRANCH  84  85
ENDBRANCH  56  79
BRANCH  68  89
ATOM     89  C   UNL     1      11.558  -9.015  -8.110  1.00  0.00    -0.014 A 
ATOM     90  C   UNL     1      10.258  -9.114  -8.636  1.00  0.00     0.010 A 
ATOM     91  C   UNL     1      12.474 -10.058  -8.347  1.00  0.00     0.010 A 
ATOM     92  C   UNL     1       9.876 -10.246  -9.363  1.00  0.00     0.020 A 
ATOM     93  C   UNL     1      12.105 -11.175  -9.099  1.00  0.00     0.020 A 
ATOM     94  C   UNL     1      10.803 -11.267  -9.593  1.00  0.00     0.054 A 
BRANCH  94  95
ATOM     95  S   UNL     1      10.298 -12.698 -10.587  1.00  0.00     0.124 S 
ATOM     96  O   UNL     1       9.394 -13.396  -9.678  1.00  0.00    -0.237 OA
ATOM     97  O   UNL     1       9.666 -12.074 -11.747  1.00  0.00    -0.237 OA
ATOM     98  O   UNL     1      11.556 -13.388 -10.866  1.00  0.00    -0.744 OA
ENDBRANCH  94  95
ENDBRANCH  68  89
ENDBRANCH  42  43
ENDBRANCH  34  37
ENDBRANCH  32  33
ENDBRANCH  31  32
ENDBRANCH   1  31
TORSDOF 19
