REMARK SMILES CC1(C)O[C@](C)(C(C)(C)O)CC[C@H]1C(=O)NCCCCCCNC(=O)c1ccc(-c2c3nc(c(-c4ccc(S(=O)(=O)[O-])cc4)c4ccc([nH]4)c(-c4ccc(S(=O)(=O)[O-])cc4)c4nc(c(-c5ccc(S(=O)(=O)[O-])cc5)c5ccc2[nH]5)C=C4)C=C3)cc1
REMARK SMILES IDX 20 1 19 2 18 3 17 4 16 5 14 6 15 7 13 9 1 10 2 11 3 12 4 13
REMARK SMILES IDX 5 14 12 15 6 16 11 17 7 18 8 19 9 20 10 21 21 23 22 24 23 25
REMARK SMILES IDX 24 26 25 28 26 29 27 30 85 31 28 32 84 33 29 34 30 35 31 36
REMARK SMILES IDX 78 37 32 38 83 39 77 40 79 41 33 42 82 43 76 44 75 45 34 47
REMARK SMILES IDX 64 48 45 49 63 50 46 51 49 52 62 53 80 54 47 55 48 56 61 58
REMARK SMILES IDX 81 59 50 60 35 61 36 62 44 63 37 64 43 65 38 66 39 67 40 68
REMARK SMILES IDX 41 69 42 70 65 71 66 72 74 73 67 74 73 75 68 76 69 77 70 78
REMARK SMILES IDX 71 79 72 80 51 81 52 82 60 83 53 84 59 85 54 86 55 87 56 88
REMARK SMILES IDX 57 89 58 90
REMARK H PARENT 16 8 10 22 23 27 79 46 49 57
REMARK Flexibility Score: inf
ROOT
ATOM      1  C   UNL     1       3.947  -1.903  -3.833  1.00  0.00     0.002 C 
ENDROOT
BRANCH   1   2
ATOM      2  C   UNL     1       4.241  -1.388  -2.422  1.00  0.00     0.002 C 
BRANCH   2   3
ATOM      3  C   UNL     1       3.030  -0.824  -1.682  1.00  0.00     0.021 C 
BRANCH   3   4
ATOM      4  C   UNL     1       1.937  -1.852  -1.391  1.00  0.00     0.116 C 
BRANCH   4   5
ATOM      5  N   UNL     1       2.193  -2.532  -0.139  1.00  0.00    -0.356 N 
ATOM      6  C   UNL     1       1.540  -2.515   1.050  1.00  0.00     0.226 C 
ATOM      7  O   UNL     1       2.085  -3.114   1.985  1.00  0.00    -0.275 OA
ATOM      8  H   UNL     1       2.987  -3.113  -0.152  1.00  0.00     0.163 HD
BRANCH   6   9
ATOM      9  C   UNL     1       0.191  -1.828   1.273  1.00  0.00     0.110 C 
ATOM     10  C   UNL     1       1.068   0.597   0.614  1.00  0.00     0.043 C 
ATOM     11  C   UNL     1       0.224  -0.295   1.528  1.00  0.00     0.075 C 
ATOM     12  C   UNL     1       0.810  -0.061   2.944  1.00  0.00     0.043 C 
ATOM     13  O   UNL     1      -1.096   0.273   1.589  1.00  0.00    -0.366 OA
ATOM     14  C   UNL     1      -2.094  -0.106   0.621  1.00  0.00     0.094 C 
ATOM     15  C   UNL     1      -0.919  -2.350   0.355  1.00  0.00     0.019 C 
ATOM     16  C   UNL     1      -1.744   0.360  -0.812  1.00  0.00     0.045 C 
ATOM     17  C   UNL     1      -2.241  -1.642   0.641  1.00  0.00     0.039 C 
BRANCH  14  18
ATOM     18  C   UNL     1      -3.433   0.618   1.064  1.00  0.00     0.088 C 
ATOM     19  C   UNL     1      -3.877   0.236   2.485  1.00  0.00     0.045 C 
ATOM     20  C   UNL     1      -3.284   2.153   1.012  1.00  0.00     0.045 C 
BRANCH  18  21
ATOM     21  O   UNL     1      -4.497   0.244   0.177  1.00  0.00    -0.387 OA
ATOM     22  H   UNL     1      -4.609  -0.719   0.193  1.00  0.00     0.211 HD
ENDBRANCH  18  21
ENDBRANCH  14  18
ENDBRANCH   6   9
ENDBRANCH   4   5
ENDBRANCH   3   4
ENDBRANCH   2   3
ENDBRANCH   1   2
BRANCH   1  23
ATOM     23  C   UNL     1       3.212  -0.919  -4.747  1.00  0.00     0.021 C 
BRANCH  23  24
ATOM     24  C   UNL     1       3.877   0.450  -4.881  1.00  0.00     0.116 C 
BRANCH  24  25
ATOM     25  N   UNL     1       5.238   0.345  -5.382  1.00  0.00    -0.352 N 
ATOM     26  C   UNL     1       5.767   0.796  -6.564  1.00  0.00     0.251 C 
ATOM     27  H   UNL     1       5.872  -0.116  -4.786  1.00  0.00     0.163 HD
ATOM     28  O   UNL     1       6.878   0.411  -6.928  1.00  0.00    -0.269 OA
BRANCH  26  29
ATOM     29  C   UNL     1       4.992   1.729  -7.404  1.00  0.00     0.039 A 
ATOM     30  C   UNL     1       4.869   1.471  -8.770  1.00  0.00     0.014 A 
ATOM     31  C   UNL     1       4.381   2.852  -6.837  1.00  0.00     0.014 A 
ATOM     32  C   UNL     1       4.071   2.302  -9.558  1.00  0.00     0.010 A 
ATOM     33  C   UNL     1       3.534   3.640  -7.611  1.00  0.00     0.010 A 
ATOM     34  C   UNL     1       3.362   3.367  -8.976  1.00  0.00    -0.014 A 
BRANCH  34  35
ATOM     35  C   UNL     1       2.402   4.175  -9.769  1.00  0.00     0.031 A 
ATOM     36  C   UNL     1       2.646   5.640 -10.001  1.00  0.00     0.074 A 
ATOM     37  C   UNL     1       1.270   3.597 -10.217  1.00  0.00     0.049 A 
ATOM     38  N   UNL     1       1.887   6.513 -10.612  1.00  0.00    -0.248 NA
ATOM     39  C   UNL     1       3.893   6.202  -9.458  1.00  0.00     0.031 C 
ATOM     40  C   UNL     1       0.903   2.191 -10.021  1.00  0.00     0.029 A 
ATOM     41  N   UNL     1       0.213   4.119 -10.920  1.00  0.00    -0.354 N 
ATOM     42  C   UNL     1       2.557   7.727 -10.520  1.00  0.00     0.074 A 
ATOM     43  C   UNL     1       3.761   7.488  -9.755  1.00  0.00     0.031 C 
ATOM     44  C   UNL     1      -0.281   1.960 -10.610  1.00  0.00     0.029 A 
ATOM     45  C   UNL     1      -0.781   3.206 -11.182  1.00  0.00     0.049 A 
ATOM     46  H   UNL     1       0.171   5.059 -11.209  1.00  0.00     0.167 HD
ATOM     47  C   UNL     1       2.207   8.929 -11.039  1.00  0.00     0.031 A 
ATOM     48  C   UNL     1      -1.968   3.354 -11.800  1.00  0.00     0.031 A 
ATOM     49  C   UNL     1       1.005   9.160 -11.797  1.00  0.00     0.049 A 
ATOM     50  C   UNL     1      -2.349   4.706 -12.337  1.00  0.00     0.074 A 
ATOM     51  C   UNL     1       0.589  10.328 -12.413  1.00  0.00     0.029 A 
ATOM     52  N   UNL     1       0.021   8.212 -12.036  1.00  0.00    -0.354 N 
ATOM     53  N   UNL     1      -1.667   5.826 -12.305  1.00  0.00    -0.248 NA
ATOM     54  C   UNL     1      -3.657   4.812 -12.998  1.00  0.00     0.031 C 
ATOM     55  C   UNL     1      -0.674  10.102 -12.970  1.00  0.00     0.029 A 
ATOM     56  C   UNL     1      -1.017   8.777 -12.757  1.00  0.00     0.049 A 
ATOM     57  H   UNL     1       0.057   7.274 -11.736  1.00  0.00     0.167 HD
ATOM     58  C   UNL     1      -2.456   6.767 -12.957  1.00  0.00     0.074 A 
ATOM     59  C   UNL     1      -3.655   6.079 -13.392  1.00  0.00     0.031 C 
ATOM     60  C   UNL     1      -2.210   8.082 -13.174  1.00  0.00     0.031 A 
BRANCH  47  61
ATOM     61  C   UNL     1       3.132  10.092 -10.794  1.00  0.00    -0.014 A 
ATOM     62  C   UNL     1       4.394  10.160 -11.411  1.00  0.00     0.010 A 
ATOM     63  C   UNL     1       2.715  11.157  -9.973  1.00  0.00     0.010 A 
ATOM     64  C   UNL     1       5.238  11.251 -11.181  1.00  0.00     0.020 A 
ATOM     65  C   UNL     1       3.544  12.263  -9.764  1.00  0.00     0.020 A 
ATOM     66  C   UNL     1       4.807  12.295 -10.356  1.00  0.00     0.054 A 
BRANCH  66  67
ATOM     67  S   UNL     1       5.914  13.708 -10.095  1.00  0.00     0.124 S 
ATOM     68  O   UNL     1       6.945  13.127  -9.238  1.00  0.00    -0.237 OA
ATOM     69  O   UNL     1       6.340  14.036 -11.453  1.00  0.00    -0.237 OA
ATOM     70  O   UNL     1       5.061  14.705  -9.454  1.00  0.00    -0.744 OA
ENDBRANCH  66  67
ENDBRANCH  47  61
BRANCH  48  71
ATOM     71  C   UNL     1      -2.883   2.188 -11.940  1.00  0.00    -0.014 A 
ATOM     72  C   UNL     1      -3.115   1.608 -13.199  1.00  0.00     0.010 A 
ATOM     73  C   UNL     1      -3.513   1.639 -10.807  1.00  0.00     0.010 A 
ATOM     74  C   UNL     1      -3.972   0.511 -13.326  1.00  0.00     0.020 A 
ATOM     75  C   UNL     1      -4.347   0.523 -10.927  1.00  0.00     0.020 A 
ATOM     76  C   UNL     1      -4.580  -0.027 -12.188  1.00  0.00     0.054 A 
BRANCH  76  77
ATOM     77  S   UNL     1      -5.644  -1.485 -12.371  1.00  0.00     0.124 S 
ATOM     78  O   UNL     1      -6.832  -0.917 -12.998  1.00  0.00    -0.237 OA
ATOM     79  O   UNL     1      -4.836  -2.360 -13.217  1.00  0.00    -0.237 OA
ATOM     80  O   UNL     1      -5.821  -1.952 -10.998  1.00  0.00    -0.744 OA
ENDBRANCH  76  77
ENDBRANCH  48  71
BRANCH  60  81
ATOM     81  C   UNL     1      -3.251   8.866 -13.927  1.00  0.00    -0.014 A 
ATOM     82  C   UNL     1      -4.479   9.204 -13.330  1.00  0.00     0.010 A 
ATOM     83  C   UNL     1      -2.974   9.323 -15.229  1.00  0.00     0.010 A 
ATOM     84  C   UNL     1      -5.420   9.962 -14.030  1.00  0.00     0.020 A 
ATOM     85  C   UNL     1      -3.901  10.106 -15.921  1.00  0.00     0.020 A 
ATOM     86  C   UNL     1      -5.124  10.411 -15.321  1.00  0.00     0.054 A 
BRANCH  86  87
ATOM     87  S   UNL     1      -6.342  11.439 -16.186  1.00  0.00     0.124 S 
ATOM     88  O   UNL     1      -7.379  10.467 -16.519  1.00  0.00    -0.237 OA
ATOM     89  O   UNL     1      -6.706  12.425 -15.172  1.00  0.00    -0.237 OA
ATOM     90  O   UNL     1      -5.599  11.972 -17.326  1.00  0.00    -0.744 OA
ENDBRANCH  86  87
ENDBRANCH  60  81
ENDBRANCH  34  35
ENDBRANCH  26  29
ENDBRANCH  24  25
ENDBRANCH  23  24
ENDBRANCH   1  23
TORSDOF 18
