REMARK SMILES Cc1ccccc1-c1c(Cl)ccc2c1C=C(C(=O)NCCCCCCNC(=O)c1ccc(-c3c4nc(c(-c5ccc(S(=O)(=O)[O-])cc5)c5ccc([nH]5)c(-c5ccc(S(=O)(=O)[O-])cc5)c5nc(c(-c6ccc(S(=O)(=O)[O-])cc6)c6ccc3[nH]6)C=C5)C=C4)cc1)[C@@H](C(F)(F)F)O2
REMARK SMILES IDX 23 1 22 2 21 3 20 4 19 5 17 6 18 7 16 9 8 10 9 11 14 12
REMARK SMILES IDX 10 13 11 14 13 15 15 16 12 17 94 18 89 19 7 20 1 21 2 22
REMARK SMILES IDX 3 23 4 24 6 25 5 26 90 27 91 28 92 29 93 30 24 31 25 32
REMARK SMILES IDX 26 33 27 34 28 36 29 37 30 38 88 39 31 40 87 41 32 42 33 43
REMARK SMILES IDX 34 44 81 45 35 46 86 47 80 48 82 49 36 50 85 51 79 52 78 53
REMARK SMILES IDX 37 55 67 56 48 57 66 58 49 59 52 60 65 61 83 62 50 63 51 64
REMARK SMILES IDX 64 66 84 67 53 68 38 69 39 70 47 71 40 72 46 73 41 74 42 75
REMARK SMILES IDX 43 76 44 77 45 78 68 79 69 80 77 81 70 82 76 83 71 84 72 85
REMARK SMILES IDX 73 86 74 87 75 88 54 89 55 90 63 91 56 92 62 93 57 94 58 95
REMARK SMILES IDX 59 96 60 97 61 98
REMARK H PARENT 19 8 26 35 82 54 52 65
REMARK Flexibility Score: inf
ROOT
ATOM      1  C   UNL     1       7.276  -1.808   0.585  1.00  0.00     0.002 C 
ENDROOT
BRANCH   1   2
ATOM      2  C   UNL     1       7.485  -1.269  -0.884  1.00  0.00     0.002 C 
BRANCH   2   3
ATOM      3  C   UNL     1       6.329  -1.228  -1.939  1.00  0.00     0.021 C 
BRANCH   3   4
ATOM      4  C   UNL     1       5.196  -0.272  -1.646  1.00  0.00     0.116 C 
BRANCH   4   5
ATOM      5  N   UNL     1       5.652   1.093  -1.567  1.00  0.00    -0.352 N 
ATOM      6  C   UNL     1       5.086   2.249  -1.973  1.00  0.00     0.251 C 
ATOM      7  O   UNL     1       5.743   3.281  -1.841  1.00  0.00    -0.270 OA
ATOM      8  H   UNL     1       6.533   1.201  -1.142  1.00  0.00     0.163 HD
BRANCH   6   9
ATOM      9  C   UNL     1       3.712   2.264  -2.602  1.00  0.00     0.067 C 
ATOM     10  C   UNL     1       1.181   2.419   0.122  1.00  0.00     0.012 A 
ATOM     11  C   UNL     1       0.898   3.404   1.103  1.00  0.00     0.049 A 
ATOM     12  C   UNL     1       2.091   2.781  -0.907  1.00  0.00     0.027 A 
ATOM     13  Cl  UNL     1      -0.095   3.069   2.489  1.00  0.00    -0.084 Cl
ATOM     14  C   UNL     1       1.410   4.704   1.015  1.00  0.00     0.025 A 
ATOM     15  C   UNL     1       2.492   4.130  -1.046  1.00  0.00     0.128 A 
ATOM     16  C   UNL     1       2.712   1.790  -1.826  1.00  0.00     0.026 C 
ATOM     17  C   UNL     1       2.175   5.077  -0.081  1.00  0.00     0.049 A 
ATOM     18  O   UNL     1       3.206   4.612  -2.119  1.00  0.00    -0.475 OA
ATOM     19  C   UNL     1       3.476   3.655  -3.178  1.00  0.00     0.314 C 
BRANCH  10  20
ATOM     20  C   UNL     1       0.426   1.133   0.107  1.00  0.00    -0.013 A 
ATOM     21  C   UNL     1       2.438  -0.394   0.573  1.00  0.00     0.045 C 
ATOM     22  C   UNL     1       0.983  -0.143   0.316  1.00  0.00    -0.043 A 
ATOM     23  C   UNL     1       0.165  -1.290   0.236  1.00  0.00     0.004 A 
ATOM     24  C   UNL     1      -1.202  -1.191  -0.003  1.00  0.00     0.000 A 
ATOM     25  C   UNL     1      -0.966   1.199  -0.145  1.00  0.00     0.009 A 
ATOM     26  C   UNL     1      -1.771   0.059  -0.184  1.00  0.00     0.001 A 
ENDBRANCH  10  20
BRANCH  19  27
ATOM     27  C   UNL     1       2.393   3.701  -4.263  1.00  0.00     0.429 C 
ATOM     28  F   UNL     1       2.328   4.930  -4.834  1.00  0.00    -0.167 F 
ATOM     29  F   UNL     1       2.651   2.821  -5.260  1.00  0.00    -0.167 F 
ATOM     30  F   UNL     1       1.156   3.420  -3.791  1.00  0.00    -0.167 F 
ENDBRANCH  19  27
ENDBRANCH   6   9
ENDBRANCH   4   5
ENDBRANCH   3   4
ENDBRANCH   2   3
ENDBRANCH   1   2
BRANCH   1  31
ATOM     31  C   UNL     1       7.010  -3.336   1.111  1.00  0.00     0.021 C 
BRANCH  31  32
ATOM     32  C   UNL     1       8.234  -4.378   1.200  1.00  0.00     0.116 C 
BRANCH  32  33
ATOM     33  N   UNL     1       8.161  -5.957   1.532  1.00  0.00    -0.352 N 
ATOM     34  C   UNL     1       8.580  -7.282   1.059  1.00  0.00     0.251 C 
ATOM     35  H   UNL     1       7.643  -6.075   2.361  1.00  0.00     0.163 HD
ATOM     36  O   UNL     1       9.146  -7.942   1.955  1.00  0.00    -0.269 OA
BRANCH  34  37
ATOM     37  C   UNL     1       8.464  -8.115  -0.299  1.00  0.00     0.039 A 
ATOM     38  C   UNL     1       9.569  -8.863  -0.825  1.00  0.00     0.014 A 
ATOM     39  C   UNL     1       7.369  -8.152  -1.151  1.00  0.00     0.014 A 
ATOM     40  C   UNL     1       9.752  -9.023  -2.264  1.00  0.00     0.010 A 
ATOM     41  C   UNL     1       7.550  -8.277  -2.568  1.00  0.00     0.010 A 
ATOM     42  C   UNL     1       8.808  -8.480  -3.154  1.00  0.00    -0.014 A 
BRANCH  42  43
ATOM     43  C   UNL     1       9.126  -7.869  -4.523  1.00  0.00     0.031 A 
ATOM     44  C   UNL     1       8.671  -8.487  -5.765  1.00  0.00     0.074 A 
ATOM     45  C   UNL     1       9.666  -6.641  -4.804  1.00  0.00     0.049 A 
ATOM     46  N   UNL     1       9.442  -8.781  -6.764  1.00  0.00    -0.248 NA
ATOM     47  C   UNL     1       7.250  -8.683  -6.008  1.00  0.00     0.031 C 
ATOM     48  C   UNL     1       9.881  -5.858  -6.036  1.00  0.00     0.029 A 
ATOM     49  N   UNL     1      10.115  -5.714  -3.901  1.00  0.00    -0.354 N 
ATOM     50  C   UNL     1       8.592  -8.873  -7.845  1.00  0.00     0.074 A 
ATOM     51  C   UNL     1       7.261  -9.043  -7.293  1.00  0.00     0.031 C 
ATOM     52  C   UNL     1      10.734  -4.832  -5.790  1.00  0.00     0.029 A 
ATOM     53  C   UNL     1      11.134  -4.910  -4.402  1.00  0.00     0.049 A 
ATOM     54  H   UNL     1       9.753  -5.625  -2.990  1.00  0.00     0.167 HD
ATOM     55  C   UNL     1       8.941  -8.434  -9.092  1.00  0.00     0.031 A 
ATOM     56  C   UNL     1      12.376  -5.006  -3.823  1.00  0.00     0.031 A 
ATOM     57  C   UNL     1      10.162  -7.615  -9.095  1.00  0.00     0.049 A 
ATOM     58  C   UNL     1      13.283  -5.804  -4.741  1.00  0.00     0.074 A 
ATOM     59  C   UNL     1      10.420  -6.283  -9.402  1.00  0.00     0.029 A 
ATOM     60  N   UNL     1      11.302  -8.063  -8.443  1.00  0.00    -0.354 N 
ATOM     61  N   UNL     1      12.925  -6.113  -5.955  1.00  0.00    -0.248 NA
ATOM     62  C   UNL     1      14.600  -6.356  -4.430  1.00  0.00     0.031 C 
ATOM     63  C   UNL     1      11.730  -5.953  -8.947  1.00  0.00     0.029 A 
ATOM     64  C   UNL     1      12.280  -7.086  -8.382  1.00  0.00     0.049 A 
ATOM     65  H   UNL     1      11.403  -8.968  -8.069  1.00  0.00     0.167 HD
ATOM     66  C   UNL     1      13.833  -6.926  -6.556  1.00  0.00     0.074 A 
ATOM     67  C   UNL     1      14.892  -7.030  -5.565  1.00  0.00     0.031 C 
ATOM     68  C   UNL     1      13.581  -7.425  -7.804  1.00  0.00     0.031 A 
BRANCH  55  69
ATOM     69  C   UNL     1       7.970  -8.511 -10.255  1.00  0.00    -0.014 A 
ATOM     70  C   UNL     1       8.077  -7.643 -11.357  1.00  0.00     0.010 A 
ATOM     71  C   UNL     1       6.957  -9.493 -10.335  1.00  0.00     0.010 A 
ATOM     72  C   UNL     1       7.182  -7.697 -12.436  1.00  0.00     0.020 A 
ATOM     73  C   UNL     1       6.026  -9.530 -11.383  1.00  0.00     0.020 A 
ATOM     74  C   UNL     1       6.151  -8.633 -12.437  1.00  0.00     0.054 A 
BRANCH  74  75
ATOM     75  S   UNL     1       5.026  -8.704 -13.854  1.00  0.00     0.124 S 
ATOM     76  O   UNL     1       4.506  -7.341 -13.919  1.00  0.00    -0.237 OA
ATOM     77  O   UNL     1       5.921  -9.089 -14.942  1.00  0.00    -0.237 OA
ATOM     78  O   UNL     1       4.046  -9.719 -13.470  1.00  0.00    -0.744 OA
ENDBRANCH  74  75
ENDBRANCH  55  69
BRANCH  56  79
ATOM     79  C   UNL     1      12.328  -5.021  -2.271  1.00  0.00    -0.014 A 
ATOM     80  C   UNL     1      11.809  -3.820  -1.721  1.00  0.00     0.010 A 
ATOM     81  C   UNL     1      11.781  -6.176  -1.733  1.00  0.00     0.010 A 
ATOM     82  C   UNL     1      10.446  -3.740  -1.358  1.00  0.00     0.020 A 
ATOM     83  C   UNL     1      10.418  -6.072  -1.394  1.00  0.00     0.020 A 
ATOM     84  C   UNL     1       9.694  -4.901  -1.381  1.00  0.00     0.054 A 
BRANCH  84  85
ATOM     85  S   UNL     1       7.787  -4.922  -1.868  1.00  0.00     0.124 S 
ATOM     86  O   UNL     1       7.506  -3.529  -1.896  1.00  0.00    -0.237 OA
ATOM     87  O   UNL     1       7.710  -5.496  -3.200  1.00  0.00    -0.237 OA
ATOM     88  O   UNL     1       7.043  -5.627  -0.841  1.00  0.00    -0.744 OA
ENDBRANCH  84  85
ENDBRANCH  56  79
BRANCH  68  89
ATOM     89  C   UNL     1      14.484  -8.297  -8.642  1.00  0.00    -0.014 A 
ATOM     90  C   UNL     1      15.872  -8.378  -8.493  1.00  0.00     0.010 A 
ATOM     91  C   UNL     1      13.920  -9.015  -9.730  1.00  0.00     0.010 A 
ATOM     92  C   UNL     1      16.637  -9.206  -9.331  1.00  0.00     0.020 A 
ATOM     93  C   UNL     1      14.665  -9.834 -10.571  1.00  0.00     0.020 A 
ATOM     94  C   UNL     1      16.025  -9.943 -10.351  1.00  0.00     0.054 A 
BRANCH  94  95
ATOM     95  S   UNL     1      17.025 -11.022 -11.397  1.00  0.00     0.124 S 
ATOM     96  O   UNL     1      18.048 -10.110 -11.900  1.00  0.00    -0.237 OA
ATOM     97  O   UNL     1      17.491 -12.024 -10.441  1.00  0.00    -0.237 OA
ATOM     98  O   UNL     1      16.084 -11.513 -12.401  1.00  0.00    -0.744 OA
ENDBRANCH  94  95
ENDBRANCH  68  89
ENDBRANCH  42  43
ENDBRANCH  34  37
ENDBRANCH  32  33
ENDBRANCH  31  32
ENDBRANCH   1  31
TORSDOF 18
