REMARK SMILES Cc1[nH]c2ccccc2c1[C@H](C(=O)NCCCCCCNC(=O)c1ccc(-c2c3nc(c(-c4ccc(S(=O)(=O)[O-])cc4)c4ccc([nH]4)c(-c4ccc(S(=O)(=O)[O-])cc4)c4nc(c(-c5ccc(S(=O)(=O)[O-])cc5)c5ccc2[nH]5)C=C4)C=C3)cc1)[NH+]1CCN(C(=O)c2ccco2)CC1
REMARK SMILES IDX 18 1 17 2 16 3 15 4 14 5 12 6 13 7 11 9 10 10 1 11 2 12 3 13
REMARK SMILES IDX 4 14 9 16 5 17 8 18 6 19 7 20 84 21 85 22 96 23 86 25 95 26
REMARK SMILES IDX 87 27 88 28 89 29 90 30 91 31 94 32 92 33 93 34 19 35 20 36
REMARK SMILES IDX 21 37 22 38 23 40 24 41 25 42 83 43 26 44 82 45 27 46 28 47
REMARK SMILES IDX 29 48 76 49 30 50 81 51 75 52 77 53 31 54 80 55 74 56 73 57
REMARK SMILES IDX 32 59 62 60 43 61 61 62 44 63 47 64 60 65 78 66 45 67 46 68
REMARK SMILES IDX 59 70 79 71 48 72 33 73 34 74 42 75 35 76 41 77 36 78 37 79
REMARK SMILES IDX 38 80 39 81 40 82 63 83 64 84 72 85 65 86 71 87 66 88 67 89
REMARK SMILES IDX 68 90 69 91 70 92 49 93 50 94 58 95 51 96 57 97 52 98 53 99
REMARK SMILES IDX 54 100 55 101 56 102
REMARK H PARENT 14 8 3 15 84 24 21 39 77 58 47 69
REMARK Flexibility Score: inf
ROOT
ATOM      1  C   UNL     1       4.029  -2.778  -2.166  1.00  0.00     0.002 C 
ENDROOT
BRANCH   1   2
ATOM      2  C   UNL     1       2.975  -1.859  -2.796  1.00  0.00     0.002 C 
BRANCH   2   3
ATOM      3  C   UNL     1       1.536  -2.358  -2.681  1.00  0.00     0.021 C 
BRANCH   3   4
ATOM      4  C   UNL     1       1.067  -2.478  -1.240  1.00  0.00     0.116 C 
BRANCH   4   5
ATOM      5  N   UNL     1       0.404  -1.271  -0.787  1.00  0.00    -0.351 N 
ATOM      6  C   UNL     1      -0.840  -1.108  -0.239  1.00  0.00     0.283 C 
ATOM      7  O   UNL     1      -1.157   0.045   0.083  1.00  0.00    -0.268 OA
ATOM      8  H   UNL     1       0.927  -0.443  -0.889  1.00  0.00     0.163 HD
BRANCH   6   9
ATOM      9  C   UNL     1      -1.819  -2.292  -0.002  1.00  0.00     0.308 C 
BRANCH   9  10
ATOM     10  C   UNL     1      -1.979  -3.180  -1.238  1.00  0.00     0.047 A 
ATOM     11  C   UNL     1      -2.242  -1.312  -3.078  1.00  0.00     0.065 C 
ATOM     12  C   UNL     1      -2.110  -2.697  -2.546  1.00  0.00     0.022 A 
ATOM     13  N   UNL     1      -2.035  -3.763  -3.403  1.00  0.00    -0.358 N 
ATOM     14  C   UNL     1      -1.980  -4.940  -2.705  1.00  0.00     0.046 A 
ATOM     15  H   UNL     1      -2.022  -3.692  -4.385  1.00  0.00     0.166 HD
ATOM     16  C   UNL     1      -2.031  -4.620  -1.346  1.00  0.00     0.009 A 
ATOM     17  C   UNL     1      -1.897  -6.252  -3.186  1.00  0.00     0.027 A 
ATOM     18  C   UNL     1      -2.075  -5.693  -0.430  1.00  0.00     0.011 A 
ATOM     19  C   UNL     1      -1.917  -7.287  -2.252  1.00  0.00     0.002 A 
ATOM     20  C   UNL     1      -2.025  -7.015  -0.892  1.00  0.00     0.001 A 
ENDBRANCH   9  10
BRANCH   9  21
ATOM     21  N   UNL     1      -1.603  -3.023   1.279  1.00  0.00    -0.318 N 
ATOM     22  C   UNL     1      -0.241  -3.443   1.645  1.00  0.00     0.285 C 
ATOM     23  C   UNL     1      -2.209  -2.360   2.446  1.00  0.00     0.285 C 
ATOM     24  H   UNL     1      -2.089  -3.888   1.040  1.00  0.00     0.349 HD
ATOM     25  C   UNL     1       0.671  -2.374   2.282  1.00  0.00     0.181 C 
ATOM     26  C   UNL     1      -1.393  -1.215   3.072  1.00  0.00     0.181 C 
ATOM     27  N   UNL     1       0.024  -1.533   3.287  1.00  0.00    -0.325 N 
ATOM     28  C   UNL     1       0.877  -0.678   4.013  1.00  0.00     0.289 C 
ATOM     29  O   UNL     1       2.078  -0.618   3.745  1.00  0.00    -0.265 OA
BRANCH  28  30
ATOM     30  C   UNL     1       0.302   0.096   5.096  1.00  0.00     0.191 A 
ATOM     31  C   UNL     1      -0.563  -0.240   6.123  1.00  0.00     0.056 A 
ATOM     32  O   UNL     1       0.693   1.401   5.248  1.00  0.00    -0.459 OA
ATOM     33  C   UNL     1      -0.730   0.920   6.917  1.00  0.00     0.043 A 
ATOM     34  C   UNL     1       0.054   1.890   6.341  1.00  0.00     0.196 A 
ENDBRANCH  28  30
ENDBRANCH   9  21
ENDBRANCH   6   9
ENDBRANCH   4   5
ENDBRANCH   3   4
ENDBRANCH   2   3
ENDBRANCH   1   2
BRANCH   1  35
ATOM     35  C   UNL     1       3.962  -4.247  -2.593  1.00  0.00     0.021 C 
BRANCH  35  36
ATOM     36  C   UNL     1       3.922  -4.476  -4.100  1.00  0.00     0.116 C 
BRANCH  36  37
ATOM     37  N   UNL     1       5.022  -3.815  -4.782  1.00  0.00    -0.352 N 
ATOM     38  C   UNL     1       5.905  -4.339  -5.689  1.00  0.00     0.251 C 
ATOM     39  H   UNL     1       5.149  -2.864  -4.564  1.00  0.00     0.163 HD
ATOM     40  O   UNL     1       6.882  -3.697  -6.053  1.00  0.00    -0.269 OA
BRANCH  38  41
ATOM     41  C   UNL     1       5.663  -5.697  -6.205  1.00  0.00     0.039 A 
ATOM     42  C   UNL     1       6.686  -6.642  -6.122  1.00  0.00     0.014 A 
ATOM     43  C   UNL     1       4.417  -6.031  -6.745  1.00  0.00     0.014 A 
ATOM     44  C   UNL     1       6.447  -7.945  -6.554  1.00  0.00     0.010 A 
ATOM     45  C   UNL     1       4.163  -7.345  -7.120  1.00  0.00     0.010 A 
ATOM     46  C   UNL     1       5.180  -8.308  -7.041  1.00  0.00    -0.014 A 
BRANCH  46  47
ATOM     47  C   UNL     1       4.914  -9.688  -7.507  1.00  0.00     0.031 A 
ATOM     48  C   UNL     1       4.655  -9.943  -8.965  1.00  0.00     0.074 A 
ATOM     49  C   UNL     1       4.859 -10.694  -6.614  1.00  0.00     0.049 A 
ATOM     50  N   UNL     1       4.370 -11.068  -9.567  1.00  0.00    -0.248 NA
ATOM     51  C   UNL     1       4.695  -8.775  -9.862  1.00  0.00     0.031 C 
ATOM     52  C   UNL     1       5.049 -10.556  -5.168  1.00  0.00     0.029 A 
ATOM     53  N   UNL     1       4.622 -12.033  -6.791  1.00  0.00    -0.354 N 
ATOM     54  C   UNL     1       4.179 -10.742 -10.904  1.00  0.00     0.074 A 
ATOM     55  C   UNL     1       4.334  -9.309 -11.019  1.00  0.00     0.031 C 
ATOM     56  C   UNL     1       4.943 -11.766  -4.593  1.00  0.00     0.029 A 
ATOM     57  C   UNL     1       4.650 -12.757  -5.624  1.00  0.00     0.049 A 
ATOM     58  H   UNL     1       4.447 -12.437  -7.672  1.00  0.00     0.167 HD
ATOM     59  C   UNL     1       3.918 -11.566 -11.946  1.00  0.00     0.031 A 
ATOM     60  C   UNL     1       4.463 -14.074  -5.410  1.00  0.00     0.031 A 
ATOM     61  C   UNL     1       3.788 -12.992 -11.826  1.00  0.00     0.049 A 
ATOM     62  C   UNL     1       4.197 -14.972  -6.586  1.00  0.00     0.074 A 
ATOM     63  C   UNL     1       3.584 -13.925 -12.827  1.00  0.00     0.029 A 
ATOM     64  N   UNL     1       3.851 -13.692 -10.631  1.00  0.00    -0.354 N 
ATOM     65  N   UNL     1       4.086 -14.655  -7.854  1.00  0.00    -0.248 NA
ATOM     66  C   UNL     1       4.045 -16.406  -6.305  1.00  0.00     0.031 C 
ATOM     67  C   UNL     1       3.485 -15.187 -12.231  1.00  0.00     0.029 A 
ATOM     68  C   UNL     1       3.674 -15.044 -10.865  1.00  0.00     0.049 A 
ATOM     69  H   UNL     1       4.000 -13.287  -9.746  1.00  0.00     0.167 HD
ATOM     70  C   UNL     1       3.876 -15.853  -8.526  1.00  0.00     0.074 A 
ATOM     71  C   UNL     1       3.889 -16.901  -7.526  1.00  0.00     0.031 C 
ATOM     72  C   UNL     1       3.691 -16.068  -9.852  1.00  0.00     0.031 A 
BRANCH  59  73
ATOM     73  C   UNL     1       3.755 -10.937 -13.304  1.00  0.00    -0.014 A 
ATOM     74  C   UNL     1       4.856 -10.390 -13.988  1.00  0.00     0.010 A 
ATOM     75  C   UNL     1       2.489 -10.913 -13.915  1.00  0.00     0.010 A 
ATOM     76  C   UNL     1       4.686  -9.793 -15.240  1.00  0.00     0.020 A 
ATOM     77  C   UNL     1       2.320 -10.340 -15.179  1.00  0.00     0.020 A 
ATOM     78  C   UNL     1       3.417  -9.767 -15.825  1.00  0.00     0.054 A 
BRANCH  78  79
ATOM     79  S   UNL     1       3.227  -9.001 -17.458  1.00  0.00     0.124 S 
ATOM     80  O   UNL     1       3.299  -7.578 -17.132  1.00  0.00    -0.237 OA
ATOM     81  O   UNL     1       4.367  -9.534 -18.199  1.00  0.00    -0.237 OA
ATOM     82  O   UNL     1       1.919  -9.470 -17.911  1.00  0.00    -0.744 OA
ENDBRANCH  78  79
ENDBRANCH  59  73
BRANCH  60  83
ATOM     83  C   UNL     1       4.546 -14.620  -4.029  1.00  0.00    -0.014 A 
ATOM     84  C   UNL     1       5.651 -15.395  -3.633  1.00  0.00     0.010 A 
ATOM     85  C   UNL     1       3.531 -14.348  -3.094  1.00  0.00     0.010 A 
ATOM     86  C   UNL     1       5.730 -15.903  -2.333  1.00  0.00     0.020 A 
ATOM     87  C   UNL     1       3.619 -14.834  -1.786  1.00  0.00     0.020 A 
ATOM     88  C   UNL     1       4.714 -15.618  -1.417  1.00  0.00     0.054 A 
BRANCH  88  89
ATOM     89  S   UNL     1       4.863 -16.240   0.281  1.00  0.00     0.124 S 
ATOM     90  O   UNL     1       4.524 -17.650   0.117  1.00  0.00    -0.237 OA
ATOM     91  O   UNL     1       6.260 -15.957   0.601  1.00  0.00    -0.237 OA
ATOM     92  O   UNL     1       3.888 -15.442   1.022  1.00  0.00    -0.744 OA
ENDBRANCH  88  89
ENDBRANCH  60  83
BRANCH  72  93
ATOM     93  C   UNL     1       3.515 -17.492 -10.302  1.00  0.00    -0.014 A 
ATOM     94  C   UNL     1       2.313 -18.183 -10.070  1.00  0.00     0.010 A 
ATOM     95  C   UNL     1       4.546 -18.125 -11.019  1.00  0.00     0.010 A 
ATOM     96  C   UNL     1       2.156 -19.494 -10.525  1.00  0.00     0.020 A 
ATOM     97  C   UNL     1       4.383 -19.427 -11.497  1.00  0.00     0.020 A 
ATOM     98  C   UNL     1       3.193 -20.108 -11.235  1.00  0.00     0.054 A 
BRANCH  98  99
ATOM     99  S   UNL     1       2.947 -21.794 -11.858  1.00  0.00     0.124 S 
ATOM    100  O   UNL     1       3.106 -22.591 -10.645  1.00  0.00    -0.237 OA
ATOM    101  O   UNL     1       1.593 -21.741 -12.404  1.00  0.00    -0.237 OA
ATOM    102  O   UNL     1       4.007 -21.952 -12.851  1.00  0.00    -0.744 OA
ENDBRANCH  98  99
ENDBRANCH  72  93
ENDBRANCH  46  47
ENDBRANCH  38  41
ENDBRANCH  36  37
ENDBRANCH  35  36
ENDBRANCH   1  35
TORSDOF 19
