REMARK SMILES O=C(NCCCCCCNC(=O)[C@@H]1C[C@H]1c1cccc(F)c1F)c1ccc(-c2c3nc(c(-c4ccc(S(=O)(=O)[O-])cc4)c4ccc([nH]4)c(-c4ccc(S(=O)(=O)[O-])cc4)c4nc(c(-c5ccc(S(=O)(=O)[O-])cc5)c5ccc2[nH]5)C=C4)C=C3)cc1
REMARK SMILES IDX 5 1 4 2 3 3 1 4 2 5 24 7 25 8 83 9 26 10 82 11 27 12 28 13
REMARK SMILES IDX 29 14 76 15 30 16 81 17 75 18 77 19 31 20 80 21 74 22 73 23
REMARK SMILES IDX 32 25 62 26 43 27 61 28 44 29 47 30 60 31 78 32 45 33 46 34
REMARK SMILES IDX 59 36 79 37 48 38 33 39 34 40 42 41 35 42 41 43 36 44 37 45
REMARK SMILES IDX 38 46 39 47 40 48 63 49 64 50 72 51 65 52 71 53 66 54 67 55
REMARK SMILES IDX 68 56 69 57 70 58 49 59 50 60 58 61 51 62 57 63 52 64 53 65
REMARK SMILES IDX 54 66 55 67 56 68 6 69 7 70 8 71 9 72 10 73 11 74 12 76
REMARK SMILES IDX 13 77 14 78 15 79 16 80 17 81 22 82 18 83 20 84 23 85 19 86
REMARK SMILES IDX 21 87
REMARK H PARENT 3 6 77 24 47 35 10 75
REMARK Flexibility Score: inf
ROOT
ATOM      1  C   UNL     1       4.680   2.278  -1.476  1.00  0.00     0.021 C 
ENDROOT
BRANCH   1   2
ATOM      2  C   UNL     1       4.466   1.379  -0.266  1.00  0.00     0.116 C 
BRANCH   2   3
ATOM      3  N   UNL     1       3.055   1.181   0.024  1.00  0.00    -0.352 N 
ATOM      4  O   UNL     1       1.114   0.041   0.134  1.00  0.00    -0.269 OA
ATOM      5  C   UNL     1       2.339   0.011   0.080  1.00  0.00     0.251 C 
ATOM      6  H   UNL     1       2.541   2.001   0.204  1.00  0.00     0.163 HD
BRANCH   5   7
ATOM      7  C   UNL     1       3.056  -1.282   0.060  1.00  0.00     0.039 A 
ATOM      8  C   UNL     1       4.196  -1.467   0.846  1.00  0.00     0.014 A 
ATOM      9  C   UNL     1       2.581  -2.318  -0.746  1.00  0.00     0.014 A 
ATOM     10  C   UNL     1       4.937  -2.635   0.722  1.00  0.00     0.010 A 
ATOM     11  C   UNL     1       3.276  -3.529  -0.797  1.00  0.00     0.010 A 
ATOM     12  C   UNL     1       4.473  -3.690  -0.081  1.00  0.00    -0.014 A 
BRANCH  12  13
ATOM     13  C   UNL     1       5.211  -4.978  -0.085  1.00  0.00     0.031 A 
ATOM     14  C   UNL     1       5.856  -5.507  -1.335  1.00  0.00     0.074 A 
ATOM     15  C   UNL     1       5.308  -5.662   1.073  1.00  0.00     0.049 A 
ATOM     16  N   UNL     1       6.544  -6.609  -1.498  1.00  0.00    -0.248 NA
ATOM     17  C   UNL     1       5.709  -4.706  -2.561  1.00  0.00     0.031 C 
ATOM     18  C   UNL     1       4.717  -5.247   2.349  1.00  0.00     0.029 A 
ATOM     19  N   UNL     1       5.946  -6.838   1.372  1.00  0.00    -0.354 N 
ATOM     20  C   UNL     1       6.896  -6.645  -2.843  1.00  0.00     0.074 A 
ATOM     21  C   UNL     1       6.325  -5.466  -3.457  1.00  0.00     0.031 C 
ATOM     22  C   UNL     1       5.060  -6.126   3.301  1.00  0.00     0.029 A 
ATOM     23  C   UNL     1       5.828  -7.205   2.692  1.00  0.00     0.049 A 
ATOM     24  H   UNL     1       6.441  -7.368   0.707  1.00  0.00     0.167 HD
ATOM     25  C   UNL     1       7.630  -7.576  -3.500  1.00  0.00     0.031 A 
ATOM     26  C   UNL     1       6.264  -8.299   3.342  1.00  0.00     0.031 A 
ATOM     27  C   UNL     1       8.185  -8.752  -2.878  1.00  0.00     0.049 A 
ATOM     28  C   UNL     1       7.035  -9.336   2.578  1.00  0.00     0.074 A 
ATOM     29  C   UNL     1       8.968  -9.739  -3.453  1.00  0.00     0.029 A 
ATOM     30  N   UNL     1       8.012  -9.106  -1.548  1.00  0.00    -0.354 N 
ATOM     31  N   UNL     1       7.391  -9.331   1.315  1.00  0.00    -0.248 NA
ATOM     32  C   UNL     1       7.468 -10.523   3.325  1.00  0.00     0.031 C 
ATOM     33  C   UNL     1       9.214 -10.721  -2.488  1.00  0.00     0.029 A 
ATOM     34  C   UNL     1       8.647 -10.311  -1.292  1.00  0.00     0.049 A 
ATOM     35  H   UNL     1       7.511  -8.580  -0.884  1.00  0.00     0.167 HD
ATOM     36  C   UNL     1       8.110 -10.504   1.123  1.00  0.00     0.074 A 
ATOM     37  C   UNL     1       8.155 -11.182   2.403  1.00  0.00     0.031 C 
ATOM     38  C   UNL     1       8.682 -10.976  -0.013  1.00  0.00     0.031 A 
BRANCH  25  39
ATOM     39  C   UNL     1       7.855  -7.381  -4.978  1.00  0.00    -0.014 A 
ATOM     40  C   UNL     1       8.698  -6.365  -5.463  1.00  0.00     0.010 A 
ATOM     41  C   UNL     1       7.263  -8.271  -5.895  1.00  0.00     0.010 A 
ATOM     42  C   UNL     1       8.916  -6.220  -6.837  1.00  0.00     0.020 A 
ATOM     43  C   UNL     1       7.502  -8.147  -7.268  1.00  0.00     0.020 A 
ATOM     44  C   UNL     1       8.316  -7.112  -7.730  1.00  0.00     0.054 A 
BRANCH  44  45
ATOM     45  S   UNL     1       8.640  -6.915  -9.505  1.00  0.00     0.124 S 
ATOM     46  O   UNL     1       7.897  -5.695  -9.812  1.00  0.00    -0.237 OA
ATOM     47  O   UNL     1      10.094  -6.793  -9.551  1.00  0.00    -0.237 OA
ATOM     48  O   UNL     1       8.100  -8.137 -10.095  1.00  0.00    -0.744 OA
ENDBRANCH  44  45
ENDBRANCH  25  39
BRANCH  26  49
ATOM     49  C   UNL     1       5.959  -8.472   4.788  1.00  0.00    -0.014 A 
ATOM     50  C   UNL     1       6.982  -8.422   5.750  1.00  0.00     0.010 A 
ATOM     51  C   UNL     1       4.630  -8.665   5.211  1.00  0.00     0.010 A 
ATOM     52  C   UNL     1       6.685  -8.583   7.106  1.00  0.00     0.020 A 
ATOM     53  C   UNL     1       4.325  -8.792   6.568  1.00  0.00     0.020 A 
ATOM     54  C   UNL     1       5.357  -8.764   7.506  1.00  0.00     0.054 A 
BRANCH  54  55
ATOM     55  S   UNL     1       4.992  -8.926   9.275  1.00  0.00     0.124 S 
ATOM     56  O   UNL     1       5.501 -10.262   9.568  1.00  0.00    -0.237 OA
ATOM     57  O   UNL     1       5.746  -7.818   9.855  1.00  0.00    -0.237 OA
ATOM     58  O   UNL     1       3.539  -8.781   9.339  1.00  0.00    -0.744 OA
ENDBRANCH  54  55
ENDBRANCH  26  49
BRANCH  38  59
ATOM     59  C   UNL     1       9.443 -12.271   0.087  1.00  0.00    -0.014 A 
ATOM     60  C   UNL     1       8.781 -13.498   0.272  1.00  0.00     0.010 A 
ATOM     61  C   UNL     1      10.843 -12.261  -0.052  1.00  0.00     0.010 A 
ATOM     62  C   UNL     1       9.510 -14.688   0.349  1.00  0.00     0.020 A 
ATOM     63  C   UNL     1      11.572 -13.452  -0.008  1.00  0.00     0.020 A 
ATOM     64  C   UNL     1      10.901 -14.657   0.208  1.00  0.00     0.054 A 
BRANCH  64  65
ATOM     65  S   UNL     1      11.819 -16.220   0.268  1.00  0.00     0.124 S 
ATOM     66  O   UNL     1      11.741 -16.563   1.685  1.00  0.00    -0.237 OA
ATOM     67  O   UNL     1      11.049 -17.077  -0.630  1.00  0.00    -0.237 OA
ATOM     68  O   UNL     1      13.150 -15.859  -0.213  1.00  0.00    -0.744 OA
ENDBRANCH  64  65
ENDBRANCH  38  59
ENDBRANCH  12  13
ENDBRANCH   5   7
ENDBRANCH   2   3
ENDBRANCH   1   2
BRANCH   1  69
ATOM     69  C   UNL     1       4.144   3.701  -1.310  1.00  0.00     0.002 C 
BRANCH  69  70
ATOM     70  C   UNL     1       4.705   4.473  -0.111  1.00  0.00     0.002 C 
BRANCH  70  71
ATOM     71  C   UNL     1       6.231   4.515  -0.028  1.00  0.00     0.021 C 
BRANCH  71  72
ATOM     72  C   UNL     1       6.902   5.073  -1.276  1.00  0.00     0.116 C 
BRANCH  72  73
ATOM     73  N   UNL     1       6.753   6.504  -1.391  1.00  0.00    -0.356 N 
ATOM     74  C   UNL     1       7.746   7.441  -1.451  1.00  0.00     0.223 C 
ATOM     75  H   UNL     1       5.830   6.844  -1.431  1.00  0.00     0.163 HD
ATOM     76  O   UNL     1       7.473   8.636  -1.522  1.00  0.00    -0.275 OA
BRANCH  74  77
ATOM     77  C   UNL     1       9.165   6.993  -1.404  1.00  0.00     0.086 C 
ATOM     78  C   UNL     1      10.128   7.592  -2.401  1.00  0.00     0.023 C 
ATOM     79  C   UNL     1       9.769   6.133  -2.506  1.00  0.00     0.035 C 
BRANCH  79  80
ATOM     80  C   UNL     1      10.822   5.075  -2.216  1.00  0.00    -0.005 A 
ATOM     81  C   UNL     1      10.599   4.008  -1.323  1.00  0.00     0.007 A 
ATOM     82  C   UNL     1      12.050   5.066  -2.899  1.00  0.00     0.162 A 
ATOM     83  C   UNL     1      11.527   2.973  -1.150  1.00  0.00     0.004 A 
ATOM     84  C   UNL     1      12.985   4.049  -2.715  1.00  0.00     0.159 A 
ATOM     85  F   UNL     1      12.330   6.056  -3.763  1.00  0.00    -0.203 F 
ATOM     86  C   UNL     1      12.725   2.992  -1.853  1.00  0.00     0.042 A 
ATOM     87  F   UNL     1      14.146   4.077  -3.383  1.00  0.00    -0.204 F 
ENDBRANCH  79  80
ENDBRANCH  74  77
ENDBRANCH  72  73
ENDBRANCH  71  72
ENDBRANCH  70  71
ENDBRANCH  69  70
ENDBRANCH   1  69
TORSDOF 17
