REMARK SMILES C[C@H]1c2ccc(O)cc2OC(=O)[C@@H]1CC(=O)N[C@@H](CC1=c2ccccc2=NC1)C(=O)NCCCCCCNC(=O)c1ccc(-c2c3nc(c(-c4ccc(S(=O)(=O)[O-])cc4)c4ccc([nH]4)c(-c4ccc(S(=O)(=O)[O-])cc4)c4nc(c(-c5ccc(S(=O)(=O)[O-])cc5)c5ccc2[nH]5)C=C4)C=C3)cc1
REMARK SMILES IDX 34 1 33 2 32 3 31 4 29 5 30 6 18 8 17 9 15 10 16 11 14 13
REMARK SMILES IDX 13 14 1 15 2 16 3 17 4 18 9 19 11 20 5 21 8 22 10 23 12 24
REMARK SMILES IDX 6 25 7 26 19 28 20 29 21 30 28 31 22 32 26 33 27 34 23 35
REMARK SMILES IDX 25 36 24 37 35 38 36 39 37 40 38 41 39 42 40 44 41 45 42 46
REMARK SMILES IDX 100 47 43 48 99 49 44 50 45 51 46 52 93 53 47 54 98 55 92 56
REMARK SMILES IDX 94 57 48 58 97 59 91 60 90 61 49 63 79 64 60 65 78 66 61 67
REMARK SMILES IDX 64 68 77 69 95 70 62 71 63 72 76 74 96 75 65 76 50 77 51 78
REMARK SMILES IDX 59 79 52 80 58 81 53 82 54 83 55 84 56 85 57 86 80 87 81 88
REMARK SMILES IDX 89 89 82 90 88 91 83 92 84 93 85 94 86 95 87 96 66 97 67 98
REMARK SMILES IDX 75 99 68 100 74 101 69 102 70 103 71 104 72 105 73 106
REMARK H PARENT 31 7 17 12 7 27 38 43 94 62 64 73
REMARK Flexibility Score: inf
ROOT
ATOM      1  C   UNL     1       1.344 -10.245   3.525  1.00  0.00     0.002 C 
ENDROOT
BRANCH   1   2
ATOM      2  C   UNL     1       1.546  -8.793   3.999  1.00  0.00     0.021 C 
BRANCH   2   3
ATOM      3  C   UNL     1       1.680  -7.720   2.928  1.00  0.00     0.116 C 
BRANCH   3   4
ATOM      4  N   UNL     1       0.524  -7.089   2.355  1.00  0.00    -0.354 N 
ATOM      5  C   UNL     1       0.611  -6.147   1.353  1.00  0.00     0.242 C 
ATOM      6  O   UNL     1      -0.222  -6.237   0.441  1.00  0.00    -0.273 OA
ATOM      7  H   UNL     1      -0.366  -7.339   2.692  1.00  0.00     0.163 HD
BRANCH   5   8
ATOM      8  C   UNL     1       1.704  -5.011   1.290  1.00  0.00     0.175 C 
BRANCH   8   9
ATOM      9  N   UNL     1       2.191  -4.409   2.535  1.00  0.00    -0.344 N 
ATOM     10  C   UNL     1       1.943  -3.166   3.046  1.00  0.00     0.221 C 
ATOM     11  O   UNL     1       2.615  -2.780   4.004  1.00  0.00    -0.275 OA
ATOM     12  H   UNL     1       2.780  -4.980   3.079  1.00  0.00     0.164 HD
BRANCH  10  13
ATOM     13  C   UNL     1       0.821  -2.294   2.495  1.00  0.00     0.116 C 
BRANCH  13  14
ATOM     14  C   UNL     1       1.216  -1.326   1.353  1.00  0.00     0.116 C 
ATOM     15  C   UNL     1       0.756   0.909   0.191  1.00  0.00     0.014 C 
ATOM     16  C   UNL     1       0.261  -0.115   1.224  1.00  0.00     0.034 C 
ATOM     17  C   UNL     1      -1.110  -0.624   0.841  1.00  0.00    -0.001 A 
ATOM     18  C   UNL     1      -2.282   0.038   1.214  1.00  0.00     0.011 A 
ATOM     19  C   UNL     1      -1.216  -1.821   0.124  1.00  0.00     0.138 A 
ATOM     20  C   UNL     1       1.172  -1.986  -0.004  1.00  0.00     0.315 C 
ATOM     21  C   UNL     1      -3.528  -0.531   0.925  1.00  0.00     0.047 A 
ATOM     22  C   UNL     1      -2.444  -2.416  -0.138  1.00  0.00     0.093 A 
ATOM     23  O   UNL     1      -0.073  -2.458  -0.389  1.00  0.00    -0.426 OA
ATOM     24  O   UNL     1       2.158  -2.107  -0.721  1.00  0.00    -0.251 OA
ATOM     25  C   UNL     1      -3.596  -1.763   0.275  1.00  0.00     0.119 A 
BRANCH  25  26
ATOM     26  O   UNL     1      -4.792  -2.363   0.015  1.00  0.00    -0.508 OA
ATOM     27  H   UNL     1      -5.591  -1.950   0.280  1.00  0.00     0.293 HD
ENDBRANCH  25  26
ENDBRANCH  13  14
ENDBRANCH  10  13
ENDBRANCH   8   9
BRANCH   8  28
ATOM     28  C   UNL     1       2.812  -5.024   0.169  1.00  0.00     0.068 C 
BRANCH  28  29
ATOM     29  C   UNL     1       4.073  -5.882   0.249  1.00  0.00    -0.037 C 
ATOM     30  C   UNL     1       5.145  -5.536   0.996  1.00  0.00     0.001 A 
ATOM     31  C   UNL     1       3.805  -7.335   0.411  1.00  0.00     0.174 C 
ATOM     32  C   UNL     1       6.562  -5.792   0.684  1.00  0.00     0.010 A 
ATOM     33  C   UNL     1       4.849  -6.486   2.107  1.00  0.00     0.065 A 
ATOM     34  N   UNL     1       4.150  -7.535   1.829  1.00  0.00    -0.280 NA
ATOM     35  C   UNL     1       7.402  -6.077   1.706  1.00  0.00     0.001 A 
ATOM     36  C   UNL     1       5.607  -6.257   3.342  1.00  0.00     0.028 A 
ATOM     37  C   UNL     1       6.913  -6.073   3.087  1.00  0.00     0.002 A 
ENDBRANCH  28  29
ENDBRANCH   8  28
ENDBRANCH   5   8
ENDBRANCH   3   4
ENDBRANCH   2   3
ENDBRANCH   1   2
BRANCH   1  38
ATOM     38  C   UNL     1       2.115 -10.794   2.310  1.00  0.00     0.002 C 
BRANCH  38  39
ATOM     39  C   UNL     1       3.643 -10.737   2.276  1.00  0.00     0.021 C 
BRANCH  39  40
ATOM     40  C   UNL     1       4.418 -11.181   3.504  1.00  0.00     0.116 C 
BRANCH  40  41
ATOM     41  N   UNL     1       4.180 -12.568   3.851  1.00  0.00    -0.352 N 
ATOM     42  C   UNL     1       5.064 -13.606   4.059  1.00  0.00     0.251 C 
ATOM     43  H   UNL     1       3.231 -12.808   3.955  1.00  0.00     0.163 HD
ATOM     44  O   UNL     1       4.635 -14.732   4.229  1.00  0.00    -0.269 OA
BRANCH  42  45
ATOM     45  C   UNL     1       6.532 -13.366   4.038  1.00  0.00     0.039 A 
ATOM     46  C   UNL     1       7.110 -12.254   4.651  1.00  0.00     0.014 A 
ATOM     47  C   UNL     1       7.351 -14.305   3.398  1.00  0.00     0.014 A 
ATOM     48  C   UNL     1       8.471 -11.997   4.487  1.00  0.00     0.010 A 
ATOM     49  C   UNL     1       8.730 -14.086   3.303  1.00  0.00     0.010 A 
ATOM     50  C   UNL     1       9.297 -12.904   3.803  1.00  0.00    -0.014 A 
BRANCH  50  51
ATOM     51  C   UNL     1      10.742 -12.598   3.614  1.00  0.00     0.031 A 
ATOM     52  C   UNL     1      11.303 -12.367   2.234  1.00  0.00     0.074 A 
ATOM     53  C   UNL     1      11.543 -12.478   4.692  1.00  0.00     0.049 A 
ATOM     54  N   UNL     1      12.528 -12.064   1.887  1.00  0.00    -0.248 NA
ATOM     55  C   UNL     1      10.375 -12.490   1.098  1.00  0.00     0.031 C 
ATOM     56  C   UNL     1      11.114 -12.656   6.080  1.00  0.00     0.029 A 
ATOM     57  N   UNL     1      12.874 -12.151   4.795  1.00  0.00    -0.354 N 
ATOM     58  C   UNL     1      12.521 -11.970   0.499  1.00  0.00     0.074 A 
ATOM     59  C   UNL     1      11.178 -12.283   0.063  1.00  0.00     0.031 C 
ATOM     60  C   UNL     1      12.142 -12.380   6.896  1.00  0.00     0.029 A 
ATOM     61  C   UNL     1      13.323 -12.072   6.093  1.00  0.00     0.049 A 
ATOM     62  H   UNL     1      13.451 -11.989   4.015  1.00  0.00     0.167 HD
ATOM     63  C   UNL     1      13.535 -11.635  -0.333  1.00  0.00     0.031 A 
ATOM     64  C   UNL     1      14.545 -11.793   6.592  1.00  0.00     0.031 A 
ATOM     65  C   UNL     1      14.868 -11.311   0.108  1.00  0.00     0.049 A 
ATOM     66  C   UNL     1      15.669 -11.479   5.646  1.00  0.00     0.074 A 
ATOM     67  C   UNL     1      15.956 -10.942  -0.663  1.00  0.00     0.029 A 
ATOM     68  N   UNL     1      15.294 -11.310   1.428  1.00  0.00    -0.354 N 
ATOM     69  N   UNL     1      15.636 -11.385   4.338  1.00  0.00    -0.248 NA
ATOM     70  C   UNL     1      16.992 -11.234   6.235  1.00  0.00     0.031 C 
ATOM     71  C   UNL     1      17.056 -10.784   0.181  1.00  0.00     0.029 A 
ATOM     72  C   UNL     1      16.637 -10.976   1.488  1.00  0.00     0.049 A 
ATOM     73  H   UNL     1      14.727 -11.516   2.206  1.00  0.00     0.167 HD
ATOM     74  C   UNL     1      16.930 -11.059   3.948  1.00  0.00     0.074 A 
ATOM     75  C   UNL     1      17.718 -10.951   5.159  1.00  0.00     0.031 C 
ATOM     76  C   UNL     1      17.418 -10.873   2.698  1.00  0.00     0.031 A 
BRANCH  63  77
ATOM     77  C   UNL     1      13.265 -11.590  -1.816  1.00  0.00    -0.014 A 
ATOM     78  C   UNL     1      13.898 -12.512  -2.671  1.00  0.00     0.010 A 
ATOM     79  C   UNL     1      12.492 -10.558  -2.379  1.00  0.00     0.010 A 
ATOM     80  C   UNL     1      13.793 -12.385  -4.059  1.00  0.00     0.020 A 
ATOM     81  C   UNL     1      12.361 -10.444  -3.767  1.00  0.00     0.020 A 
ATOM     82  C   UNL     1      13.033 -11.344  -4.598  1.00  0.00     0.054 A 
BRANCH  82  83
ATOM     83  S   UNL     1      12.934 -11.173  -6.402  1.00  0.00     0.124 S 
ATOM     84  O   UNL     1      14.247 -10.627  -6.732  1.00  0.00    -0.237 OA
ATOM     85  O   UNL     1      12.693 -12.546  -6.840  1.00  0.00    -0.237 OA
ATOM     86  O   UNL     1      11.809 -10.261  -6.597  1.00  0.00    -0.744 OA
ENDBRANCH  82  83
ENDBRANCH  63  77
BRANCH  64  87
ATOM     87  C   UNL     1      14.738 -11.780   8.069  1.00  0.00    -0.014 A 
ATOM     88  C   UNL     1      14.611 -12.968   8.814  1.00  0.00     0.010 A 
ATOM     89  C   UNL     1      14.949 -10.569   8.750  1.00  0.00     0.010 A 
ATOM     90  C   UNL     1      14.619 -12.937  10.210  1.00  0.00     0.020 A 
ATOM     91  C   UNL     1      14.992 -10.537  10.148  1.00  0.00     0.020 A 
ATOM     92  C   UNL     1      14.791 -11.717  10.869  1.00  0.00     0.054 A 
BRANCH  92  93
ATOM     93  S   UNL     1      14.726 -11.690  12.681  1.00  0.00     0.124 S 
ATOM     94  O   UNL     1      13.293 -11.821  12.930  1.00  0.00    -0.237 OA
ATOM     95  O   UNL     1      15.537 -12.848  13.048  1.00  0.00    -0.237 OA
ATOM     96  O   UNL     1      15.304 -10.394  13.025  1.00  0.00    -0.744 OA
ENDBRANCH  92  93
ENDBRANCH  64  87
BRANCH  76  97
ATOM     97  C   UNL     1      18.877 -10.532   2.542  1.00  0.00    -0.014 A 
ATOM     98  C   UNL     1      19.250  -9.268   2.048  1.00  0.00     0.010 A 
ATOM     99  C   UNL     1      19.869 -11.509   2.740  1.00  0.00     0.010 A 
ATOM    100  C   UNL     1      20.579  -9.000   1.712  1.00  0.00     0.020 A 
ATOM    101  C   UNL     1      21.205 -11.234   2.434  1.00  0.00     0.020 A 
ATOM    102  C   UNL     1      21.546  -9.991   1.895  1.00  0.00     0.054 A 
BRANCH 102 103
ATOM    103  S   UNL     1      23.258  -9.643   1.406  1.00  0.00     0.124 S 
ATOM    104  O   UNL     1      23.187  -9.740  -0.049  1.00  0.00    -0.237 OA
ATOM    105  O   UNL     1      23.477  -8.299   1.937  1.00  0.00    -0.237 OA
ATOM    106  O   UNL     1      24.025 -10.697   2.066  1.00  0.00    -0.744 OA
ENDBRANCH 102 103
ENDBRANCH  76  97
ENDBRANCH  50  51
ENDBRANCH  42  45
ENDBRANCH  40  41
ENDBRANCH  39  40
ENDBRANCH  38  39
ENDBRANCH   1  38
TORSDOF 22
