REMARK SMILES Cc1ccccc1OCCN1C(=O)CC[C@H](C(=O)NCCCCCCNC(=O)c2ccc(-c3c4nc(c(-c5ccc(S(=O)(=O)[O-])cc5)c5ccc([nH]5)c(-c5ccc(S(=O)(=O)[O-])cc5)c5nc(c(-c6ccc(S(=O)(=O)[O-])cc6)c6ccc3[nH]6)C=C5)C=C4)cc2)[C@@H]1c1ccco1
REMARK SMILES IDX 22 1 21 2 20 3 19 4 17 5 18 6 16 8 11 9 12 10 89 11 13 12
REMARK SMILES IDX 14 13 15 14 10 15 9 16 8 17 7 18 1 19 2 20 3 21 4 22 6 23
REMARK SMILES IDX 5 24 90 25 91 26 94 27 92 28 93 29 23 30 24 31 25 32 26 33
REMARK SMILES IDX 27 34 28 36 29 37 30 38 88 39 31 40 87 41 32 42 33 43 34 44
REMARK SMILES IDX 81 45 35 46 86 47 80 48 82 49 36 50 85 51 79 52 78 53 37 55
REMARK SMILES IDX 67 56 48 57 66 58 49 59 52 60 65 61 83 62 50 63 51 64 64 66
REMARK SMILES IDX 84 67 53 68 38 69 39 70 47 71 40 72 46 73 41 74 42 75 43 76
REMARK SMILES IDX 44 77 45 78 68 79 69 80 77 81 70 82 76 83 71 84 72 85 73 86
REMARK SMILES IDX 74 87 75 88 54 89 55 90 63 91 56 92 62 93 57 94 58 95 59 96
REMARK SMILES IDX 60 97 61 98
REMARK H PARENT 19 7 26 35 82 54 52 65
REMARK Flexibility Score: inf
ROOT
ATOM      1  C   UNL     1       4.517  -5.399   5.228  1.00  0.00     0.002 C 
ENDROOT
BRANCH   1   2
ATOM      2  C   UNL     1       3.338  -4.502   4.831  1.00  0.00     0.021 C 
BRANCH   2   3
ATOM      3  C   UNL     1       3.629  -3.375   3.850  1.00  0.00     0.116 C 
BRANCH   3   4
ATOM      4  N   UNL     1       3.942  -3.783   2.497  1.00  0.00    -0.356 N 
ATOM      5  C   UNL     1       3.770  -3.078   1.341  1.00  0.00     0.225 C 
ATOM      6  O   UNL     1       4.461  -3.397   0.367  1.00  0.00    -0.275 OA
ATOM      7  H   UNL     1       4.329  -4.683   2.398  1.00  0.00     0.163 HD
BRANCH   5   8
ATOM      8  C   UNL     1       2.765  -1.929   1.206  1.00  0.00     0.109 C 
ATOM      9  N   UNL     1       2.242   0.488   1.672  1.00  0.00    -0.328 N 
ATOM     10  C   UNL     1       1.038   0.211   2.303  1.00  0.00     0.223 C 
ATOM     11  C   UNL     1       3.304  -0.527   1.537  1.00  0.00     0.164 C 
ATOM     12  O   UNL     1       0.236   1.085   2.634  1.00  0.00    -0.275 OA
ATOM     13  C   UNL     1       0.765  -1.230   2.657  1.00  0.00     0.101 C 
ATOM     14  C   UNL     1       1.354  -2.249   1.701  1.00  0.00     0.026 C 
BRANCH   9  15
ATOM     15  C   UNL     1       2.563   1.895   1.398  1.00  0.00     0.162 C 
BRANCH  15  16
ATOM     16  C   UNL     1       2.455   2.318  -0.073  1.00  0.00     0.251 C 
BRANCH  16  17
ATOM     17  O   UNL     1       1.130   2.450  -0.596  1.00  0.00    -0.491 OA
BRANCH  17  18
ATOM     18  C   UNL     1       0.400   1.312  -0.800  1.00  0.00     0.122 A 
ATOM     19  C   UNL     1       2.098   0.114  -2.293  1.00  0.00     0.048 C 
ATOM     20  C   UNL     1       0.794   0.202  -1.561  1.00  0.00    -0.009 A 
ATOM     21  C   UNL     1      -0.086  -0.893  -1.658  1.00  0.00     0.007 A 
ATOM     22  C   UNL     1      -1.351  -0.863  -1.070  1.00  0.00     0.001 A 
ATOM     23  C   UNL     1      -0.891   1.352  -0.254  1.00  0.00     0.047 A 
ATOM     24  C   UNL     1      -1.761   0.269  -0.378  1.00  0.00     0.004 A 
ENDBRANCH  17  18
ENDBRANCH  16  17
ENDBRANCH  15  16
ENDBRANCH   9  15
BRANCH  11  25
ATOM     25  C   UNL     1       4.234  -0.433   2.711  1.00  0.00     0.127 A 
ATOM     26  C   UNL     1       5.602  -0.593   2.836  1.00  0.00     0.048 A 
ATOM     27  O   UNL     1       3.706  -0.068   3.918  1.00  0.00    -0.467 OA
ATOM     28  C   UNL     1       5.921  -0.301   4.185  1.00  0.00     0.042 A 
ATOM     29  C   UNL     1       4.735   0.025   4.798  1.00  0.00     0.195 A 
ENDBRANCH  11  25
ENDBRANCH   5   8
ENDBRANCH   3   4
ENDBRANCH   2   3
ENDBRANCH   1   2
BRANCH   1  30
ATOM     30  C   UNL     1       5.856  -4.745   5.614  1.00  0.00     0.002 C 
BRANCH  30  31
ATOM     31  C   UNL     1       5.844  -3.545   6.563  1.00  0.00     0.021 C 
BRANCH  31  32
ATOM     32  C   UNL     1       5.140  -3.751   7.890  1.00  0.00     0.116 C 
BRANCH  32  33
ATOM     33  N   UNL     1       5.984  -4.175   8.996  1.00  0.00    -0.352 N 
ATOM     34  C   UNL     1       5.610  -3.807  10.299  1.00  0.00     0.251 C 
ATOM     35  H   UNL     1       6.797  -4.707   8.836  1.00  0.00     0.163 HD
ATOM     36  O   UNL     1       6.156  -2.985  10.971  1.00  0.00    -0.269 OA
BRANCH  34  37
ATOM     37  C   UNL     1       4.317  -4.421  10.708  1.00  0.00     0.039 A 
ATOM     38  C   UNL     1       4.292  -5.670  11.326  1.00  0.00     0.014 A 
ATOM     39  C   UNL     1       3.162  -3.855  10.169  1.00  0.00     0.014 A 
ATOM     40  C   UNL     1       3.119  -6.426  11.279  1.00  0.00     0.010 A 
ATOM     41  C   UNL     1       2.044  -4.650  10.026  1.00  0.00     0.010 A 
ATOM     42  C   UNL     1       2.025  -5.949  10.553  1.00  0.00    -0.014 A 
BRANCH  42  43
ATOM     43  C   UNL     1       0.849  -6.742  10.199  1.00  0.00     0.031 A 
ATOM     44  C   UNL     1      -0.486  -6.402  10.763  1.00  0.00     0.074 A 
ATOM     45  C   UNL     1       0.928  -7.698   9.244  1.00  0.00     0.049 A 
ATOM     46  N   UNL     1      -1.500  -7.204  10.764  1.00  0.00    -0.248 NA
ATOM     47  C   UNL     1      -0.772  -5.127  11.419  1.00  0.00     0.031 C 
ATOM     48  C   UNL     1      -0.191  -8.267   8.494  1.00  0.00     0.029 A 
ATOM     49  N   UNL     1       2.007  -8.510   8.891  1.00  0.00    -0.354 N 
ATOM     50  C   UNL     1      -2.607  -6.477  11.139  1.00  0.00     0.074 A 
ATOM     51  C   UNL     1      -2.094  -5.208  11.598  1.00  0.00     0.031 C 
ATOM     52  C   UNL     1       0.166  -9.475   8.037  1.00  0.00     0.029 A 
ATOM     53  C   UNL     1       1.471  -9.776   8.596  1.00  0.00     0.049 A 
ATOM     54  H   UNL     1       2.956  -8.247   8.855  1.00  0.00     0.167 HD
ATOM     55  C   UNL     1      -3.858  -6.965  10.908  1.00  0.00     0.031 A 
ATOM     56  C   UNL     1       1.812 -10.940   9.224  1.00  0.00     0.031 A 
ATOM     57  C   UNL     1      -3.831  -8.294  10.315  1.00  0.00     0.049 A 
ATOM     58  C   UNL     1       0.627 -11.681   9.806  1.00  0.00     0.074 A 
ATOM     59  C   UNL     1      -3.946  -8.753   9.013  1.00  0.00     0.029 A 
ATOM     60  N   UNL     1      -3.395  -9.365  11.078  1.00  0.00    -0.354 N 
ATOM     61  N   UNL     1      -0.560 -11.157   9.927  1.00  0.00    -0.248 NA
ATOM     62  C   UNL     1       0.687 -13.036  10.352  1.00  0.00     0.031 C 
ATOM     63  C   UNL     1      -3.515 -10.104   8.987  1.00  0.00     0.029 A 
ATOM     64  C   UNL     1      -3.162 -10.463  10.275  1.00  0.00     0.049 A 
ATOM     65  H   UNL     1      -3.271  -9.346  12.055  1.00  0.00     0.167 HD
ATOM     66  C   UNL     1      -1.394 -12.035  10.566  1.00  0.00     0.074 A 
ATOM     67  C   UNL     1      -0.573 -13.209  10.793  1.00  0.00     0.031 C 
ATOM     68  C   UNL     1      -2.682 -11.702  10.868  1.00  0.00     0.031 A 
BRANCH  55  69
ATOM     69  C   UNL     1      -5.108  -6.125  10.987  1.00  0.00    -0.014 A 
ATOM     70  C   UNL     1      -6.185  -6.402  10.118  1.00  0.00     0.010 A 
ATOM     71  C   UNL     1      -5.274  -5.038  11.865  1.00  0.00     0.010 A 
ATOM     72  C   UNL     1      -7.322  -5.585  10.059  1.00  0.00     0.020 A 
ATOM     73  C   UNL     1      -6.390  -4.189  11.790  1.00  0.00     0.020 A 
ATOM     74  C   UNL     1      -7.405  -4.463  10.878  1.00  0.00     0.054 A 
BRANCH  74  75
ATOM     75  S   UNL     1      -8.842  -3.371  10.724  1.00  0.00     0.124 S 
ATOM     76  O   UNL     1      -8.830  -3.033   9.303  1.00  0.00    -0.237 OA
ATOM     77  O   UNL     1      -9.938  -4.232  11.158  1.00  0.00    -0.237 OA
ATOM     78  O   UNL     1      -8.530  -2.260  11.622  1.00  0.00    -0.744 OA
ENDBRANCH  74  75
ENDBRANCH  55  69
BRANCH  56  79
ATOM     79  C   UNL     1       3.193 -10.951   9.778  1.00  0.00    -0.014 A 
ATOM     80  C   UNL     1       4.250 -10.997   8.845  1.00  0.00     0.010 A 
ATOM     81  C   UNL     1       3.435 -10.434  11.063  1.00  0.00     0.010 A 
ATOM     82  C   UNL     1       5.452 -10.338   9.109  1.00  0.00     0.020 A 
ATOM     83  C   UNL     1       4.646  -9.781  11.332  1.00  0.00     0.020 A 
ATOM     84  C   UNL     1       5.603  -9.660  10.319  1.00  0.00     0.054 A 
BRANCH  84  85
ATOM     85  S   UNL     1       6.960  -8.456  10.462  1.00  0.00     0.124 S 
ATOM     86  O   UNL     1       8.118  -9.228  10.027  1.00  0.00    -0.237 OA
ATOM     87  O   UNL     1       6.525  -7.396   9.549  1.00  0.00    -0.237 OA
ATOM     88  O   UNL     1       6.937  -8.094  11.876  1.00  0.00    -0.744 OA
ENDBRANCH  84  85
ENDBRANCH  56  79
BRANCH  68  89
ATOM     89  C   UNL     1      -3.648 -12.497  11.712  1.00  0.00    -0.014 A 
ATOM     90  C   UNL     1      -3.263 -13.405  12.708  1.00  0.00     0.010 A 
ATOM     91  C   UNL     1      -5.032 -12.211  11.602  1.00  0.00     0.010 A 
ATOM     92  C   UNL     1      -4.216 -14.030  13.528  1.00  0.00     0.020 A 
ATOM     93  C   UNL     1      -5.985 -12.796  12.440  1.00  0.00     0.020 A 
ATOM     94  C   UNL     1      -5.571 -13.722  13.389  1.00  0.00     0.054 A 
BRANCH  94  95
ATOM     95  S   UNL     1      -6.789 -14.464  14.505  1.00  0.00     0.124 S 
ATOM     96  O   UNL     1      -7.182 -15.661  13.767  1.00  0.00    -0.237 OA
ATOM     97  O   UNL     1      -6.018 -14.707  15.723  1.00  0.00    -0.237 OA
ATOM     98  O   UNL     1      -7.815 -13.432  14.623  1.00  0.00    -0.744 OA
ENDBRANCH  94  95
ENDBRANCH  68  89
ENDBRANCH  42  43
ENDBRANCH  34  37
ENDBRANCH  32  33
ENDBRANCH  31  32
ENDBRANCH  30  31
ENDBRANCH   1  30
TORSDOF 21
