REMARK SMILES C=CCSc1ccccc1C(=O)NCCCCCCNC(=O)c1ccc(-c2c3nc(c(-c4ccc(S(=O)(=O)[O-])cc4)c4ccc([nH]4)c(-c4ccc(S(=O)(=O)[O-])cc4)c4nc(c(-c5ccc(S(=O)(=O)[O-])cc5)c5ccc2[nH]5)C=C4)C=C3)cc1
REMARK SMILES IDX 16 1 15 2 14 3 13 4 11 5 12 6 10 8 5 9 6 10 7 11 9 12 8 13
REMARK SMILES IDX 4 14 3 15 2 16 1 17 17 18 18 19 19 20 20 21 21 22 22 24
REMARK SMILES IDX 23 25 24 26 82 27 25 28 81 29 26 30 27 31 28 32 75 33 29 34
REMARK SMILES IDX 80 35 74 36 76 37 30 38 79 39 73 40 72 41 31 43 61 44 42 45
REMARK SMILES IDX 60 46 43 47 46 48 59 49 77 50 44 51 45 52 58 54 78 55 47 56
REMARK SMILES IDX 32 57 33 58 41 59 34 60 40 61 35 62 36 63 37 64 38 65 39 66
REMARK SMILES IDX 62 67 63 68 71 69 64 70 70 71 65 72 66 73 67 74 68 75 69 76
REMARK SMILES IDX 48 77 49 78 57 79 50 80 56 81 51 82 52 83 53 84 54 85 55 86
REMARK H PARENT 13 7 20 23 76 42 46 53
REMARK Flexibility Score: inf
ROOT
ATOM      1  C   UNL     1      -1.713   4.661   3.610  1.00  0.00     0.002 C 
ENDROOT
BRANCH   1   2
ATOM      2  C   UNL     1      -1.849   3.158   3.371  1.00  0.00     0.021 C 
BRANCH   2   3
ATOM      3  C   UNL     1      -0.533   2.396   3.569  1.00  0.00     0.116 C 
BRANCH   3   4
ATOM      4  N   UNL     1      -0.564   1.682   4.818  1.00  0.00    -0.352 N 
ATOM      5  C   UNL     1      -0.780   0.383   5.176  1.00  0.00     0.252 C 
ATOM      6  O   UNL     1      -0.823   0.205   6.402  1.00  0.00    -0.269 OA
ATOM      7  H   UNL     1      -0.389   2.265   5.592  1.00  0.00     0.163 HD
BRANCH   5   8
ATOM      8  C   UNL     1      -0.864  -0.831   4.289  1.00  0.00     0.053 A 
ATOM      9  C   UNL     1      -1.432  -1.021   3.009  1.00  0.00     0.020 A 
ATOM     10  C   UNL     1      -1.489  -2.333   2.475  1.00  0.00     0.016 A 
ATOM     11  C   UNL     1      -1.011  -3.442   3.171  1.00  0.00     0.001 A 
ATOM     12  C   UNL     1      -0.370  -1.984   4.959  1.00  0.00     0.015 A 
ATOM     13  C   UNL     1      -0.451  -3.268   4.421  1.00  0.00     0.001 A 
BRANCH   9  14
ATOM     14  S   UNL     1      -2.326   0.187   2.037  1.00  0.00    -0.121 SA
BRANCH  14  15
ATOM     15  C   UNL     1      -1.492   0.136   0.402  1.00  0.00     0.101 C 
BRANCH  15  16
ATOM     16  C   UNL     1      -0.007   0.346   0.471  1.00  0.00    -0.024 C 
ATOM     17  C   UNL     1       0.907  -0.533   0.037  1.00  0.00     0.005 C 
ENDBRANCH  15  16
ENDBRANCH  14  15
ENDBRANCH   9  14
ENDBRANCH   5   8
ENDBRANCH   3   4
ENDBRANCH   2   3
ENDBRANCH   1   2
BRANCH   1  18
ATOM     18  C   UNL     1      -0.848   5.373   2.564  1.00  0.00     0.002 C 
BRANCH  18  19
ATOM     19  C   UNL     1      -1.319   5.213   1.114  1.00  0.00     0.021 C 
BRANCH  19  20
ATOM     20  C   UNL     1      -2.742   5.701   0.858  1.00  0.00     0.116 C 
BRANCH  20  21
ATOM     21  N   UNL     1      -2.879   7.118   1.167  1.00  0.00    -0.352 N 
ATOM     22  C   UNL     1      -3.180   8.158   0.329  1.00  0.00     0.251 C 
ATOM     23  H   UNL     1      -2.734   7.362   2.110  1.00  0.00     0.163 HD
ATOM     24  O   UNL     1      -2.975   9.320   0.686  1.00  0.00    -0.269 OA
BRANCH  22  25
ATOM     25  C   UNL     1      -3.751   7.880  -1.003  1.00  0.00     0.039 A 
ATOM     26  C   UNL     1      -3.266   8.570  -2.116  1.00  0.00     0.014 A 
ATOM     27  C   UNL     1      -4.776   6.939  -1.144  1.00  0.00     0.014 A 
ATOM     28  C   UNL     1      -3.775   8.276  -3.383  1.00  0.00     0.010 A 
ATOM     29  C   UNL     1      -5.228   6.597  -2.412  1.00  0.00     0.010 A 
ATOM     30  C   UNL     1      -4.738   7.266  -3.544  1.00  0.00    -0.014 A 
BRANCH  30  31
ATOM     31  C   UNL     1      -5.258   6.893  -4.882  1.00  0.00     0.031 A 
ATOM     32  C   UNL     1      -6.715   7.090  -5.201  1.00  0.00     0.074 A 
ATOM     33  C   UNL     1      -4.440   6.304  -5.777  1.00  0.00     0.049 A 
ATOM     34  N   UNL     1      -7.381   6.735  -6.269  1.00  0.00    -0.248 NA
ATOM     35  C   UNL     1      -7.537   7.749  -4.172  1.00  0.00     0.031 C 
ATOM     36  C   UNL     1      -3.015   6.034  -5.572  1.00  0.00     0.029 A 
ATOM     37  N   UNL     1      -4.692   5.816  -7.034  1.00  0.00    -0.354 N 
ATOM     38  C   UNL     1      -8.699   7.109  -6.034  1.00  0.00     0.074 A 
ATOM     39  C   UNL     1      -8.749   7.672  -4.703  1.00  0.00     0.031 C 
ATOM     40  C   UNL     1      -2.516   5.448  -6.672  1.00  0.00     0.029 A 
ATOM     41  C   UNL     1      -3.592   5.256  -7.640  1.00  0.00     0.049 A 
ATOM     42  H   UNL     1      -5.578   5.862  -7.462  1.00  0.00     0.167 HD
ATOM     43  C   UNL     1      -9.768   7.008  -6.859  1.00  0.00     0.031 A 
ATOM     44  C   UNL     1      -3.466   4.644  -8.833  1.00  0.00     0.031 A 
ATOM     45  C   UNL     1      -9.709   6.452  -8.185  1.00  0.00     0.049 A 
ATOM     46  C   UNL     1      -4.673   4.518  -9.722  1.00  0.00     0.074 A 
ATOM     47  C   UNL     1     -10.723   6.350  -9.120  1.00  0.00     0.029 A 
ATOM     48  N   UNL     1      -8.573   5.904  -8.763  1.00  0.00    -0.354 N 
ATOM     49  N   UNL     1      -5.900   4.929  -9.506  1.00  0.00    -0.248 NA
ATOM     50  C   UNL     1      -4.479   3.853 -11.018  1.00  0.00     0.031 C 
ATOM     51  C   UNL     1     -10.216   5.688 -10.242  1.00  0.00     0.029 A 
ATOM     52  C   UNL     1      -8.869   5.438 -10.033  1.00  0.00     0.049 A 
ATOM     53  H   UNL     1      -7.689   5.854  -8.334  1.00  0.00     0.167 HD
ATOM     54  C   UNL     1      -6.616   4.602 -10.652  1.00  0.00     0.074 A 
ATOM     55  C   UNL     1      -5.684   3.967 -11.561  1.00  0.00     0.031 C 
ATOM     56  C   UNL     1      -7.927   4.814 -10.928  1.00  0.00     0.031 A 
BRANCH  43  57
ATOM     57  C   UNL     1     -11.096   7.500  -6.345  1.00  0.00    -0.014 A 
ATOM     58  C   UNL     1     -11.332   8.870  -6.132  1.00  0.00     0.010 A 
ATOM     59  C   UNL     1     -12.137   6.583  -6.107  1.00  0.00     0.010 A 
ATOM     60  C   UNL     1     -12.567   9.310  -5.648  1.00  0.00     0.020 A 
ATOM     61  C   UNL     1     -13.384   7.022  -5.653  1.00  0.00     0.020 A 
ATOM     62  C   UNL     1     -13.585   8.382  -5.410  1.00  0.00     0.054 A 
BRANCH  62  63
ATOM     63  S   UNL     1     -15.184   8.984  -4.801  1.00  0.00     0.124 S 
ATOM     64  O   UNL     1     -14.862   9.353  -3.425  1.00  0.00    -0.237 OA
ATOM     65  O   UNL     1     -15.468  10.100  -5.699  1.00  0.00    -0.237 OA
ATOM     66  O   UNL     1     -16.068   7.830  -4.945  1.00  0.00    -0.744 OA
ENDBRANCH  62  63
ENDBRANCH  43  57
BRANCH  44  67
ATOM     67  C   UNL     1      -2.142   4.111  -9.258  1.00  0.00    -0.014 A 
ATOM     68  C   UNL     1      -1.429   4.722 -10.305  1.00  0.00     0.010 A 
ATOM     69  C   UNL     1      -1.578   2.999  -8.606  1.00  0.00     0.010 A 
ATOM     70  C   UNL     1      -0.186   4.221 -10.704  1.00  0.00     0.020 A 
ATOM     71  C   UNL     1      -0.322   2.514  -8.982  1.00  0.00     0.020 A 
ATOM     72  C   UNL     1       0.361   3.121 -10.037  1.00  0.00     0.054 A 
BRANCH  72  73
ATOM     73  S   UNL     1       1.998   2.520 -10.538  1.00  0.00     0.124 S 
ATOM     74  O   UNL     1       1.709   1.888 -11.821  1.00  0.00    -0.237 OA
ATOM     75  O   UNL     1       2.780   3.752 -10.600  1.00  0.00    -0.237 OA
ATOM     76  O   UNL     1       2.371   1.608  -9.459  1.00  0.00    -0.744 OA
ENDBRANCH  72  73
ENDBRANCH  44  67
BRANCH  56  77
ATOM     77  C   UNL     1      -8.432   4.397 -12.283  1.00  0.00    -0.014 A 
ATOM     78  C   UNL     1      -8.620   3.043 -12.609  1.00  0.00     0.010 A 
ATOM     79  C   UNL     1      -8.807   5.385 -13.213  1.00  0.00     0.010 A 
ATOM     80  C   UNL     1      -9.158   2.684 -13.848  1.00  0.00     0.020 A 
ATOM     81  C   UNL     1      -9.372   5.032 -14.440  1.00  0.00     0.020 A 
ATOM     82  C   UNL     1      -9.537   3.681 -14.753  1.00  0.00     0.054 A 
BRANCH  82  83
ATOM     83  S   UNL     1     -10.301   3.189 -16.322  1.00  0.00     0.124 S 
ATOM     84  O   UNL     1      -9.165   2.636 -17.054  1.00  0.00    -0.237 OA
ATOM     85  O   UNL     1     -11.308   2.220 -15.897  1.00  0.00    -0.237 OA
ATOM     86  O   UNL     1     -10.835   4.441 -16.856  1.00  0.00    -0.744 OA
ENDBRANCH  82  83
ENDBRANCH  56  77
ENDBRANCH  30  31
ENDBRANCH  22  25
ENDBRANCH  20  21
ENDBRANCH  19  20
ENDBRANCH  18  19
ENDBRANCH   1  18
TORSDOF 19
