REMARK SMILES COCC[C@H](C)NC(=O)N1CC[C@H](C(=O)NCCCCCCNC(=O)c2ccc(-c3c4nc(c(-c5ccc(S(=O)(=O)[O-])cc5)c5ccc([nH]5)c(-c5ccc(S(=O)(=O)[O-])cc5)c5nc(c(-c6ccc(S(=O)(=O)[O-])cc6)c6ccc3[nH]6)C=C5)C=C4)cc2)[C@H]1C
REMARK SMILES IDX 18 1 17 2 16 3 14 4 15 5 13 7 10 8 11 9 86 10 12 11 87 12
REMARK SMILES IDX 8 13 7 14 9 16 5 17 6 18 4 19 3 20 2 21 1 22 19 23 20 24
REMARK SMILES IDX 21 25 22 26 23 27 24 28 25 30 26 31 27 32 85 33 28 34 84 35
REMARK SMILES IDX 29 36 30 37 31 38 78 39 32 40 83 41 77 42 79 43 33 44 82 45
REMARK SMILES IDX 76 46 75 47 34 49 64 50 45 51 63 52 46 53 49 54 62 55 80 56
REMARK SMILES IDX 47 57 48 58 61 60 81 61 50 62 35 63 36 64 44 65 37 66 43 67
REMARK SMILES IDX 38 68 39 69 40 70 41 71 42 72 65 73 66 74 74 75 67 76 73 77
REMARK SMILES IDX 68 78 69 79 70 80 71 81 72 82 51 83 52 84 60 85 53 86 59 87
REMARK SMILES IDX 54 88 55 89 56 90 57 91 58 92
REMARK H PARENT 16 6 7 15 23 29 79 48 49 59
REMARK Flexibility Score: inf
ROOT
ATOM      1  C   UNL     1       1.529  -5.978  -2.705  1.00  0.00     0.021 C 
ENDROOT
BRANCH   1   2
ATOM      2  C   UNL     1       1.713  -4.638  -3.437  1.00  0.00     0.116 C 
BRANCH   2   3
ATOM      3  N   UNL     1       0.543  -4.318  -4.229  1.00  0.00    -0.356 N 
ATOM      4  C   UNL     1      -0.503  -3.478  -4.137  1.00  0.00     0.225 C 
ATOM      5  O   UNL     1      -1.333  -3.653  -5.048  1.00  0.00    -0.275 OA
ATOM      6  H   UNL     1       0.502  -4.859  -5.051  1.00  0.00     0.163 HD
BRANCH   4   7
ATOM      7  C   UNL     1      -0.730  -2.286  -3.187  1.00  0.00     0.102 C 
ATOM      8  N   UNL     1      -0.975  -2.680  -0.810  1.00  0.00    -0.321 N 
ATOM      9  C   UNL     1      -2.214  -3.050  -1.494  1.00  0.00     0.122 C 
ATOM     10  C   UNL     1      -0.081  -2.016  -1.798  1.00  0.00     0.096 C 
ATOM     11  C   UNL     1      -2.221  -2.279  -2.801  1.00  0.00     0.037 C 
ATOM     12  C   UNL     1      -0.049  -0.485  -1.598  1.00  0.00     0.032 C 
BRANCH   8  13
ATOM     13  C   UNL     1      -0.825  -3.208   0.444  1.00  0.00     0.317 C 
ATOM     14  N   UNL     1       0.168  -2.925   1.315  1.00  0.00    -0.335 N 
ATOM     15  H   UNL     1       0.464  -3.710   1.830  1.00  0.00     0.165 HD
ATOM     16  O   UNL     1      -1.625  -4.057   0.859  1.00  0.00    -0.249 OA
BRANCH  14  17
ATOM     17  C   UNL     1       0.896  -1.706   1.656  1.00  0.00     0.083 C 
ATOM     18  C   UNL     1       0.078  -0.932   2.705  1.00  0.00     0.031 C 
BRANCH  17  19
ATOM     19  C   UNL     1       2.336  -1.863   2.226  1.00  0.00     0.053 C 
BRANCH  19  20
ATOM     20  C   UNL     1       3.133  -3.153   2.067  1.00  0.00     0.162 C 
BRANCH  20  21
ATOM     21  O   UNL     1       3.602  -3.384   0.750  1.00  0.00    -0.385 OA
ATOM     22  C   UNL     1       2.612  -3.965  -0.059  1.00  0.00     0.194 C 
ENDBRANCH  20  21
ENDBRANCH  19  20
ENDBRANCH  17  19
ENDBRANCH  14  17
ENDBRANCH   8  13
ENDBRANCH   4   7
ENDBRANCH   2   3
ENDBRANCH   1   2
BRANCH   1  23
ATOM     23  C   UNL     1       2.435  -7.133  -3.162  1.00  0.00     0.002 C 
BRANCH  23  24
ATOM     24  C   UNL     1       3.957  -6.959  -3.057  1.00  0.00     0.002 C 
BRANCH  24  25
ATOM     25  C   UNL     1       4.567  -6.641  -1.688  1.00  0.00     0.021 C 
BRANCH  25  26
ATOM     26  C   UNL     1       4.153  -7.531  -0.517  1.00  0.00     0.116 C 
BRANCH  26  27
ATOM     27  N   UNL     1       4.588  -8.903  -0.706  1.00  0.00    -0.352 N 
ATOM     28  C   UNL     1       5.532  -9.643  -0.040  1.00  0.00     0.251 C 
ATOM     29  H   UNL     1       4.129  -9.383  -1.434  1.00  0.00     0.163 HD
ATOM     30  O   UNL     1       5.908 -10.706  -0.535  1.00  0.00    -0.269 OA
BRANCH  28  31
ATOM     31  C   UNL     1       6.109  -9.199   1.252  1.00  0.00     0.039 A 
ATOM     32  C   UNL     1       7.471  -9.425   1.487  1.00  0.00     0.014 A 
ATOM     33  C   UNL     1       5.319  -8.655   2.269  1.00  0.00     0.014 A 
ATOM     34  C   UNL     1       8.045  -9.070   2.714  1.00  0.00     0.010 A 
ATOM     35  C   UNL     1       5.903  -8.253   3.475  1.00  0.00     0.010 A 
ATOM     36  C   UNL     1       7.271  -8.460   3.713  1.00  0.00    -0.014 A 
BRANCH  36  37
ATOM     37  C   UNL     1       7.880  -8.034   5.003  1.00  0.00     0.031 A 
ATOM     38  C   UNL     1       7.486  -8.697   6.297  1.00  0.00     0.074 A 
ATOM     39  C   UNL     1       8.758  -7.011   5.020  1.00  0.00     0.049 A 
ATOM     40  N   UNL     1       7.874  -8.423   7.518  1.00  0.00    -0.248 NA
ATOM     41  C   UNL     1       6.516  -9.801   6.210  1.00  0.00     0.031 C 
ATOM     42  C   UNL     1       9.207  -6.262   3.844  1.00  0.00     0.029 A 
ATOM     43  N   UNL     1       9.426  -6.419   6.064  1.00  0.00    -0.354 N 
ATOM     44  C   UNL     1       7.187  -9.305   8.344  1.00  0.00     0.074 A 
ATOM     45  C   UNL     1       6.329 -10.097   7.489  1.00  0.00     0.031 C 
ATOM     46  C   UNL     1      10.088  -5.324   4.230  1.00  0.00     0.029 A 
ATOM     47  C   UNL     1      10.239  -5.378   5.681  1.00  0.00     0.049 A 
ATOM     48  H   UNL     1       9.332  -6.712   7.000  1.00  0.00     0.167 HD
ATOM     49  C   UNL     1       7.269  -9.452   9.690  1.00  0.00     0.031 A 
ATOM     50  C   UNL     1      11.014  -4.552   6.410  1.00  0.00     0.031 A 
ATOM     51  C   UNL     1       8.129  -8.671  10.541  1.00  0.00     0.049 A 
ATOM     52  C   UNL     1      11.084  -4.728   7.902  1.00  0.00     0.074 A 
ATOM     53  C   UNL     1       8.318  -8.782  11.909  1.00  0.00     0.029 A 
ATOM     54  N   UNL     1       8.942  -7.634  10.111  1.00  0.00    -0.354 N 
ATOM     55  N   UNL     1      10.465  -5.604   8.657  1.00  0.00    -0.248 NA
ATOM     56  C   UNL     1      11.966  -3.812   8.639  1.00  0.00     0.031 C 
ATOM     57  C   UNL     1       9.209  -7.782  12.312  1.00  0.00     0.029 A 
ATOM     58  C   UNL     1       9.617  -7.082  11.188  1.00  0.00     0.049 A 
ATOM     59  H   UNL     1       9.027  -7.333   9.177  1.00  0.00     0.167 HD
ATOM     60  C   UNL     1      10.902  -5.359   9.955  1.00  0.00     0.074 A 
ATOM     61  C   UNL     1      11.847  -4.264   9.880  1.00  0.00     0.031 C 
ATOM     62  C   UNL     1      10.553  -5.989  11.104  1.00  0.00     0.031 A 
BRANCH  49  63
ATOM     63  C   UNL     1       6.392 -10.497  10.331  1.00  0.00    -0.014 A 
ATOM     64  C   UNL     1       6.648 -11.869  10.155  1.00  0.00     0.010 A 
ATOM     65  C   UNL     1       5.322 -10.102  11.155  1.00  0.00     0.010 A 
ATOM     66  C   UNL     1       5.823 -12.825  10.752  1.00  0.00     0.020 A 
ATOM     67  C   UNL     1       4.510 -11.056  11.776  1.00  0.00     0.020 A 
ATOM     68  C   UNL     1       4.755 -12.413  11.554  1.00  0.00     0.054 A 
BRANCH  68  69
ATOM     69  S   UNL     1       3.704 -13.673  12.328  1.00  0.00     0.124 S 
ATOM     70  O   UNL     1       2.920 -14.150  11.188  1.00  0.00    -0.237 OA
ATOM     71  O   UNL     1       4.683 -14.627  12.854  1.00  0.00    -0.237 OA
ATOM     72  O   UNL     1       2.956 -12.935  13.333  1.00  0.00    -0.744 OA
ENDBRANCH  68  69
ENDBRANCH  49  63
BRANCH  50  73
ATOM     73  C   UNL     1      11.800  -3.484   5.732  1.00  0.00    -0.014 A 
ATOM     74  C   UNL     1      13.197  -3.588   5.621  1.00  0.00     0.010 A 
ATOM     75  C   UNL     1      11.150  -2.367   5.178  1.00  0.00     0.010 A 
ATOM     76  C   UNL     1      13.933  -2.587   4.980  1.00  0.00     0.020 A 
ATOM     77  C   UNL     1      11.879  -1.377   4.513  1.00  0.00     0.020 A 
ATOM     78  C   UNL     1      13.268  -1.489   4.427  1.00  0.00     0.054 A 
BRANCH  78  79
ATOM     79  S   UNL     1      14.236  -0.231   3.547  1.00  0.00     0.124 S 
ATOM     80  O   UNL     1      14.864   0.493   4.647  1.00  0.00    -0.237 OA
ATOM     81  O   UNL     1      15.134  -1.039   2.726  1.00  0.00    -0.237 OA
ATOM     82  O   UNL     1      13.225   0.515   2.801  1.00  0.00    -0.744 OA
ENDBRANCH  78  79
ENDBRANCH  50  73
BRANCH  62  83
ATOM     83  C   UNL     1      11.218  -5.531  12.375  1.00  0.00    -0.014 A 
ATOM     84  C   UNL     1      10.874  -4.309  12.977  1.00  0.00     0.010 A 
ATOM     85  C   UNL     1      12.165  -6.362  13.001  1.00  0.00     0.010 A 
ATOM     86  C   UNL     1      11.488  -3.910  14.168  1.00  0.00     0.020 A 
ATOM     87  C   UNL     1      12.763  -5.979  14.204  1.00  0.00     0.020 A 
ATOM     88  C   UNL     1      12.431  -4.748  14.773  1.00  0.00     0.054 A 
BRANCH  88  89
ATOM     89  S   UNL     1      13.183  -4.229  16.340  1.00  0.00     0.124 S 
ATOM     90  O   UNL     1      14.128  -3.207  15.899  1.00  0.00    -0.237 OA
ATOM     91  O   UNL     1      12.037  -3.739  17.102  1.00  0.00    -0.237 OA
ATOM     92  O   UNL     1      13.787  -5.455  16.857  1.00  0.00    -0.744 OA
ENDBRANCH  88  89
ENDBRANCH  62  83
ENDBRANCH  36  37
ENDBRANCH  28  31
ENDBRANCH  26  27
ENDBRANCH  25  26
ENDBRANCH  24  25
ENDBRANCH  23  24
ENDBRANCH   1  23
TORSDOF 21
