REMARK SMILES C=CCc1cccc(-c2ccc([C@@H](C)C(=O)NCCCCCCNC(=O)c3ccc(-c4c5nc(c(-c6ccc(S(=O)(=O)[O-])cc6)c6ccc([nH]6)c(-c6ccc(S(=O)(=O)[O-])cc6)c6nc(c(-c7ccc(S(=O)(=O)[O-])cc7)c7ccc4[nH]7)C=C6)C=C5)cc3)cc2)c1
REMARK SMILES IDX 20 1 19 2 18 3 17 4 15 5 16 6 13 8 14 9 12 10 9 11 10 12
REMARK SMILES IDX 88 13 11 14 87 15 8 16 4 17 5 18 89 19 6 20 7 21 3 22 2 23
REMARK SMILES IDX 1 24 21 25 22 26 23 27 24 28 25 29 26 31 27 32 28 33 86 34
REMARK SMILES IDX 29 35 85 36 30 37 31 38 32 39 79 40 33 41 84 42 78 43 80 44
REMARK SMILES IDX 34 45 83 46 77 47 76 48 35 50 65 51 46 52 64 53 47 54 50 55
REMARK SMILES IDX 63 56 81 57 48 58 49 59 62 61 82 62 51 63 36 64 37 65 45 66
REMARK SMILES IDX 38 67 44 68 39 69 40 70 41 71 42 72 43 73 66 74 67 75 75 76
REMARK SMILES IDX 68 77 74 78 69 79 70 80 71 81 72 82 73 83 52 84 53 85 61 86
REMARK SMILES IDX 54 87 60 88 55 89 56 90 57 91 58 92 59 93
REMARK H PARENT 17 7 24 30 80 49 50 60
REMARK Flexibility Score: inf
ROOT
ATOM      1  C   UNL     1      -6.011  -7.716   2.185  1.00  0.00     0.002 C 
ENDROOT
BRANCH   1   2
ATOM      2  C   UNL     1      -4.706  -7.355   2.901  1.00  0.00     0.021 C 
BRANCH   2   3
ATOM      3  C   UNL     1      -3.843  -8.564   3.266  1.00  0.00     0.116 C 
BRANCH   3   4
ATOM      4  N   UNL     1      -2.936  -8.921   2.195  1.00  0.00    -0.356 N 
ATOM      5  C   UNL     1      -1.604  -8.693   2.033  1.00  0.00     0.227 C 
ATOM      6  O   UNL     1      -1.108  -9.055   0.958  1.00  0.00    -0.274 OA
ATOM      7  H   UNL     1      -3.356  -9.417   1.456  1.00  0.00     0.163 HD
BRANCH   5   8
ATOM      8  C   UNL     1      -0.717  -8.042   3.105  1.00  0.00     0.105 C 
ATOM      9  C   UNL     1      -0.642  -8.829   4.413  1.00  0.00     0.023 C 
BRANCH   8  10
ATOM     10  C   UNL     1      -0.923  -6.541   3.235  1.00  0.00    -0.036 A 
ATOM     11  C   UNL     1      -1.336  -3.708   3.312  1.00  0.00    -0.018 A 
ATOM     12  C   UNL     1      -2.041  -4.580   4.154  1.00  0.00     0.009 A 
ATOM     13  C   UNL     1      -0.392  -4.293   2.451  1.00  0.00     0.009 A 
ATOM     14  C   UNL     1      -1.816  -5.963   4.141  1.00  0.00     0.005 A 
ATOM     15  C   UNL     1      -0.205  -5.680   2.395  1.00  0.00     0.005 A 
BRANCH  11  16
ATOM     16  C   UNL     1      -1.572  -2.242   3.334  1.00  0.00    -0.018 A 
ATOM     17  C   UNL     1      -1.550  -0.056   2.196  1.00  0.00    -0.044 A 
ATOM     18  C   UNL     1      -1.974   0.566   3.372  1.00  0.00     0.004 A 
ATOM     19  C   UNL     1      -1.378  -1.453   2.186  1.00  0.00     0.012 A 
ATOM     20  C   UNL     1      -2.200  -0.192   4.517  1.00  0.00     0.001 A 
ATOM     21  C   UNL     1      -1.987  -1.574   4.500  1.00  0.00     0.009 A 
BRANCH  17  22
ATOM     22  C   UNL     1      -1.215   0.750   0.965  1.00  0.00     0.062 C 
BRANCH  22  23
ATOM     23  C   UNL     1       0.274   0.851   0.767  1.00  0.00    -0.030 C 
ATOM     24  C   UNL     1       0.944   0.309  -0.259  1.00  0.00     0.004 C 
ENDBRANCH  22  23
ENDBRANCH  17  22
ENDBRANCH  11  16
ENDBRANCH   8  10
ENDBRANCH   5   8
ENDBRANCH   3   4
ENDBRANCH   2   3
ENDBRANCH   1   2
BRANCH   1  25
ATOM     25  C   UNL     1      -6.991  -8.566   3.006  1.00  0.00     0.002 C 
BRANCH  25  26
ATOM     26  C   UNL     1      -7.382  -7.993   4.373  1.00  0.00     0.021 C 
BRANCH  26  27
ATOM     27  C   UNL     1      -8.059  -6.625   4.329  1.00  0.00     0.116 C 
BRANCH  27  28
ATOM     28  N   UNL     1      -9.313  -6.666   3.595  1.00  0.00    -0.352 N 
ATOM     29  C   UNL     1     -10.579  -6.319   3.993  1.00  0.00     0.251 C 
ATOM     30  H   UNL     1      -9.243  -6.993   2.669  1.00  0.00     0.163 HD
ATOM     31  O   UNL     1     -11.540  -6.643   3.301  1.00  0.00    -0.269 OA
BRANCH  29  32
ATOM     32  C   UNL     1     -10.795  -5.565   5.249  1.00  0.00     0.039 A 
ATOM     33  C   UNL     1     -11.877  -5.912   6.063  1.00  0.00     0.014 A 
ATOM     34  C   UNL     1      -9.976  -4.487   5.600  1.00  0.00     0.014 A 
ATOM     35  C   UNL     1     -12.114  -5.205   7.244  1.00  0.00     0.010 A 
ATOM     36  C   UNL     1     -10.177  -3.823   6.810  1.00  0.00     0.010 A 
ATOM     37  C   UNL     1     -11.254  -4.167   7.639  1.00  0.00    -0.014 A 
BRANCH  37  38
ATOM     38  C   UNL     1     -11.488  -3.428   8.906  1.00  0.00     0.031 A 
ATOM     39  C   UNL     1     -11.860  -1.969   8.879  1.00  0.00     0.074 A 
ATOM     40  C   UNL     1     -11.339  -4.065  10.085  1.00  0.00     0.049 A 
ATOM     41  N   UNL     1     -12.087  -1.157   9.881  1.00  0.00    -0.248 NA
ATOM     42  C   UNL     1     -11.975  -1.333   7.556  1.00  0.00     0.031 C 
ATOM     43  C   UNL     1     -10.937  -5.464  10.248  1.00  0.00     0.029 A 
ATOM     44  N   UNL     1     -11.508  -3.618  11.371  1.00  0.00    -0.354 N 
ATOM     45  C   UNL     1     -12.369   0.080   9.312  1.00  0.00     0.074 A 
ATOM     46  C   UNL     1     -12.228  -0.073   7.880  1.00  0.00     0.031 C 
ATOM     47  C   UNL     1     -10.913  -5.766  11.556  1.00  0.00     0.029 A 
ATOM     48  C   UNL     1     -11.271  -4.579  12.326  1.00  0.00     0.049 A 
ATOM     49  H   UNL     1     -11.773  -2.695  11.590  1.00  0.00     0.167 HD
ATOM     50  C   UNL     1     -12.738   1.232   9.921  1.00  0.00     0.031 A 
ATOM     51  C   UNL     1     -11.336  -4.513  13.669  1.00  0.00     0.031 A 
ATOM     52  C   UNL     1     -12.883   1.385  11.345  1.00  0.00     0.049 A 
ATOM     53  C   UNL     1     -11.761  -3.224  14.320  1.00  0.00     0.074 A 
ATOM     54  C   UNL     1     -13.265   2.509  12.058  1.00  0.00     0.029 A 
ATOM     55  N   UNL     1     -12.664   0.379  12.273  1.00  0.00    -0.354 N 
ATOM     56  N   UNL     1     -12.059  -2.076  13.759  1.00  0.00    -0.248 NA
ATOM     57  C   UNL     1     -11.882  -3.231  15.784  1.00  0.00     0.031 C 
ATOM     58  C   UNL     1     -13.250   2.189  13.421  1.00  0.00     0.029 A 
ATOM     59  C   UNL     1     -12.905   0.854  13.552  1.00  0.00     0.049 A 
ATOM     60  H   UNL     1     -12.380  -0.538  12.056  1.00  0.00     0.167 HD
ATOM     61  C   UNL     1     -12.431  -1.234  14.800  1.00  0.00     0.074 A 
ATOM     62  C   UNL     1     -12.340  -2.010  16.020  1.00  0.00     0.031 C 
ATOM     63  C   UNL     1     -12.812   0.067  14.754  1.00  0.00     0.031 A 
BRANCH  50  64
ATOM     64  C   UNL     1     -13.030   2.420   9.041  1.00  0.00    -0.014 A 
ATOM     65  C   UNL     1     -14.187   2.451   8.240  1.00  0.00     0.010 A 
ATOM     66  C   UNL     1     -12.172   3.533   9.045  1.00  0.00     0.010 A 
ATOM     67  C   UNL     1     -14.462   3.558   7.434  1.00  0.00     0.020 A 
ATOM     68  C   UNL     1     -12.457   4.655   8.260  1.00  0.00     0.020 A 
ATOM     69  C   UNL     1     -13.594   4.653   7.448  1.00  0.00     0.054 A 
BRANCH  69  70
ATOM     70  S   UNL     1     -13.993   6.092   6.417  1.00  0.00     0.124 S 
ATOM     71  O   UNL     1     -13.677   5.599   5.078  1.00  0.00    -0.237 OA
ATOM     72  O   UNL     1     -15.413   6.298   6.691  1.00  0.00    -0.237 OA
ATOM     73  O   UNL     1     -13.106   7.137   6.921  1.00  0.00    -0.744 OA
ENDBRANCH  69  70
ENDBRANCH  50  64
BRANCH  51  74
ATOM     74  C   UNL     1     -11.008  -5.707  14.495  1.00  0.00    -0.014 A 
ATOM     75  C   UNL     1     -12.014  -6.394  15.197  1.00  0.00     0.010 A 
ATOM     76  C   UNL     1      -9.678  -6.152  14.596  1.00  0.00     0.010 A 
ATOM     77  C   UNL     1     -11.692  -7.479  16.017  1.00  0.00     0.020 A 
ATOM     78  C   UNL     1      -9.355  -7.255  15.392  1.00  0.00     0.020 A 
ATOM     79  C   UNL     1     -10.362  -7.899  16.113  1.00  0.00     0.054 A 
BRANCH  79  80
ATOM     80  S   UNL     1      -9.963  -9.322  17.166  1.00  0.00     0.124 S 
ATOM     81  O   UNL     1     -10.002  -8.731  18.500  1.00  0.00    -0.237 OA
ATOM     82  O   UNL     1     -11.039 -10.260  16.855  1.00  0.00    -0.237 OA
ATOM     83  O   UNL     1      -8.639  -9.729  16.698  1.00  0.00    -0.744 OA
ENDBRANCH  79  80
ENDBRANCH  51  74
BRANCH  63  84
ATOM     84  C   UNL     1     -13.201   0.713  16.056  1.00  0.00    -0.014 A 
ATOM     85  C   UNL     1     -12.239   1.027  17.033  1.00  0.00     0.010 A 
ATOM     86  C   UNL     1     -14.553   1.016  16.301  1.00  0.00     0.010 A 
ATOM     87  C   UNL     1     -12.630   1.583  18.254  1.00  0.00     0.020 A 
ATOM     88  C   UNL     1     -14.943   1.598  17.509  1.00  0.00     0.020 A 
ATOM     89  C   UNL     1     -13.981   1.857  18.488  1.00  0.00     0.054 A 
BRANCH  89  90
ATOM     90  S   UNL     1     -14.467   2.581  20.078  1.00  0.00     0.124 S 
ATOM     91  O   UNL     1     -14.411   1.423  20.967  1.00  0.00    -0.237 OA
ATOM     92  O   UNL     1     -13.437   3.594  20.300  1.00  0.00    -0.237 OA
ATOM     93  O   UNL     1     -15.805   3.108  19.823  1.00  0.00    -0.744 OA
ENDBRANCH  89  90
ENDBRANCH  63  84
ENDBRANCH  37  38
ENDBRANCH  29  32
ENDBRANCH  27  28
ENDBRANCH  26  27
ENDBRANCH  25  26
ENDBRANCH   1  25
TORSDOF 20
