REMARK SMILES Cc1c[nH]c(C[N@H+]2C[C@@H]3CN(S(C)(=O)=O)C[C@]3(C(=O)NCCCCCCNC(=O)c3ccc(-c4c5nc(c(-c6ccc(S(=O)(=O)[O-])cc6)c6ccc([nH]6)c(-c6ccc(S(=O)(=O)[O-])cc6)c6nc(c(-c7ccc(S(=O)(=O)[O-])cc7)c7ccc4[nH]7)C=C6)C=C5)cc3)C2)n1
REMARK SMILES IDX 24 1 23 2 22 3 21 4 20 5 18 6 19 7 17 9 7 10 8 11 90 12 9 14
REMARK SMILES IDX 10 15 16 16 11 17 6 18 5 19 1 20 2 21 3 22 91 23 4 24 12 26
REMARK SMILES IDX 13 27 14 28 15 29 25 30 26 31 27 32 28 33 29 35 30 36 31 37
REMARK SMILES IDX 89 38 32 39 88 40 33 41 34 42 35 43 82 44 36 45 87 46 81 47
REMARK SMILES IDX 83 48 37 49 86 50 80 51 79 52 38 54 68 55 49 56 67 57 50 58
REMARK SMILES IDX 53 59 66 60 84 61 51 62 52 63 65 65 85 66 54 67 39 68 40 69
REMARK SMILES IDX 48 70 41 71 47 72 42 73 43 74 44 75 45 76 46 77 69 78 70 79
REMARK SMILES IDX 78 80 71 81 77 82 72 83 73 84 74 85 75 86 76 87 55 88 56 89
REMARK SMILES IDX 64 90 57 91 63 92 58 93 59 94 60 95 61 96 62 97
REMARK H PARENT 20 8 7 13 4 25 27 34 83 53 53 64
REMARK Flexibility Score: inf
ROOT
ATOM      1  C   UNL     1      -1.472   9.439   4.800  1.00  0.00     0.002 C 
ENDROOT
BRANCH   1   2
ATOM      2  C   UNL     1      -0.132   8.743   4.543  1.00  0.00     0.002 C 
BRANCH   2   3
ATOM      3  C   UNL     1      -0.174   7.229   4.728  1.00  0.00     0.021 C 
BRANCH   3   4
ATOM      4  C   UNL     1      -1.151   6.529   3.776  1.00  0.00     0.116 C 
BRANCH   4   5
ATOM      5  N   UNL     1      -0.436   6.062   2.604  1.00  0.00    -0.355 N 
ATOM      6  C   UNL     1      -0.001   4.774   2.373  1.00  0.00     0.233 C 
ATOM      7  O   UNL     1       1.027   4.624   1.713  1.00  0.00    -0.274 OA
ATOM      8  H   UNL     1      -0.242   6.729   1.906  1.00  0.00     0.163 HD
BRANCH   6   9
ATOM      9  C   UNL     1      -0.899   3.606   2.947  1.00  0.00     0.121 C 
ATOM     10  N   UNL     1      -2.361   2.358   1.296  1.00  0.00    -0.327 N 
ATOM     11  C   UNL     1      -2.206   1.525   2.462  1.00  0.00     0.268 C 
ATOM     12  C   UNL     1      -1.300   3.384   1.409  1.00  0.00     0.281 C 
ATOM     13  H   UNL     1      -3.292   2.776   1.274  1.00  0.00     0.348 HD
ATOM     14  C   UNL     1      -0.894   2.002   3.055  1.00  0.00     0.082 C 
ATOM     15  C   UNL     1      -0.828   1.532   4.507  1.00  0.00     0.113 C 
ATOM     16  C   UNL     1       0.141   3.599   4.132  1.00  0.00     0.125 C 
ATOM     17  N   UNL     1      -0.435   2.742   5.195  1.00  0.00    -0.200 NA
BRANCH  10  18
ATOM     18  C   UNL     1      -2.314   1.619   0.015  1.00  0.00     0.338 C 
BRANCH  18  19
ATOM     19  C   UNL     1      -1.160   0.664  -0.135  1.00  0.00     0.161 A 
ATOM     20  C   UNL     1       2.284  -0.216  -0.111  1.00  0.00     0.068 C 
ATOM     21  C   UNL     1       0.806  -0.218  -0.152  1.00  0.00     0.056 A 
ATOM     22  C   UNL     1      -0.078  -1.272  -0.097  1.00  0.00     0.107 A 
ATOM     23  N   UNL     1       0.120   0.968  -0.215  1.00  0.00    -0.233 NA
ATOM     24  N   UNL     1      -1.321  -0.702  -0.118  1.00  0.00    -0.344 N 
ATOM     25  H   UNL     1      -2.180  -1.184  -0.121  1.00  0.00     0.167 HD
ENDBRANCH  18  19
ENDBRANCH  10  18
BRANCH  17  26
ATOM     26  S   UNL     1      -1.463   3.369   6.375  1.00  0.00     0.211 S 
ATOM     27  C   UNL     1      -3.035   3.590   5.544  1.00  0.00     0.176 C 
ATOM     28  O   UNL     1      -1.657   2.336   7.366  1.00  0.00    -0.213 OA
ATOM     29  O   UNL     1      -0.969   4.681   6.743  1.00  0.00    -0.213 OA
ENDBRANCH  17  26
ENDBRANCH   6   9
ENDBRANCH   4   5
ENDBRANCH   3   4
ENDBRANCH   2   3
ENDBRANCH   1   2
BRANCH   1  30
ATOM     30  C   UNL     1      -2.136   9.084   6.135  1.00  0.00     0.021 C 
BRANCH  30  31
ATOM     31  C   UNL     1      -1.264   9.354   7.358  1.00  0.00     0.116 C 
BRANCH  31  32
ATOM     32  N   UNL     1      -0.838  10.744   7.397  1.00  0.00    -0.352 N 
ATOM     33  C   UNL     1      -1.144  11.720   8.306  1.00  0.00     0.251 C 
ATOM     34  H   UNL     1      -0.243  11.023   6.664  1.00  0.00     0.163 HD
ATOM     35  O   UNL     1      -0.971  12.900   8.015  1.00  0.00    -0.269 OA
BRANCH  33  36
ATOM     36  C   UNL     1      -1.672  11.349   9.634  1.00  0.00     0.039 A 
ATOM     37  C   UNL     1      -2.666  12.140  10.213  1.00  0.00     0.014 A 
ATOM     38  C   UNL     1      -1.150  10.253  10.330  1.00  0.00     0.014 A 
ATOM     39  C   UNL     1      -3.152  11.817  11.479  1.00  0.00     0.010 A 
ATOM     40  C   UNL     1      -1.696   9.883  11.554  1.00  0.00     0.010 A 
ATOM     41  C   UNL     1      -2.684  10.676  12.153  1.00  0.00    -0.014 A 
BRANCH  41  42
ATOM     42  C   UNL     1      -3.201  10.322  13.497  1.00  0.00     0.031 A 
ATOM     43  C   UNL     1      -2.280  10.324  14.688  1.00  0.00     0.074 A 
ATOM     44  C   UNL     1      -4.494   9.970  13.638  1.00  0.00     0.049 A 
ATOM     45  N   UNL     1      -2.550  10.048  15.938  1.00  0.00    -0.248 NA
ATOM     46  C   UNL     1      -0.867  10.659  14.441  1.00  0.00     0.031 C 
ATOM     47  C   UNL     1      -5.473   9.890  12.550  1.00  0.00     0.029 A 
ATOM     48  N   UNL     1      -5.210   9.619  14.754  1.00  0.00    -0.354 N 
ATOM     49  C   UNL     1      -1.343  10.164  16.621  1.00  0.00     0.074 A 
ATOM     50  C   UNL     1      -0.330  10.477  15.639  1.00  0.00     0.031 C 
ATOM     51  C   UNL     1      -6.668   9.552  13.059  1.00  0.00     0.029 A 
ATOM     52  C   UNL     1      -6.533   9.348  14.497  1.00  0.00     0.049 A 
ATOM     53  H   UNL     1      -4.814   9.565  15.654  1.00  0.00     0.167 HD
ATOM     54  C   UNL     1      -1.105  10.042  17.948  1.00  0.00     0.031 A 
ATOM     55  C   UNL     1      -7.527   8.975  15.327  1.00  0.00     0.031 A 
ATOM     56  C   UNL     1      -2.120   9.731  18.920  1.00  0.00     0.049 A 
ATOM     57  C   UNL     1      -7.234   8.832  16.795  1.00  0.00     0.074 A 
ATOM     58  C   UNL     1      -1.994   9.636  20.294  1.00  0.00     0.029 A 
ATOM     59  N   UNL     1      -3.447   9.460  18.619  1.00  0.00    -0.354 N 
ATOM     60  N   UNL     1      -6.102   9.017  17.432  1.00  0.00    -0.248 NA
ATOM     61  C   UNL     1      -8.357   8.445  17.659  1.00  0.00     0.031 C 
ATOM     62  C   UNL     1      -3.230   9.243  20.819  1.00  0.00     0.029 A 
ATOM     63  C   UNL     1      -4.144   9.168  19.780  1.00  0.00     0.049 A 
ATOM     64  H   UNL     1      -3.835   9.472  17.715  1.00  0.00     0.167 HD
ATOM     65  C   UNL     1      -6.384   8.799  18.776  1.00  0.00     0.074 A 
ATOM     66  C   UNL     1      -7.797   8.488  18.860  1.00  0.00     0.031 C 
ATOM     67  C   UNL     1      -5.551   8.855  19.846  1.00  0.00     0.031 A 
BRANCH  54  68
ATOM     68  C   UNL     1       0.313  10.236  18.425  1.00  0.00    -0.014 A 
ATOM     69  C   UNL     1       0.937  11.496  18.367  1.00  0.00     0.010 A 
ATOM     70  C   UNL     1       1.019   9.152  18.978  1.00  0.00     0.010 A 
ATOM     71  C   UNL     1       2.252  11.658  18.811  1.00  0.00     0.020 A 
ATOM     72  C   UNL     1       2.323   9.317  19.454  1.00  0.00     0.020 A 
ATOM     73  C   UNL     1       2.938  10.566  19.352  1.00  0.00     0.054 A 
BRANCH  73  74
ATOM     74  S   UNL     1       4.633  10.814  19.947  1.00  0.00     0.124 S 
ATOM     75  O   UNL     1       5.367  10.998  18.697  1.00  0.00    -0.237 OA
ATOM     76  O   UNL     1       4.508  12.006  20.782  1.00  0.00    -0.237 OA
ATOM     77  O   UNL     1       4.933   9.580  20.668  1.00  0.00    -0.744 OA
ENDBRANCH  73  74
ENDBRANCH  54  68
BRANCH  55  78
ATOM     78  C   UNL     1      -8.893   8.729  14.787  1.00  0.00    -0.014 A 
ATOM     79  C   UNL     1      -9.957   9.593  15.102  1.00  0.00     0.010 A 
ATOM     80  C   UNL     1      -9.134   7.632  13.939  1.00  0.00     0.010 A 
ATOM     81  C   UNL     1     -11.239   9.352  14.600  1.00  0.00     0.020 A 
ATOM     82  C   UNL     1     -10.407   7.406  13.409  1.00  0.00     0.020 A 
ATOM     83  C   UNL     1     -11.455   8.261  13.753  1.00  0.00     0.054 A 
BRANCH  83  84
ATOM     84  S   UNL     1     -13.117   7.995  13.075  1.00  0.00     0.124 S 
ATOM     85  O   UNL     1     -13.857   7.549  14.251  1.00  0.00    -0.237 OA
ATOM     86  O   UNL     1     -13.466   9.321  12.571  1.00  0.00    -0.237 OA
ATOM     87  O   UNL     1     -12.908   6.981  12.044  1.00  0.00    -0.744 OA
ENDBRANCH  83  84
ENDBRANCH  55  78
BRANCH  67  88
ATOM     88  C   UNL     1      -6.153   8.613  21.206  1.00  0.00    -0.014 A 
ATOM     89  C   UNL     1      -6.610   7.340  21.592  1.00  0.00     0.010 A 
ATOM     90  C   UNL     1      -6.222   9.674  22.128  1.00  0.00     0.010 A 
ATOM     91  C   UNL     1      -7.166   7.144  22.859  1.00  0.00     0.020 A 
ATOM     92  C   UNL     1      -6.744   9.473  23.408  1.00  0.00     0.020 A 
ATOM     93  C   UNL     1      -7.230   8.213  23.759  1.00  0.00     0.054 A 
BRANCH  93  94
ATOM     94  S   UNL     1      -7.929   7.925  25.407  1.00  0.00     0.124 S 
ATOM     95  O   UNL     1      -9.351   7.772  25.112  1.00  0.00    -0.237 OA
ATOM     96  O   UNL     1      -7.242   6.709  25.837  1.00  0.00    -0.237 OA
ATOM     97  O   UNL     1      -7.573   9.131  26.151  1.00  0.00    -0.744 OA
ENDBRANCH  93  94
ENDBRANCH  67  88
ENDBRANCH  41  42
ENDBRANCH  33  36
ENDBRANCH  31  32
ENDBRANCH  30  31
ENDBRANCH   1  30
TORSDOF 19
