REMARK SMILES [NH3+][C@@H](CCC1=c2ccccc2=NC1)C(=O)NCCCCCCNC(=O)c1ccc(-c2c3nc(c(-c4ccc(S(=O)(=O)[O-])cc4)c4ccc([nH]4)c(-c4ccc(S(=O)(=O)[O-])cc4)c4nc(c(-c5ccc(S(=O)(=O)[O-])cc5)c5ccc2[nH]5)C=C4)C=C3)cc1
REMARK SMILES IDX 19 1 18 2 17 3 16 4 14 5 15 6 2 8 1 9 3 13 4 14 5 15 6 16
REMARK SMILES IDX 13 17 7 18 11 19 12 20 8 21 10 22 9 23 20 24 21 25 22 26
REMARK SMILES IDX 23 27 24 28 25 30 26 31 27 32 85 33 28 34 84 35 29 36 30 37
REMARK SMILES IDX 31 38 78 39 32 40 83 41 77 42 79 43 33 44 82 45 76 46 75 47
REMARK SMILES IDX 34 49 64 50 45 51 63 52 46 53 49 54 62 55 80 56 47 57 48 58
REMARK SMILES IDX 61 60 81 61 50 62 35 63 36 64 44 65 37 66 43 67 38 68 39 69
REMARK SMILES IDX 40 70 41 71 42 72 65 73 66 74 74 75 67 76 73 77 68 78 69 79
REMARK SMILES IDX 70 80 71 81 72 82 51 83 52 84 60 85 53 86 59 87 54 88 55 89
REMARK SMILES IDX 56 90 57 91 58 92
REMARK H PARENT 16 7 1 10 1 11 1 12 23 29 79 48 49 59
REMARK Flexibility Score: inf
ROOT
ATOM      1  C   UNL     1      -2.674  -1.000   2.131  1.00  0.00     0.002 C 
ENDROOT
BRANCH   1   2
ATOM      2  C   UNL     1      -1.396   0.181   2.115  1.00  0.00     0.021 C 
BRANCH   2   3
ATOM      3  C   UNL     1      -0.319   0.049   1.043  1.00  0.00     0.116 C 
BRANCH   3   4
ATOM      4  N   UNL     1      -0.881  -0.045  -0.286  1.00  0.00    -0.351 N 
ATOM      5  C   UNL     1      -0.382  -0.633  -1.406  1.00  0.00     0.278 C 
ATOM      6  O   UNL     1      -1.092  -0.639  -2.415  1.00  0.00    -0.268 OA
ATOM      7  H   UNL     1      -1.760   0.383  -0.397  1.00  0.00     0.163 HD
BRANCH   5   8
ATOM      8  C   UNL     1       1.012  -1.282  -1.422  1.00  0.00     0.271 C 
BRANCH   8   9
ATOM      9  N   UNL     1       2.039  -0.469  -0.740  1.00  0.00    -0.347 N 
ATOM     10  H   UNL     1       2.938  -0.950  -0.784  1.00  0.00     0.345 HD
ATOM     11  H   UNL     1       1.774  -0.334   0.235  1.00  0.00     0.345 HD
ATOM     12  H   UNL     1       2.116   0.438  -1.200  1.00  0.00     0.345 HD
ENDBRANCH   8   9
BRANCH   8  13
ATOM     13  C   UNL     1       1.031  -2.781  -1.070  1.00  0.00     0.080 C 
BRANCH  13  14
ATOM     14  C   UNL     1       0.472  -3.313   0.268  1.00  0.00     0.040 C 
BRANCH  14  15
ATOM     15  C   UNL     1      -0.997  -3.159   0.542  1.00  0.00    -0.039 C 
ATOM     16  C   UNL     1      -1.548  -2.655   1.643  1.00  0.00     0.001 A 
ATOM     17  C   UNL     1      -2.071  -3.601  -0.474  1.00  0.00     0.174 C 
ATOM     18  C   UNL     1      -1.181  -1.949   3.303  1.00  0.00     0.010 A 
ATOM     19  C   UNL     1      -3.382  -2.676   1.088  1.00  0.00     0.065 A 
ATOM     20  N   UNL     1      -3.502  -3.235  -0.070  1.00  0.00    -0.280 NA
ATOM     21  C   UNL     1      -2.322  -1.238   4.174  1.00  0.00     0.001 A 
ATOM     22  C   UNL     1      -4.633  -1.782   2.275  1.00  0.00     0.028 A 
ATOM     23  C   UNL     1      -4.139  -1.230   3.678  1.00  0.00     0.002 A 
ENDBRANCH  14  15
ENDBRANCH  13  14
ENDBRANCH   8  13
ENDBRANCH   5   8
ENDBRANCH   3   4
ENDBRANCH   2   3
ENDBRANCH   1   2
BRANCH   1  24
ATOM     24  C   UNL     1      -3.033  -2.931   3.105  1.00  0.00     0.002 C 
BRANCH  24  25
ATOM     25  C   UNL     1      -2.675  -3.702   4.590  1.00  0.00     0.021 C 
BRANCH  25  26
ATOM     26  C   UNL     1      -3.069  -3.232   5.990  1.00  0.00     0.116 C 
BRANCH  26  27
ATOM     27  N   UNL     1      -4.467  -2.952   6.271  1.00  0.00    -0.352 N 
ATOM     28  C   UNL     1      -4.997  -2.777   7.540  1.00  0.00     0.251 C 
ATOM     29  H   UNL     1      -5.082  -2.882   5.505  1.00  0.00     0.163 HD
ATOM     30  O   UNL     1      -6.179  -2.522   7.727  1.00  0.00    -0.269 OA
BRANCH  28  31
ATOM     31  C   UNL     1      -4.070  -2.989   8.677  1.00  0.00     0.039 A 
ATOM     32  C   UNL     1      -2.932  -2.188   8.785  1.00  0.00     0.014 A 
ATOM     33  C   UNL     1      -4.200  -4.152   9.438  1.00  0.00     0.014 A 
ATOM     34  C   UNL     1      -1.835  -2.668   9.491  1.00  0.00     0.010 A 
ATOM     35  C   UNL     1      -3.135  -4.566  10.242  1.00  0.00     0.010 A 
ATOM     36  C   UNL     1      -1.919  -3.862  10.230  1.00  0.00    -0.014 A 
BRANCH  36  37
ATOM     37  C   UNL     1      -0.744  -4.348  11.007  1.00  0.00     0.031 A 
ATOM     38  C   UNL     1      -0.133  -5.704  10.750  1.00  0.00     0.074 A 
ATOM     39  C   UNL     1      -0.222  -3.546  11.957  1.00  0.00     0.049 A 
ATOM     40  N   UNL     1       0.852  -6.293  11.381  1.00  0.00    -0.248 NA
ATOM     41  C   UNL     1      -0.699  -6.510   9.654  1.00  0.00     0.031 C 
ATOM     42  C   UNL     1      -0.713  -2.204  12.283  1.00  0.00     0.029 A 
ATOM     43  N   UNL     1       0.837  -3.725  12.812  1.00  0.00    -0.354 N 
ATOM     44  C   UNL     1       1.006  -7.540  10.784  1.00  0.00     0.074 A 
ATOM     45  C   UNL     1      -0.007  -7.639   9.756  1.00  0.00     0.031 C 
ATOM     46  C   UNL     1       0.074  -1.662  13.219  1.00  0.00     0.029 A 
ATOM     47  C   UNL     1       1.062  -2.648  13.639  1.00  0.00     0.049 A 
ATOM     48  H   UNL     1       1.382  -4.544  12.833  1.00  0.00     0.167 HD
ATOM     49  C   UNL     1       1.916  -8.505  11.062  1.00  0.00     0.031 A 
ATOM     50  C   UNL     1       1.942  -2.470  14.645  1.00  0.00     0.031 A 
ATOM     51  C   UNL     1       2.935  -8.379  12.078  1.00  0.00     0.049 A 
ATOM     52  C   UNL     1       2.904  -3.575  14.967  1.00  0.00     0.074 A 
ATOM     53  C   UNL     1       3.928  -9.286  12.409  1.00  0.00     0.029 A 
ATOM     54  N   UNL     1       3.098  -7.288  12.921  1.00  0.00    -0.354 N 
ATOM     55  N   UNL     1       3.052  -4.733  14.369  1.00  0.00    -0.248 NA
ATOM     56  C   UNL     1       3.822  -3.352  16.090  1.00  0.00     0.031 C 
ATOM     57  C   UNL     1       4.628  -8.787  13.507  1.00  0.00     0.029 A 
ATOM     58  C   UNL     1       4.147  -7.521  13.798  1.00  0.00     0.049 A 
ATOM     59  H   UNL     1       2.551  -6.471  12.900  1.00  0.00     0.167 HD
ATOM     60  C   UNL     1       4.094  -5.370  15.032  1.00  0.00     0.074 A 
ATOM     61  C   UNL     1       4.558  -4.455  16.055  1.00  0.00     0.031 C 
ATOM     62  C   UNL     1       4.610  -6.605  14.814  1.00  0.00     0.031 A 
BRANCH  49  63
ATOM     63  C   UNL     1       1.887  -9.794  10.269  1.00  0.00    -0.014 A 
ATOM     64  C   UNL     1       1.659 -11.017  10.932  1.00  0.00     0.010 A 
ATOM     65  C   UNL     1       2.243  -9.820   8.909  1.00  0.00     0.010 A 
ATOM     66  C   UNL     1       1.839 -12.236  10.270  1.00  0.00     0.020 A 
ATOM     67  C   UNL     1       2.387 -11.037   8.231  1.00  0.00     0.020 A 
ATOM     68  C   UNL     1       2.215 -12.237   8.925  1.00  0.00     0.054 A 
BRANCH  68  69
ATOM     69  S   UNL     1       2.510 -13.827   8.101  1.00  0.00     0.124 S 
ATOM     70  O   UNL     1       3.742 -14.282   8.738  1.00  0.00    -0.237 OA
ATOM     71  O   UNL     1       1.307 -14.585   8.436  1.00  0.00    -0.237 OA
ATOM     72  O   UNL     1       2.634 -13.464   6.690  1.00  0.00    -0.744 OA
ENDBRANCH  68  69
ENDBRANCH  49  63
BRANCH  50  73
ATOM     73  C   UNL     1       1.947  -1.173  15.380  1.00  0.00    -0.014 A 
ATOM     74  C   UNL     1       0.815  -0.757  16.109  1.00  0.00     0.010 A 
ATOM     75  C   UNL     1       3.038  -0.296  15.261  1.00  0.00     0.010 A 
ATOM     76  C   UNL     1       0.739   0.537  16.629  1.00  0.00     0.020 A 
ATOM     77  C   UNL     1       2.985   0.985  15.819  1.00  0.00     0.020 A 
ATOM     78  C   UNL     1       1.820   1.405  16.465  1.00  0.00     0.054 A 
BRANCH  78  79
ATOM     79  S   UNL     1       1.664   3.107  17.072  1.00  0.00     0.124 S 
ATOM     80  O   UNL     1       0.706   3.674  16.126  1.00  0.00    -0.237 OA
ATOM     81  O   UNL     1       1.167   2.913  18.431  1.00  0.00    -0.237 OA
ATOM     82  O   UNL     1       3.023   3.632  16.975  1.00  0.00    -0.744 OA
ENDBRANCH  78  79
ENDBRANCH  50  73
BRANCH  62  83
ATOM     83  C   UNL     1       5.747  -7.066  15.693  1.00  0.00    -0.014 A 
ATOM     84  C   UNL     1       7.001  -7.356  15.120  1.00  0.00     0.010 A 
ATOM     85  C   UNL     1       5.542  -7.342  17.056  1.00  0.00     0.010 A 
ATOM     86  C   UNL     1       8.007  -7.960  15.877  1.00  0.00     0.020 A 
ATOM     87  C   UNL     1       6.561  -7.907  17.829  1.00  0.00     0.020 A 
ATOM     88  C   UNL     1       7.776  -8.241  17.226  1.00  0.00     0.054 A 
BRANCH  88  89
ATOM     89  S   UNL     1       9.075  -9.075  18.177  1.00  0.00     0.124 S 
ATOM     90  O   UNL     1       9.044 -10.425  17.620  1.00  0.00    -0.237 OA
ATOM     91  O   UNL     1      10.262  -8.287  17.853  1.00  0.00    -0.237 OA
ATOM     92  O   UNL     1       8.617  -8.960  19.560  1.00  0.00    -0.744 OA
ENDBRANCH  88  89
ENDBRANCH  62  83
ENDBRANCH  36  37
ENDBRANCH  28  31
ENDBRANCH  26  27
ENDBRANCH  25  26
ENDBRANCH  24  25
ENDBRANCH   1  24
TORSDOF 20
