REMARK SMILES CCC[NH+](CCC)[C@@H]1[C@@H]2CC[C@@H](C2)[C@@H]1C(=O)NCCCCCCNC(=O)c1ccc(-c2c3nc(c(-c4ccc(S(=O)(=O)[O-])cc4)c4ccc([nH]4)c(-c4ccc(S(=O)(=O)[O-])cc4)c4nc(c(-c5ccc(S(=O)(=O)[O-])cc5)c5ccc2[nH]5)C=C4)C=C3)cc1
REMARK SMILES IDX 20 1 19 2 18 3 17 4 15 5 16 6 14 8 8 9 9 10 10 11 13 12
REMARK SMILES IDX 12 13 11 14 4 15 3 17 2 18 1 19 5 20 6 21 7 22 21 23 22 24
REMARK SMILES IDX 23 25 24 26 25 27 26 29 27 30 28 31 86 32 29 33 85 34 30 35
REMARK SMILES IDX 31 36 32 37 79 38 33 39 84 40 78 41 80 42 34 43 83 44 77 45
REMARK SMILES IDX 76 46 35 48 65 49 46 50 64 51 47 52 50 53 63 54 81 55 48 56
REMARK SMILES IDX 49 57 62 59 82 60 51 61 36 62 37 63 45 64 38 65 44 66 39 67
REMARK SMILES IDX 40 68 41 69 42 70 43 71 66 72 67 73 75 74 68 75 74 76 69 77
REMARK SMILES IDX 70 78 71 79 72 80 73 81 52 82 53 83 61 84 54 85 60 86 55 87
REMARK SMILES IDX 56 88 57 89 58 90 59 91
REMARK H PARENT 17 7 4 16 24 28 80 47 50 58
REMARK Flexibility Score: inf
ROOT
ATOM      1  C   UNL     1       5.821   3.107  -1.709  1.00  0.00     0.002 C 
ENDROOT
BRANCH   1   2
ATOM      2  C   UNL     1       4.487   2.990  -2.454  1.00  0.00     0.021 C 
BRANCH   2   3
ATOM      3  C   UNL     1       4.347   1.764  -3.349  1.00  0.00     0.116 C 
BRANCH   3   4
ATOM      4  N   UNL     1       4.564   0.524  -2.628  1.00  0.00    -0.356 N 
ATOM      5  C   UNL     1       3.844  -0.633  -2.611  1.00  0.00     0.229 C 
ATOM      6  O   UNL     1       4.392  -1.617  -2.112  1.00  0.00    -0.275 OA
ATOM      7  H   UNL     1       5.365   0.518  -2.055  1.00  0.00     0.163 HD
BRANCH   5   8
ATOM      8  C   UNL     1       2.441  -0.663  -3.192  1.00  0.00     0.140 C 
ATOM      9  C   UNL     1       1.109  -0.462  -2.354  1.00  0.00     0.200 C 
ATOM     10  C   UNL     1       0.239  -1.604  -3.006  1.00  0.00     0.049 C 
ATOM     11  C   UNL     1       0.671  -2.980  -2.470  1.00  0.00     0.010 C 
ATOM     12  C   UNL     1       0.743  -1.684  -4.449  1.00  0.00     0.014 C 
ATOM     13  C   UNL     1       2.182  -1.944  -4.022  1.00  0.00     0.008 C 
ATOM     14  C   UNL     1       2.022  -3.197  -3.147  1.00  0.00     0.005 C 
BRANCH   9  15
ATOM     15  N   UNL     1       0.956  -0.480  -0.869  1.00  0.00    -0.332 N 
ATOM     16  H   UNL     1       0.818  -1.470  -0.661  1.00  0.00     0.348 HD
BRANCH  15  17
ATOM     17  C   UNL     1      -0.220   0.308  -0.404  1.00  0.00     0.262 C 
BRANCH  17  18
ATOM     18  C   UNL     1      -1.636  -0.128  -0.805  1.00  0.00     0.058 C 
ATOM     19  C   UNL     1      -2.011  -1.524  -0.328  1.00  0.00     0.010 C 
ENDBRANCH  17  18
ENDBRANCH  15  17
BRANCH  15  20
ATOM     20  C   UNL     1       2.145  -0.018  -0.127  1.00  0.00     0.262 C 
BRANCH  20  21
ATOM     21  C   UNL     1       2.158  -0.324   1.384  1.00  0.00     0.058 C 
ATOM     22  C   UNL     1       2.021  -1.812   1.677  1.00  0.00     0.010 C 
ENDBRANCH  20  21
ENDBRANCH  15  20
ENDBRANCH   9  15
ENDBRANCH   5   8
ENDBRANCH   3   4
ENDBRANCH   2   3
ENDBRANCH   1   2
BRANCH   1  23
ATOM     23  C   UNL     1       7.078   3.002  -2.578  1.00  0.00     0.002 C 
BRANCH  23  24
ATOM     24  C   UNL     1       7.150   3.980  -3.751  1.00  0.00     0.021 C 
BRANCH  24  25
ATOM     25  C   UNL     1       7.038   5.450  -3.368  1.00  0.00     0.116 C 
BRANCH  25  26
ATOM     26  N   UNL     1       8.133   5.886  -2.518  1.00  0.00    -0.352 N 
ATOM     27  C   UNL     1       8.989   6.949  -2.680  1.00  0.00     0.251 C 
ATOM     28  H   UNL     1       8.283   5.342  -1.711  1.00  0.00     0.163 HD
ATOM     29  O   UNL     1       9.973   7.060  -1.958  1.00  0.00    -0.269 OA
BRANCH  27  30
ATOM     30  C   UNL     1       8.730   7.942  -3.745  1.00  0.00     0.039 A 
ATOM     31  C   UNL     1       9.792   8.369  -4.546  1.00  0.00     0.014 A 
ATOM     32  C   UNL     1       7.443   8.446  -3.958  1.00  0.00     0.014 A 
ATOM     33  C   UNL     1       9.550   9.254  -5.600  1.00  0.00     0.010 A 
ATOM     34  C   UNL     1       7.192   9.263  -5.056  1.00  0.00     0.010 A 
ATOM     35  C   UNL     1       8.243   9.680  -5.886  1.00  0.00    -0.014 A 
BRANCH  35  36
ATOM     36  C   UNL     1       7.955  10.559  -7.049  1.00  0.00     0.031 A 
ATOM     37  C   UNL     1       7.390  11.938  -6.836  1.00  0.00     0.074 A 
ATOM     38  C   UNL     1       8.153  10.098  -8.300  1.00  0.00     0.049 A 
ATOM     39  N   UNL     1       7.039  12.833  -7.725  1.00  0.00    -0.248 NA
ATOM     40  C   UNL     1       7.170  12.358  -5.443  1.00  0.00     0.031 C 
ATOM     41  C   UNL     1       8.669   8.771  -8.642  1.00  0.00     0.029 A 
ATOM     42  N   UNL     1       7.944  10.695  -9.518  1.00  0.00    -0.354 N 
ATOM     43  C   UNL     1       6.551  13.914  -7.001  1.00  0.00     0.074 A 
ATOM     44  C   UNL     1       6.590  13.538  -5.604  1.00  0.00     0.031 C 
ATOM     45  C   UNL     1       8.776   8.671  -9.977  1.00  0.00     0.029 A 
ATOM     46  C   UNL     1       8.291   9.904 -10.588  1.00  0.00     0.049 A 
ATOM     47  H   UNL     1       7.581  11.605  -9.617  1.00  0.00     0.167 HD
ATOM     48  C   UNL     1       6.130  15.121  -7.452  1.00  0.00     0.031 A 
ATOM     49  C   UNL     1       8.226  10.142 -11.913  1.00  0.00     0.031 A 
ATOM     50  C   UNL     1       6.083  15.488  -8.843  1.00  0.00     0.049 A 
ATOM     51  C   UNL     1       7.708  11.470 -12.394  1.00  0.00     0.074 A 
ATOM     52  C   UNL     1       5.706  16.696  -9.403  1.00  0.00     0.029 A 
ATOM     53  N   UNL     1       6.420  14.649  -9.896  1.00  0.00    -0.354 N 
ATOM     54  N   UNL     1       7.302  12.501 -11.691  1.00  0.00    -0.248 NA
ATOM     55  C   UNL     1       7.648  11.669 -13.848  1.00  0.00     0.031 C 
ATOM     56  C   UNL     1       5.755  16.567 -10.795  1.00  0.00     0.029 A 
ATOM     57  C   UNL     1       6.232  15.302 -11.102  1.00  0.00     0.049 A 
ATOM     58  H   UNL     1       6.745  13.725  -9.799  1.00  0.00     0.167 HD
ATOM     59  C   UNL     1       6.969  13.483 -12.618  1.00  0.00     0.074 A 
ATOM     60  C   UNL     1       7.234  12.926 -13.930  1.00  0.00     0.031 C 
ATOM     61  C   UNL     1       6.493  14.735 -12.402  1.00  0.00     0.031 A 
BRANCH  48  62
ATOM     62  C   UNL     1       5.673  16.123  -6.422  1.00  0.00    -0.014 A 
ATOM     63  C   UNL     1       6.580  16.691  -5.507  1.00  0.00     0.010 A 
ATOM     64  C   UNL     1       4.323  16.514  -6.372  1.00  0.00     0.010 A 
ATOM     65  C   UNL     1       6.135  17.580  -4.525  1.00  0.00     0.020 A 
ATOM     66  C   UNL     1       3.879  17.430  -5.414  1.00  0.00     0.020 A 
ATOM     67  C   UNL     1       4.785  17.939  -4.481  1.00  0.00     0.054 A 
BRANCH  67  68
ATOM     68  S   UNL     1       4.235  19.089  -3.191  1.00  0.00     0.124 S 
ATOM     69  O   UNL     1       4.312  18.256  -1.993  1.00  0.00    -0.237 OA
ATOM     70  O   UNL     1       5.224  20.161  -3.275  1.00  0.00    -0.237 OA
ATOM     71  O   UNL     1       2.884  19.457  -3.607  1.00  0.00    -0.744 OA
ENDBRANCH  67  68
ENDBRANCH  48  62
BRANCH  49  72
ATOM     72  C   UNL     1       8.691   9.107 -12.877  1.00  0.00    -0.014 A 
ATOM     73  C   UNL     1       9.864   9.312 -13.626  1.00  0.00     0.010 A 
ATOM     74  C   UNL     1       7.979   7.905 -13.039  1.00  0.00     0.010 A 
ATOM     75  C   UNL     1      10.308   8.340 -14.527  1.00  0.00     0.020 A 
ATOM     76  C   UNL     1       8.437   6.918 -13.916  1.00  0.00     0.020 A 
ATOM     77  C   UNL     1       9.594   7.146 -14.662  1.00  0.00     0.054 A 
BRANCH  77  78
ATOM     78  S   UNL     1      10.225   5.876 -15.794  1.00  0.00     0.124 S 
ATOM     79  O   UNL     1       9.966   6.475 -17.099  1.00  0.00    -0.237 OA
ATOM     80  O   UNL     1      11.630   5.781 -15.407  1.00  0.00    -0.237 OA
ATOM     81  O   UNL     1       9.418   4.701 -15.473  1.00  0.00    -0.744 OA
ENDBRANCH  77  78
ENDBRANCH  49  72
BRANCH  61  82
ATOM     82  C   UNL     1       6.257  15.605 -13.609  1.00  0.00    -0.014 A 
ATOM     83  C   UNL     1       5.205  15.348 -14.505  1.00  0.00     0.010 A 
ATOM     84  C   UNL     1       7.075  16.732 -13.819  1.00  0.00     0.010 A 
ATOM     85  C   UNL     1       4.994  16.183 -15.606  1.00  0.00     0.020 A 
ATOM     86  C   UNL     1       6.847  17.587 -14.900  1.00  0.00     0.020 A 
ATOM     87  C   UNL     1       5.816  17.299 -15.796  1.00  0.00     0.054 A 
BRANCH  87  88
ATOM     88  S   UNL     1       5.492  18.391 -17.207  1.00  0.00     0.124 S 
ATOM     89  O   UNL     1       5.934  17.573 -18.333  1.00  0.00    -0.237 OA
ATOM     90  O   UNL     1       4.050  18.609 -17.116  1.00  0.00    -0.237 OA
ATOM     91  O   UNL     1       6.312  19.568 -16.931  1.00  0.00    -0.744 OA
ENDBRANCH  87  88
ENDBRANCH  61  82
ENDBRANCH  35  36
ENDBRANCH  27  30
ENDBRANCH  25  26
ENDBRANCH  24  25
ENDBRANCH  23  24
ENDBRANCH   1  23
TORSDOF 21
