REMARK SMILES C[C@H]1CC[C@@]2(CO)C(C(=O)NCCCCCCNC(=O)c3ccc(-c4c5nc(c(-c6ccc(S(=O)(=O)[O-])cc6)c6ccc([nH]6)c(-c6ccc(S(=O)(=O)[O-])cc6)c6nc(c(-c7ccc(S(=O)(=O)[O-])cc7)c7ccc4[nH]7)C=C6)C=C5)cc3)=C[C@@H](O)C[C@@H]2[C@@]1(C)CCc1ccoc1
REMARK SMILES IDX 14 1 13 2 12 3 11 4 9 5 10 6 8 8 1 9 2 10 3 11 86 12 4 13
REMARK SMILES IDX 85 14 87 15 5 16 84 17 82 18 81 19 88 20 89 21 90 22 91 23
REMARK SMILES IDX 94 24 92 25 93 26 6 27 7 28 83 30 15 32 16 33 17 34 18 35
REMARK SMILES IDX 19 36 20 38 21 39 22 40 80 41 23 42 79 43 24 44 25 45 26 46
REMARK SMILES IDX 73 47 27 48 78 49 72 50 74 51 28 52 77 53 71 54 70 55 29 57
REMARK SMILES IDX 59 58 40 59 58 60 41 61 44 62 57 63 75 64 42 65 43 66 56 68
REMARK SMILES IDX 76 69 45 70 30 71 31 72 39 73 32 74 38 75 33 76 34 77 35 78
REMARK SMILES IDX 36 79 37 80 60 81 61 82 69 83 62 84 68 85 63 86 64 87 65 88
REMARK SMILES IDX 66 89 67 90 46 91 47 92 55 93 48 94 54 95 49 96 50 97 51 98
REMARK SMILES IDX 52 99 53 100
REMARK H PARENT 11 7 7 29 83 31 18 37 74 56 44 67
REMARK Flexibility Score: inf
ROOT
ATOM      1  C   UNL     1       3.196   3.626   3.351  1.00  0.00     0.002 C 
ENDROOT
BRANCH   1   2
ATOM      2  C   UNL     1       1.859   2.893   3.214  1.00  0.00     0.021 C 
BRANCH   2   3
ATOM      3  C   UNL     1       1.776   2.066   1.931  1.00  0.00     0.116 C 
BRANCH   3   4
ATOM      4  N   UNL     1       2.100   0.668   2.213  1.00  0.00    -0.352 N 
ATOM      5  C   UNL     1       1.290  -0.434   2.335  1.00  0.00     0.247 C 
ATOM      6  O   UNL     1       1.740  -1.508   2.715  1.00  0.00    -0.270 OA
ATOM      7  H   UNL     1       3.060   0.487   2.336  1.00  0.00     0.163 HD
BRANCH   5   8
ATOM      8  C   UNL     1      -0.112  -0.297   1.871  1.00  0.00     0.024 C 
ATOM      9  C   UNL     1       1.766   0.206  -1.987  1.00  0.00     0.008 C 
ATOM     10  C   UNL     1       0.443  -0.544  -2.303  1.00  0.00    -0.008 C 
ATOM     11  C   UNL     1       0.467  -1.927  -1.642  1.00  0.00     0.005 C 
ATOM     12  C   UNL     1      -0.869   0.246  -1.904  1.00  0.00    -0.026 C 
ATOM     13  C   UNL     1       0.474  -1.847  -0.115  1.00  0.00     0.015 C 
ATOM     14  C   UNL     1      -0.763   0.462  -0.343  1.00  0.00     0.011 C 
ATOM     15  C   UNL     1      -2.115  -0.588  -2.246  1.00  0.00     0.012 C 
ATOM     16  C   UNL     1      -0.552  -0.854   0.516  1.00  0.00     0.027 C 
ATOM     17  C   UNL     1      -1.803   1.430   0.292  1.00  0.00     0.041 C 
ATOM     18  C   UNL     1      -1.893   1.415   1.851  1.00  0.00     0.138 C 
ATOM     19  C   UNL     1      -0.920   0.520   2.569  1.00  0.00     0.014 C 
BRANCH  12  20
ATOM     20  C   UNL     1      -0.890   1.583  -2.760  1.00  0.00     0.012 C 
BRANCH  20  21
ATOM     21  C   UNL     1      -2.093   1.853  -3.702  1.00  0.00     0.039 C 
BRANCH  21  22
ATOM     22  C   UNL     1      -3.257   2.487  -3.016  1.00  0.00    -0.010 A 
ATOM     23  C   UNL     1      -3.295   3.793  -2.454  1.00  0.00     0.045 A 
ATOM     24  C   UNL     1      -4.513   1.960  -2.787  1.00  0.00     0.198 A 
ATOM     25  C   UNL     1      -4.523   3.925  -1.853  1.00  0.00     0.195 A 
ATOM     26  O   UNL     1      -5.271   2.813  -2.055  1.00  0.00    -0.472 OA
ENDBRANCH  21  22
ENDBRANCH  20  21
ENDBRANCH  12  20
BRANCH  16  27
ATOM     27  C   UNL     1      -1.857  -1.675   0.885  1.00  0.00     0.168 C 
BRANCH  27  28
ATOM     28  O   UNL     1      -2.165  -2.766   0.022  1.00  0.00    -0.395 OA
ATOM     29  H   UNL     1      -2.347  -2.431  -0.870  1.00  0.00     0.210 HD
ENDBRANCH  27  28
ENDBRANCH  16  27
BRANCH  18  30
ATOM     30  O   UNL     1      -1.587   2.745   2.293  1.00  0.00    -0.389 OA
ATOM     31  H   UNL     1      -0.679   2.970   2.036  1.00  0.00     0.211 HD
ENDBRANCH  18  30
ENDBRANCH   5   8
ENDBRANCH   3   4
ENDBRANCH   2   3
ENDBRANCH   1   2
BRANCH   1  32
ATOM     32  C   UNL     1       3.355   4.828   2.410  1.00  0.00     0.002 C 
BRANCH  32  33
ATOM     33  C   UNL     1       2.283   5.914   2.549  1.00  0.00     0.021 C 
BRANCH  33  34
ATOM     34  C   UNL     1       2.056   6.403   3.976  1.00  0.00     0.116 C 
BRANCH  34  35
ATOM     35  N   UNL     1       3.291   6.881   4.580  1.00  0.00    -0.352 N 
ATOM     36  C   UNL     1       3.593   8.127   5.071  1.00  0.00     0.251 C 
ATOM     37  H   UNL     1       4.013   6.215   4.646  1.00  0.00     0.163 HD
ATOM     38  O   UNL     1       4.752   8.437   5.297  1.00  0.00    -0.269 OA
BRANCH  36  39
ATOM     39  C   UNL     1       2.496   9.083   5.321  1.00  0.00     0.039 A 
ATOM     40  C   UNL     1       2.644  10.409   4.915  1.00  0.00     0.014 A 
ATOM     41  C   UNL     1       1.328   8.662   5.966  1.00  0.00     0.014 A 
ATOM     42  C   UNL     1       1.597  11.308   5.117  1.00  0.00     0.010 A 
ATOM     43  C   UNL     1       0.258   9.539   6.094  1.00  0.00     0.010 A 
ATOM     44  C   UNL     1       0.388  10.873   5.684  1.00  0.00    -0.014 A 
BRANCH  44  45
ATOM     45  C   UNL     1      -0.752  11.805   5.865  1.00  0.00     0.031 A 
ATOM     46  C   UNL     1      -1.246  12.132   7.247  1.00  0.00     0.074 A 
ATOM     47  C   UNL     1      -1.370  12.311   4.780  1.00  0.00     0.049 A 
ATOM     48  N   UNL     1      -2.242  12.899   7.605  1.00  0.00    -0.248 NA
ATOM     49  C   UNL     1      -0.545  11.493   8.375  1.00  0.00     0.031 C 
ATOM     50  C   UNL     1      -1.005  12.030   3.390  1.00  0.00     0.029 A 
ATOM     51  N   UNL     1      -2.436  13.167   4.677  1.00  0.00    -0.354 N 
ATOM     52  C   UNL     1      -2.297  12.824   8.992  1.00  0.00     0.074 A 
ATOM     53  C   UNL     1      -1.272  11.893   9.407  1.00  0.00     0.031 C 
ATOM     54  C   UNL     1      -1.809  12.730   2.574  1.00  0.00     0.029 A 
ATOM     55  C   UNL     1      -2.774  13.472   3.379  1.00  0.00     0.049 A 
ATOM     56  H   UNL     1      -2.915  13.529   5.457  1.00  0.00     0.167 HD
ATOM     57  C   UNL     1      -3.114  13.488   9.845  1.00  0.00     0.031 A 
ATOM     58  C   UNL     1      -3.754  14.257   2.892  1.00  0.00     0.031 A 
ATOM     59  C   UNL     1      -4.130  14.414   9.420  1.00  0.00     0.049 A 
ATOM     60  C   UNL     1      -4.660  14.970   3.857  1.00  0.00     0.074 A 
ATOM     61  C   UNL     1      -4.976  15.181  10.201  1.00  0.00     0.029 A 
ATOM     62  N   UNL     1      -4.444  14.693   8.098  1.00  0.00    -0.354 N 
ATOM     63  N   UNL     1      -4.650  14.944   5.169  1.00  0.00    -0.248 NA
ATOM     64  C   UNL     1      -5.701  15.828   3.277  1.00  0.00     0.031 C 
ATOM     65  C   UNL     1      -5.844  15.875   9.352  1.00  0.00     0.029 A 
ATOM     66  C   UNL     1      -5.491  15.597   8.040  1.00  0.00     0.049 A 
ATOM     67  H   UNL     1      -3.988  14.306   7.315  1.00  0.00     0.167 HD
ATOM     68  C   UNL     1      -5.666  15.804   5.572  1.00  0.00     0.074 A 
ATOM     69  C   UNL     1      -6.257  16.345   4.364  1.00  0.00     0.031 C 
ATOM     70  C   UNL     1      -6.072  16.119   6.827  1.00  0.00     0.031 A 
BRANCH  57  71
ATOM     71  C   UNL     1      -2.948  13.222  11.319  1.00  0.00    -0.014 A 
ATOM     72  C   UNL     1      -1.789  13.625  12.009  1.00  0.00     0.010 A 
ATOM     73  C   UNL     1      -3.977  12.582  12.034  1.00  0.00     0.010 A 
ATOM     74  C   UNL     1      -1.643  13.350  13.372  1.00  0.00     0.020 A 
ATOM     75  C   UNL     1      -3.849  12.335  13.404  1.00  0.00     0.020 A 
ATOM     76  C   UNL     1      -2.673  12.704  14.060  1.00  0.00     0.054 A 
BRANCH  76  77
ATOM     77  S   UNL     1      -2.461  12.372  15.830  1.00  0.00     0.124 S 
ATOM     78  O   UNL     1      -1.454  11.314  15.820  1.00  0.00    -0.237 OA
ATOM     79  O   UNL     1      -2.009  13.663  16.345  1.00  0.00    -0.237 OA
ATOM     80  O   UNL     1      -3.791  11.960  16.269  1.00  0.00    -0.744 OA
ENDBRANCH  76  77
ENDBRANCH  57  71
BRANCH  58  81
ATOM     81  C   UNL     1      -3.908  14.422   1.421  1.00  0.00    -0.014 A 
ATOM     82  C   UNL     1      -3.603  15.647   0.802  1.00  0.00     0.010 A 
ATOM     83  C   UNL     1      -4.335  13.343   0.624  1.00  0.00     0.010 A 
ATOM     84  C   UNL     1      -3.733  15.794  -0.582  1.00  0.00     0.020 A 
ATOM     85  C   UNL     1      -4.437  13.477  -0.763  1.00  0.00     0.020 A 
ATOM     86  C   UNL     1      -4.144  14.706  -1.357  1.00  0.00     0.054 A 
BRANCH  86  87
ATOM     87  S   UNL     1      -4.246  14.903  -3.157  1.00  0.00     0.124 S 
ATOM     88  O   UNL     1      -5.415  15.765  -3.303  1.00  0.00    -0.237 OA
ATOM     89  O   UNL     1      -2.960  15.518  -3.479  1.00  0.00    -0.237 OA
ATOM     90  O   UNL     1      -4.411  13.535  -3.643  1.00  0.00    -0.744 OA
ENDBRANCH  86  87
ENDBRANCH  58  81
BRANCH  70  91
ATOM     91  C   UNL     1      -7.190  17.119   6.963  1.00  0.00    -0.014 A 
ATOM     92  C   UNL     1      -8.510  16.795   6.605  1.00  0.00     0.010 A 
ATOM     93  C   UNL     1      -6.920  18.388   7.510  1.00  0.00     0.010 A 
ATOM     94  C   UNL     1      -9.534  17.733   6.760  1.00  0.00     0.020 A 
ATOM     95  C   UNL     1      -7.946  19.316   7.697  1.00  0.00     0.020 A 
ATOM     96  C   UNL     1      -9.245  18.987   7.307  1.00  0.00     0.054 A 
BRANCH  96  97
ATOM     97  S   UNL     1     -10.600  20.170   7.538  1.00  0.00     0.124 S 
ATOM     98  O   UNL     1     -10.893  20.569   6.164  1.00  0.00    -0.237 OA
ATOM     99  O   UNL     1     -11.626  19.357   8.188  1.00  0.00    -0.237 OA
ATOM    100  O   UNL     1     -10.013  21.211   8.377  1.00  0.00    -0.744 OA
ENDBRANCH  96  97
ENDBRANCH  70  91
ENDBRANCH  44  45
ENDBRANCH  36  39
ENDBRANCH  34  35
ENDBRANCH  33  34
ENDBRANCH  32  33
ENDBRANCH   1  32
TORSDOF 22
