REMARK SMILES CCOc1cc(/C=C2/C(=O)N(c3cccc(C(=O)NCCCCCCNC(=O)c4ccc(-c5c6nc(c(-c7ccc(S(=O)(=O)[O-])cc7)c7ccc([nH]7)c(-c7ccc(S(=O)(=O)[O-])cc7)c7nc(c(-c8ccc(S(=O)(=O)[O-])cc8)c8ccc5[nH]8)C=C7)C=C6)cc4)c3)N=C2C)cc(Cl)c1O
REMARK SMILES IDX 22 1 21 2 20 3 19 4 17 5 18 6 16 8 12 9 13 10 89 11 14 12
REMARK SMILES IDX 15 13 11 14 7 15 8 16 9 17 91 18 10 19 90 20 92 21 6 22 4 23
REMARK SMILES IDX 5 24 96 25 94 26 93 27 95 28 3 29 2 30 1 31 97 32 23 34
REMARK SMILES IDX 24 35 25 36 26 37 27 38 28 40 29 41 30 42 88 43 31 44 87 45
REMARK SMILES IDX 32 46 33 47 34 48 81 49 35 50 86 51 80 52 82 53 36 54 85 55
REMARK SMILES IDX 79 56 78 57 37 59 67 60 48 61 66 62 49 63 52 64 65 65 83 66
REMARK SMILES IDX 50 67 51 68 64 70 84 71 53 72 38 73 39 74 47 75 40 76 46 77
REMARK SMILES IDX 41 78 42 79 43 80 44 81 45 82 68 83 69 84 77 85 70 86 76 87
REMARK SMILES IDX 71 88 72 89 73 90 74 91 75 92 54 93 55 94 63 95 56 96 62 97
REMARK SMILES IDX 57 98 58 99 59 100 60 101 61 102
REMARK H PARENT 19 7 97 33 26 39 82 58 52 69
REMARK Flexibility Score: inf
ROOT
ATOM      1  C   UNL     1       0.417 -11.367   4.670  1.00  0.00     0.002 C 
ENDROOT
BRANCH   1   2
ATOM      2  C   UNL     1       0.999 -10.727   3.411  1.00  0.00     0.021 C 
BRANCH   2   3
ATOM      3  C   UNL     1       2.518 -10.762   3.272  1.00  0.00     0.116 C 
BRANCH   3   4
ATOM      4  N   UNL     1       3.079 -12.099   3.143  1.00  0.00    -0.352 N 
ATOM      5  C   UNL     1       4.072 -12.591   2.322  1.00  0.00     0.251 C 
ATOM      6  O   UNL     1       4.354 -13.787   2.382  1.00  0.00    -0.269 OA
ATOM      7  H   UNL     1       2.680 -12.768   3.747  1.00  0.00     0.163 HD
BRANCH   5   8
ATOM      8  C   UNL     1       4.744 -11.737   1.304  1.00  0.00     0.041 A 
ATOM      9  C   UNL     1       5.259  -9.537   0.435  1.00  0.00     0.069 A 
ATOM     10  C   UNL     1       5.520 -10.109  -0.818  1.00  0.00     0.028 A 
ATOM     11  C   UNL     1       4.997 -10.382   1.518  1.00  0.00     0.042 A 
ATOM     12  C   UNL     1       5.477 -11.494  -0.989  1.00  0.00     0.003 A 
ATOM     13  C   UNL     1       5.050 -12.305   0.062  1.00  0.00     0.014 A 
BRANCH   9  14
ATOM     14  N   UNL     1       5.103  -8.138   0.570  1.00  0.00    -0.196 N 
ATOM     15  C   UNL     1       4.474  -5.058   2.179  1.00  0.00     0.024 C 
ATOM     16  C   UNL     1       4.558  -6.086   1.328  1.00  0.00     0.065 C 
ATOM     17  C   UNL     1       5.072  -7.407   1.766  1.00  0.00     0.280 C 
ATOM     18  C   UNL     1       4.266  -6.260  -0.102  1.00  0.00     0.071 C 
ATOM     19  O   UNL     1       5.353  -7.718   2.906  1.00  0.00    -0.267 OA
ATOM     20  N   UNL     1       4.629  -7.438  -0.540  1.00  0.00    -0.169 NA
ATOM     21  C   UNL     1       3.558  -5.259  -0.951  1.00  0.00     0.069 C 
BRANCH  15  22
ATOM     22  C   UNL     1       4.077  -3.686   1.868  1.00  0.00    -0.019 A 
ATOM     23  C   UNL     1       2.402  -1.974   1.564  1.00  0.00     0.163 A 
ATOM     24  C   UNL     1       2.731  -3.313   1.776  1.00  0.00     0.058 A 
ATOM     25  C   UNL     1       3.399  -0.998   1.508  1.00  0.00     0.176 A 
ATOM     26  C   UNL     1       4.739  -1.372   1.553  1.00  0.00     0.087 A 
ATOM     27  C   UNL     1       5.079  -2.714   1.734  1.00  0.00     0.032 A 
ATOM     28  Cl  UNL     1       6.006  -0.209   1.422  1.00  0.00    -0.080 Cl
BRANCH  23  29
ATOM     29  O   UNL     1       1.085  -1.600   1.516  1.00  0.00    -0.490 OA
BRANCH  29  30
ATOM     30  C   UNL     1       0.579  -1.580   0.171  1.00  0.00     0.226 C 
ATOM     31  C   UNL     1       0.533  -0.159  -0.367  1.00  0.00     0.049 C 
ENDBRANCH  29  30
ENDBRANCH  23  29
BRANCH  25  32
ATOM     32  O   UNL     1       3.051   0.323   1.452  1.00  0.00    -0.503 OA
ATOM     33  H   UNL     1       2.147   0.569   1.423  1.00  0.00     0.293 HD
ENDBRANCH  25  32
ENDBRANCH  15  22
ENDBRANCH   9  14
ENDBRANCH   5   8
ENDBRANCH   3   4
ENDBRANCH   2   3
ENDBRANCH   1   2
BRANCH   1  34
ATOM     34  C   UNL     1       0.973 -10.861   6.004  1.00  0.00     0.002 C 
BRANCH  34  35
ATOM     35  C   UNL     1       0.947  -9.345   6.215  1.00  0.00     0.021 C 
BRANCH  35  36
ATOM     36  C   UNL     1      -0.414  -8.678   6.047  1.00  0.00     0.116 C 
BRANCH  36  37
ATOM     37  N   UNL     1      -1.403  -9.180   6.986  1.00  0.00    -0.352 N 
ATOM     38  C   UNL     1      -2.203  -8.493   7.865  1.00  0.00     0.251 C 
ATOM     39  H   UNL     1      -1.516 -10.158   6.992  1.00  0.00     0.163 HD
ATOM     40  O   UNL     1      -2.854  -9.110   8.704  1.00  0.00    -0.269 OA
BRANCH  38  41
ATOM     41  C   UNL     1      -2.269  -7.015   7.818  1.00  0.00     0.039 A 
ATOM     42  C   UNL     1      -2.248  -6.301   9.019  1.00  0.00     0.014 A 
ATOM     43  C   UNL     1      -2.372  -6.333   6.602  1.00  0.00     0.014 A 
ATOM     44  C   UNL     1      -2.275  -4.904   8.997  1.00  0.00     0.010 A 
ATOM     45  C   UNL     1      -2.320  -4.941   6.579  1.00  0.00     0.010 A 
ATOM     46  C   UNL     1      -2.279  -4.210   7.776  1.00  0.00    -0.014 A 
BRANCH  46  47
ATOM     47  C   UNL     1      -2.242  -2.724   7.737  1.00  0.00     0.031 A 
ATOM     48  C   UNL     1      -3.390  -1.949   7.147  1.00  0.00     0.074 A 
ATOM     49  C   UNL     1      -1.152  -2.073   8.191  1.00  0.00     0.049 A 
ATOM     50  N   UNL     1      -3.522  -0.655   6.998  1.00  0.00    -0.248 NA
ATOM     51  C   UNL     1      -4.530  -2.729   6.636  1.00  0.00     0.031 C 
ATOM     52  C   UNL     1       0.042  -2.709   8.752  1.00  0.00     0.029 A 
ATOM     53  N   UNL     1      -0.871  -0.731   8.253  1.00  0.00    -0.354 N 
ATOM     54  C   UNL     1      -4.747  -0.468   6.368  1.00  0.00     0.074 A 
ATOM     55  C   UNL     1      -5.295  -1.782   6.112  1.00  0.00     0.031 C 
ATOM     56  C   UNL     1       0.911  -1.759   9.130  1.00  0.00     0.029 A 
ATOM     57  C   UNL     1       0.360  -0.449   8.799  1.00  0.00     0.049 A 
ATOM     58  H   UNL     1      -1.491  -0.035   7.936  1.00  0.00     0.167 HD
ATOM     59  C   UNL     1      -5.370   0.693   6.050  1.00  0.00     0.031 A 
ATOM     60  C   UNL     1       0.981   0.730   9.005  1.00  0.00     0.031 A 
ATOM     61  C   UNL     1      -4.823   1.999   6.311  1.00  0.00     0.049 A 
ATOM     62  C   UNL     1       0.277   2.004   8.625  1.00  0.00     0.074 A 
ATOM     63  C   UNL     1      -5.399   3.235   6.072  1.00  0.00     0.029 A 
ATOM     64  N   UNL     1      -3.575   2.240   6.864  1.00  0.00    -0.354 N 
ATOM     65  N   UNL     1      -0.911   2.161   8.088  1.00  0.00    -0.248 NA
ATOM     66  C   UNL     1       0.990   3.260   8.891  1.00  0.00     0.031 C 
ATOM     67  C   UNL     1      -4.473   4.223   6.420  1.00  0.00     0.029 A 
ATOM     68  C   UNL     1      -3.349   3.605   6.946  1.00  0.00     0.049 A 
ATOM     69  H   UNL     1      -2.942   1.545   7.156  1.00  0.00     0.167 HD
ATOM     70  C   UNL     1      -1.098   3.535   7.983  1.00  0.00     0.074 A 
ATOM     71  C   UNL     1       0.089   4.162   8.527  1.00  0.00     0.031 C 
ATOM     72  C   UNL     1      -2.160   4.217   7.485  1.00  0.00     0.031 A 
BRANCH  59  73
ATOM     73  C   UNL     1      -6.714   0.602   5.371  1.00  0.00    -0.014 A 
ATOM     74  C   UNL     1      -7.846   0.119   6.052  1.00  0.00     0.010 A 
ATOM     75  C   UNL     1      -6.857   1.049   4.044  1.00  0.00     0.010 A 
ATOM     76  C   UNL     1      -9.084   0.042   5.407  1.00  0.00     0.020 A 
ATOM     77  C   UNL     1      -8.099   1.005   3.405  1.00  0.00     0.020 A 
ATOM     78  C   UNL     1      -9.202   0.485   4.086  1.00  0.00     0.054 A 
BRANCH  78  79
ATOM     79  S   UNL     1     -10.825   0.395   3.282  1.00  0.00     0.124 S 
ATOM     80  O   UNL     1     -10.988  -1.045   3.095  1.00  0.00    -0.237 OA
ATOM     81  O   UNL     1     -11.707   1.004   4.274  1.00  0.00    -0.237 OA
ATOM     82  O   UNL     1     -10.647   1.165   2.053  1.00  0.00    -0.744 OA
ENDBRANCH  78  79
ENDBRANCH  59  73
BRANCH  60  83
ATOM     83  C   UNL     1       2.340   0.759   9.613  1.00  0.00    -0.014 A 
ATOM     84  C   UNL     1       2.537   1.274  10.907  1.00  0.00     0.010 A 
ATOM     85  C   UNL     1       3.448   0.261   8.902  1.00  0.00     0.010 A 
ATOM     86  C   UNL     1       3.816   1.311  11.469  1.00  0.00     0.020 A 
ATOM     87  C   UNL     1       4.723   0.266   9.473  1.00  0.00     0.020 A 
ATOM     88  C   UNL     1       4.901   0.802  10.750  1.00  0.00     0.054 A 
BRANCH  88  89
ATOM     89  S   UNL     1       6.544   0.815  11.520  1.00  0.00     0.124 S 
ATOM     90  O   UNL     1       6.879   2.235  11.497  1.00  0.00    -0.237 OA
ATOM     91  O   UNL     1       6.276   0.248  12.839  1.00  0.00    -0.237 OA
ATOM     92  O   UNL     1       7.342  -0.032  10.636  1.00  0.00    -0.744 OA
ENDBRANCH  88  89
ENDBRANCH  60  83
BRANCH  72  93
ATOM     93  C   UNL     1      -2.106   5.722   7.537  1.00  0.00    -0.014 A 
ATOM     94  C   UNL     1      -1.224   6.455   6.723  1.00  0.00     0.010 A 
ATOM     95  C   UNL     1      -2.988   6.415   8.387  1.00  0.00     0.010 A 
ATOM     96  C   UNL     1      -1.197   7.851   6.788  1.00  0.00     0.020 A 
ATOM     97  C   UNL     1      -2.988   7.812   8.430  1.00  0.00     0.020 A 
ATOM     98  C   UNL     1      -2.080   8.520   7.641  1.00  0.00     0.054 A 
BRANCH  98  99
ATOM     99  S   UNL     1      -2.049  10.333   7.681  1.00  0.00     0.124 S 
ATOM    100  O   UNL     1      -0.794  10.601   8.377  1.00  0.00    -0.237 OA
ATOM    101  O   UNL     1      -2.069  10.683   6.262  1.00  0.00    -0.237 OA
ATOM    102  O   UNL     1      -3.259  10.685   8.420  1.00  0.00    -0.744 OA
ENDBRANCH  98  99
ENDBRANCH  72  93
ENDBRANCH  46  47
ENDBRANCH  38  41
ENDBRANCH  36  37
ENDBRANCH  35  36
ENDBRANCH  34  35
ENDBRANCH   1  34
TORSDOF 21
