REMARK SMILES O=C(NCCCCCCNC(=O)C1(Cc2ccncc2)Cc2ccccc2C1)c1ccc(-c2c3nc(c(-c4ccc(S(=O)(=O)[O-])cc4)c4ccc([nH]4)c(-c4ccc(S(=O)(=O)[O-])cc4)c4nc(c(-c5ccc(S(=O)(=O)[O-])cc5)c5ccc2[nH]5)C=C4)C=C3)cc1
REMARK SMILES IDX 6 1 5 2 4 3 3 4 1 5 2 6 29 8 30 9 88 10 31 11 87 12 32 13
REMARK SMILES IDX 33 14 34 15 81 16 35 17 86 18 80 19 82 20 36 21 85 22 79 23
REMARK SMILES IDX 78 24 37 26 67 27 48 28 66 29 49 30 52 31 65 32 83 33 50 34
REMARK SMILES IDX 51 35 64 37 84 38 53 39 38 40 39 41 47 42 40 43 46 44 41 45
REMARK SMILES IDX 42 46 43 47 44 48 45 49 68 50 69 51 77 52 70 53 76 54 71 55
REMARK SMILES IDX 72 56 73 57 74 58 75 59 54 60 55 61 63 62 56 63 62 64 57 65
REMARK SMILES IDX 58 66 59 67 60 68 61 69 7 70 8 71 9 72 10 73 11 74 12 76
REMARK SMILES IDX 13 77 21 78 28 79 22 80 27 81 23 82 26 83 24 84 25 85 14 86
REMARK SMILES IDX 15 87 16 88 20 89 17 90 19 91 18 92
REMARK H PARENT 3 7 82 25 52 36 10 75
REMARK Flexibility Score: inf
ROOT
ATOM      1  C   UNL     1       4.098  -1.965  -3.272  1.00  0.00     0.002 C 
ENDROOT
BRANCH   1   2
ATOM      2  C   UNL     1       4.484  -2.003  -1.794  1.00  0.00     0.021 C 
BRANCH   2   3
ATOM      3  C   UNL     1       4.321  -0.677  -1.066  1.00  0.00     0.116 C 
BRANCH   3   4
ATOM      4  N   UNL     1       2.928  -0.279  -0.952  1.00  0.00    -0.352 N 
ATOM      5  O   UNL     1       1.016   0.213   0.138  1.00  0.00    -0.269 OA
ATOM      6  C   UNL     1       2.230   0.079   0.177  1.00  0.00     0.251 C 
ATOM      7  H   UNL     1       2.418  -0.264  -1.794  1.00  0.00     0.163 HD
BRANCH   6   8
ATOM      8  C   UNL     1       2.968   0.277   1.444  1.00  0.00     0.039 A 
ATOM      9  C   UNL     1       4.143   1.033   1.466  1.00  0.00     0.014 A 
ATOM     10  C   UNL     1       2.483  -0.307   2.617  1.00  0.00     0.014 A 
ATOM     11  C   UNL     1       4.898   1.100   2.631  1.00  0.00     0.010 A 
ATOM     12  C   UNL     1       3.203  -0.170   3.807  1.00  0.00     0.010 A 
ATOM     13  C   UNL     1       4.428   0.515   3.818  1.00  0.00    -0.014 A 
BRANCH  13  14
ATOM     14  C   UNL     1       5.197   0.706   5.074  1.00  0.00     0.031 A 
ATOM     15  C   UNL     1       5.838  -0.453   5.784  1.00  0.00     0.074 A 
ATOM     16  C   UNL     1       5.330   1.957   5.557  1.00  0.00     0.049 A 
ATOM     17  N   UNL     1       6.562  -0.446   6.875  1.00  0.00    -0.248 NA
ATOM     18  C   UNL     1       5.639  -1.791   5.205  1.00  0.00     0.031 C 
ATOM     19  C   UNL     1       4.742   3.159   4.957  1.00  0.00     0.029 A 
ATOM     20  N   UNL     1       6.015   2.433   6.645  1.00  0.00    -0.354 N 
ATOM     21  C   UNL     1       6.889  -1.773   7.126  1.00  0.00     0.074 A 
ATOM     22  C   UNL     1       6.268  -2.562   6.083  1.00  0.00     0.031 C 
ATOM     23  C   UNL     1       5.130   4.235   5.655  1.00  0.00     0.029 A 
ATOM     24  C   UNL     1       5.940   3.798   6.785  1.00  0.00     0.049 A 
ATOM     25  H   UNL     1       6.512   1.852   7.266  1.00  0.00     0.167 HD
ATOM     26  C   UNL     1       7.639  -2.284   8.132  1.00  0.00     0.031 A 
ATOM     27  C   UNL     1       6.452   4.612   7.726  1.00  0.00     0.031 A 
ATOM     28  C   UNL     1       8.254  -1.491   9.167  1.00  0.00     0.049 A 
ATOM     29  C   UNL     1       7.265   4.018   8.838  1.00  0.00     0.074 A 
ATOM     30  C   UNL     1       9.056  -1.913  10.213  1.00  0.00     0.029 A 
ATOM     31  N   UNL     1       8.131  -0.115   9.290  1.00  0.00    -0.354 N 
ATOM     32  N   UNL     1       7.587   2.763   9.039  1.00  0.00    -0.248 NA
ATOM     33  C   UNL     1       7.786   4.949   9.847  1.00  0.00     0.031 C 
ATOM     34  C   UNL     1       9.380  -0.799  10.995  1.00  0.00     0.029 A 
ATOM     35  C   UNL     1       8.825   0.325  10.406  1.00  0.00     0.049 A 
ATOM     36  H   UNL     1       7.626   0.465   8.675  1.00  0.00     0.167 HD
ATOM     37  C   UNL     1       8.359   2.753  10.194  1.00  0.00     0.074 A 
ATOM     38  C   UNL     1       8.473   4.130  10.632  1.00  0.00     0.031 C 
ATOM     39  C   UNL     1       8.919   1.698  10.834  1.00  0.00     0.031 A 
BRANCH  26  40
ATOM     40  C   UNL     1       7.819  -3.779   8.183  1.00  0.00    -0.014 A 
ATOM     41  C   UNL     1       8.650  -4.445   7.264  1.00  0.00     0.010 A 
ATOM     42  C   UNL     1       7.189  -4.523   9.198  1.00  0.00     0.010 A 
ATOM     43  C   UNL     1       8.820  -5.831   7.339  1.00  0.00     0.020 A 
ATOM     44  C   UNL     1       7.375  -5.906   9.290  1.00  0.00     0.020 A 
ATOM     45  C   UNL     1       8.178  -6.553   8.349  1.00  0.00     0.054 A 
BRANCH  45  46
ATOM     46  S   UNL     1       8.433  -8.348   8.435  1.00  0.00     0.124 S 
ATOM     47  O   UNL     1       7.626  -8.819   7.311  1.00  0.00    -0.237 OA
ATOM     48  O   UNL     1       9.878  -8.476   8.265  1.00  0.00    -0.237 OA
ATOM     49  O   UNL     1       7.929  -8.707   9.758  1.00  0.00    -0.744 OA
ENDBRANCH  45  46
ENDBRANCH  26  40
BRANCH  27  50
ATOM     50  C   UNL     1       6.191   6.074   7.652  1.00  0.00    -0.014 A 
ATOM     51  C   UNL     1       7.220   6.969   7.315  1.00  0.00     0.010 A 
ATOM     52  C   UNL     1       4.894   6.572   7.877  1.00  0.00     0.010 A 
ATOM     53  C   UNL     1       6.959   8.338   7.213  1.00  0.00     0.020 A 
ATOM     54  C   UNL     1       4.623   7.936   7.748  1.00  0.00     0.020 A 
ATOM     55  C   UNL     1       5.661   8.812   7.427  1.00  0.00     0.054 A 
BRANCH  55  56
ATOM     56  S   UNL     1       5.329  10.584   7.224  1.00  0.00     0.124 S 
ATOM     57  O   UNL     1       5.884  11.138   8.455  1.00  0.00    -0.237 OA
ATOM     58  O   UNL     1       6.057  10.905   5.999  1.00  0.00    -0.237 OA
ATOM     59  O   UNL     1       3.873  10.646   7.108  1.00  0.00    -0.744 OA
ENDBRANCH  55  56
ENDBRANCH  27  50
BRANCH  39  60
ATOM     60  C   UNL     1       9.725   1.999  12.068  1.00  0.00    -0.014 A 
ATOM     61  C   UNL     1       9.100   2.368  13.272  1.00  0.00     0.010 A 
ATOM     62  C   UNL     1      11.126   1.880  12.028  1.00  0.00     0.010 A 
ATOM     63  C   UNL     1       9.865   2.647  14.407  1.00  0.00     0.020 A 
ATOM     64  C   UNL     1      11.893   2.133  13.168  1.00  0.00     0.020 A 
ATOM     65  C   UNL     1      11.258   2.531  14.346  1.00  0.00     0.054 A 
BRANCH  65  66
ATOM     66  S   UNL     1      12.229   2.868  15.840  1.00  0.00     0.124 S 
ATOM     67  O   UNL     1      12.200   4.326  15.899  1.00  0.00    -0.237 OA
ATOM     68  O   UNL     1      11.469   2.181  16.881  1.00  0.00    -0.237 OA
ATOM     69  O   UNL     1      13.535   2.282  15.542  1.00  0.00    -0.744 OA
ENDBRANCH  65  66
ENDBRANCH  39  60
ENDBRANCH  13  14
ENDBRANCH   6   8
ENDBRANCH   3   4
ENDBRANCH   2   3
ENDBRANCH   1   2
BRANCH   1  70
ATOM     70  C   UNL     1       4.834  -0.909  -4.102  1.00  0.00     0.002 C 
BRANCH  70  71
ATOM     71  C   UNL     1       6.366  -0.942  -3.994  1.00  0.00     0.021 C 
BRANCH  71  72
ATOM     72  C   UNL     1       6.996  -2.286  -4.371  1.00  0.00     0.116 C 
BRANCH  72  73
ATOM     73  N   UNL     1       6.721  -2.580  -5.765  1.00  0.00    -0.356 N 
ATOM     74  C   UNL     1       7.501  -2.410  -6.863  1.00  0.00     0.227 C 
ATOM     75  H   UNL     1       5.832  -2.963  -5.941  1.00  0.00     0.163 HD
ATOM     76  O   UNL     1       6.894  -2.097  -7.892  1.00  0.00    -0.274 OA
BRANCH  74  77
ATOM     77  C   UNL     1       9.031  -2.543  -6.828  1.00  0.00     0.061 C 
ATOM     78  C   UNL     1       9.630  -1.243  -6.202  1.00  0.00     0.053 C 
ATOM     79  C   UNL     1       9.527  -3.732  -5.951  1.00  0.00     0.053 C 
ATOM     80  C   UNL     1      10.730  -1.757  -5.327  1.00  0.00    -0.044 A 
ATOM     81  C   UNL     1      10.677  -3.144  -5.193  1.00  0.00    -0.044 A 
ATOM     82  C   UNL     1      11.692  -1.014  -4.662  1.00  0.00     0.004 A 
ATOM     83  C   UNL     1      11.590  -3.820  -4.398  1.00  0.00     0.004 A 
ATOM     84  C   UNL     1      12.620  -1.686  -3.862  1.00  0.00     0.000 A 
ATOM     85  C   UNL     1      12.570  -3.081  -3.733  1.00  0.00     0.000 A 
BRANCH  77  86
ATOM     86  C   UNL     1       9.581  -2.669  -8.292  1.00  0.00     0.053 C 
BRANCH  86  87
ATOM     87  C   UNL     1       9.377  -3.986  -9.020  1.00  0.00    -0.044 A 
ATOM     88  C   UNL     1       8.121  -4.413  -9.460  1.00  0.00     0.024 A 
ATOM     89  C   UNL     1      10.474  -4.806  -9.305  1.00  0.00     0.024 A 
ATOM     90  C   UNL     1       8.011  -5.625 -10.124  1.00  0.00     0.111 A 
ATOM     91  C   UNL     1      10.266  -5.998  -9.986  1.00  0.00     0.111 A 
ATOM     92  N   UNL     1       9.057  -6.431 -10.398  1.00  0.00    -0.265 NA
ENDBRANCH  86  87
ENDBRANCH  77  86
ENDBRANCH  74  77
ENDBRANCH  72  73
ENDBRANCH  71  72
ENDBRANCH  70  71
ENDBRANCH   1  70
TORSDOF 18
