REMARK SMILES COc1ccc(C(=O)N[C@H](C(=O)NCCCCCCNC(=O)c2ccc(-c3c4nc(c(-c5ccc(S(=O)(=O)[O-])cc5)c5ccc([nH]5)c(-c5ccc(S(=O)(=O)[O-])cc5)c5nc(c(-c6ccc(S(=O)(=O)[O-])cc6)c6ccc3[nH]6)C=C5)C=C4)cc2)C2=C(C)N=N[C@H]2C)c(F)c1F
REMARK SMILES IDX 16 1 15 2 14 3 13 4 11 5 12 6 10 8 9 9 7 10 8 11 6 13 3 14
REMARK SMILES IDX 4 15 92 16 5 17 90 18 93 19 91 20 2 21 1 22 83 23 84 24
REMARK SMILES IDX 88 25 85 26 86 27 87 28 89 29 17 30 18 31 19 32 20 33 21 34
REMARK SMILES IDX 22 36 23 37 24 38 82 39 25 40 81 41 26 42 27 43 28 44 75 45
REMARK SMILES IDX 29 46 80 47 74 48 76 49 30 50 79 51 73 52 72 53 31 55 61 56
REMARK SMILES IDX 42 57 60 58 43 59 46 60 59 61 77 62 44 63 45 64 58 66 78 67
REMARK SMILES IDX 47 68 32 69 33 70 41 71 34 72 40 73 35 74 36 75 37 76 38 77
REMARK SMILES IDX 39 78 62 79 63 80 71 81 64 82 70 83 65 84 66 85 67 86 68 87
REMARK SMILES IDX 69 88 48 89 49 90 57 91 50 92 56 93 51 94 52 95 53 96 54 97
REMARK SMILES IDX 55 98
REMARK H PARENT 13 7 9 12 20 35 76 54 46 65
REMARK Flexibility Score: inf
ROOT
ATOM      1  C   UNL     1       3.371   6.998   6.631  1.00  0.00     0.002 C 
ENDROOT
BRANCH   1   2
ATOM      2  C   UNL     1       1.948   6.872   6.076  1.00  0.00     0.021 C 
BRANCH   2   3
ATOM      3  C   UNL     1       1.620   5.526   5.425  1.00  0.00     0.116 C 
BRANCH   3   4
ATOM      4  N   UNL     1       1.437   4.484   6.422  1.00  0.00    -0.354 N 
ATOM      5  C   UNL     1       0.321   3.805   6.818  1.00  0.00     0.247 C 
ATOM      6  O   UNL     1       0.454   3.016   7.764  1.00  0.00    -0.272 OA
ATOM      7  H   UNL     1       2.261   4.224   6.894  1.00  0.00     0.163 HD
BRANCH   5   8
ATOM      8  C   UNL     1      -1.076   4.014   6.137  1.00  0.00     0.202 C 
BRANCH   8   9
ATOM      9  N   UNL     1      -1.661   2.668   6.207  1.00  0.00    -0.336 N 
ATOM     10  C   UNL     1      -2.439   1.894   5.398  1.00  0.00     0.255 C 
ATOM     11  O   UNL     1      -2.697   0.744   5.755  1.00  0.00    -0.269 OA
ATOM     12  H   UNL     1      -1.434   2.210   7.049  1.00  0.00     0.165 HD
BRANCH  10  13
ATOM     13  C   UNL     1      -3.101   2.389   4.178  1.00  0.00     0.078 A 
ATOM     14  C   UNL     1      -4.526   3.228   1.913  1.00  0.00     0.157 A 
ATOM     15  C   UNL     1      -5.169   2.460   2.881  1.00  0.00     0.050 A 
ATOM     16  C   UNL     1      -3.166   3.518   2.053  1.00  0.00     0.201 A 
ATOM     17  C   UNL     1      -4.457   2.042   4.008  1.00  0.00     0.021 A 
ATOM     18  C   UNL     1      -2.454   3.093   3.172  1.00  0.00     0.175 A 
ATOM     19  F   UNL     1      -2.531   4.217   1.100  1.00  0.00    -0.200 F 
ATOM     20  F   UNL     1      -1.135   3.327   3.227  1.00  0.00    -0.203 F 
BRANCH  14  21
ATOM     21  O   UNL     1      -5.159   3.628   0.768  1.00  0.00    -0.494 OA
ATOM     22  C   UNL     1      -6.324   4.411   1.025  1.00  0.00     0.278 C 
ENDBRANCH  14  21
ENDBRANCH  10  13
ENDBRANCH   8   9
BRANCH   8  23
ATOM     23  C   UNL     1      -1.935   5.029   6.840  1.00  0.00     0.011 C 
ATOM     24  C   UNL     1      -3.260   5.192   6.994  1.00  0.00     0.064 C 
ATOM     25  C   UNL     1      -1.354   6.265   7.466  1.00  0.00     0.156 C 
ATOM     26  C   UNL     1      -4.410   4.331   6.620  1.00  0.00     0.069 C 
ATOM     27  N   UNL     1      -3.587   6.401   7.556  1.00  0.00    -0.160 NA
ATOM     28  N   UNL     1      -2.556   7.073   7.789  1.00  0.00    -0.181 NA
ATOM     29  C   UNL     1      -0.617   6.030   8.786  1.00  0.00     0.040 C 
ENDBRANCH   8  23
ENDBRANCH   5   8
ENDBRANCH   3   4
ENDBRANCH   2   3
ENDBRANCH   1   2
BRANCH   1  30
ATOM     30  C   UNL     1       4.383   7.622   5.666  1.00  0.00     0.002 C 
BRANCH  30  31
ATOM     31  C   UNL     1       3.990   8.981   5.072  1.00  0.00     0.021 C 
BRANCH  31  32
ATOM     32  C   UNL     1       3.515  10.025   6.081  1.00  0.00     0.116 C 
BRANCH  32  33
ATOM     33  N   UNL     1       4.597  10.472   6.943  1.00  0.00    -0.352 N 
ATOM     34  C   UNL     1       5.162  11.720   7.021  1.00  0.00     0.251 C 
ATOM     35  H   UNL     1       4.972   9.793   7.549  1.00  0.00     0.163 HD
ATOM     36  O   UNL     1       6.226  11.886   7.617  1.00  0.00    -0.269 OA
BRANCH  34  37
ATOM     37  C   UNL     1       4.487  12.864   6.374  1.00  0.00     0.039 A 
ATOM     38  C   UNL     1       5.209  13.687   5.508  1.00  0.00     0.014 A 
ATOM     39  C   UNL     1       3.134  13.116   6.627  1.00  0.00     0.014 A 
ATOM     40  C   UNL     1       4.561  14.736   4.852  1.00  0.00     0.010 A 
ATOM     41  C   UNL     1       2.478  14.127   5.930  1.00  0.00     0.010 A 
ATOM     42  C   UNL     1       3.185  14.951   5.040  1.00  0.00    -0.014 A 
BRANCH  42  43
ATOM     43  C   UNL     1       2.469  16.035   4.320  1.00  0.00     0.031 A 
ATOM     44  C   UNL     1       1.889  17.194   5.086  1.00  0.00     0.074 A 
ATOM     45  C   UNL     1       2.286  15.948   2.988  1.00  0.00     0.049 A 
ATOM     46  N   UNL     1       1.185  18.204   4.644  1.00  0.00    -0.248 NA
ATOM     47  C   UNL     1       2.110  17.206   6.541  1.00  0.00     0.031 C 
ATOM     48  C   UNL     1       2.766  14.856   2.137  1.00  0.00     0.029 A 
ATOM     49  N   UNL     1       1.639  16.788   2.116  1.00  0.00    -0.354 N 
ATOM     50  C   UNL     1       0.865  18.961   5.766  1.00  0.00     0.074 A 
ATOM     51  C   UNL     1       1.413  18.270   6.912  1.00  0.00     0.031 C 
ATOM     52  C   UNL     1       2.415  15.104   0.864  1.00  0.00     0.029 A 
ATOM     53  C   UNL     1       1.656  16.351   0.813  1.00  0.00     0.049 A 
ATOM     54  H   UNL     1       1.204  17.625   2.398  1.00  0.00     0.167 HD
ATOM     55  C   UNL     1       0.191  20.135   5.834  1.00  0.00     0.031 A 
ATOM     56  C   UNL     1       1.117  16.888  -0.299  1.00  0.00     0.031 A 
ATOM     57  C   UNL     1      -0.344  20.826   4.692  1.00  0.00     0.049 A 
ATOM     58  C   UNL     1       0.369  18.189  -0.199  1.00  0.00     0.074 A 
ATOM     59  C   UNL     1      -0.993  22.048   4.651  1.00  0.00     0.029 A 
ATOM     60  N   UNL     1      -0.295  20.356   3.388  1.00  0.00    -0.354 N 
ATOM     61  N   UNL     1       0.133  18.922   0.863  1.00  0.00    -0.248 NA
ATOM     62  C   UNL     1      -0.176  18.741  -1.447  1.00  0.00     0.031 C 
ATOM     63  C   UNL     1      -1.377  22.295   3.329  1.00  0.00     0.029 A 
ATOM     64  C   UNL     1      -0.920  21.252   2.538  1.00  0.00     0.049 A 
ATOM     65  H   UNL     1       0.124  19.510   3.108  1.00  0.00     0.167 HD
ATOM     66  C   UNL     1      -0.566  20.034   0.407  1.00  0.00     0.074 A 
ATOM     67  C   UNL     1      -0.703  19.883  -1.028  1.00  0.00     0.031 C 
ATOM     68  C   UNL     1      -1.050  21.086   1.112  1.00  0.00     0.031 A 
BRANCH  55  69
ATOM     69  C   UNL     1      -0.009  20.741   7.198  1.00  0.00    -0.014 A 
ATOM     70  C   UNL     1       1.070  21.292   7.913  1.00  0.00     0.010 A 
ATOM     71  C   UNL     1      -1.298  20.791   7.761  1.00  0.00     0.010 A 
ATOM     72  C   UNL     1       0.873  21.839   9.184  1.00  0.00     0.020 A 
ATOM     73  C   UNL     1      -1.504  21.362   9.020  1.00  0.00     0.020 A 
ATOM     74  C   UNL     1      -0.413  21.865   9.732  1.00  0.00     0.054 A 
BRANCH  74  75
ATOM     75  S   UNL     1      -0.643  22.593  11.377  1.00  0.00     0.124 S 
ATOM     76  O   UNL     1      -0.083  21.559  12.244  1.00  0.00    -0.237 OA
ATOM     77  O   UNL     1       0.132  23.829  11.293  1.00  0.00    -0.237 OA
ATOM     78  O   UNL     1      -2.089  22.774  11.478  1.00  0.00    -0.744 OA
ENDBRANCH  74  75
ENDBRANCH  55  69
BRANCH  56  79
ATOM     79  C   UNL     1       1.281  16.201  -1.609  1.00  0.00    -0.014 A 
ATOM     80  C   UNL     1       2.137  16.733  -2.590  1.00  0.00     0.010 A 
ATOM     81  C   UNL     1       0.597  15.001  -1.876  1.00  0.00     0.010 A 
ATOM     82  C   UNL     1       2.295  16.085  -3.818  1.00  0.00     0.020 A 
ATOM     83  C   UNL     1       0.773  14.337  -3.094  1.00  0.00     0.020 A 
ATOM     84  C   UNL     1       1.614  14.890  -4.061  1.00  0.00     0.054 A 
BRANCH  84  85
ATOM     85  S   UNL     1       1.880  14.034  -5.640  1.00  0.00     0.124 S 
ATOM     86  O   UNL     1       1.111  14.859  -6.565  1.00  0.00    -0.237 OA
ATOM     87  O   UNL     1       3.332  14.096  -5.792  1.00  0.00    -0.237 OA
ATOM     88  O   UNL     1       1.345  12.697  -5.396  1.00  0.00    -0.744 OA
ENDBRANCH  84  85
ENDBRANCH  56  79
BRANCH  68  89
ATOM     89  C   UNL     1      -1.748  22.175   0.342  1.00  0.00    -0.014 A 
ATOM     90  C   UNL     1      -3.038  21.981  -0.183  1.00  0.00     0.010 A 
ATOM     91  C   UNL     1      -1.127  23.428   0.195  1.00  0.00     0.010 A 
ATOM     92  C   UNL     1      -3.683  23.015  -0.866  1.00  0.00     0.020 A 
ATOM     93  C   UNL     1      -1.780  24.472  -0.465  1.00  0.00     0.020 A 
ATOM     94  C   UNL     1      -3.050  24.255  -1.003  1.00  0.00     0.054 A 
BRANCH  94  95
ATOM     95  S   UNL     1      -3.929  25.596  -1.850  1.00  0.00     0.124 S 
ATOM     96  O   UNL     1      -3.822  25.193  -3.249  1.00  0.00    -0.237 OA
ATOM     97  O   UNL     1      -5.269  25.518  -1.274  1.00  0.00    -0.237 OA
ATOM     98  O   UNL     1      -3.170  26.791  -1.486  1.00  0.00    -0.744 OA
ENDBRANCH  94  95
ENDBRANCH  68  89
ENDBRANCH  42  43
ENDBRANCH  34  37
ENDBRANCH  32  33
ENDBRANCH  31  32
ENDBRANCH  30  31
ENDBRANCH   1  30
TORSDOF 20
