REMARK SMILES COCc1cc(OCC(=O)NCCCCCCNC(=O)c2ccc(-c3c4nc(c(-c5ccc(S(=O)(=O)[O-])cc5)c5ccc([nH]5)c(-c5ccc(S(=O)(=O)[O-])cc5)c5nc(c(-c6ccc(S(=O)(=O)[O-])cc6)c6ccc3[nH]6)C=C5)C=C4)cc2)nc(Nc2cccc(C)c2C)n1
REMARK SMILES IDX 14 1 13 2 12 3 11 4 9 5 10 6 8 8 7 9 6 10 4 11 5 12 92 13
REMARK SMILES IDX 82 14 81 15 3 16 2 17 1 18 83 19 84 21 85 22 90 23 86 24
REMARK SMILES IDX 88 25 91 26 87 27 89 28 15 29 16 30 17 31 18 32 19 33 20 35
REMARK SMILES IDX 21 36 22 37 80 38 23 39 79 40 24 41 25 42 26 43 73 44 27 45
REMARK SMILES IDX 78 46 72 47 74 48 28 49 77 50 71 51 70 52 29 54 59 55 40 56
REMARK SMILES IDX 58 57 41 58 44 59 57 60 75 61 42 62 43 63 56 65 76 66 45 67
REMARK SMILES IDX 30 68 31 69 39 70 32 71 38 72 33 73 34 74 35 75 36 76 37 77
REMARK SMILES IDX 60 78 61 79 69 80 62 81 68 82 63 83 64 84 65 85 66 86 67 87
REMARK SMILES IDX 46 88 47 89 55 90 48 91 54 92 49 93 50 94 51 95 52 96 53 97
REMARK H PARENT 11 7 83 20 18 34 74 53 44 64
REMARK Flexibility Score: inf
ROOT
ATOM      1  C   UNL     1      -3.042  -4.034  -0.061  1.00  0.00     0.002 C 
ENDROOT
BRANCH   1   2
ATOM      2  C   UNL     1      -2.087  -4.405   1.082  1.00  0.00     0.021 C 
BRANCH   2   3
ATOM      3  C   UNL     1      -0.746  -4.991   0.643  1.00  0.00     0.116 C 
BRANCH   3   4
ATOM      4  N   UNL     1       0.029  -4.048  -0.140  1.00  0.00    -0.353 N 
ATOM      5  C   UNL     1       1.236  -3.493   0.154  1.00  0.00     0.258 C 
ATOM      6  O   UNL     1       1.743  -2.703  -0.646  1.00  0.00    -0.271 OA
ATOM      7  H   UNL     1      -0.371  -3.774  -0.997  1.00  0.00     0.163 HD
BRANCH   5   8
ATOM      8  C   UNL     1       1.955  -3.867   1.459  1.00  0.00     0.331 C 
BRANCH   8   9
ATOM      9  O   UNL     1       1.297  -3.602   2.684  1.00  0.00    -0.467 OA
BRANCH   9  10
ATOM     10  C   UNL     1       0.953  -2.313   2.970  1.00  0.00     0.218 A 
ATOM     11  C   UNL     1       0.825  -0.001   2.641  1.00  0.00     0.076 A 
ATOM     12  C   UNL     1       1.376  -1.209   2.272  1.00  0.00     0.095 A 
ATOM     13  N   UNL     1      -0.024   0.102   3.680  1.00  0.00    -0.215 NA
ATOM     14  C   UNL     1      -0.337  -1.014   4.354  1.00  0.00     0.230 A 
ATOM     15  N   UNL     1       0.130  -2.226   4.027  1.00  0.00    -0.177 NA
BRANCH  11  16
ATOM     16  C   UNL     1       1.152   1.258   1.870  1.00  0.00     0.216 C 
BRANCH  16  17
ATOM     17  O   UNL     1       0.370   1.444   0.684  1.00  0.00    -0.378 OA
ATOM     18  C   UNL     1       0.691   0.549  -0.371  1.00  0.00     0.195 C 
ENDBRANCH  16  17
ENDBRANCH  11  16
BRANCH  14  19
ATOM     19  N   UNL     1      -1.147  -0.954   5.484  1.00  0.00    -0.324 N 
ATOM     20  H   UNL     1      -1.252  -1.806   5.965  1.00  0.00     0.170 HD
BRANCH  19  21
ATOM     21  C   UNL     1      -1.837   0.130   6.044  1.00  0.00     0.044 A 
ATOM     22  C   UNL     1      -1.573   0.438   7.389  1.00  0.00     0.026 A 
ATOM     23  C   UNL     1      -2.734   0.947   5.314  1.00  0.00    -0.025 A 
ATOM     24  C   UNL     1      -2.150   1.546   8.003  1.00  0.00     0.002 A 
ATOM     25  C   UNL     1      -3.296   2.092   5.932  1.00  0.00    -0.046 A 
ATOM     26  C   UNL     1      -3.126   0.596   3.898  1.00  0.00     0.047 C 
ATOM     27  C   UNL     1      -2.999   2.371   7.276  1.00  0.00     0.004 A 
ATOM     28  C   UNL     1      -4.242   3.030   5.229  1.00  0.00     0.044 C 
ENDBRANCH  19  21
ENDBRANCH  14  19
ENDBRANCH   9  10
ENDBRANCH   8   9
ENDBRANCH   5   8
ENDBRANCH   3   4
ENDBRANCH   2   3
ENDBRANCH   1   2
BRANCH   1  29
ATOM     29  C   UNL     1      -3.337  -5.144  -1.075  1.00  0.00     0.002 C 
BRANCH  29  30
ATOM     30  C   UNL     1      -3.833  -6.468  -0.486  1.00  0.00     0.021 C 
BRANCH  30  31
ATOM     31  C   UNL     1      -5.105  -6.375   0.348  1.00  0.00     0.116 C 
BRANCH  31  32
ATOM     32  N   UNL     1      -6.252  -5.949  -0.435  1.00  0.00    -0.352 N 
ATOM     33  C   UNL     1      -7.503  -6.502  -0.528  1.00  0.00     0.251 C 
ATOM     34  H   UNL     1      -6.110  -5.142  -0.981  1.00  0.00     0.163 HD
ATOM     35  O   UNL     1      -8.283  -6.084  -1.387  1.00  0.00    -0.269 OA
BRANCH  33  36
ATOM     36  C   UNL     1      -7.923  -7.601   0.373  1.00  0.00     0.039 A 
ATOM     37  C   UNL     1      -8.715  -8.629  -0.148  1.00  0.00     0.014 A 
ATOM     38  C   UNL     1      -7.592  -7.604   1.732  1.00  0.00     0.014 A 
ATOM     39  C   UNL     1      -9.148  -9.667   0.682  1.00  0.00     0.010 A 
ATOM     40  C   UNL     1      -7.959  -8.680   2.540  1.00  0.00     0.010 A 
ATOM     41  C   UNL     1      -8.763  -9.709   2.032  1.00  0.00    -0.014 A 
BRANCH  41  42
ATOM     42  C   UNL     1      -9.240 -10.797   2.926  1.00  0.00     0.031 A 
ATOM     43  C   UNL     1     -10.167 -10.484   4.071  1.00  0.00     0.074 A 
ATOM     44  C   UNL     1      -8.832 -12.064   2.719  1.00  0.00     0.049 A 
ATOM     45  N   UNL     1     -10.717 -11.299   4.936  1.00  0.00    -0.248 NA
ATOM     46  C   UNL     1     -10.504  -9.068   4.286  1.00  0.00     0.031 C 
ATOM     47  C   UNL     1      -7.912 -12.498   1.666  1.00  0.00     0.029 A 
ATOM     48  N   UNL     1      -9.153 -13.225   3.378  1.00  0.00    -0.354 N 
ATOM     49  C   UNL     1     -11.456 -10.495   5.798  1.00  0.00     0.074 A 
ATOM     50  C   UNL     1     -11.230  -9.126   5.392  1.00  0.00     0.031 C 
ATOM     51  C   UNL     1      -7.782 -13.833   1.719  1.00  0.00     0.029 A 
ATOM     52  C   UNL     1      -8.583 -14.347   2.826  1.00  0.00     0.049 A 
ATOM     53  H   UNL     1      -9.736 -13.251   4.171  1.00  0.00     0.167 HD
ATOM     54  C   UNL     1     -12.271 -10.859   6.818  1.00  0.00     0.031 A 
ATOM     55  C   UNL     1      -8.707 -15.646   3.161  1.00  0.00     0.031 A 
ATOM     56  C   UNL     1     -12.495 -12.221   7.224  1.00  0.00     0.049 A 
ATOM     57  C   UNL     1      -9.609 -16.030   4.301  1.00  0.00     0.074 A 
ATOM     58  C   UNL     1     -13.321 -12.700   8.226  1.00  0.00     0.029 A 
ATOM     59  N   UNL     1     -11.890 -13.327   6.645  1.00  0.00    -0.354 N 
ATOM     60  N   UNL     1     -10.335 -15.260   5.075  1.00  0.00    -0.248 NA
ATOM     61  C   UNL     1      -9.723 -17.465   4.597  1.00  0.00     0.031 C 
ATOM     62  C   UNL     1     -13.184 -14.092   8.279  1.00  0.00     0.029 A 
ATOM     63  C   UNL     1     -12.315 -14.485   7.273  1.00  0.00     0.049 A 
ATOM     64  H   UNL     1     -11.251 -13.293   5.896  1.00  0.00     0.167 HD
ATOM     65  C   UNL     1     -11.025 -16.119   5.925  1.00  0.00     0.074 A 
ATOM     66  C   UNL     1     -10.631 -17.466   5.564  1.00  0.00     0.031 C 
ATOM     67  C   UNL     1     -11.912 -15.820   6.906  1.00  0.00     0.031 A 
BRANCH  54  68
ATOM     68  C   UNL     1     -12.969  -9.750   7.564  1.00  0.00    -0.014 A 
ATOM     69  C   UNL     1     -13.969  -8.976   6.943  1.00  0.00     0.010 A 
ATOM     70  C   UNL     1     -12.613  -9.464   8.893  1.00  0.00     0.010 A 
ATOM     71  C   UNL     1     -14.546  -7.894   7.612  1.00  0.00     0.020 A 
ATOM     72  C   UNL     1     -13.212  -8.402   9.578  1.00  0.00     0.020 A 
ATOM     73  C   UNL     1     -14.154  -7.606   8.922  1.00  0.00     0.054 A 
BRANCH  73  74
ATOM     74  S   UNL     1     -14.897  -6.179   9.761  1.00  0.00     0.124 S 
ATOM     75  O   UNL     1     -14.202  -5.063   9.124  1.00  0.00    -0.237 OA
ATOM     76  O   UNL     1     -16.313  -6.309   9.427  1.00  0.00    -0.237 OA
ATOM     77  O   UNL     1     -14.569  -6.396  11.168  1.00  0.00    -0.744 OA
ENDBRANCH  73  74
ENDBRANCH  54  68
BRANCH  55  78
ATOM     78  C   UNL     1      -8.007 -16.685   2.357  1.00  0.00    -0.014 A 
ATOM     79  C   UNL     1      -8.737 -17.517   1.489  1.00  0.00     0.010 A 
ATOM     80  C   UNL     1      -6.610 -16.831   2.430  1.00  0.00     0.010 A 
ATOM     81  C   UNL     1      -8.086 -18.483   0.717  1.00  0.00     0.020 A 
ATOM     82  C   UNL     1      -5.952 -17.779   1.641  1.00  0.00     0.020 A 
ATOM     83  C   UNL     1      -6.696 -18.605   0.795  1.00  0.00     0.054 A 
BRANCH  83  84
ATOM     84  S   UNL     1      -5.865 -19.819  -0.267  1.00  0.00     0.124 S 
ATOM     85  O   UNL     1      -6.213 -21.079   0.382  1.00  0.00    -0.237 OA
ATOM     86  O   UNL     1      -6.489 -19.582  -1.566  1.00  0.00    -0.237 OA
ATOM     87  O   UNL     1      -4.457 -19.439  -0.183  1.00  0.00    -0.744 OA
ENDBRANCH  83  84
ENDBRANCH  55  78
BRANCH  67  88
ATOM     88  C   UNL     1     -12.558 -16.975   7.625  1.00  0.00    -0.014 A 
ATOM     89  C   UNL     1     -11.836 -17.779   8.524  1.00  0.00     0.010 A 
ATOM     90  C   UNL     1     -13.922 -17.243   7.410  1.00  0.00     0.010 A 
ATOM     91  C   UNL     1     -12.455 -18.861   9.157  1.00  0.00     0.020 A 
ATOM     92  C   UNL     1     -14.552 -18.305   8.063  1.00  0.00     0.020 A 
ATOM     93  C   UNL     1     -13.808 -19.121   8.917  1.00  0.00     0.054 A 
BRANCH  93  94
ATOM     94  S   UNL     1     -14.594 -20.522   9.759  1.00  0.00     0.124 S 
ATOM     95  O   UNL     1     -14.078 -21.659   9.003  1.00  0.00    -0.237 OA
ATOM     96  O   UNL     1     -14.094 -20.398  11.127  1.00  0.00    -0.237 OA
ATOM     97  O   UNL     1     -16.023 -20.263   9.600  1.00  0.00    -0.744 OA
ENDBRANCH  93  94
ENDBRANCH  67  88
ENDBRANCH  41  42
ENDBRANCH  33  36
ENDBRANCH  31  32
ENDBRANCH  30  31
ENDBRANCH  29  30
ENDBRANCH   1  29
TORSDOF 22
