REMARK SMILES COc1ccc(NC(=O)[C@H]2[C@@H](C(=O)NCCCCCCNC(=O)c3ccc(-c4c5nc(c(-c6ccc(S(=O)(=O)[O-])cc6)c6ccc([nH]6)c(-c6ccc(S(=O)(=O)[O-])cc6)c6nc(c(-c7ccc(S(=O)(=O)[O-])cc7)c7ccc4[nH]7)C=C6)C=C5)cc3)[C@H]3C=C[C@@H]2C3)c(C)c1
REMARK SMILES IDX 17 1 16 2 15 3 14 4 12 5 13 6 11 8 10 9 87 10 84 11 86 12
REMARK SMILES IDX 88 13 85 14 8 15 7 16 9 18 6 19 3 20 4 21 91 22 5 23 89 24
REMARK SMILES IDX 90 25 2 26 1 27 18 28 19 29 20 30 21 31 22 32 23 34 24 35
REMARK SMILES IDX 25 36 83 37 26 38 82 39 27 40 28 41 29 42 76 43 30 44 81 45
REMARK SMILES IDX 75 46 77 47 31 48 80 49 74 50 73 51 32 53 62 54 43 55 61 56
REMARK SMILES IDX 44 57 47 58 60 59 78 60 45 61 46 62 59 64 79 65 48 66 33 67
REMARK SMILES IDX 34 68 42 69 35 70 41 71 36 72 37 73 38 74 39 75 40 76 63 77
REMARK SMILES IDX 64 78 72 79 65 80 71 81 66 82 67 83 68 84 69 85 70 86 49 87
REMARK SMILES IDX 50 88 58 89 51 90 57 91 52 92 53 93 54 94 55 95 56 96
REMARK H PARENT 14 7 7 17 21 33 77 52 47 63
REMARK Flexibility Score: inf
ROOT
ATOM      1  C   UNL     1       1.934   3.118   0.918  1.00  0.00     0.002 C 
ENDROOT
BRANCH   1   2
ATOM      2  C   UNL     1       2.309   3.404   2.377  1.00  0.00     0.021 C 
BRANCH   2   3
ATOM      3  C   UNL     1       2.173   2.223   3.342  1.00  0.00     0.116 C 
BRANCH   3   4
ATOM      4  N   UNL     1       2.907   1.047   2.916  1.00  0.00    -0.356 N 
ATOM      5  C   UNL     1       3.911   0.351   3.520  1.00  0.00     0.224 C 
ATOM      6  O   UNL     1       4.270  -0.708   3.001  1.00  0.00    -0.275 OA
ATOM      7  H   UNL     1       2.632   0.690   2.041  1.00  0.00     0.163 HD
BRANCH   5   8
ATOM      8  C   UNL     1       4.435   0.803   4.875  1.00  0.00     0.098 C 
ATOM      9  C   UNL     1       5.184   2.176   5.049  1.00  0.00     0.099 C 
ATOM     10  C   UNL     1       6.462   1.752   5.835  1.00  0.00     0.025 C 
ATOM     11  C   UNL     1       5.441  -0.203   5.505  1.00  0.00     0.025 C 
ATOM     12  C   UNL     1       7.353   0.945   4.926  1.00  0.00    -0.027 C 
ATOM     13  C   UNL     1       5.927   0.613   6.707  1.00  0.00     0.017 C 
ATOM     14  C   UNL     1       6.734  -0.225   4.718  1.00  0.00    -0.027 C 
BRANCH   9  15
ATOM     15  C   UNL     1       5.515   2.977   3.800  1.00  0.00     0.228 C 
ATOM     16  N   UNL     1       5.946   4.273   3.838  1.00  0.00    -0.326 N 
ATOM     17  H   UNL     1       5.919   4.713   2.958  1.00  0.00     0.169 HD
ATOM     18  O   UNL     1       5.453   2.471   2.676  1.00  0.00    -0.274 OA
BRANCH  16  19
ATOM     19  C   UNL     1       6.420   5.119   4.861  1.00  0.00     0.044 A 
ATOM     20  C   UNL     1       8.006   6.309   6.826  1.00  0.00     0.119 A 
ATOM     21  C   UNL     1       6.940   5.507   7.199  1.00  0.00     0.048 A 
ATOM     22  C   UNL     1       8.140   6.705   5.502  1.00  0.00     0.052 A 
ATOM     23  C   UNL     1       6.142   4.927   6.214  1.00  0.00     0.030 A 
ATOM     24  C   UNL     1       7.317   6.148   4.505  1.00  0.00    -0.024 A 
ATOM     25  C   UNL     1       7.520   6.626   3.091  1.00  0.00     0.047 C 
BRANCH  20  26
ATOM     26  O   UNL     1       8.927   6.746   7.738  1.00  0.00    -0.497 OA
ATOM     27  C   UNL     1       9.621   5.635   8.314  1.00  0.00     0.278 C 
ENDBRANCH  20  26
ENDBRANCH  16  19
ENDBRANCH   9  15
ENDBRANCH   5   8
ENDBRANCH   3   4
ENDBRANCH   2   3
ENDBRANCH   1   2
BRANCH   1  28
ATOM     28  C   UNL     1       0.504   2.620   0.670  1.00  0.00     0.002 C 
BRANCH  28  29
ATOM     29  C   UNL     1      -0.612   3.426   1.335  1.00  0.00     0.021 C 
BRANCH  29  30
ATOM     30  C   UNL     1      -0.636   4.901   0.939  1.00  0.00     0.116 C 
BRANCH  30  31
ATOM     31  N   UNL     1      -1.768   5.261   0.123  1.00  0.00    -0.352 N 
ATOM     32  C   UNL     1      -2.164   6.558  -0.215  1.00  0.00     0.251 C 
ATOM     33  H   UNL     1      -2.316   4.522  -0.229  1.00  0.00     0.163 HD
ATOM     34  O   UNL     1      -3.290   6.824  -0.606  1.00  0.00    -0.269 OA
BRANCH  32  35
ATOM     35  C   UNL     1      -1.104   7.580  -0.230  1.00  0.00     0.039 A 
ATOM     36  C   UNL     1      -0.693   8.053  -1.482  1.00  0.00     0.014 A 
ATOM     37  C   UNL     1      -0.389   7.889   0.924  1.00  0.00     0.014 A 
ATOM     38  C   UNL     1       0.522   8.727  -1.595  1.00  0.00     0.010 A 
ATOM     39  C   UNL     1       0.855   8.483   0.801  1.00  0.00     0.010 A 
ATOM     40  C   UNL     1       1.324   8.870  -0.459  1.00  0.00    -0.014 A 
BRANCH  40  41
ATOM     41  C   UNL     1       2.697   9.358  -0.518  1.00  0.00     0.031 A 
ATOM     42  C   UNL     1       2.994  10.770  -0.190  1.00  0.00     0.074 A 
ATOM     43  C   UNL     1       3.705   8.534  -0.878  1.00  0.00     0.049 A 
ATOM     44  N   UNL     1       3.951  11.453  -0.729  1.00  0.00    -0.248 NA
ATOM     45  C   UNL     1       2.190  11.541   0.755  1.00  0.00     0.031 C 
ATOM     46  C   UNL     1       5.137   8.814  -0.793  1.00  0.00     0.029 A 
ATOM     47  N   UNL     1       3.634   7.353  -1.617  1.00  0.00    -0.354 N 
ATOM     48  C   UNL     1       4.063  12.624  -0.017  1.00  0.00     0.074 A 
ATOM     49  C   UNL     1       2.900  12.670   0.841  1.00  0.00     0.031 C 
ATOM     50  C   UNL     1       5.774   8.043  -1.688  1.00  0.00     0.029 A 
ATOM     51  C   UNL     1       4.757   7.343  -2.458  1.00  0.00     0.049 A 
ATOM     52  H   UNL     1       2.934   6.663  -1.561  1.00  0.00     0.167 HD
ATOM     53  C   UNL     1       5.195  13.377  -0.095  1.00  0.00     0.031 A 
ATOM     54  C   UNL     1       4.696   7.282  -3.819  1.00  0.00     0.031 A 
ATOM     55  C   UNL     1       6.182  12.802  -0.998  1.00  0.00     0.049 A 
ATOM     56  C   UNL     1       5.405   8.437  -4.494  1.00  0.00     0.074 A 
ATOM     57  C   UNL     1       7.303  12.017  -0.782  1.00  0.00     0.029 A 
ATOM     58  N   UNL     1       5.920  12.751  -2.361  1.00  0.00    -0.354 N 
ATOM     59  N   UNL     1       5.747   9.539  -3.887  1.00  0.00    -0.248 NA
ATOM     60  C   UNL     1       5.730   8.464  -5.918  1.00  0.00     0.031 C 
ATOM     61  C   UNL     1       7.678  11.436  -2.019  1.00  0.00     0.029 A 
ATOM     62  C   UNL     1       6.801  11.890  -2.988  1.00  0.00     0.049 A 
ATOM     63  H   UNL     1       5.209  13.257  -2.817  1.00  0.00     0.167 HD
ATOM     64  C   UNL     1       6.303  10.410  -4.790  1.00  0.00     0.074 A 
ATOM     65  C   UNL     1       6.285   9.682  -6.045  1.00  0.00     0.031 C 
ATOM     66  C   UNL     1       6.719  11.659  -4.424  1.00  0.00     0.031 A 
BRANCH  53  67
ATOM     67  C   UNL     1       5.497  14.448   0.922  1.00  0.00    -0.014 A 
ATOM     68  C   UNL     1       6.798  14.565   1.448  1.00  0.00     0.010 A 
ATOM     69  C   UNL     1       4.522  15.323   1.439  1.00  0.00     0.010 A 
ATOM     70  C   UNL     1       7.091  15.428   2.512  1.00  0.00     0.020 A 
ATOM     71  C   UNL     1       4.793  16.167   2.528  1.00  0.00     0.020 A 
ATOM     72  C   UNL     1       6.077  16.204   3.067  1.00  0.00     0.054 A 
BRANCH  72  73
ATOM     73  S   UNL     1       6.454  17.222   4.520  1.00  0.00     0.124 S 
ATOM     74  O   UNL     1       7.083  16.262   5.425  1.00  0.00    -0.237 OA
ATOM     75  O   UNL     1       7.341  18.240   3.966  1.00  0.00    -0.237 OA
ATOM     76  O   UNL     1       5.144  17.704   4.953  1.00  0.00    -0.744 OA
ENDBRANCH  72  73
ENDBRANCH  53  67
BRANCH  54  77
ATOM     77  C   UNL     1       3.480   6.612  -4.357  1.00  0.00    -0.014 A 
ATOM     78  C   UNL     1       3.345   5.222  -4.155  1.00  0.00     0.010 A 
ATOM     79  C   UNL     1       2.339   7.366  -4.680  1.00  0.00     0.010 A 
ATOM     80  C   UNL     1       2.080   4.625  -4.128  1.00  0.00     0.020 A 
ATOM     81  C   UNL     1       1.071   6.768  -4.656  1.00  0.00     0.020 A 
ATOM     82  C   UNL     1       0.948   5.415  -4.323  1.00  0.00     0.054 A 
BRANCH  82  83
ATOM     83  S   UNL     1      -0.683   4.685  -3.983  1.00  0.00     0.124 S 
ATOM     84  O   UNL     1      -0.732   3.576  -4.930  1.00  0.00    -0.237 OA
ATOM     85  O   UNL     1      -0.570   4.306  -2.575  1.00  0.00    -0.237 OA
ATOM     86  O   UNL     1      -1.605   5.784  -4.252  1.00  0.00    -0.744 OA
ENDBRANCH  82  83
ENDBRANCH  54  77
BRANCH  66  87
ATOM     87  C   UNL     1       7.175  12.765  -5.349  1.00  0.00    -0.014 A 
ATOM     88  C   UNL     1       6.868  12.838  -6.716  1.00  0.00     0.010 A 
ATOM     89  C   UNL     1       7.864  13.874  -4.794  1.00  0.00     0.010 A 
ATOM     90  C   UNL     1       7.278  13.927  -7.501  1.00  0.00     0.020 A 
ATOM     91  C   UNL     1       8.238  14.984  -5.556  1.00  0.00     0.020 A 
ATOM     92  C   UNL     1       7.963  14.993  -6.916  1.00  0.00     0.054 A 
BRANCH  92  93
ATOM     93  S   UNL     1       8.425  16.426  -7.922  1.00  0.00     0.124 S 
ATOM     94  O   UNL     1       9.724  16.017  -8.451  1.00  0.00    -0.237 OA
ATOM     95  O   UNL     1       7.346  16.501  -8.904  1.00  0.00    -0.237 OA
ATOM     96  O   UNL     1       8.457  17.524  -6.959  1.00  0.00    -0.744 OA
ENDBRANCH  92  93
ENDBRANCH  66  87
ENDBRANCH  40  41
ENDBRANCH  32  35
ENDBRANCH  30  31
ENDBRANCH  29  30
ENDBRANCH  28  29
ENDBRANCH   1  28
TORSDOF 19
