REMARK SMILES O=C(CCC/[NH+]=C1/CCCc2ccccc2N1)NCCCCCCNC(=O)c1ccc(-c2c3nc(c(-c4ccc(S(=O)(=O)[O-])cc4)c4ccc([nH]4)c(-c4ccc(S(=O)(=O)[O-])cc4)c4nc(c(-c5ccc(S(=O)(=O)[O-])cc5)c5ccc2[nH]5)C=C4)C=C3)cc1
REMARK SMILES IDX 20 1 19 2 18 3 1 4 2 5 3 7 4 8 5 9 6 10 7 11 17 13 8 15 9 16
REMARK SMILES IDX 16 18 11 19 15 20 12 21 14 22 13 23 10 24 21 26 22 27 23 28
REMARK SMILES IDX 24 29 25 30 26 31 27 33 28 34 29 35 87 36 30 37 86 38 31 39
REMARK SMILES IDX 32 40 33 41 80 42 34 43 85 44 79 45 81 46 35 47 84 48 78 49
REMARK SMILES IDX 77 50 36 52 66 53 47 54 65 55 48 56 51 57 64 58 82 59 49 60
REMARK SMILES IDX 50 61 63 63 83 64 52 65 37 66 38 67 46 68 39 69 45 70 40 71
REMARK SMILES IDX 41 72 42 73 43 74 44 75 67 76 68 77 76 78 69 79 75 80 70 81
REMARK SMILES IDX 71 82 72 83 73 84 74 85 53 86 54 87 62 88 55 89 61 90 56 91
REMARK SMILES IDX 57 92 58 93 59 94 60 95
REMARK H PARENT 18 6 6 12 17 14 25 32 81 51 51 62
REMARK Flexibility Score: 90.00
ROOT
ATOM      1  C   UNL     1       3.066  -2.400  -2.587  1.00  0.00     0.021 C 
ENDROOT
BRANCH   1   2
ATOM      2  C   UNL     1       2.403  -2.487  -1.215  1.00  0.00     0.116 C 
BRANCH   2   3
ATOM      3  N   UNL     1       2.706  -1.325  -0.403  1.00  0.00    -0.356 N 
ATOM      4  O   UNL     1       1.044  -1.639   1.130  1.00  0.00    -0.275 OA
ATOM      5  C   UNL     1       2.046  -1.032   0.763  1.00  0.00     0.220 C 
ATOM      6  H   UNL     1       3.419  -0.716  -0.703  1.00  0.00     0.163 HD
BRANCH   5   7
ATOM      7  C   UNL     1       2.572   0.166   1.543  1.00  0.00     0.104 C 
BRANCH   7   8
ATOM      8  C   UNL     1       4.035   0.121   1.978  1.00  0.00     0.056 C 
BRANCH   8   9
ATOM      9  C   UNL     1       5.122  -0.175   0.957  1.00  0.00     0.234 C 
BRANCH   9  10
ATOM     10  N   UNL     1       5.528   0.885   0.059  1.00  0.00    -0.278 N 
ATOM     11  C   UNL     1       4.991   1.443  -0.958  1.00  0.00     0.247 C 
ATOM     12  H   UNL     1       6.412   1.258   0.279  1.00  0.00     0.304 HD
ATOM     13  N   UNL     1       3.696   1.351  -1.396  1.00  0.00    -0.245 N 
ATOM     14  H   UNL     1       3.038   1.295  -0.666  1.00  0.00     0.312 HD
BRANCH  11  15
ATOM     15  C   UNL     1       5.959   2.328  -1.720  1.00  0.00     0.128 C 
BRANCH  15  16
ATOM     16  C   UNL     1       6.196   1.800  -3.121  1.00  0.00     0.018 CG0
ATOM     17  G   UNL     1       5.089   2.245  -4.055  1.00  0.00     0.000 G0
ENDBRANCH  15  16
ENDBRANCH  11  15
BRANCH  13  18
ATOM     18  C   UNL     1       3.114   1.321  -2.684  1.00  0.00     0.127 A 
ATOM     19  C   UNL     1       3.777   1.521  -3.905  1.00  0.00    -0.001 A 
ATOM     20  C   UNL     1       1.762   0.895  -2.739  1.00  0.00     0.052 A 
ATOM     21  C   UNL     1       3.137   1.138  -5.109  1.00  0.00     0.008 A 
ATOM     22  C   UNL     1       1.138   0.536  -3.937  1.00  0.00     0.004 A 
ATOM     23  C   UNL     1       1.845   0.619  -5.123  1.00  0.00     0.001 A 
BRANCH  19  24
ATOM     24  C   UNL     1       5.089   2.245  -4.055  1.00  0.00     0.040 CG0
ATOM     25  G   UNL     1       6.196   1.800  -3.121  1.00  0.00     0.000 G0
ENDBRANCH  19  24
ENDBRANCH  13  18
ENDBRANCH   9  10
ENDBRANCH   8   9
ENDBRANCH   7   8
ENDBRANCH   5   7
ENDBRANCH   2   3
ENDBRANCH   1   2
BRANCH   1  26
ATOM     26  C   UNL     1       4.592  -2.561  -2.594  1.00  0.00     0.002 C 
BRANCH  26  27
ATOM     27  C   UNL     1       5.087  -4.005  -2.700  1.00  0.00     0.002 C 
BRANCH  27  28
ATOM     28  C   UNL     1       4.454  -4.835  -3.820  1.00  0.00     0.021 C 
BRANCH  28  29
ATOM     29  C   UNL     1       4.430  -4.159  -5.189  1.00  0.00     0.116 C 
BRANCH  29  30
ATOM     30  N   UNL     1       5.730  -4.173  -5.841  1.00  0.00    -0.352 N 
ATOM     31  C   UNL     1       6.133  -4.896  -6.943  1.00  0.00     0.251 C 
ATOM     32  H   UNL     1       6.413  -3.588  -5.441  1.00  0.00     0.163 HD
ATOM     33  O   UNL     1       7.308  -4.930  -7.274  1.00  0.00    -0.269 OA
BRANCH  31  34
ATOM     34  C   UNL     1       5.118  -5.664  -7.697  1.00  0.00     0.039 A 
ATOM     35  C   UNL     1       3.948  -5.040  -8.136  1.00  0.00     0.014 A 
ATOM     36  C   UNL     1       5.308  -7.033  -7.897  1.00  0.00     0.014 A 
ATOM     37  C   UNL     1       2.894  -5.816  -8.606  1.00  0.00     0.010 A 
ATOM     38  C   UNL     1       4.276  -7.797  -8.450  1.00  0.00     0.010 A 
ATOM     39  C   UNL     1       3.039  -7.205  -8.755  1.00  0.00    -0.014 A 
BRANCH  39  40
ATOM     40  C   UNL     1       1.879  -8.024  -9.200  1.00  0.00     0.031 A 
ATOM     41  C   UNL     1       1.261  -9.046  -8.280  1.00  0.00     0.074 A 
ATOM     42  C   UNL     1       1.341  -7.804 -10.416  1.00  0.00     0.049 A 
ATOM     43  N   UNL     1       0.242  -9.837  -8.499  1.00  0.00    -0.248 NA
ATOM     44  C   UNL     1       1.859  -9.202  -6.943  1.00  0.00     0.031 C 
ATOM     45  C   UNL     1       1.828  -6.818 -11.383  1.00  0.00     0.029 A 
ATOM     46  N   UNL     1       0.255  -8.370 -11.037  1.00  0.00    -0.354 N 
ATOM     47  C   UNL     1       0.085 -10.590  -7.341  1.00  0.00     0.074 A 
ATOM     48  C   UNL     1       1.133 -10.187  -6.430  1.00  0.00     0.031 C 
ATOM     49  C   UNL     1       1.012  -6.808 -12.447  1.00  0.00     0.029 A 
ATOM     50  C   UNL     1      -0.013  -7.833 -12.274  1.00  0.00     0.049 A 
ATOM     51  H   UNL     1      -0.281  -9.090 -10.634  1.00  0.00     0.167 HD
ATOM     52  C   UNL     1      -0.856 -11.522  -7.058  1.00  0.00     0.031 A 
ATOM     53  C   UNL     1      -0.965  -8.134 -13.181  1.00  0.00     0.031 A 
ATOM     54  C   UNL     1      -1.908 -11.908  -7.963  1.00  0.00     0.049 A 
ATOM     55  C   UNL     1      -1.963  -9.211 -12.867  1.00  0.00     0.074 A 
ATOM     56  C   UNL     1      -2.912 -12.838  -7.757  1.00  0.00     0.029 A 
ATOM     57  N   UNL     1      -2.099 -11.387  -9.233  1.00  0.00    -0.354 N 
ATOM     58  N   UNL     1      -2.088  -9.916 -11.769  1.00  0.00    -0.248 NA
ATOM     59  C   UNL     1      -2.946  -9.537 -13.909  1.00  0.00     0.031 C 
ATOM     60  C   UNL     1      -3.673 -12.925  -8.925  1.00  0.00     0.029 A 
ATOM     61  C   UNL     1      -3.190 -11.996  -9.832  1.00  0.00     0.049 A 
ATOM     62  H   UNL     1      -1.543 -10.689  -9.648  1.00  0.00     0.167 HD
ATOM     63  C   UNL     1      -3.170 -10.762 -11.982  1.00  0.00     0.074 A 
ATOM     64  C   UNL     1      -3.676 -10.468 -13.307  1.00  0.00     0.031 C 
ATOM     65  C   UNL     1      -3.689 -11.699 -11.153  1.00  0.00     0.031 A 
BRANCH  52  66
ATOM     66  C   UNL     1      -0.811 -12.203  -5.713  1.00  0.00    -0.014 A 
ATOM     67  C   UNL     1      -0.514 -13.577  -5.636  1.00  0.00     0.010 A 
ATOM     68  C   UNL     1      -1.186 -11.520  -4.543  1.00  0.00     0.010 A 
ATOM     69  C   UNL     1      -0.621 -14.262  -4.423  1.00  0.00     0.020 A 
ATOM     70  C   UNL     1      -1.267 -12.195  -3.321  1.00  0.00     0.020 A 
ATOM     71  C   UNL     1      -1.007 -13.567  -3.274  1.00  0.00     0.054 A 
BRANCH  71  72
ATOM     72  S   UNL     1      -1.165 -14.476  -1.711  1.00  0.00     0.124 S 
ATOM     73  O   UNL     1      -2.425 -15.189  -1.895  1.00  0.00    -0.237 OA
ATOM     74  O   UNL     1       0.037 -15.308  -1.703  1.00  0.00    -0.237 OA
ATOM     75  O   UNL     1      -1.184 -13.419  -0.703  1.00  0.00    -0.744 OA
ENDBRANCH  71  72
ENDBRANCH  52  66
BRANCH  53  76
ATOM     76  C   UNL     1      -1.005  -7.374 -14.460  1.00  0.00    -0.014 A 
ATOM     77  C   UNL     1       0.040  -7.501 -15.395  1.00  0.00     0.010 A 
ATOM     78  C   UNL     1      -2.029  -6.443 -14.704  1.00  0.00     0.010 A 
ATOM     79  C   UNL     1       0.101  -6.664 -16.511  1.00  0.00     0.020 A 
ATOM     80  C   UNL     1      -1.989  -5.625 -15.838  1.00  0.00     0.020 A 
ATOM     81  C   UNL     1      -0.906  -5.718 -16.715  1.00  0.00     0.054 A 
BRANCH  81  82
ATOM     82  S   UNL     1      -0.769  -4.592 -18.131  1.00  0.00     0.124 S 
ATOM     83  O   UNL     1       0.239  -3.645 -17.663  1.00  0.00    -0.237 OA
ATOM     84  O   UNL     1      -0.344  -5.482 -19.208  1.00  0.00    -0.237 OA
ATOM     85  O   UNL     1      -2.119  -4.052 -18.269  1.00  0.00    -0.744 OA
ENDBRANCH  81  82
ENDBRANCH  53  76
BRANCH  65  86
ATOM     86  C   UNL     1      -4.874 -12.498 -11.628  1.00  0.00    -0.014 A 
ATOM     87  C   UNL     1      -6.123 -12.332 -11.000  1.00  0.00     0.010 A 
ATOM     88  C   UNL     1      -4.717 -13.516 -12.585  1.00  0.00     0.010 A 
ATOM     89  C   UNL     1      -7.181 -13.199 -11.285  1.00  0.00     0.020 A 
ATOM     90  C   UNL     1      -5.782 -14.368 -12.893  1.00  0.00     0.020 A 
ATOM     91  C   UNL     1      -6.998 -14.221 -12.220  1.00  0.00     0.054 A 
BRANCH  91  92
ATOM     92  S   UNL     1      -8.365 -15.370 -12.536  1.00  0.00     0.124 S 
ATOM     93  O   UNL     1      -8.326 -16.227 -11.355  1.00  0.00    -0.237 OA
ATOM     94  O   UNL     1      -9.519 -14.480 -12.631  1.00  0.00    -0.237 OA
ATOM     95  O   UNL     1      -7.985 -16.018 -13.790  1.00  0.00    -0.744 OA
ENDBRANCH  91  92
ENDBRANCH  65  86
ENDBRANCH  39  40
ENDBRANCH  31  34
ENDBRANCH  29  30
ENDBRANCH  28  29
ENDBRANCH  27  28
ENDBRANCH  26  27
ENDBRANCH   1  26
TORSDOF 19
