REMARK SMILES O=C(C[C@@H](NC(=O)C1CCN(C(=O)c2cccs2)CC1)c1cccs1)NCCCCCCNC(=O)c1ccc(-c2c3nc(c(-c4ccc(S(=O)(=O)[O-])cc4)c4ccc([nH]4)c(-c4ccc(S(=O)(=O)[O-])cc4)c4nc(c(-c5ccc(S(=O)(=O)[O-])cc5)c5ccc2[nH]5)C=C4)C=C3)cc1
REMARK SMILES IDX 29 1 28 2 27 3 26 4 1 5 2 6 3 8 4 9 5 10 6 11 7 13 8 14 9 15
REMARK SMILES IDX 20 16 10 17 19 18 11 19 12 20 13 21 14 22 15 23 18 24 16 25
REMARK SMILES IDX 17 26 21 27 22 28 25 29 23 30 24 31 30 32 31 33 32 34 33 35
REMARK SMILES IDX 34 36 35 38 36 39 37 40 95 41 38 42 94 43 39 44 40 45 41 46
REMARK SMILES IDX 88 47 42 48 93 49 87 50 89 51 43 52 92 53 86 54 85 55 44 57
REMARK SMILES IDX 74 58 55 59 73 60 56 61 59 62 72 63 90 64 57 65 58 66 71 68
REMARK SMILES IDX 91 69 60 70 45 71 46 72 54 73 47 74 53 75 48 76 49 77 50 78
REMARK SMILES IDX 51 79 52 80 75 81 76 82 84 83 77 84 83 85 78 86 79 87 80 88
REMARK SMILES IDX 81 89 82 90 61 91 62 92 70 93 63 94 69 95 64 96 65 97 66 98
REMARK SMILES IDX 67 99 68 100
REMARK H PARENT 26 7 5 12 33 37 89 56 59 67
REMARK Flexibility Score: inf
ROOT
ATOM      1  C   UNL     1       4.280   3.471   1.444  1.00  0.00     0.002 C 
ENDROOT
BRANCH   1   2
ATOM      2  C   UNL     1       2.796   3.083   1.435  1.00  0.00     0.021 C 
BRANCH   2   3
ATOM      3  C   UNL     1       2.357   2.265   0.221  1.00  0.00     0.116 C 
BRANCH   3   4
ATOM      4  N   UNL     1       3.101   1.020   0.117  1.00  0.00    -0.356 N 
ATOM      5  O   UNL     1       1.276  -0.372   0.045  1.00  0.00    -0.275 OA
ATOM      6  C   UNL     1       2.492  -0.210   0.056  1.00  0.00     0.222 C 
ATOM      7  H   UNL     1       4.084   1.061   0.088  1.00  0.00     0.163 HD
BRANCH   6   8
ATOM      8  C   UNL     1       3.450  -1.384  -0.044  1.00  0.00     0.130 C 
BRANCH   8   9
ATOM      9  C   UNL     1       3.911  -1.526  -1.496  1.00  0.00     0.131 C 
BRANCH   9  10
ATOM     10  N   UNL     1       5.050  -0.632  -1.786  1.00  0.00    -0.348 N 
ATOM     11  C   UNL     1       6.325  -0.436  -1.413  1.00  0.00     0.223 C 
ATOM     12  H   UNL     1       4.793   0.028  -2.470  1.00  0.00     0.164 HD
ATOM     13  O   UNL     1       6.663   0.758  -1.496  1.00  0.00    -0.275 OA
BRANCH  11  14
ATOM     14  C   UNL     1       7.383  -1.423  -0.903  1.00  0.00     0.082 C 
ATOM     15  C   UNL     1       7.568  -2.786  -1.566  1.00  0.00     0.035 C 
ATOM     16  C   UNL     1       7.593  -1.414   0.616  1.00  0.00     0.035 C 
ATOM     17  C   UNL     1       7.082  -3.962  -0.734  1.00  0.00     0.120 C 
ATOM     18  C   UNL     1       7.113  -2.667   1.337  1.00  0.00     0.120 C 
ATOM     19  N   UNL     1       7.543  -3.874   0.639  1.00  0.00    -0.338 N 
ATOM     20  C   UNL     1       8.328  -4.914   1.155  1.00  0.00     0.263 C 
ATOM     21  O   UNL     1       8.682  -5.852   0.441  1.00  0.00    -0.268 OA
BRANCH  20  22
ATOM     22  C   UNL     1       8.709  -4.851   2.555  1.00  0.00     0.092 A 
ATOM     23  C   UNL     1       7.915  -4.810   3.685  1.00  0.00     0.025 A 
ATOM     24  S   UNL     1      10.373  -4.905   2.955  1.00  0.00    -0.139 S 
ATOM     25  C   UNL     1       8.685  -4.756   4.884  1.00  0.00     0.012 A 
ATOM     26  C   UNL     1      10.038  -4.797   4.628  1.00  0.00     0.065 A 
ENDBRANCH  20  22
ENDBRANCH  11  14
ENDBRANCH   9  10
BRANCH   9  27
ATOM     27  C   UNL     1       4.093  -2.906  -2.074  1.00  0.00     0.027 A 
ATOM     28  C   UNL     1       4.687  -3.243  -3.281  1.00  0.00     0.017 A 
ATOM     29  S   UNL     1       3.356  -4.301  -1.376  1.00  0.00    -0.147 S 
ATOM     30  C   UNL     1       4.714  -4.647  -3.517  1.00  0.00     0.012 A 
ATOM     31  C   UNL     1       4.050  -5.343  -2.535  1.00  0.00     0.065 A 
ENDBRANCH   9  27
ENDBRANCH   8   9
ENDBRANCH   6   8
ENDBRANCH   3   4
ENDBRANCH   2   3
ENDBRANCH   1   2
BRANCH   1  32
ATOM     32  C   UNL     1       4.745   4.310   0.250  1.00  0.00     0.002 C 
BRANCH  32  33
ATOM     33  C   UNL     1       4.045   5.662   0.088  1.00  0.00     0.021 C 
BRANCH  33  34
ATOM     34  C   UNL     1       4.151   6.597   1.291  1.00  0.00     0.116 C 
BRANCH  34  35
ATOM     35  N   UNL     1       5.524   6.961   1.601  1.00  0.00    -0.352 N 
ATOM     36  C   UNL     1       6.057   8.197   1.877  1.00  0.00     0.251 C 
ATOM     37  H   UNL     1       6.165   6.214   1.615  1.00  0.00     0.163 HD
ATOM     38  O   UNL     1       7.273   8.332   1.976  1.00  0.00    -0.269 OA
BRANCH  36  39
ATOM     39  C   UNL     1       5.168   9.371   2.028  1.00  0.00     0.039 A 
ATOM     40  C   UNL     1       5.508  10.562   1.381  1.00  0.00     0.014 A 
ATOM     41  C   UNL     1       4.007   9.302   2.803  1.00  0.00     0.014 A 
ATOM     42  C   UNL     1       4.652  11.664   1.459  1.00  0.00     0.010 A 
ATOM     43  C   UNL     1       3.124  10.380   2.828  1.00  0.00     0.010 A 
ATOM     44  C   UNL     1       3.436  11.571   2.155  1.00  0.00    -0.014 A 
BRANCH  44  45
ATOM     45  C   UNL     1       2.473  12.703   2.180  1.00  0.00     0.031 A 
ATOM     46  C   UNL     1       2.148  13.396   3.475  1.00  0.00     0.074 A 
ATOM     47  C   UNL     1       1.838  13.061   1.046  1.00  0.00     0.049 A 
ATOM     48  N   UNL     1       1.288  14.356   3.703  1.00  0.00    -0.248 NA
ATOM     49  C   UNL     1       2.866  12.935   4.674  1.00  0.00     0.031 C 
ATOM     50  C   UNL     1       2.032  12.442  -0.267  1.00  0.00     0.029 A 
ATOM     51  N   UNL     1       0.890  14.029   0.819  1.00  0.00    -0.354 N 
ATOM     52  C   UNL     1       1.347  14.601   5.070  1.00  0.00     0.074 A 
ATOM     53  C   UNL     1       2.295  13.659   5.625  1.00  0.00     0.031 C 
ATOM     54  C   UNL     1       1.246  13.059  -1.164  1.00  0.00     0.029 A 
ATOM     55  C   UNL     1       0.465  14.089  -0.487  1.00  0.00     0.049 A 
ATOM     56  H   UNL     1       0.548  14.623   1.525  1.00  0.00     0.167 HD
ATOM     57  C   UNL     1       0.684  15.534   5.795  1.00  0.00     0.031 A 
ATOM     58  C   UNL     1      -0.455  14.879  -1.075  1.00  0.00     0.031 A 
ATOM     59  C   UNL     1      -0.250  16.476   5.240  1.00  0.00     0.049 A 
ATOM     60  C   UNL     1      -1.178  15.907  -0.250  1.00  0.00     0.074 A 
ATOM     61  C   UNL     1      -0.929  17.496   5.884  1.00  0.00     0.029 A 
ATOM     62  N   UNL     1      -0.640  16.515   3.910  1.00  0.00    -0.354 N 
ATOM     63  N   UNL     1      -1.062  16.164   1.031  1.00  0.00    -0.248 NA
ATOM     64  C   UNL     1      -2.146  16.760  -0.953  1.00  0.00     0.031 C 
ATOM     65  C   UNL     1      -1.764  18.123   4.952  1.00  0.00     0.029 A 
ATOM     66  C   UNL     1      -1.565  17.527   3.717  1.00  0.00     0.049 A 
ATOM     67  H   UNL     1      -0.308  15.912   3.206  1.00  0.00     0.167 HD
ATOM     68  C   UNL     1      -1.925  17.225   1.282  1.00  0.00     0.074 A 
ATOM     69  C   UNL     1      -2.545  17.569   0.019  1.00  0.00     0.031 C 
ATOM     70  C   UNL     1      -2.177  17.858   2.454  1.00  0.00     0.031 A 
BRANCH  57  71
ATOM     71  C   UNL     1       0.945  15.571   7.278  1.00  0.00    -0.014 A 
ATOM     72  C   UNL     1       2.179  16.015   7.788  1.00  0.00     0.010 A 
ATOM     73  C   UNL     1      -0.065  15.181   8.177  1.00  0.00     0.010 A 
ATOM     74  C   UNL     1       2.416  16.020   9.165  1.00  0.00     0.020 A 
ATOM     75  C   UNL     1       0.159  15.212   9.556  1.00  0.00     0.020 A 
ATOM     76  C   UNL     1       1.406  15.611  10.040  1.00  0.00     0.054 A 
BRANCH  76  77
ATOM     77  S   UNL     1       1.738  15.633  11.823  1.00  0.00     0.124 S 
ATOM     78  O   UNL     1       2.601  14.465  11.982  1.00  0.00    -0.237 OA
ATOM     79  O   UNL     1       2.390  16.926  12.014  1.00  0.00    -0.237 OA
ATOM     80  O   UNL     1       0.412  15.513  12.424  1.00  0.00    -0.744 OA
ENDBRANCH  76  77
ENDBRANCH  57  71
BRANCH  58  81
ATOM     81  C   UNL     1      -0.727  14.737  -2.531  1.00  0.00    -0.014 A 
ATOM     82  C   UNL     1      -0.280  15.715  -3.436  1.00  0.00     0.010 A 
ATOM     83  C   UNL     1      -1.411  13.610  -3.022  1.00  0.00     0.010 A 
ATOM     84  C   UNL     1      -0.522  15.575  -4.806  1.00  0.00     0.020 A 
ATOM     85  C   UNL     1      -1.632  13.454  -4.393  1.00  0.00     0.020 A 
ATOM     86  C   UNL     1      -1.194  14.443  -5.276  1.00  0.00     0.054 A 
BRANCH  86  87
ATOM     87  S   UNL     1      -1.438  14.249  -7.064  1.00  0.00     0.124 S 
ATOM     88  O   UNL     1      -2.514  15.200  -7.328  1.00  0.00    -0.237 OA
ATOM     89  O   UNL     1      -0.129  14.607  -7.603  1.00  0.00    -0.237 OA
ATOM     90  O   UNL     1      -1.797  12.840  -7.207  1.00  0.00    -0.744 OA
ENDBRANCH  86  87
ENDBRANCH  58  81
BRANCH  70  91
ATOM     91  C   UNL     1      -3.144  19.011   2.425  1.00  0.00    -0.014 A 
ATOM     92  C   UNL     1      -4.527  18.799   2.285  1.00  0.00     0.010 A 
ATOM     93  C   UNL     1      -2.664  20.323   2.595  1.00  0.00     0.010 A 
ATOM     94  C   UNL     1      -5.410  19.882   2.288  1.00  0.00     0.020 A 
ATOM     95  C   UNL     1      -3.547  21.405   2.624  1.00  0.00     0.020 A 
ATOM     96  C   UNL     1      -4.914  21.179   2.457  1.00  0.00     0.054 A 
BRANCH  96  97
ATOM     97  S   UNL     1      -6.085  22.564   2.505  1.00  0.00     0.124 S 
ATOM     98  O   UNL     1      -6.444  22.707   1.097  1.00  0.00    -0.237 OA
ATOM     99  O   UNL     1      -7.144  22.060   3.376  1.00  0.00    -0.237 OA
ATOM    100  O   UNL     1      -5.299  23.662   3.063  1.00  0.00    -0.744 OA
ENDBRANCH  96  97
ENDBRANCH  70  91
ENDBRANCH  44  45
ENDBRANCH  36  39
ENDBRANCH  34  35
ENDBRANCH  33  34
ENDBRANCH  32  33
ENDBRANCH   1  32
TORSDOF 21
