REMARK SMILES COc1ccc([C@@](C)(NC(=O)c2csc(C)n2)C(=O)NCCCCCCNC(=O)c2ccc(-c3c4nc(c(-c5ccc(S(=O)(=O)[O-])cc5)c5ccc([nH]5)c(-c5ccc(S(=O)(=O)[O-])cc5)c5nc(c(-c6ccc(S(=O)(=O)[O-])cc6)c6ccc3[nH]6)C=C5)C=C4)cc2)cc1
REMARK SMILES IDX 24 1 23 2 22 3 21 4 20 5 18 6 19 7 7 9 8 10 6 11 3 12 4 13
REMARK SMILES IDX 91 14 5 15 90 16 2 17 1 18 9 19 10 20 11 22 12 23 13 24
REMARK SMILES IDX 17 25 14 26 15 27 16 28 25 29 26 30 27 31 28 32 29 34 30 35
REMARK SMILES IDX 31 36 89 37 32 38 88 39 33 40 34 41 35 42 82 43 36 44 87 45
REMARK SMILES IDX 81 46 83 47 37 48 86 49 80 50 79 51 38 53 68 54 49 55 67 56
REMARK SMILES IDX 50 57 53 58 66 59 84 60 51 61 52 62 65 64 85 65 54 66 39 67
REMARK SMILES IDX 40 68 48 69 41 70 47 71 42 72 43 73 44 74 45 75 46 76 69 77
REMARK SMILES IDX 70 78 78 79 71 80 77 81 72 82 73 83 74 84 75 85 76 86 55 87
REMARK SMILES IDX 56 88 64 89 57 90 63 91 58 92 59 93 60 94 61 95 62 96
REMARK H PARENT 20 8 9 21 27 33 83 52 53 63
REMARK Flexibility Score: inf
ROOT
ATOM      1  C   UNL     1       5.349 -10.914   3.167  1.00  0.00     0.002 C 
ENDROOT
BRANCH   1   2
ATOM      2  C   UNL     1       4.595 -10.344   1.970  1.00  0.00     0.002 C 
BRANCH   2   3
ATOM      3  C   UNL     1       3.148  -9.932   2.232  1.00  0.00     0.021 C 
BRANCH   3   4
ATOM      4  C   UNL     1       2.916  -8.989   3.412  1.00  0.00     0.116 C 
BRANCH   4   5
ATOM      5  N   UNL     1       3.719  -7.773   3.422  1.00  0.00    -0.354 N 
ATOM      6  C   UNL     1       3.386  -6.452   3.177  1.00  0.00     0.250 C 
ATOM      7  O   UNL     1       4.210  -5.604   3.540  1.00  0.00    -0.272 OA
ATOM      8  H   UNL     1       4.667  -7.916   3.644  1.00  0.00     0.163 HD
BRANCH   6   9
ATOM      9  C   UNL     1       1.946  -6.085   2.688  1.00  0.00     0.142 C 
ATOM     10  C   UNL     1       1.133  -6.266   4.020  1.00  0.00     0.051 C 
BRANCH   9  11
ATOM     11  C   UNL     1       1.655  -4.638   2.208  1.00  0.00    -0.013 A 
ATOM     12  C   UNL     1       0.968  -1.999   1.404  1.00  0.00     0.118 A 
ATOM     13  C   UNL     1      -0.009  -2.853   1.890  1.00  0.00     0.047 A 
ATOM     14  C   UNL     1       2.279  -2.462   1.281  1.00  0.00     0.047 A 
ATOM     15  C   UNL     1       0.323  -4.157   2.252  1.00  0.00     0.010 A 
ATOM     16  C   UNL     1       2.619  -3.774   1.675  1.00  0.00     0.010 A 
BRANCH  12  17
ATOM     17  O   UNL     1       0.541  -0.726   1.152  1.00  0.00    -0.497 OA
ATOM     18  C   UNL     1       1.114  -0.107   0.010  1.00  0.00     0.278 C 
ENDBRANCH  12  17
ENDBRANCH   9  11
BRANCH   9  19
ATOM     19  N   UNL     1       1.421  -6.985   1.639  1.00  0.00    -0.333 N 
ATOM     20  C   UNL     1       1.849  -7.182   0.339  1.00  0.00     0.271 C 
ATOM     21  H   UNL     1       0.645  -7.528   1.908  1.00  0.00     0.165 HD
ATOM     22  O   UNL     1       0.983  -7.529  -0.470  1.00  0.00    -0.267 OA
BRANCH  20  23
ATOM     23  C   UNL     1       3.269  -7.129  -0.062  1.00  0.00     0.139 A 
ATOM     24  C   UNL     1       3.694  -7.471  -1.339  1.00  0.00     0.101 A 
ATOM     25  N   UNL     1       4.325  -6.888   0.803  1.00  0.00    -0.236 NA
ATOM     26  S   UNL     1       5.405  -7.581  -1.412  1.00  0.00    -0.127 S 
ATOM     27  C   UNL     1       5.481  -7.191   0.254  1.00  0.00     0.090 A 
ATOM     28  C   UNL     1       6.764  -7.300   1.008  1.00  0.00     0.079 C 
ENDBRANCH  20  23
ENDBRANCH   9  19
ENDBRANCH   6   9
ENDBRANCH   4   5
ENDBRANCH   3   4
ENDBRANCH   2   3
ENDBRANCH   1   2
BRANCH   1  29
ATOM     29  C   UNL     1       4.678 -12.111   3.835  1.00  0.00     0.021 C 
BRANCH  29  30
ATOM     30  C   UNL     1       4.388 -13.275   2.899  1.00  0.00     0.116 C 
BRANCH  30  31
ATOM     31  N   UNL     1       5.603 -13.862   2.356  1.00  0.00    -0.352 N 
ATOM     32  C   UNL     1       5.986 -15.181   2.361  1.00  0.00     0.251 C 
ATOM     33  H   UNL     1       6.231 -13.234   1.931  1.00  0.00     0.163 HD
ATOM     34  O   UNL     1       7.125 -15.502   2.035  1.00  0.00    -0.269 OA
BRANCH  32  35
ATOM     35  C   UNL     1       5.010 -16.204   2.789  1.00  0.00     0.039 A 
ATOM     36  C   UNL     1       5.389 -17.156   3.737  1.00  0.00     0.014 A 
ATOM     37  C   UNL     1       3.708 -16.189   2.279  1.00  0.00     0.014 A 
ATOM     38  C   UNL     1       4.442 -18.065   4.212  1.00  0.00     0.010 A 
ATOM     39  C   UNL     1       2.748 -17.040   2.816  1.00  0.00     0.010 A 
ATOM     40  C   UNL     1       3.108 -17.997   3.777  1.00  0.00    -0.014 A 
BRANCH  40  41
ATOM     41  C   UNL     1       2.079 -18.937   4.289  1.00  0.00     0.031 A 
ATOM     42  C   UNL     1       1.400 -19.890   3.338  1.00  0.00     0.074 A 
ATOM     43  C   UNL     1       1.717 -18.900   5.587  1.00  0.00     0.049 A 
ATOM     44  N   UNL     1       0.443 -20.748   3.576  1.00  0.00    -0.248 NA
ATOM     45  C   UNL     1       1.835 -19.854   1.931  1.00  0.00     0.031 C 
ATOM     46  C   UNL     1       2.272 -17.997   6.599  1.00  0.00     0.029 A 
ATOM     47  N   UNL     1       0.791 -19.639   6.280  1.00  0.00    -0.354 N 
ATOM     48  C   UNL     1       0.147 -21.335   2.351  1.00  0.00     0.074 A 
ATOM     49  C   UNL     1       0.989 -20.700   1.362  1.00  0.00     0.031 C 
ATOM     50  C   UNL     1       1.700 -18.258   7.785  1.00  0.00     0.029 A 
ATOM     51  C   UNL     1       0.707 -19.314   7.614  1.00  0.00     0.049 A 
ATOM     52  H   UNL     1       0.238 -20.338   5.861  1.00  0.00     0.167 HD
ATOM     53  C   UNL     1      -0.730 -22.328   2.076  1.00  0.00     0.031 A 
ATOM     54  C   UNL     1      -0.084 -19.808   8.588  1.00  0.00     0.031 A 
ATOM     55  C   UNL     1      -1.546 -22.975   3.067  1.00  0.00     0.049 A 
ATOM     56  C   UNL     1      -1.055 -20.909   8.252  1.00  0.00     0.074 A 
ATOM     57  C   UNL     1      -2.418 -24.037   2.901  1.00  0.00     0.029 A 
ATOM     58  N   UNL     1      -1.591 -22.625   4.408  1.00  0.00    -0.354 N 
ATOM     59  N   UNL     1      -1.266 -21.500   7.099  1.00  0.00    -0.248 NA
ATOM     60  C   UNL     1      -1.885 -21.421   9.352  1.00  0.00     0.031 C 
ATOM     61  C   UNL     1      -3.034 -24.291   4.129  1.00  0.00     0.029 A 
ATOM     62  C   UNL     1      -2.494 -23.434   5.075  1.00  0.00     0.049 A 
ATOM     63  H   UNL     1      -1.059 -21.909   4.823  1.00  0.00     0.167 HD
ATOM     64  C   UNL     1      -2.223 -22.480   7.347  1.00  0.00     0.074 A 
ATOM     65  C   UNL     1      -2.539 -22.409   8.758  1.00  0.00     0.031 C 
ATOM     66  C   UNL     1      -2.786 -23.361   6.484  1.00  0.00     0.031 A 
BRANCH  53  67
ATOM     67  C   UNL     1      -0.859 -22.780   0.645  1.00  0.00    -0.014 A 
ATOM     68  C   UNL     1       0.176 -23.489   0.008  1.00  0.00     0.010 A 
ATOM     69  C   UNL     1      -2.060 -22.551  -0.051  1.00  0.00     0.010 A 
ATOM     70  C   UNL     1       0.022 -23.938  -1.306  1.00  0.00     0.020 A 
ATOM     71  C   UNL     1      -2.229 -23.025  -1.355  1.00  0.00     0.020 A 
ATOM     72  C   UNL     1      -1.182 -23.707  -1.978  1.00  0.00     0.054 A 
BRANCH  72  73
ATOM     73  S   UNL     1      -1.373 -24.351  -3.663  1.00  0.00     0.124 S 
ATOM     74  O   UNL     1      -0.484 -23.475  -4.422  1.00  0.00    -0.237 OA
ATOM     75  O   UNL     1      -0.926 -25.735  -3.528  1.00  0.00    -0.237 OA
ATOM     76  O   UNL     1      -2.797 -24.183  -3.940  1.00  0.00    -0.744 OA
ENDBRANCH  72  73
ENDBRANCH  53  67
BRANCH  54  77
ATOM     77  C   UNL     1       0.010 -19.279   9.978  1.00  0.00    -0.014 A 
ATOM     78  C   UNL     1       0.493 -20.089  11.021  1.00  0.00     0.010 A 
ATOM     79  C   UNL     1      -0.410 -17.969  10.272  1.00  0.00     0.010 A 
ATOM     80  C   UNL     1       0.515 -19.615  12.337  1.00  0.00     0.020 A 
ATOM     81  C   UNL     1      -0.358 -17.479  11.581  1.00  0.00     0.020 A 
ATOM     82  C   UNL     1       0.086 -18.313  12.608  1.00  0.00     0.054 A 
BRANCH  82  83
ATOM     83  S   UNL     1       0.136 -17.713  14.320  1.00  0.00     0.124 S 
ATOM     84  O   UNL     1      -0.970 -18.444  14.929  1.00  0.00    -0.237 OA
ATOM     85  O   UNL     1       1.474 -18.110  14.754  1.00  0.00    -0.237 OA
ATOM     86  O   UNL     1      -0.065 -16.273  14.182  1.00  0.00    -0.744 OA
ENDBRANCH  82  83
ENDBRANCH  54  77
BRANCH  66  87
ATOM     87  C   UNL     1      -3.758 -24.364   7.047  1.00  0.00    -0.014 A 
ATOM     88  C   UNL     1      -5.036 -23.982   7.490  1.00  0.00     0.010 A 
ATOM     89  C   UNL     1      -3.400 -25.725   7.077  1.00  0.00     0.010 A 
ATOM     90  C   UNL     1      -5.925 -24.939   7.987  1.00  0.00     0.020 A 
ATOM     91  C   UNL     1      -4.298 -26.688   7.542  1.00  0.00     0.020 A 
ATOM     92  C   UNL     1      -5.550 -26.286   8.009  1.00  0.00     0.054 A 
BRANCH  92  93
ATOM     93  S   UNL     1      -6.738 -27.513   8.619  1.00  0.00     0.124 S 
ATOM     94  O   UNL     1      -6.728 -27.256  10.057  1.00  0.00    -0.237 OA
ATOM     95  O   UNL     1      -7.968 -27.142   7.923  1.00  0.00    -0.237 OA
ATOM     96  O   UNL     1      -6.159 -28.790   8.210  1.00  0.00    -0.744 OA
ENDBRANCH  92  93
ENDBRANCH  66  87
ENDBRANCH  40  41
ENDBRANCH  32  35
ENDBRANCH  30  31
ENDBRANCH  29  30
ENDBRANCH   1  29
TORSDOF 20
