REMARK SMILES O=C(NCCCCCCNC(=O)[C@H]1CC[C@@H]2CCCC[C@@H]2N1C(=O)NC1CC1)c1ccc(-c2c3nc(c(-c4ccc(S(=O)(=O)[O-])cc4)c4ccc([nH]4)c(-c4ccc(S(=O)(=O)[O-])cc4)c4nc(c(-c5ccc(S(=O)(=O)[O-])cc5)c5ccc2[nH]5)C=C4)C=C3)cc1
REMARK SMILES IDX 6 1 5 2 4 3 3 4 1 5 2 6 29 8 30 9 88 10 31 11 87 12 32 13
REMARK SMILES IDX 33 14 34 15 81 16 35 17 86 18 80 19 82 20 36 21 85 22 79 23
REMARK SMILES IDX 78 24 37 26 67 27 48 28 66 29 49 30 52 31 65 32 83 33 50 34
REMARK SMILES IDX 51 35 64 37 84 38 53 39 38 40 39 41 47 42 40 43 46 44 41 45
REMARK SMILES IDX 42 46 43 47 44 48 45 49 68 50 69 51 77 52 70 53 76 54 71 55
REMARK SMILES IDX 72 56 73 57 74 58 75 59 54 60 55 61 63 62 56 63 62 64 57 65
REMARK SMILES IDX 58 66 59 67 60 68 61 69 7 70 8 71 9 72 10 73 11 74 12 76
REMARK SMILES IDX 13 77 14 78 22 79 15 80 21 81 16 82 20 83 17 84 19 85 18 86
REMARK SMILES IDX 23 87 24 88 25 89 26 91 27 92 28 93
REMARK H PARENT 3 7 82 25 52 36 10 75 25 90
REMARK Flexibility Score: inf
ROOT
ATOM      1  C   UNL     1       5.505   6.234   4.914  1.00  0.00     0.002 C 
ENDROOT
BRANCH   1   2
ATOM      2  C   UNL     1       4.084   6.036   5.434  1.00  0.00     0.021 C 
BRANCH   2   3
ATOM      3  C   UNL     1       3.601   7.096   6.412  1.00  0.00     0.116 C 
BRANCH   3   4
ATOM      4  N   UNL     1       3.407   8.388   5.778  1.00  0.00    -0.352 N 
ATOM      5  O   UNL     1       2.240  10.144   4.985  1.00  0.00    -0.269 OA
ATOM      6  C   UNL     1       2.269   9.158   5.710  1.00  0.00     0.251 C 
ATOM      7  H   UNL     1       4.202   8.766   5.336  1.00  0.00     0.163 HD
BRANCH   6   8
ATOM      8  C   UNL     1       1.073   8.774   6.497  1.00  0.00     0.039 A 
ATOM      9  C   UNL     1       1.191   8.379   7.832  1.00  0.00     0.014 A 
ATOM     10  C   UNL     1      -0.185   8.825   5.891  1.00  0.00     0.014 A 
ATOM     11  C   UNL     1       0.075   7.911   8.518  1.00  0.00     0.010 A 
ATOM     12  C   UNL     1      -1.320   8.433   6.610  1.00  0.00     0.010 A 
ATOM     13  C   UNL     1      -1.196   7.952   7.922  1.00  0.00    -0.014 A 
BRANCH  13  14
ATOM     14  C   UNL     1      -2.387   7.563   8.720  1.00  0.00     0.031 A 
ATOM     15  C   UNL     1      -3.215   6.362   8.357  1.00  0.00     0.074 A 
ATOM     16  C   UNL     1      -2.704   8.303   9.801  1.00  0.00     0.049 A 
ATOM     17  N   UNL     1      -4.274   5.884   8.961  1.00  0.00    -0.248 NA
ATOM     18  C   UNL     1      -2.809   5.600   7.166  1.00  0.00     0.031 C 
ATOM     19  C   UNL     1      -1.974   9.492  10.252  1.00  0.00     0.029 A 
ATOM     20  N   UNL     1      -3.702   8.156  10.729  1.00  0.00    -0.354 N 
ATOM     21  C   UNL     1      -4.671   4.778   8.219  1.00  0.00     0.074 A 
ATOM     22  C   UNL     1      -3.752   4.668   7.106  1.00  0.00     0.031 C 
ATOM     23  C   UNL     1      -2.518   9.936  11.394  1.00  0.00     0.029 A 
ATOM     24  C   UNL     1      -3.670   9.106  11.723  1.00  0.00     0.049 A 
ATOM     25  H   UNL     1      -4.376   7.441  10.688  1.00  0.00     0.167 HD
ATOM     26  C   UNL     1      -5.705   3.931   8.448  1.00  0.00     0.031 A 
ATOM     27  C   UNL     1      -4.484   9.302  12.776  1.00  0.00     0.031 A 
ATOM     28  C   UNL     1      -6.620   4.050   9.554  1.00  0.00     0.049 A 
ATOM     29  C   UNL     1      -5.643   8.372  12.984  1.00  0.00     0.074 A 
ATOM     30  C   UNL     1      -7.689   3.231   9.879  1.00  0.00     0.029 A 
ATOM     31  N   UNL     1      -6.580   5.051  10.513  1.00  0.00    -0.354 N 
ATOM     32  N   UNL     1      -5.990   7.322  12.279  1.00  0.00    -0.248 NA
ATOM     33  C   UNL     1      -6.521   8.654  14.127  1.00  0.00     0.031 C 
ATOM     34  C   UNL     1      -8.321   3.763  11.008  1.00  0.00     0.029 A 
ATOM     35  C   UNL     1      -7.616   4.883  11.418  1.00  0.00     0.049 A 
ATOM     36  H   UNL     1      -5.913   5.774  10.547  1.00  0.00     0.167 HD
ATOM     37  C   UNL     1      -7.122   6.810  12.900  1.00  0.00     0.074 A 
ATOM     38  C   UNL     1      -7.387   7.653  14.049  1.00  0.00     0.031 C 
ATOM     39  C   UNL     1      -7.873   5.738  12.550  1.00  0.00     0.031 A 
BRANCH  26  40
ATOM     40  C   UNL     1      -5.918   2.808   7.466  1.00  0.00    -0.014 A 
ATOM     41  C   UNL     1      -5.054   1.699   7.432  1.00  0.00     0.010 A 
ATOM     42  C   UNL     1      -7.026   2.839   6.599  1.00  0.00     0.010 A 
ATOM     43  C   UNL     1      -5.274   0.659   6.523  1.00  0.00     0.020 A 
ATOM     44  C   UNL     1      -7.262   1.790   5.705  1.00  0.00     0.020 A 
ATOM     45  C   UNL     1      -6.373   0.714   5.661  1.00  0.00     0.054 A 
BRANCH  45  46
ATOM     46  S   UNL     1      -6.642  -0.656   4.503  1.00  0.00     0.124 S 
ATOM     47  O   UNL     1      -5.602  -0.414   3.505  1.00  0.00    -0.237 OA
ATOM     48  O   UNL     1      -6.441  -1.833   5.344  1.00  0.00    -0.237 OA
ATOM     49  O   UNL     1      -8.012  -0.454   4.037  1.00  0.00    -0.744 OA
ENDBRANCH  45  46
ENDBRANCH  26  40
BRANCH  27  50
ATOM     50  C   UNL     1      -4.227  10.436  13.702  1.00  0.00    -0.014 A 
ATOM     51  C   UNL     1      -3.746  10.202  15.001  1.00  0.00     0.010 A 
ATOM     52  C   UNL     1      -4.422  11.761  13.271  1.00  0.00     0.010 A 
ATOM     53  C   UNL     1      -3.470  11.273  15.856  1.00  0.00     0.020 A 
ATOM     54  C   UNL     1      -4.122  12.835  14.112  1.00  0.00     0.020 A 
ATOM     55  C   UNL     1      -3.657  12.583  15.404  1.00  0.00     0.054 A 
BRANCH  55  56
ATOM     56  S   UNL     1      -3.228  13.960  16.504  1.00  0.00     0.124 S 
ATOM     57  O   UNL     1      -4.357  13.970  17.429  1.00  0.00    -0.237 OA
ATOM     58  O   UNL     1      -1.951  13.531  17.067  1.00  0.00    -0.237 OA
ATOM     59  O   UNL     1      -3.147  15.105  15.600  1.00  0.00    -0.744 OA
ENDBRANCH  55  56
ENDBRANCH  27  50
BRANCH  39  60
ATOM     60  C   UNL     1      -9.044   5.405  13.433  1.00  0.00    -0.014 A 
ATOM     61  C   UNL     1     -10.214   6.186  13.411  1.00  0.00     0.010 A 
ATOM     62  C   UNL     1      -8.987   4.274  14.267  1.00  0.00     0.010 A 
ATOM     63  C   UNL     1     -11.295   5.858  14.232  1.00  0.00     0.020 A 
ATOM     64  C   UNL     1     -10.075   3.930  15.071  1.00  0.00     0.020 A 
ATOM     65  C   UNL     1     -11.218   4.732  15.059  1.00  0.00     0.054 A 
BRANCH  65  66
ATOM     66  S   UNL     1     -12.649   4.303  16.087  1.00  0.00     0.124 S 
ATOM     67  O   UNL     1     -12.558   5.288  17.161  1.00  0.00    -0.237 OA
ATOM     68  O   UNL     1     -13.771   4.477  15.167  1.00  0.00    -0.237 OA
ATOM     69  O   UNL     1     -12.387   2.921  16.484  1.00  0.00    -0.744 OA
ENDBRANCH  65  66
ENDBRANCH  39  60
ENDBRANCH  13  14
ENDBRANCH   6   8
ENDBRANCH   3   4
ENDBRANCH   2   3
ENDBRANCH   1   2
BRANCH   1  70
ATOM     70  C   UNL     1       6.607   6.353   5.971  1.00  0.00     0.002 C 
BRANCH  70  71
ATOM     71  C   UNL     1       6.657   5.277   7.064  1.00  0.00     0.021 C 
BRANCH  71  72
ATOM     72  C   UNL     1       6.574   3.828   6.598  1.00  0.00     0.116 C 
BRANCH  72  73
ATOM     73  N   UNL     1       7.486   3.523   5.522  1.00  0.00    -0.354 N 
ATOM     74  C   UNL     1       8.446   2.561   5.441  1.00  0.00     0.242 C 
ATOM     75  H   UNL     1       7.400   4.096   4.726  1.00  0.00     0.163 HD
ATOM     76  O   UNL     1       8.900   2.330   4.316  1.00  0.00    -0.273 OA
BRANCH  74  77
ATOM     77  C   UNL     1       8.831   1.719   6.672  1.00  0.00     0.176 C 
ATOM     78  C   UNL     1       9.562   0.433   6.266  1.00  0.00     0.036 C 
ATOM     79  N   UNL     1       9.409   2.225   7.946  1.00  0.00    -0.310 N 
ATOM     80  C   UNL     1       9.265  -0.637   7.317  1.00  0.00     0.008 C 
ATOM     81  C   UNL     1       9.203   1.272   9.078  1.00  0.00     0.091 C 
ATOM     82  C   UNL     1       9.669  -0.163   8.721  1.00  0.00     0.012 C 
ATOM     83  C   UNL     1       7.827   1.390   9.752  1.00  0.00     0.025 C 
ATOM     84  C   UNL     1       9.219  -1.138   9.808  1.00  0.00     0.006 C 
ATOM     85  C   UNL     1       6.971   0.130   9.797  1.00  0.00     0.002 C 
ATOM     86  C   UNL     1       7.705  -1.199   9.969  1.00  0.00     0.000 C 
BRANCH  79  87
ATOM     87  C   UNL     1      10.437   3.113   8.150  1.00  0.00     0.318 C 
ATOM     88  O   UNL     1      11.005   3.215   9.248  1.00  0.00    -0.249 OA
ATOM     89  N   UNL     1      10.938   3.969   7.248  1.00  0.00    -0.335 N 
ATOM     90  H   UNL     1      11.751   4.408   7.589  1.00  0.00     0.165 HD
BRANCH  89  91
ATOM     91  C   UNL     1      10.628   4.416   5.947  1.00  0.00     0.084 C 
ATOM     92  C   UNL     1      11.609   5.341   5.256  1.00  0.00     0.027 C 
ATOM     93  C   UNL     1      11.404   3.951   4.746  1.00  0.00     0.027 C 
ENDBRANCH  89  91
ENDBRANCH  79  87
ENDBRANCH  74  77
ENDBRANCH  72  73
ENDBRANCH  71  72
ENDBRANCH  70  71
ENDBRANCH   1  70
TORSDOF 18
