REMARK SMILES CCc1cc([C@H]([NH3+])C(=O)NCCCCCCNC(=O)c2ccc(-c3c4nc(c(-c5ccc(S(=O)(=O)[O-])cc5)c5ccc([nH]5)c(-c5ccc(S(=O)(=O)[O-])cc5)c5nc(c(-c6ccc(S(=O)(=O)[O-])cc6)c6ccc3[nH]6)C=C5)C=C4)cc2)cc(CC)c1N
REMARK SMILES IDX 14 1 13 2 12 3 11 4 10 5 8 6 9 7 6 9 5 10 3 11 4 12 84 13
REMARK SMILES IDX 81 14 80 15 2 16 1 17 85 18 82 21 83 22 7 23 15 27 16 28
REMARK SMILES IDX 17 29 18 30 19 32 20 33 21 34 79 35 22 36 78 37 23 38 24 39
REMARK SMILES IDX 25 40 72 41 26 42 77 43 71 44 73 45 27 46 76 47 70 48 69 49
REMARK SMILES IDX 28 51 58 52 39 53 57 54 40 55 43 56 56 57 74 58 41 59 42 60
REMARK SMILES IDX 55 62 75 63 44 64 29 65 30 66 38 67 31 68 37 69 32 70 33 71
REMARK SMILES IDX 34 72 35 73 36 74 59 75 60 76 68 77 61 78 67 79 62 80 63 81
REMARK SMILES IDX 64 82 65 83 66 84 45 85 46 86 54 87 47 88 53 89 48 90 49 91
REMARK SMILES IDX 50 92 51 93 52 94
REMARK H PARENT 10 8 85 19 85 20 7 24 7 25 7 26 17 31 73 50 43 61
REMARK Flexibility Score: inf
ROOT
ATOM      1  C   UNL     1       0.925   5.064   3.757  1.00  0.00     0.002 C 
ENDROOT
BRANCH   1   2
ATOM      2  C   UNL     1       1.972   4.438   2.830  1.00  0.00     0.002 C 
BRANCH   2   3
ATOM      3  C   UNL     1       1.422   3.883   1.511  1.00  0.00     0.021 C 
BRANCH   3   4
ATOM      4  C   UNL     1       0.693   4.918   0.662  1.00  0.00     0.116 C 
BRANCH   4   5
ATOM      5  N   UNL     1       1.611   5.938   0.181  1.00  0.00    -0.351 N 
ATOM      6  C   UNL     1       1.682   6.563  -1.030  1.00  0.00     0.283 C 
ATOM      7  O   UNL     1       2.541   7.442  -1.160  1.00  0.00    -0.268 OA
ATOM      8  H   UNL     1       2.290   6.223   0.834  1.00  0.00     0.163 HD
BRANCH   6   9
ATOM      9  C   UNL     1       0.774   6.152  -2.215  1.00  0.00     0.302 C 
BRANCH   9  10
ATOM     10  C   UNL     1      -0.724   6.290  -1.990  1.00  0.00     0.020 A 
ATOM     11  C   UNL     1      -2.670   7.063  -0.660  1.00  0.00    -0.024 A 
ATOM     12  C   UNL     1      -1.274   6.959  -0.893  1.00  0.00     0.016 A 
ATOM     13  C   UNL     1      -3.559   6.558  -1.633  1.00  0.00     0.038 A 
ATOM     14  C   UNL     1      -3.013   5.991  -2.817  1.00  0.00    -0.024 A 
ATOM     15  C   UNL     1      -1.618   5.823  -2.950  1.00  0.00     0.016 A 
BRANCH  11  16
ATOM     16  C   UNL     1      -2.991   7.750   0.661  1.00  0.00     0.034 C 
ATOM     17  C   UNL     1      -4.396   7.835   1.230  1.00  0.00     0.009 C 
ENDBRANCH  11  16
BRANCH  13  18
ATOM     18  N   UNL     1      -4.934   6.746  -1.536  1.00  0.00    -0.398 N 
ATOM     19  H   UNL     1      -5.320   7.138  -0.719  1.00  0.00     0.156 HD
ATOM     20  H   UNL     1      -5.520   6.486  -2.283  1.00  0.00     0.156 HD
ENDBRANCH  13  18
BRANCH  14  21
ATOM     21  C   UNL     1      -3.845   5.557  -4.011  1.00  0.00     0.034 C 
ATOM     22  C   UNL     1      -3.648   6.493  -5.200  1.00  0.00     0.009 C 
ENDBRANCH  14  21
ENDBRANCH   9  10
BRANCH   9  23
ATOM     23  N   UNL     1       1.171   4.805  -2.694  1.00  0.00    -0.343 N 
ATOM     24  H   UNL     1       1.006   4.120  -1.957  1.00  0.00     0.345 HD
ATOM     25  H   UNL     1       2.161   4.810  -2.939  1.00  0.00     0.345 HD
ATOM     26  H   UNL     1       0.618   4.560  -3.516  1.00  0.00     0.345 HD
ENDBRANCH   9  23
ENDBRANCH   6   9
ENDBRANCH   4   5
ENDBRANCH   3   4
ENDBRANCH   2   3
ENDBRANCH   1   2
BRANCH   1  27
ATOM     27  C   UNL     1      -0.247   4.149   4.117  1.00  0.00     0.021 C 
BRANCH  27  28
ATOM     28  C   UNL     1       0.158   2.816   4.736  1.00  0.00     0.116 C 
BRANCH  28  29
ATOM     29  N   UNL     1       0.893   2.989   5.978  1.00  0.00    -0.352 N 
ATOM     30  C   UNL     1       0.674   2.407   7.201  1.00  0.00     0.251 C 
ATOM     31  H   UNL     1       1.655   3.611   5.936  1.00  0.00     0.163 HD
ATOM     32  O   UNL     1       1.274   2.814   8.193  1.00  0.00    -0.269 OA
BRANCH  30  33
ATOM     33  C   UNL     1      -0.303   1.305   7.319  1.00  0.00     0.039 A 
ATOM     34  C   UNL     1      -1.220   1.323   8.372  1.00  0.00     0.014 A 
ATOM     35  C   UNL     1      -0.318   0.262   6.388  1.00  0.00     0.014 A 
ATOM     36  C   UNL     1      -2.190   0.323   8.458  1.00  0.00     0.010 A 
ATOM     37  C   UNL     1      -1.334  -0.689   6.431  1.00  0.00     0.010 A 
ATOM     38  C   UNL     1      -2.277  -0.671   7.469  1.00  0.00    -0.014 A 
BRANCH  38  39
ATOM     39  C   UNL     1      -3.349  -1.698   7.505  1.00  0.00     0.031 A 
ATOM     40  C   UNL     1      -2.999  -3.154   7.661  1.00  0.00     0.074 A 
ATOM     41  C   UNL     1      -4.634  -1.325   7.340  1.00  0.00     0.049 A 
ATOM     42  N   UNL     1      -3.792  -4.195   7.668  1.00  0.00    -0.248 NA
ATOM     43  C   UNL     1      -1.572  -3.486   7.803  1.00  0.00     0.031 C 
ATOM     44  C   UNL     1      -5.099   0.050   7.142  1.00  0.00     0.029 A 
ATOM     45  N   UNL     1      -5.787  -2.070   7.310  1.00  0.00    -0.354 N 
ATOM     46  C   UNL     1      -2.961  -5.302   7.803  1.00  0.00     0.074 A 
ATOM     47  C   UNL     1      -1.601  -4.810   7.817  1.00  0.00     0.031 C 
ATOM     48  C   UNL     1      -6.437   0.053   7.042  1.00  0.00     0.029 A 
ATOM     49  C   UNL     1      -6.925  -1.321   7.122  1.00  0.00     0.049 A 
ATOM     50  H   UNL     1      -5.798  -3.049   7.414  1.00  0.00     0.167 HD
ATOM     51  C   UNL     1      -3.300  -6.608   7.924  1.00  0.00     0.031 A 
ATOM     52  C   UNL     1      -8.214  -1.695   7.015  1.00  0.00     0.031 A 
ATOM     53  C   UNL     1      -4.656  -7.091   7.912  1.00  0.00     0.049 A 
ATOM     54  C   UNL     1      -8.564  -3.154   7.128  1.00  0.00     0.074 A 
ATOM     55  C   UNL     1      -5.106  -8.389   8.079  1.00  0.00     0.029 A 
ATOM     56  N   UNL     1      -5.779  -6.301   7.717  1.00  0.00    -0.354 N 
ATOM     57  N   UNL     1      -7.769  -4.179   7.324  1.00  0.00    -0.248 NA
ATOM     58  C   UNL     1      -9.986  -3.506   7.018  1.00  0.00     0.031 C 
ATOM     59  C   UNL     1      -6.496  -8.392   7.923  1.00  0.00     0.029 A 
ATOM     60  C   UNL     1      -6.919  -7.087   7.730  1.00  0.00     0.049 A 
ATOM     61  H   UNL     1      -5.767  -5.325   7.589  1.00  0.00     0.167 HD
ATOM     62  C   UNL     1      -8.598  -5.294   7.389  1.00  0.00     0.074 A 
ATOM     63  C   UNL     1      -9.956  -4.815   7.229  1.00  0.00     0.031 C 
ATOM     64  C   UNL     1      -8.265  -6.597   7.567  1.00  0.00     0.031 A 
BRANCH  51  65
ATOM     65  C   UNL     1      -2.183  -7.609   8.070  1.00  0.00    -0.014 A 
ATOM     66  C   UNL     1      -1.391  -7.654   9.232  1.00  0.00     0.010 A 
ATOM     67  C   UNL     1      -1.947  -8.547   7.048  1.00  0.00     0.010 A 
ATOM     68  C   UNL     1      -0.359  -8.588   9.352  1.00  0.00     0.020 A 
ATOM     69  C   UNL     1      -0.937  -9.505   7.177  1.00  0.00     0.020 A 
ATOM     70  C   UNL     1      -0.138  -9.508   8.322  1.00  0.00     0.054 A 
BRANCH  70  71
ATOM     71  S   UNL     1       1.194 -10.723   8.516  1.00  0.00     0.124 S 
ATOM     72  O   UNL     1       2.385  -9.889   8.381  1.00  0.00    -0.237 OA
ATOM     73  O   UNL     1       0.949 -11.255   9.854  1.00  0.00    -0.237 OA
ATOM     74  O   UNL     1       0.967 -11.665   7.423  1.00  0.00    -0.744 OA
ENDBRANCH  70  71
ENDBRANCH  51  65
BRANCH  52  75
ATOM     75  C   UNL     1      -9.272  -0.669   6.798  1.00  0.00    -0.014 A 
ATOM     76  C   UNL     1     -10.207  -0.379   7.807  1.00  0.00     0.010 A 
ATOM     77  C   UNL     1      -9.343   0.033   5.580  1.00  0.00     0.010 A 
ATOM     78  C   UNL     1     -11.205   0.578   7.596  1.00  0.00     0.020 A 
ATOM     79  C   UNL     1     -10.318   1.012   5.377  1.00  0.00     0.020 A 
ATOM     80  C   UNL     1     -11.251   1.270   6.382  1.00  0.00     0.054 A 
BRANCH  80  81
ATOM     81  S   UNL     1     -12.524   2.542   6.149  1.00  0.00     0.124 S 
ATOM     82  O   UNL     1     -13.735   1.740   6.012  1.00  0.00    -0.237 OA
ATOM     83  O   UNL     1     -12.416   3.323   7.379  1.00  0.00    -0.237 OA
ATOM     84  O   UNL     1     -12.093   3.239   4.939  1.00  0.00    -0.744 OA
ENDBRANCH  80  81
ENDBRANCH  52  75
BRANCH  64  85
ATOM     85  C   UNL     1      -9.388  -7.598   7.635  1.00  0.00    -0.014 A 
ATOM     86  C   UNL     1     -10.138  -7.937   6.495  1.00  0.00     0.010 A 
ATOM     87  C   UNL     1      -9.659  -8.251   8.852  1.00  0.00     0.010 A 
ATOM     88  C   UNL     1     -11.161  -8.886   6.579  1.00  0.00     0.020 A 
ATOM     89  C   UNL     1     -10.659  -9.224   8.933  1.00  0.00     0.020 A 
ATOM     90  C   UNL     1     -11.413  -9.525   7.798  1.00  0.00     0.054 A 
BRANCH  90  91
ATOM     91  S   UNL     1     -12.716 -10.785   7.868  1.00  0.00     0.124 S 
ATOM     92  O   UNL     1     -13.927  -9.976   7.768  1.00  0.00    -0.237 OA
ATOM     93  O   UNL     1     -12.418 -11.617   6.705  1.00  0.00    -0.237 OA
ATOM     94  O   UNL     1     -12.504 -11.432   9.161  1.00  0.00    -0.744 OA
ENDBRANCH  90  91
ENDBRANCH  64  85
ENDBRANCH  38  39
ENDBRANCH  30  33
ENDBRANCH  28  29
ENDBRANCH  27  28
ENDBRANCH   1  27
TORSDOF 21
