REMARK SMILES CC1(C)S[C@@H](c2cccc3c2sc2ccccc23)[NH2+][C@@H]1C(=O)NCCCCCCNC(=O)c1ccc(-c2c3nc(c(-c4ccc(S(=O)(=O)[O-])cc4)c4ccc([nH]4)c(-c4ccc(S(=O)(=O)[O-])cc4)c4nc(c(-c5ccc(S(=O)(=O)[O-])cc5)c5ccc2[nH]5)C=C4)C=C3)cc1
REMARK SMILES IDX 27 1 26 2 25 3 24 4 23 5 21 6 22 7 20 9 1 10 2 11 3 12 4 13
REMARK SMILES IDX 5 14 19 15 6 18 7 19 11 20 8 21 10 22 12 23 9 24 18 25 13 26
REMARK SMILES IDX 17 27 14 28 16 29 15 30 28 31 29 32 30 33 31 34 32 36 33 37
REMARK SMILES IDX 34 38 92 39 35 40 91 41 36 42 37 43 38 44 85 45 39 46 90 47
REMARK SMILES IDX 84 48 86 49 40 50 89 51 83 52 82 53 41 55 71 56 52 57 70 58
REMARK SMILES IDX 53 59 56 60 69 61 87 62 54 63 55 64 68 66 88 67 57 68 42 69
REMARK SMILES IDX 43 70 51 71 44 72 50 73 45 74 46 75 47 76 48 77 49 78 72 79
REMARK SMILES IDX 73 80 81 81 74 82 80 83 75 84 76 85 77 86 78 87 79 88 58 89
REMARK SMILES IDX 59 90 67 91 60 92 66 93 61 94 62 95 63 96 64 97 65 98
REMARK H PARENT 23 8 19 16 19 17 30 35 86 54 56 65
REMARK Flexibility Score: inf
ROOT
ATOM      1  C   UNL     1      -4.418   2.150  -4.464  1.00  0.00     0.002 C 
ENDROOT
BRANCH   1   2
ATOM      2  C   UNL     1      -3.366   3.243  -4.269  1.00  0.00     0.002 C 
BRANCH   2   3
ATOM      3  C   UNL     1      -2.976   3.547  -2.819  1.00  0.00     0.021 C 
BRANCH   3   4
ATOM      4  C   UNL     1      -2.490   2.357  -1.994  1.00  0.00     0.116 C 
BRANCH   4   5
ATOM      5  N   UNL     1      -1.347   1.703  -2.600  1.00  0.00    -0.351 N 
ATOM      6  C   UNL     1      -0.245   1.128  -2.039  1.00  0.00     0.279 C 
ATOM      7  O   UNL     1       0.580   0.680  -2.839  1.00  0.00    -0.268 OA
ATOM      8  H   UNL     1      -1.369   1.668  -3.584  1.00  0.00     0.163 HD
BRANCH   6   9
ATOM      9  C   UNL     1       0.007   1.169  -0.502  1.00  0.00     0.289 C 
ATOM     10  C   UNL     1       1.575   0.614   1.433  1.00  0.00     0.030 C 
ATOM     11  C   UNL     1       1.025   0.139   0.071  1.00  0.00     0.077 C 
ATOM     12  C   UNL     1       2.219  -0.234  -0.809  1.00  0.00     0.030 C 
ATOM     13  S   UNL     1      -0.001  -1.347   0.388  1.00  0.00    -0.081 SA
ATOM     14  C   UNL     1      -1.575  -0.448   0.248  1.00  0.00     0.276 C 
ATOM     15  N   UNL     1      -1.258   0.985   0.267  1.00  0.00    -0.320 N 
ATOM     16  H   UNL     1      -1.131   1.301   1.228  1.00  0.00     0.348 HD
ATOM     17  H   UNL     1      -2.015   1.528  -0.147  1.00  0.00     0.348 HD
BRANCH  14  18
ATOM     18  C   UNL     1      -2.580  -0.799   1.332  1.00  0.00     0.038 A 
ATOM     19  C   UNL     1      -2.217  -0.709   2.698  1.00  0.00     0.012 A 
ATOM     20  C   UNL     1      -3.926  -1.183   1.056  1.00  0.00     0.046 A 
ATOM     21  C   UNL     1      -3.107  -0.995   3.720  1.00  0.00     0.001 A 
ATOM     22  C   UNL     1      -4.839  -1.492   2.071  1.00  0.00     0.001 A 
ATOM     23  S   UNL     1      -4.683  -1.329  -0.489  1.00  0.00    -0.135 S 
ATOM     24  C   UNL     1      -4.404  -1.391   3.416  1.00  0.00     0.010 A 
ATOM     25  C   UNL     1      -6.138  -1.888   1.553  1.00  0.00     0.000 A 
ATOM     26  C   UNL     1      -6.184  -1.831   0.163  1.00  0.00     0.036 A 
ATOM     27  C   UNL     1      -7.313  -2.301   2.236  1.00  0.00     0.010 A 
ATOM     28  C   UNL     1      -7.352  -2.159  -0.555  1.00  0.00     0.019 A 
ATOM     29  C   UNL     1      -8.472  -2.634   1.531  1.00  0.00     0.001 A 
ATOM     30  C   UNL     1      -8.491  -2.560   0.147  1.00  0.00     0.002 A 
ENDBRANCH  14  18
ENDBRANCH   6   9
ENDBRANCH   4   5
ENDBRANCH   3   4
ENDBRANCH   2   3
ENDBRANCH   1   2
BRANCH   1  31
ATOM     31  C   UNL     1      -5.732   2.350  -3.706  1.00  0.00     0.021 C 
BRANCH  31  32
ATOM     32  C   UNL     1      -6.412   3.700  -3.913  1.00  0.00     0.116 C 
BRANCH  32  33
ATOM     33  N   UNL     1      -6.744   3.957  -5.303  1.00  0.00    -0.352 N 
ATOM     34  C   UNL     1      -7.890   4.482  -5.840  1.00  0.00     0.251 C 
ATOM     35  H   UNL     1      -6.045   3.718  -5.954  1.00  0.00     0.163 HD
ATOM     36  O   UNL     1      -8.036   4.492  -7.064  1.00  0.00    -0.269 OA
BRANCH  34  37
ATOM     37  C   UNL     1      -8.960   5.015  -4.966  1.00  0.00     0.039 A 
ATOM     38  C   UNL     1     -10.290   4.744  -5.298  1.00  0.00     0.014 A 
ATOM     39  C   UNL     1      -8.669   5.809  -3.852  1.00  0.00     0.014 A 
ATOM     40  C   UNL     1     -11.323   5.240  -4.499  1.00  0.00     0.010 A 
ATOM     41  C   UNL     1      -9.697   6.242  -3.015  1.00  0.00     0.010 A 
ATOM     42  C   UNL     1     -11.036   5.981  -3.341  1.00  0.00    -0.014 A 
BRANCH  42  43
ATOM     43  C   UNL     1     -12.132   6.515  -2.492  1.00  0.00     0.031 A 
ATOM     44  C   UNL     1     -12.341   8.002  -2.369  1.00  0.00     0.074 A 
ATOM     45  C   UNL     1     -12.928   5.665  -1.815  1.00  0.00     0.049 A 
ATOM     46  N   UNL     1     -13.252   8.654  -1.691  1.00  0.00    -0.248 NA
ATOM     47  C   UNL     1     -11.389   8.871  -3.080  1.00  0.00     0.031 C 
ATOM     48  C   UNL     1     -12.801   4.205  -1.811  1.00  0.00     0.029 A 
ATOM     49  N   UNL     1     -14.007   5.905  -1.001  1.00  0.00    -0.354 N 
ATOM     50  C   UNL     1     -12.976  10.003  -1.883  1.00  0.00     0.074 A 
ATOM     51  C   UNL     1     -11.781  10.077  -2.695  1.00  0.00     0.031 C 
ATOM     52  C   UNL     1     -13.784   3.680  -1.063  1.00  0.00     0.029 A 
ATOM     53  C   UNL     1     -14.593   4.762  -0.510  1.00  0.00     0.049 A 
ATOM     54  H   UNL     1     -14.330   6.810  -0.789  1.00  0.00     0.167 HD
ATOM     55  C   UNL     1     -13.665  11.084  -1.446  1.00  0.00     0.031 A 
ATOM     56  C   UNL     1     -15.666   4.602   0.289  1.00  0.00     0.031 A 
ATOM     57  C   UNL     1     -14.862  11.009  -0.651  1.00  0.00     0.049 A 
ATOM     58  C   UNL     1     -16.425   5.816   0.749  1.00  0.00     0.074 A 
ATOM     59  C   UNL     1     -15.666  12.044  -0.205  1.00  0.00     0.029 A 
ATOM     60  N   UNL     1     -15.429   9.833  -0.184  1.00  0.00    -0.354 N 
ATOM     61  N   UNL     1     -16.187   7.082   0.498  1.00  0.00    -0.248 NA
ATOM     62  C   UNL     1     -17.609   5.578   1.585  1.00  0.00     0.031 C 
ATOM     63  C   UNL     1     -16.694  11.496   0.571  1.00  0.00     0.029 A 
ATOM     64  C   UNL     1     -16.561  10.117   0.562  1.00  0.00     0.049 A 
ATOM     65  H   UNL     1     -15.078   8.930  -0.357  1.00  0.00     0.167 HD
ATOM     66  C   UNL     1     -17.205   7.790   1.128  1.00  0.00     0.074 A 
ATOM     67  C   UNL     1     -18.071   6.809   1.751  1.00  0.00     0.031 C 
ATOM     68  C   UNL     1     -17.405   9.130   1.187  1.00  0.00     0.031 A 
BRANCH  55  69
ATOM     69  C   UNL     1     -13.134  12.444  -1.821  1.00  0.00    -0.014 A 
ATOM     70  C   UNL     1     -13.187  12.903  -3.150  1.00  0.00     0.010 A 
ATOM     71  C   UNL     1     -12.601  13.286  -0.828  1.00  0.00     0.010 A 
ATOM     72  C   UNL     1     -12.673  14.159  -3.487  1.00  0.00     0.020 A 
ATOM     73  C   UNL     1     -12.113  14.555  -1.157  1.00  0.00     0.020 A 
ATOM     74  C   UNL     1     -12.135  14.975  -2.488  1.00  0.00     0.054 A 
BRANCH  74  75
ATOM     75  S   UNL     1     -11.489  16.605  -2.951  1.00  0.00     0.124 S 
ATOM     76  O   UNL     1     -10.239  16.254  -3.621  1.00  0.00    -0.237 OA
ATOM     77  O   UNL     1     -12.540  17.133  -3.818  1.00  0.00    -0.237 OA
ATOM     78  O   UNL     1     -11.337  17.294  -1.672  1.00  0.00    -0.744 OA
ENDBRANCH  74  75
ENDBRANCH  55  69
BRANCH  56  79
ATOM     79  C   UNL     1     -16.103   3.234   0.680  1.00  0.00    -0.014 A 
ATOM     80  C   UNL     1     -17.283   2.682   0.152  1.00  0.00     0.010 A 
ATOM     81  C   UNL     1     -15.334   2.472   1.577  1.00  0.00     0.010 A 
ATOM     82  C   UNL     1     -17.696   1.400   0.527  1.00  0.00     0.020 A 
ATOM     83  C   UNL     1     -15.729   1.179   1.934  1.00  0.00     0.020 A 
ATOM     84  C   UNL     1     -16.915   0.656   1.416  1.00  0.00     0.054 A 
BRANCH  84  85
ATOM     85  S   UNL     1     -17.440  -1.026   1.849  1.00  0.00     0.124 S 
ATOM     86  O   UNL     1     -18.547  -0.772   2.764  1.00  0.00    -0.237 OA
ATOM     87  O   UNL     1     -17.806  -1.587   0.550  1.00  0.00    -0.237 OA
ATOM     88  O   UNL     1     -16.245  -1.610   2.455  1.00  0.00    -0.744 OA
ENDBRANCH  84  85
ENDBRANCH  56  79
BRANCH  68  89
ATOM     89  C   UNL     1     -18.622   9.610   1.934  1.00  0.00    -0.014 A 
ATOM     90  C   UNL     1     -18.695   9.526   3.336  1.00  0.00     0.010 A 
ATOM     91  C   UNL     1     -19.698  10.171   1.222  1.00  0.00     0.010 A 
ATOM     92  C   UNL     1     -19.844   9.950   4.009  1.00  0.00     0.020 A 
ATOM     93  C   UNL     1     -20.836  10.623   1.894  1.00  0.00     0.020 A 
ATOM     94  C   UNL     1     -20.910  10.490   3.282  1.00  0.00     0.054 A 
BRANCH  94  95
ATOM     95  S   UNL     1     -22.387  11.044   4.178  1.00  0.00     0.124 S 
ATOM     96  O   UNL     1     -23.038   9.777   4.501  1.00  0.00    -0.237 OA
ATOM     97  O   UNL     1     -21.822  11.768   5.314  1.00  0.00    -0.237 OA
ATOM     98  O   UNL     1     -23.090  11.876   3.204  1.00  0.00    -0.744 OA
ENDBRANCH  94  95
ENDBRANCH  68  89
ENDBRANCH  42  43
ENDBRANCH  34  37
ENDBRANCH  32  33
ENDBRANCH  31  32
ENDBRANCH   1  31
TORSDOF 17
