REMARK SMILES Cc1ncc(CO)c([C@H]2[NH2+][C@@H](C(=O)NCCCCCCNC(=O)c3ccc(-c4c5nc(c(-c6ccc(S(=O)(=O)[O-])cc6)c6ccc([nH]6)c(-c6ccc(S(=O)(=O)[O-])cc6)c6nc(c(-c7ccc(S(=O)(=O)[O-])cc7)c7ccc4[nH]7)C=C6)C=C5)cc3)Cc3[nH]cnc32)c1O
REMARK SMILES IDX 17 1 16 2 15 3 14 4 12 5 13 6 11 8 9 9 10 10 89 11 85 14
REMARK SMILES IDX 88 15 84 16 86 17 87 18 8 20 1 21 2 22 3 23 90 24 4 25 5 26
REMARK SMILES IDX 91 27 6 29 7 30 18 32 19 33 20 34 21 35 22 36 23 38 24 39
REMARK SMILES IDX 25 40 83 41 26 42 82 43 27 44 28 45 29 46 76 47 30 48 81 49
REMARK SMILES IDX 75 50 77 51 31 52 80 53 74 54 73 55 32 57 62 58 43 59 61 60
REMARK SMILES IDX 44 61 47 62 60 63 78 64 45 65 46 66 59 68 79 69 48 70 33 71
REMARK SMILES IDX 34 72 42 73 35 74 41 75 36 76 37 77 38 78 39 79 40 80 63 81
REMARK SMILES IDX 64 82 72 83 65 84 71 85 66 86 67 87 68 88 69 89 70 90 49 91
REMARK SMILES IDX 50 92 58 93 51 94 57 95 52 96 53 97 54 98 55 99 56 100
REMARK H PARENT 14 7 10 12 10 13 86 19 91 28 7 31 21 37 77 56 47 67
REMARK Flexibility Score: inf
ROOT
ATOM      1  C   UNL     1      -6.732   2.325   1.648  1.00  0.00     0.002 C 
ENDROOT
BRANCH   1   2
ATOM      2  C   UNL     1      -5.571   2.530   0.672  1.00  0.00     0.021 C 
BRANCH   2   3
ATOM      3  C   UNL     1      -4.772   3.807   0.913  1.00  0.00     0.116 C 
BRANCH   3   4
ATOM      4  N   UNL     1      -4.085   3.800   2.197  1.00  0.00    -0.351 N 
ATOM      5  C   UNL     1      -2.758   3.973   2.491  1.00  0.00     0.278 C 
ATOM      6  O   UNL     1      -2.421   4.013   3.674  1.00  0.00    -0.268 OA
ATOM      7  H   UNL     1      -4.666   3.647   2.977  1.00  0.00     0.163 HD
BRANCH   5   8
ATOM      8  C   UNL     1      -1.768   4.079   1.333  1.00  0.00     0.279 C 
ATOM      9  C   UNL     1      -0.144   2.889   0.060  1.00  0.00     0.270 C 
ATOM     10  N   UNL     1      -0.718   3.029   1.431  1.00  0.00    -0.324 N 
ATOM     11  C   UNL     1       0.511   4.193  -0.301  1.00  0.00     0.124 A 
ATOM     12  H   UNL     1       0.006   3.314   2.091  1.00  0.00     0.347 HD
ATOM     13  H   UNL     1      -1.103   2.146   1.766  1.00  0.00     0.347 HD
ATOM     14  C   UNL     1      -0.031   5.384   0.180  1.00  0.00     0.051 A 
ATOM     15  N   UNL     1       1.366   4.467  -1.340  1.00  0.00    -0.235 NA
ATOM     16  C   UNL     1      -1.144   5.485   1.182  1.00  0.00     0.131 C 
ATOM     17  N   UNL     1       0.544   6.384  -0.538  1.00  0.00    -0.348 N 
ATOM     18  C   UNL     1       1.382   5.782  -1.440  1.00  0.00     0.197 A 
ATOM     19  H   UNL     1       0.389   7.350  -0.432  1.00  0.00     0.167 HD
BRANCH   9  20
ATOM     20  C   UNL     1       0.498   1.538  -0.103  1.00  0.00     0.066 A 
ATOM     21  C   UNL     1      -1.140  -1.952  -0.125  1.00  0.00     0.071 C 
ATOM     22  C   UNL     1      -0.112  -0.858  -0.158  1.00  0.00     0.079 A 
ATOM     23  N   UNL     1       1.181  -1.221  -0.098  1.00  0.00    -0.257 NA
ATOM     24  C   UNL     1      -0.465   0.485  -0.194  1.00  0.00     0.146 A 
ATOM     25  C   UNL     1       2.104  -0.230  -0.065  1.00  0.00     0.118 A 
ATOM     26  C   UNL     1       1.839   1.150  -0.034  1.00  0.00     0.009 A 
BRANCH  24  27
ATOM     27  O   UNL     1      -1.801   0.823  -0.264  1.00  0.00    -0.505 OA
ATOM     28  H   UNL     1      -2.452   0.152  -0.324  1.00  0.00     0.293 HD
ENDBRANCH  24  27
BRANCH  26  29
ATOM     29  C   UNL     1       3.025   2.057   0.093  1.00  0.00     0.194 C 
BRANCH  29  30
ATOM     30  O   UNL     1       3.730   1.772   1.302  1.00  0.00    -0.392 OA
ATOM     31  H   UNL     1       3.142   1.913   2.061  1.00  0.00     0.211 HD
ENDBRANCH  29  30
ENDBRANCH  26  29
ENDBRANCH   9  20
ENDBRANCH   5   8
ENDBRANCH   3   4
ENDBRANCH   2   3
ENDBRANCH   1   2
BRANCH   1  32
ATOM     32  C   UNL     1      -7.655   3.538   1.846  1.00  0.00     0.002 C 
BRANCH  32  33
ATOM     33  C   UNL     1      -8.262   4.150   0.574  1.00  0.00     0.021 C 
BRANCH  33  34
ATOM     34  C   UNL     1      -9.242   3.232  -0.136  1.00  0.00     0.116 C 
BRANCH  34  35
ATOM     35  N   UNL     1     -10.447   2.983   0.657  1.00  0.00    -0.352 N 
ATOM     36  C   UNL     1     -11.526   2.168   0.350  1.00  0.00     0.251 C 
ATOM     37  H   UNL     1     -10.498   3.454   1.519  1.00  0.00     0.163 HD
ATOM     38  O   UNL     1     -12.604   2.325   0.891  1.00  0.00    -0.269 OA
BRANCH  36  39
ATOM     39  C   UNL     1     -11.321   1.095  -0.641  1.00  0.00     0.039 A 
ATOM     40  C   UNL     1     -12.288   0.763  -1.596  1.00  0.00     0.014 A 
ATOM     41  C   UNL     1     -10.098   0.438  -0.609  1.00  0.00     0.014 A 
ATOM     42  C   UNL     1     -11.972  -0.190  -2.565  1.00  0.00     0.010 A 
ATOM     43  C   UNL     1      -9.719  -0.332  -1.669  1.00  0.00     0.010 A 
ATOM     44  C   UNL     1     -10.677  -0.724  -2.596  1.00  0.00    -0.014 A 
BRANCH  44  45
ATOM     45  C   UNL     1     -10.234  -1.653  -3.627  1.00  0.00     0.031 A 
ATOM     46  C   UNL     1     -10.250  -1.107  -5.009  1.00  0.00     0.074 A 
ATOM     47  C   UNL     1      -9.571  -2.786  -3.304  1.00  0.00     0.049 A 
ATOM     48  N   UNL     1     -10.998  -1.469  -5.997  1.00  0.00    -0.248 NA
ATOM     49  C   UNL     1      -9.429   0.083  -5.290  1.00  0.00     0.031 C 
ATOM     50  C   UNL     1      -9.180  -3.259  -1.966  1.00  0.00     0.029 A 
ATOM     51  N   UNL     1      -8.969  -3.690  -4.119  1.00  0.00    -0.354 N 
ATOM     52  C   UNL     1     -10.579  -0.711  -7.088  1.00  0.00     0.074 A 
ATOM     53  C   UNL     1      -9.781   0.359  -6.547  1.00  0.00     0.031 C 
ATOM     54  C   UNL     1      -8.216  -4.199  -2.077  1.00  0.00     0.029 A 
ATOM     55  C   UNL     1      -8.061  -4.530  -3.480  1.00  0.00     0.049 A 
ATOM     56  H   UNL     1      -9.159  -3.747  -5.083  1.00  0.00     0.167 HD
ATOM     57  C   UNL     1     -10.690  -1.173  -8.366  1.00  0.00     0.031 A 
ATOM     58  C   UNL     1      -7.226  -5.421  -4.069  1.00  0.00     0.031 A 
ATOM     59  C   UNL     1     -11.522  -2.348  -8.429  1.00  0.00     0.049 A 
ATOM     60  C   UNL     1      -7.776  -5.688  -5.419  1.00  0.00     0.074 A 
ATOM     61  C   UNL     1     -12.841  -2.632  -8.140  1.00  0.00     0.029 A 
ATOM     62  N   UNL     1     -10.865  -3.557  -8.455  1.00  0.00    -0.354 N 
ATOM     63  N   UNL     1      -8.932  -6.256  -5.619  1.00  0.00    -0.248 NA
ATOM     64  C   UNL     1      -7.258  -4.921  -6.539  1.00  0.00     0.031 C 
ATOM     65  C   UNL     1     -12.818  -3.936  -7.561  1.00  0.00     0.029 A 
ATOM     66  C   UNL     1     -11.504  -4.409  -7.591  1.00  0.00     0.049 A 
ATOM     67  H   UNL     1     -10.073  -3.772  -8.999  1.00  0.00     0.167 HD
ATOM     68  C   UNL     1      -9.482  -5.575  -6.694  1.00  0.00     0.074 A 
ATOM     69  C   UNL     1      -8.361  -4.852  -7.292  1.00  0.00     0.031 C 
ATOM     70  C   UNL     1     -10.836  -5.442  -6.823  1.00  0.00     0.031 A 
BRANCH  57  71
ATOM     71  C   UNL     1      -9.724  -0.828  -9.477  1.00  0.00    -0.014 A 
ATOM     72  C   UNL     1      -9.970  -1.333 -10.771  1.00  0.00     0.010 A 
ATOM     73  C   UNL     1      -8.454  -0.260  -9.249  1.00  0.00     0.010 A 
ATOM     74  C   UNL     1      -8.973  -1.330 -11.758  1.00  0.00     0.020 A 
ATOM     75  C   UNL     1      -7.469  -0.210 -10.237  1.00  0.00     0.020 A 
ATOM     76  C   UNL     1      -7.723  -0.778 -11.477  1.00  0.00     0.054 A 
BRANCH  76  77
ATOM     77  S   UNL     1      -6.409  -0.871 -12.717  1.00  0.00     0.124 S 
ATOM     78  O   UNL     1      -6.168  -2.308 -12.791  1.00  0.00    -0.237 OA
ATOM     79  O   UNL     1      -7.045  -0.270 -13.886  1.00  0.00    -0.237 OA
ATOM     80  O   UNL     1      -5.329  -0.083 -12.128  1.00  0.00    -0.744 OA
ENDBRANCH  76  77
ENDBRANCH  57  71
BRANCH  58  81
ATOM     81  C   UNL     1      -5.851  -5.811  -3.671  1.00  0.00    -0.014 A 
ATOM     82  C   UNL     1      -5.237  -6.955  -4.216  1.00  0.00     0.010 A 
ATOM     83  C   UNL     1      -5.034  -4.892  -2.982  1.00  0.00     0.010 A 
ATOM     84  C   UNL     1      -3.845  -7.135  -4.139  1.00  0.00     0.020 A 
ATOM     85  C   UNL     1      -3.647  -5.067  -2.899  1.00  0.00     0.020 A 
ATOM     86  C   UNL     1      -3.055  -6.175  -3.502  1.00  0.00     0.054 A 
BRANCH  86  87
ATOM     87  S   UNL     1      -1.243  -6.307  -3.585  1.00  0.00     0.124 S 
ATOM     88  O   UNL     1      -0.974  -7.431  -2.694  1.00  0.00    -0.237 OA
ATOM     89  O   UNL     1      -1.008  -6.553  -5.005  1.00  0.00    -0.237 OA
ATOM     90  O   UNL     1      -0.789  -5.004  -3.101  1.00  0.00    -0.744 OA
ENDBRANCH  86  87
ENDBRANCH  58  81
BRANCH  70  91
ATOM     91  C   UNL     1     -11.721  -6.287  -5.929  1.00  0.00    -0.014 A 
ATOM     92  C   UNL     1     -11.782  -6.148  -4.527  1.00  0.00     0.010 A 
ATOM     93  C   UNL     1     -12.640  -7.145  -6.554  1.00  0.00     0.010 A 
ATOM     94  C   UNL     1     -12.729  -6.862  -3.773  1.00  0.00     0.020 A 
ATOM     95  C   UNL     1     -13.595  -7.846  -5.813  1.00  0.00     0.020 A 
ATOM     96  C   UNL     1     -13.633  -7.706  -4.425  1.00  0.00     0.054 A 
BRANCH  96  97
ATOM     97  S   UNL     1     -14.897  -8.581  -3.459  1.00  0.00     0.124 S 
ATOM     98  O   UNL     1     -14.108  -9.557  -2.712  1.00  0.00    -0.237 OA
ATOM     99  O   UNL     1     -15.496  -7.513  -2.662  1.00  0.00    -0.237 OA
ATOM    100  O   UNL     1     -15.780  -9.150  -4.477  1.00  0.00    -0.744 OA
ENDBRANCH  96  97
ENDBRANCH  70  91
ENDBRANCH  44  45
ENDBRANCH  36  39
ENDBRANCH  34  35
ENDBRANCH  33  34
ENDBRANCH  32  33
ENDBRANCH   1  32
TORSDOF 20
