REMARK SMILES O=C(NCCCCCCNC(=O)[C@H](CO)NC(=O)[C@H](Cc1c[nH]c2ccccc12)NC(=O)c1ccc(F)cc1)c1ccc(-c2c3nc(c(-c4ccc(S(=O)(=O)[O-])cc4)c4ccc([nH]4)c(-c4ccc(S(=O)(=O)[O-])cc4)c4nc(c(-c5ccc(S(=O)(=O)[O-])cc5)c5ccc2[nH]5)C=C4)C=C3)cc1
REMARK SMILES IDX 7 1 6 2 5 3 4 4 3 5 1 6 2 7 40 9 41 10 99 11 42 12 98 13
REMARK SMILES IDX 43 14 44 15 45 16 92 17 46 18 97 19 91 20 93 21 47 22 96 23
REMARK SMILES IDX 90 24 89 25 48 27 78 28 59 29 77 30 60 31 63 32 76 33 94 34
REMARK SMILES IDX 61 35 62 36 75 38 95 39 64 40 49 41 50 42 58 43 51 44 57 45
REMARK SMILES IDX 52 46 53 47 54 48 55 49 56 50 79 51 80 52 88 53 81 54 87 55
REMARK SMILES IDX 82 56 83 57 84 58 85 59 86 60 65 61 66 62 74 63 67 64 73 65
REMARK SMILES IDX 68 66 69 67 70 68 71 69 72 70 8 71 9 72 10 73 11 74 12 76
REMARK SMILES IDX 13 77 16 78 17 79 18 81 19 82 30 83 31 84 32 86 33 87 34 88
REMARK SMILES IDX 39 89 35 90 38 91 36 92 37 93 20 94 21 95 22 96 29 97 23 98
REMARK SMILES IDX 24 99 28 100 25 102 27 103 26 104 14 105 15 106
REMARK H PARENT 3 8 93 26 63 37 10 75 16 80 30 85 23 101 15 107
REMARK Flexibility Score: inf
ROOT
ATOM      1  C   UNL     1       8.623  12.382   7.995  1.00  0.00     0.002 C 
ENDROOT
BRANCH   1   2
ATOM      2  C   UNL     1       9.157  13.735   8.479  1.00  0.00     0.002 C 
BRANCH   2   3
ATOM      3  C   UNL     1       8.433  14.957   7.912  1.00  0.00     0.021 C 
BRANCH   3   4
ATOM      4  C   UNL     1       6.928  14.952   8.130  1.00  0.00     0.116 C 
BRANCH   4   5
ATOM      5  N   UNL     1       6.584  14.993   9.538  1.00  0.00    -0.352 N 
ATOM      6  O   UNL     1       5.609  15.854  11.379  1.00  0.00    -0.269 OA
ATOM      7  C   UNL     1       5.660  15.796  10.159  1.00  0.00     0.251 C 
ATOM      8  H   UNL     1       7.072  14.367  10.120  1.00  0.00     0.163 HD
BRANCH   7   9
ATOM      9  C   UNL     1       4.742  16.600   9.325  1.00  0.00     0.039 A 
ATOM     10  C   UNL     1       4.068  16.012   8.250  1.00  0.00     0.014 A 
ATOM     11  C   UNL     1       4.547  17.948   9.633  1.00  0.00     0.014 A 
ATOM     12  C   UNL     1       3.261  16.791   7.431  1.00  0.00     0.010 A 
ATOM     13  C   UNL     1       3.678  18.713   8.853  1.00  0.00     0.010 A 
ATOM     14  C   UNL     1       3.029  18.139   7.748  1.00  0.00    -0.014 A 
BRANCH  14  15
ATOM     15  C   UNL     1       1.988  18.885   7.004  1.00  0.00     0.031 A 
ATOM     16  C   UNL     1       2.333  20.052   6.125  1.00  0.00     0.074 A 
ATOM     17  C   UNL     1       0.708  18.487   7.151  1.00  0.00     0.049 A 
ATOM     18  N   UNL     1       1.529  20.808   5.423  1.00  0.00    -0.248 NA
ATOM     19  C   UNL     1       3.752  20.424   6.021  1.00  0.00     0.031 C 
ATOM     20  C   UNL     1       0.264  17.377   8.003  1.00  0.00     0.029 A 
ATOM     21  N   UNL     1      -0.451  18.958   6.593  1.00  0.00    -0.354 N 
ATOM     22  C   UNL     1       2.336  21.759   4.812  1.00  0.00     0.074 A 
ATOM     23  C   UNL     1       3.695  21.490   5.231  1.00  0.00     0.031 C 
ATOM     24  C   UNL     1      -1.063  17.234   7.886  1.00  0.00     0.029 A 
ATOM     25  C   UNL     1      -1.572  18.278   7.006  1.00  0.00     0.049 A 
ATOM     26  H   UNL     1      -0.478  19.710   5.958  1.00  0.00     0.167 HD
ATOM     27  C   UNL     1       1.968  22.763   3.980  1.00  0.00     0.031 A 
ATOM     28  C   UNL     1      -2.873  18.488   6.736  1.00  0.00     0.031 A 
ATOM     29  C   UNL     1       0.611  23.012   3.567  1.00  0.00     0.049 A 
ATOM     30  C   UNL     1      -3.246  19.625   5.831  1.00  0.00     0.074 A 
ATOM     31  C   UNL     1       0.146  23.966   2.677  1.00  0.00     0.029 A 
ATOM     32  N   UNL     1      -0.499  22.318   4.024  1.00  0.00    -0.354 N 
ATOM     33  N   UNL     1      -2.459  20.471   5.210  1.00  0.00    -0.248 NA
ATOM     34  C   UNL     1      -4.679  19.841   5.596  1.00  0.00     0.031 C 
ATOM     35  C   UNL     1      -1.250  23.885   2.639  1.00  0.00     0.029 A 
ATOM     36  C   UNL     1      -1.651  22.848   3.465  1.00  0.00     0.049 A 
ATOM     37  H   UNL     1      -0.473  21.561   4.652  1.00  0.00     0.167 HD
ATOM     38  C   UNL     1      -3.304  21.320   4.507  1.00  0.00     0.074 A 
ATOM     39  C   UNL     1      -4.657  20.865   4.754  1.00  0.00     0.031 C 
ATOM     40  C   UNL     1      -2.988  22.387   3.735  1.00  0.00     0.031 A 
BRANCH  27  41
ATOM     41  C   UNL     1       3.035  23.692   3.467  1.00  0.00    -0.014 A 
ATOM     42  C   UNL     1       3.917  23.295   2.447  1.00  0.00     0.010 A 
ATOM     43  C   UNL     1       3.082  25.018   3.936  1.00  0.00     0.010 A 
ATOM     44  C   UNL     1       4.833  24.206   1.912  1.00  0.00     0.020 A 
ATOM     45  C   UNL     1       3.983  25.937   3.391  1.00  0.00     0.020 A 
ATOM     46  C   UNL     1       4.858  25.523   2.384  1.00  0.00     0.054 A 
BRANCH  46  47
ATOM     47  S   UNL     1       6.011  26.700   1.623  1.00  0.00     0.124 S 
ATOM     48  O   UNL     1       7.294  26.252   2.159  1.00  0.00    -0.237 OA
ATOM     49  O   UNL     1       5.811  26.466   0.195  1.00  0.00    -0.237 OA
ATOM     50  O   UNL     1       5.552  27.999   2.109  1.00  0.00    -0.744 OA
ENDBRANCH  46  47
ENDBRANCH  27  41
BRANCH  28  51
ATOM     51  C   UNL     1      -3.912  17.636   7.372  1.00  0.00    -0.014 A 
ATOM     52  C   UNL     1      -4.675  16.739   6.607  1.00  0.00     0.010 A 
ATOM     53  C   UNL     1      -4.137  17.720   8.759  1.00  0.00     0.010 A 
ATOM     54  C   UNL     1      -5.665  15.961   7.214  1.00  0.00     0.020 A 
ATOM     55  C   UNL     1      -5.104  16.923   9.373  1.00  0.00     0.020 A 
ATOM     56  C   UNL     1      -5.875  16.061   8.593  1.00  0.00     0.054 A 
BRANCH  56  57
ATOM     57  S   UNL     1      -7.146  15.024   9.368  1.00  0.00     0.124 S 
ATOM     58  O   UNL     1      -8.370  15.736   9.018  1.00  0.00    -0.237 OA
ATOM     59  O   UNL     1      -6.951  13.735   8.709  1.00  0.00    -0.237 OA
ATOM     60  O   UNL     1      -6.787  15.050  10.785  1.00  0.00    -0.744 OA
ENDBRANCH  56  57
ENDBRANCH  28  51
BRANCH  40  61
ATOM     61  C   UNL     1      -4.131  23.129   3.101  1.00  0.00    -0.014 A 
ATOM     62  C   UNL     1      -4.962  23.963   3.870  1.00  0.00     0.010 A 
ATOM     63  C   UNL     1      -4.356  23.018   1.718  1.00  0.00     0.010 A 
ATOM     64  C   UNL     1      -6.019  24.650   3.271  1.00  0.00     0.020 A 
ATOM     65  C   UNL     1      -5.396  23.724   1.110  1.00  0.00     0.020 A 
ATOM     66  C   UNL     1      -6.230  24.525   1.894  1.00  0.00     0.054 A 
BRANCH  66  67
ATOM     67  S   UNL     1      -7.585  25.457   1.131  1.00  0.00     0.124 S 
ATOM     68  O   UNL     1      -8.754  24.685   1.542  1.00  0.00    -0.237 OA
ATOM     69  O   UNL     1      -7.455  26.776   1.746  1.00  0.00    -0.237 OA
ATOM     70  O   UNL     1      -7.277  25.409  -0.296  1.00  0.00    -0.744 OA
ENDBRANCH  66  67
ENDBRANCH  40  61
ENDBRANCH  14  15
ENDBRANCH   7   9
ENDBRANCH   4   5
ENDBRANCH   3   4
ENDBRANCH   2   3
ENDBRANCH   1   2
BRANCH   1  71
ATOM     71  C   UNL     1       8.503  12.237   6.474  1.00  0.00     0.021 C 
BRANCH  71  72
ATOM     72  C   UNL     1       9.784  12.568   5.723  1.00  0.00     0.116 C 
BRANCH  72  73
ATOM     73  N   UNL     1      10.829  11.613   6.033  1.00  0.00    -0.354 N 
ATOM     74  C   UNL     1      11.650  10.901   5.213  1.00  0.00     0.244 C 
ATOM     75  H   UNL     1      10.969  11.453   6.994  1.00  0.00     0.163 HD
ATOM     76  O   UNL     1      12.541  10.230   5.738  1.00  0.00    -0.273 OA
BRANCH  74  77
ATOM     77  C   UNL     1      11.523  10.997   3.688  1.00  0.00     0.197 C 
BRANCH  77  78
ATOM     78  N   UNL     1      10.212  10.510   3.234  1.00  0.00    -0.340 N 
ATOM     79  C   UNL     1       9.827   9.511   2.394  1.00  0.00     0.243 C 
ATOM     80  H   UNL     1       9.456  11.010   3.617  1.00  0.00     0.164 HD
ATOM     81  O   UNL     1       8.626   9.521   2.103  1.00  0.00    -0.273 OA
BRANCH  79  82
ATOM     82  C   UNL     1      10.828   8.573   1.678  1.00  0.00     0.176 C 
BRANCH  82  83
ATOM     83  N   UNL     1      11.929   8.096   2.519  1.00  0.00    -0.340 N 
ATOM     84  C   UNL     1      13.290   8.087   2.361  1.00  0.00     0.251 C 
ATOM     85  H   UNL     1      11.630   7.702   3.371  1.00  0.00     0.164 HD
ATOM     86  O   UNL     1      13.942   7.383   3.134  1.00  0.00    -0.269 OA
BRANCH  84  87
ATOM     87  C   UNL     1      14.033   8.888   1.338  1.00  0.00     0.040 A 
ATOM     88  C   UNL     1      13.581  10.089   0.781  1.00  0.00     0.017 A 
ATOM     89  C   UNL     1      15.339   8.469   1.026  1.00  0.00     0.017 A 
ATOM     90  C   UNL     1      14.391  10.842  -0.076  1.00  0.00     0.040 A 
ATOM     91  C   UNL     1      16.154   9.222   0.174  1.00  0.00     0.040 A 
ATOM     92  C   UNL     1      15.671  10.402  -0.371  1.00  0.00     0.123 A 
ATOM     93  F   UNL     1      16.457  11.138  -1.167  1.00  0.00    -0.207 F 
ENDBRANCH  84  87
ENDBRANCH  82  83
BRANCH  82  94
ATOM     94  C   UNL     1      10.126   7.405   0.958  1.00  0.00     0.072 C 
BRANCH  94  95
ATOM     95  C   UNL     1       9.292   6.438   1.756  1.00  0.00    -0.020 A 
ATOM     96  C   UNL     1       9.032   6.394   3.112  1.00  0.00     0.087 A 
ATOM     97  C   UNL     1       8.535   5.364   1.166  1.00  0.00     0.003 A 
ATOM     98  N   UNL     1       8.142   5.378   3.353  1.00  0.00    -0.361 N 
ATOM     99  C   UNL     1       7.822   4.733   2.183  1.00  0.00     0.046 A 
ATOM    100  C   UNL     1       8.376   4.894  -0.155  1.00  0.00     0.010 A 
ATOM    101  H   UNL     1       7.784   5.144   4.240  1.00  0.00     0.166 HD
ATOM    102  C   UNL     1       6.952   3.660   1.947  1.00  0.00     0.026 A 
ATOM    103  C   UNL     1       7.515   3.821  -0.410  1.00  0.00     0.001 A 
ATOM    104  C   UNL     1       6.812   3.216   0.628  1.00  0.00     0.002 A 
ENDBRANCH  94  95
ENDBRANCH  82  94
ENDBRANCH  79  82
ENDBRANCH  77  78
BRANCH  77 105
ATOM    105  C   UNL     1      11.814  12.442   3.225  1.00  0.00     0.191 C 
BRANCH 105 106
ATOM    106  O   UNL     1      13.046  12.536   2.511  1.00  0.00    -0.394 OA
ATOM    107  H   UNL     1      13.777  12.267   3.089  1.00  0.00     0.210 HD
ENDBRANCH 105 106
ENDBRANCH  77 105
ENDBRANCH  74  77
ENDBRANCH  72  73
ENDBRANCH  71  72
ENDBRANCH   1  71
TORSDOF 24
