REMARK SMILES C[N@H+](CCC(=O)Nc1sccc1C#N)CC(=O)NCCCCCCNC(=O)c1ccc(-c2c3nc(c(-c4ccc(S(=O)(=O)[O-])cc4)c4ccc([nH]4)c(-c4ccc(S(=O)(=O)[O-])cc4)c4nc(c(-c5ccc(S(=O)(=O)[O-])cc5)c5ccc2[nH]5)C=C4)C=C3)cc1
REMARK SMILES IDX 20 1 19 2 18 3 16 4 17 5 15 7 2 8 1 9 3 11 4 12 5 13 6 14
REMARK SMILES IDX 7 15 8 17 9 18 12 19 10 20 11 21 13 22 14 23 21 24 22 25
REMARK SMILES IDX 23 26 24 27 25 28 26 29 27 31 28 32 29 33 87 34 30 35 86 36
REMARK SMILES IDX 31 37 32 38 33 39 80 40 34 41 85 42 79 43 81 44 35 45 84 46
REMARK SMILES IDX 78 47 77 48 36 50 66 51 47 52 65 53 48 54 51 55 64 56 82 57
REMARK SMILES IDX 49 58 50 59 63 61 83 62 52 63 37 64 38 65 46 66 39 67 45 68
REMARK SMILES IDX 40 69 41 70 42 71 43 72 44 73 67 74 68 75 76 76 69 77 75 78
REMARK SMILES IDX 70 79 71 80 72 81 73 82 74 83 53 84 54 85 62 86 55 87 61 88
REMARK SMILES IDX 56 89 57 90 58 91 59 92 60 93
REMARK H PARENT 18 6 2 10 7 16 25 30 81 49 51 60
REMARK Flexibility Score: inf
ROOT
ATOM      1  C   UNL     1      -3.178  -0.572   1.971  1.00  0.00     0.021 C 
ENDROOT
BRANCH   1   2
ATOM      2  C   UNL     1      -2.131  -0.313   3.045  1.00  0.00     0.116 C 
BRANCH   2   3
ATOM      3  N   UNL     1      -1.067  -1.296   3.045  1.00  0.00    -0.351 N 
ATOM      4  C   UNL     1      -0.020  -1.606   2.251  1.00  0.00     0.275 C 
ATOM      5  O   UNL     1       0.631  -2.596   2.623  1.00  0.00    -0.269 OA
ATOM      6  H   UNL     1      -1.122  -1.893   3.826  1.00  0.00     0.163 HD
BRANCH   4   7
ATOM      7  C   UNL     1       0.549  -0.778   1.110  1.00  0.00     0.363 C 
BRANCH   7   8
ATOM      8  N   UNL     1      -0.345  -0.239   0.078  1.00  0.00    -0.329 N 
ATOM      9  C   UNL     1       0.052  -0.835  -1.223  1.00  0.00     0.333 C 
ATOM     10  H   UNL     1      -1.305  -0.471   0.334  1.00  0.00     0.348 HD
BRANCH   8  11
ATOM     11  C   UNL     1      -0.252   1.242  -0.037  1.00  0.00     0.272 C 
BRANCH  11  12
ATOM     12  C   UNL     1      -0.587   2.132   1.175  1.00  0.00     0.161 C 
BRANCH  12  13
ATOM     13  C   UNL     1       0.136   2.303   2.536  1.00  0.00     0.230 C 
ATOM     14  O   UNL     1      -0.540   2.744   3.481  1.00  0.00    -0.274 OA
ATOM     15  N   UNL     1       1.407   1.962   2.872  1.00  0.00    -0.316 N 
ATOM     16  H   UNL     1       1.568   1.870   3.839  1.00  0.00     0.170 HD
BRANCH  15  17
ATOM     17  C   UNL     1       2.499   1.725   2.084  1.00  0.00     0.113 A 
ATOM     18  S   UNL     1       3.566   0.545   2.716  1.00  0.00    -0.125 S 
ATOM     19  C   UNL     1       2.926   2.209   0.875  1.00  0.00     0.087 A 
ATOM     20  C   UNL     1       4.298   0.346   1.176  1.00  0.00     0.068 A 
ATOM     21  C   UNL     1       3.923   1.354   0.309  1.00  0.00     0.033 A 
BRANCH  19  22
ATOM     22  C   UNL     1       2.401   3.390   0.278  1.00  0.00     0.102 C 
ATOM     23  N   UNL     1       1.938   4.352  -0.191  1.00  0.00    -0.192 NA
ENDBRANCH  19  22
ENDBRANCH  15  17
ENDBRANCH  12  13
ENDBRANCH  11  12
ENDBRANCH   8  11
ENDBRANCH   7   8
ENDBRANCH   4   7
ENDBRANCH   2   3
ENDBRANCH   1   2
BRANCH   1  24
ATOM     24  C   UNL     1      -4.222  -1.566   2.479  1.00  0.00     0.002 C 
BRANCH  24  25
ATOM     25  C   UNL     1      -5.184  -0.963   3.515  1.00  0.00     0.002 C 
BRANCH  25  26
ATOM     26  C   UNL     1      -6.036   0.197   2.991  1.00  0.00     0.021 C 
BRANCH  26  27
ATOM     27  C   UNL     1      -6.751  -0.126   1.685  1.00  0.00     0.116 C 
BRANCH  27  28
ATOM     28  N   UNL     1      -7.530  -1.352   1.825  1.00  0.00    -0.352 N 
ATOM     29  C   UNL     1      -8.893  -1.479   1.859  1.00  0.00     0.251 C 
ATOM     30  H   UNL     1      -7.015  -2.187   1.906  1.00  0.00     0.163 HD
ATOM     31  O   UNL     1      -9.428  -2.451   2.376  1.00  0.00    -0.269 OA
BRANCH  29  32
ATOM     32  C   UNL     1      -9.688  -0.410   1.237  1.00  0.00     0.039 A 
ATOM     33  C   UNL     1     -10.750   0.157   1.937  1.00  0.00     0.014 A 
ATOM     34  C   UNL     1      -9.318   0.059  -0.029  1.00  0.00     0.014 A 
ATOM     35  C   UNL     1     -11.418   1.243   1.378  1.00  0.00     0.010 A 
ATOM     36  C   UNL     1      -9.932   1.189  -0.544  1.00  0.00     0.010 A 
ATOM     37  C   UNL     1     -10.989   1.788   0.154  1.00  0.00    -0.014 A 
BRANCH  37  38
ATOM     38  C   UNL     1     -11.620   3.008  -0.395  1.00  0.00     0.031 A 
ATOM     39  C   UNL     1     -12.352   2.952  -1.705  1.00  0.00     0.074 A 
ATOM     40  C   UNL     1     -11.478   4.172   0.271  1.00  0.00     0.049 A 
ATOM     41  N   UNL     1     -12.945   3.920  -2.352  1.00  0.00    -0.248 NA
ATOM     42  C   UNL     1     -12.413   1.648  -2.390  1.00  0.00     0.031 C 
ATOM     43  C   UNL     1     -10.742   4.344   1.528  1.00  0.00     0.029 A 
ATOM     44  N   UNL     1     -11.941   5.430  -0.015  1.00  0.00    -0.354 N 
ATOM     45  C   UNL     1     -13.434   3.349  -3.521  1.00  0.00     0.074 A 
ATOM     46  C   UNL     1     -13.037   1.960  -3.517  1.00  0.00     0.031 C 
ATOM     47  C   UNL     1     -10.833   5.625   1.919  1.00  0.00     0.029 A 
ATOM     48  C   UNL     1     -11.581   6.375   0.918  1.00  0.00     0.049 A 
ATOM     49  H   UNL     1     -12.480   5.638  -0.812  1.00  0.00     0.167 HD
ATOM     50  C   UNL     1     -14.161   3.934  -4.499  1.00  0.00     0.031 A 
ATOM     51  C   UNL     1     -11.811   7.702   0.950  1.00  0.00     0.031 A 
ATOM     52  C   UNL     1     -14.558   5.317  -4.483  1.00  0.00     0.049 A 
ATOM     53  C   UNL     1     -12.601   8.324  -0.170  1.00  0.00     0.074 A 
ATOM     54  C   UNL     1     -15.359   5.987  -5.391  1.00  0.00     0.029 A 
ATOM     55  N   UNL     1     -14.175   6.243  -3.525  1.00  0.00    -0.354 N 
ATOM     56  N   UNL     1     -13.152   7.744  -1.210  1.00  0.00    -0.248 NA
ATOM     57  C   UNL     1     -12.808   9.777  -0.110  1.00  0.00     0.031 C 
ATOM     58  C   UNL     1     -15.391   7.335  -5.029  1.00  0.00     0.029 A 
ATOM     59  C   UNL     1     -14.680   7.490  -3.849  1.00  0.00     0.049 A 
ATOM     60  H   UNL     1     -13.627   6.043  -2.733  1.00  0.00     0.167 HD
ATOM     61  C   UNL     1     -13.787   8.760  -1.916  1.00  0.00     0.074 A 
ATOM     62  C   UNL     1     -13.583   9.981  -1.165  1.00  0.00     0.031 C 
ATOM     63  C   UNL     1     -14.467   8.693  -3.086  1.00  0.00     0.031 A 
BRANCH  50  64
ATOM     64  C   UNL     1     -14.571   3.100  -5.684  1.00  0.00    -0.014 A 
ATOM     65  C   UNL     1     -15.554   2.102  -5.570  1.00  0.00     0.010 A 
ATOM     66  C   UNL     1     -14.045   3.404  -6.954  1.00  0.00     0.010 A 
ATOM     67  C   UNL     1     -16.004   1.423  -6.706  1.00  0.00     0.020 A 
ATOM     68  C   UNL     1     -14.513   2.747  -8.094  1.00  0.00     0.020 A 
ATOM     69  C   UNL     1     -15.489   1.759  -7.962  1.00  0.00     0.054 A 
BRANCH  69  70
ATOM     70  S   UNL     1     -16.162   0.926  -9.426  1.00  0.00     0.124 S 
ATOM     71  O   UNL     1     -15.673  -0.439  -9.250  1.00  0.00    -0.237 OA
ATOM     72  O   UNL     1     -17.602   1.104  -9.258  1.00  0.00    -0.237 OA
ATOM     73  O   UNL     1     -15.572   1.657 -10.545  1.00  0.00    -0.744 OA
ENDBRANCH  69  70
ENDBRANCH  50  64
BRANCH  51  74
ATOM     74  C   UNL     1     -11.258   8.540   2.052  1.00  0.00    -0.014 A 
ATOM     75  C   UNL     1     -12.109   9.231   2.933  1.00  0.00     0.010 A 
ATOM     76  C   UNL     1      -9.866   8.687   2.196  1.00  0.00     0.010 A 
ATOM     77  C   UNL     1     -11.581  10.091   3.900  1.00  0.00     0.020 A 
ATOM     78  C   UNL     1      -9.333   9.512   3.189  1.00  0.00     0.020 A 
ATOM     79  C   UNL     1     -10.195  10.229   4.018  1.00  0.00     0.054 A 
BRANCH  79  80
ATOM     80  S   UNL     1      -9.532  11.357   5.274  1.00  0.00     0.124 S 
ATOM     81  O   UNL     1      -9.890  12.662   4.729  1.00  0.00    -0.237 OA
ATOM     82  O   UNL     1     -10.258  10.950   6.475  1.00  0.00    -0.237 OA
ATOM     83  O   UNL     1      -8.102  11.053   5.286  1.00  0.00    -0.744 OA
ENDBRANCH  79  80
ENDBRANCH  51  74
BRANCH  63  84
ATOM     84  C   UNL     1     -15.061   9.972  -3.616  1.00  0.00    -0.014 A 
ATOM     85  C   UNL     1     -14.242  11.004  -4.108  1.00  0.00     0.010 A 
ATOM     86  C   UNL     1     -16.459  10.117  -3.679  1.00  0.00     0.010 A 
ATOM     87  C   UNL     1     -14.811  12.171  -4.622  1.00  0.00     0.020 A 
ATOM     88  C   UNL     1     -17.032  11.266  -4.227  1.00  0.00     0.020 A 
ATOM     89  C   UNL     1     -16.203  12.292  -4.684  1.00  0.00     0.054 A 
BRANCH  89  90
ATOM     90  S   UNL     1     -16.911  13.795  -5.407  1.00  0.00     0.124 S 
ATOM     91  O   UNL     1     -16.580  14.802  -4.403  1.00  0.00    -0.237 OA
ATOM     92  O   UNL     1     -16.192  13.909  -6.673  1.00  0.00    -0.237 OA
ATOM     93  O   UNL     1     -18.334  13.485  -5.530  1.00  0.00    -0.744 OA
ENDBRANCH  89  90
ENDBRANCH  63  84
ENDBRANCH  37  38
ENDBRANCH  29  32
ENDBRANCH  27  28
ENDBRANCH  26  27
ENDBRANCH  25  26
ENDBRANCH  24  25
ENDBRANCH   1  24
TORSDOF 22
