REMARK SMILES O=C(NCCCCCCNC(=O)[C@H]1CC[C@@H](CNc2cccc(F)c2[N+](=O)[O-])O1)c1ccc(-c2c3nc(c(-c4ccc(S(=O)(=O)[O-])cc4)c4ccc([nH]4)c(-c4ccc(S(=O)(=O)[O-])cc4)c4nc(c(-c5ccc(S(=O)(=O)[O-])cc5)c5ccc2[nH]5)C=C4)C=C3)cc1
REMARK SMILES IDX 7 1 6 2 5 3 4 4 3 5 1 6 2 7 30 9 31 10 89 11 32 12 88 13
REMARK SMILES IDX 33 14 34 15 35 16 82 17 36 18 87 19 81 20 83 21 37 22 86 23
REMARK SMILES IDX 80 24 79 25 38 27 68 28 49 29 67 30 50 31 53 32 66 33 84 34
REMARK SMILES IDX 51 35 52 36 65 38 85 39 54 40 39 41 40 42 48 43 41 44 47 45
REMARK SMILES IDX 42 46 43 47 44 48 45 49 46 50 69 51 70 52 78 53 71 54 77 55
REMARK SMILES IDX 72 56 73 57 74 58 75 59 76 60 55 61 56 62 64 63 57 64 63 65
REMARK SMILES IDX 58 66 59 67 60 68 61 69 62 70 8 71 9 72 10 73 11 74 12 76
REMARK SMILES IDX 13 77 14 78 29 79 15 80 16 81 17 82 18 83 19 85 20 86 25 87
REMARK SMILES IDX 21 88 23 89 22 90 24 91 26 92 27 93 28 94
REMARK H PARENT 3 8 83 26 53 37 10 75 18 84
REMARK Flexibility Score: inf
ROOT
ATOM      1  C   UNL     1       5.800   1.626  -3.178  1.00  0.00     0.002 C 
ENDROOT
BRANCH   1   2
ATOM      2  C   UNL     1       5.597   3.038  -2.619  1.00  0.00     0.002 C 
BRANCH   2   3
ATOM      3  C   UNL     1       4.387   3.796  -3.167  1.00  0.00     0.021 C 
BRANCH   3   4
ATOM      4  C   UNL     1       3.046   3.106  -2.955  1.00  0.00     0.116 C 
BRANCH   4   5
ATOM      5  N   UNL     1       2.655   3.060  -1.556  1.00  0.00    -0.352 N 
ATOM      6  O   UNL     1       1.365   3.490   0.244  1.00  0.00    -0.269 OA
ATOM      7  C   UNL     1       1.469   3.450  -0.975  1.00  0.00     0.251 C 
ATOM      8  H   UNL     1       3.332   2.701  -0.938  1.00  0.00     0.163 HD
BRANCH   7   9
ATOM      9  C   UNL     1       0.328   3.844  -1.835  1.00  0.00     0.039 A 
ATOM     10  C   UNL     1      -0.020   3.080  -2.950  1.00  0.00     0.014 A 
ATOM     11  C   UNL     1      -0.406   4.992  -1.517  1.00  0.00     0.014 A 
ATOM     12  C   UNL     1      -1.004   3.535  -3.821  1.00  0.00     0.010 A 
ATOM     13  C   UNL     1      -1.452   5.404  -2.350  1.00  0.00     0.010 A 
ATOM     14  C   UNL     1      -1.742   4.694  -3.525  1.00  0.00    -0.014 A 
BRANCH  14  15
ATOM     15  C   UNL     1      -2.849   5.092  -4.432  1.00  0.00     0.031 A 
ATOM     16  C   UNL     1      -2.794   6.367  -5.229  1.00  0.00     0.074 A 
ATOM     17  C   UNL     1      -3.895   4.252  -4.573  1.00  0.00     0.049 A 
ATOM     18  N   UNL     1      -3.648   6.818  -6.113  1.00  0.00    -0.248 NA
ATOM     19  C   UNL     1      -1.639   7.251  -5.008  1.00  0.00     0.031 C 
ATOM     20  C   UNL     1      -4.069   2.994  -3.840  1.00  0.00     0.029 A 
ATOM     21  N   UNL     1      -4.990   4.309  -5.396  1.00  0.00    -0.354 N 
ATOM     22  C   UNL     1      -3.142   8.038  -6.548  1.00  0.00     0.074 A 
ATOM     23  C   UNL     1      -1.919   8.271  -5.809  1.00  0.00     0.031 C 
ATOM     24  C   UNL     1      -5.171   2.374  -4.285  1.00  0.00     0.029 A 
ATOM     25  C   UNL     1      -5.813   3.213  -5.290  1.00  0.00     0.049 A 
ATOM     26  H   UNL     1      -5.170   5.063  -6.004  1.00  0.00     0.167 HD
ATOM     27  C   UNL     1      -3.645   8.881  -7.483  1.00  0.00     0.031 A 
ATOM     28  C   UNL     1      -6.963   2.915  -5.923  1.00  0.00     0.031 A 
ATOM     29  C   UNL     1      -4.867   8.650  -8.210  1.00  0.00     0.049 A 
ATOM     30  C   UNL     1      -7.501   3.871  -6.946  1.00  0.00     0.074 A 
ATOM     31  C   UNL     1      -5.459   9.447  -9.176  1.00  0.00     0.029 A 
ATOM     32  N   UNL     1      -5.685   7.541  -8.056  1.00  0.00    -0.354 N 
ATOM     33  N   UNL     1      -6.995   5.011  -7.352  1.00  0.00    -0.248 NA
ATOM     34  C   UNL     1      -8.763   3.499  -7.599  1.00  0.00     0.031 C 
ATOM     35  C   UNL     1      -6.652   8.837  -9.579  1.00  0.00     0.029 A 
ATOM     36  C   UNL     1      -6.779   7.636  -8.900  1.00  0.00     0.049 A 
ATOM     37  H   UNL     1      -5.512   6.794  -7.437  1.00  0.00     0.167 HD
ATOM     38  C   UNL     1      -7.875   5.491  -8.313  1.00  0.00     0.074 A 
ATOM     39  C   UNL     1      -8.927   4.502  -8.450  1.00  0.00     0.031 C 
ATOM     40  C   UNL     1      -7.822   6.650  -9.015  1.00  0.00     0.031 A 
BRANCH  27  41
ATOM     41  C   UNL     1      -2.876  10.144  -7.771  1.00  0.00    -0.014 A 
ATOM     42  C   UNL     1      -1.673  10.107  -8.499  1.00  0.00     0.010 A 
ATOM     43  C   UNL     1      -3.389  11.388  -7.361  1.00  0.00     0.010 A 
ATOM     44  C   UNL     1      -0.982  11.288  -8.786  1.00  0.00     0.020 A 
ATOM     45  C   UNL     1      -2.712  12.574  -7.665  1.00  0.00     0.020 A 
ATOM     46  C   UNL     1      -1.504  12.514  -8.364  1.00  0.00     0.054 A 
BRANCH  46  47
ATOM     47  S   UNL     1      -0.600  14.033  -8.775  1.00  0.00     0.124 S 
ATOM     48  O   UNL     1       0.525  13.973  -7.845  1.00  0.00    -0.237 OA
ATOM     49  O   UNL     1      -0.262  13.835 -10.182  1.00  0.00    -0.237 OA
ATOM     50  O   UNL     1      -1.569  15.095  -8.513  1.00  0.00    -0.744 OA
ENDBRANCH  46  47
ENDBRANCH  27  41
BRANCH  28  51
ATOM     51  C   UNL     1      -7.685   1.660  -5.585  1.00  0.00    -0.014 A 
ATOM     52  C   UNL     1      -7.749   0.595  -6.501  1.00  0.00     0.010 A 
ATOM     53  C   UNL     1      -8.299   1.520  -4.327  1.00  0.00     0.010 A 
ATOM     54  C   UNL     1      -8.431  -0.579  -6.170  1.00  0.00     0.020 A 
ATOM     55  C   UNL     1      -8.956   0.337  -3.982  1.00  0.00     0.020 A 
ATOM     56  C   UNL     1      -9.031  -0.700  -4.913  1.00  0.00     0.054 A 
BRANCH  56  57
ATOM     57  S   UNL     1      -9.871  -2.249  -4.482  1.00  0.00     0.124 S 
ATOM     58  O   UNL     1     -11.145  -2.104  -5.178  1.00  0.00    -0.237 OA
ATOM     59  O   UNL     1      -8.967  -3.263  -5.019  1.00  0.00    -0.237 OA
ATOM     60  O   UNL     1      -9.942  -2.201  -3.023  1.00  0.00    -0.744 OA
ENDBRANCH  56  57
ENDBRANCH  28  51
BRANCH  40  61
ATOM     61  C   UNL     1      -8.929   6.896 -10.003  1.00  0.00    -0.014 A 
ATOM     62  C   UNL     1     -10.223   7.236  -9.570  1.00  0.00     0.010 A 
ATOM     63  C   UNL     1      -8.666   6.802 -11.381  1.00  0.00     0.010 A 
ATOM     64  C   UNL     1     -11.248   7.434 -10.500  1.00  0.00     0.020 A 
ATOM     65  C   UNL     1      -9.682   7.024 -12.313  1.00  0.00     0.020 A 
ATOM     66  C   UNL     1     -10.972   7.319 -11.866  1.00  0.00     0.054 A 
BRANCH  66  67
ATOM     67  S   UNL     1     -12.312   7.597 -13.056  1.00  0.00     0.124 S 
ATOM     68  O   UNL     1     -13.059   6.346 -12.968  1.00  0.00    -0.237 OA
ATOM     69  O   UNL     1     -12.988   8.773 -12.513  1.00  0.00    -0.237 OA
ATOM     70  O   UNL     1     -11.610   7.818 -14.319  1.00  0.00    -0.744 OA
ENDBRANCH  66  67
ENDBRANCH  40  61
ENDBRANCH  14  15
ENDBRANCH   7   9
ENDBRANCH   4   5
ENDBRANCH   3   4
ENDBRANCH   2   3
ENDBRANCH   1   2
BRANCH   1  71
ATOM     71  C   UNL     1       5.824   1.511  -4.709  1.00  0.00     0.021 C 
BRANCH  71  72
ATOM     72  C   UNL     1       6.871   2.388  -5.396  1.00  0.00     0.116 C 
BRANCH  72  73
ATOM     73  N   UNL     1       8.216   2.002  -5.019  1.00  0.00    -0.354 N 
ATOM     74  C   UNL     1       9.123   1.254  -5.715  1.00  0.00     0.249 C 
ATOM     75  H   UNL     1       8.518   2.324  -4.139  1.00  0.00     0.163 HD
ATOM     76  O   UNL     1      10.176   0.944  -5.153  1.00  0.00    -0.272 OA
BRANCH  74  77
ATOM     77  C   UNL     1       8.803   0.850  -7.169  1.00  0.00     0.207 C 
ATOM     78  C   UNL     1       9.061   2.005  -8.127  1.00  0.00     0.045 C 
ATOM     79  O   UNL     1       9.656  -0.221  -7.601  1.00  0.00    -0.363 OA
ATOM     80  C   UNL     1      10.527   1.824  -8.444  1.00  0.00     0.037 C 
ATOM     81  C   UNL     1      10.663   0.308  -8.491  1.00  0.00     0.138 C 
BRANCH  81  82
ATOM     82  C   UNL     1      12.043  -0.314  -8.172  1.00  0.00     0.145 C 
BRANCH  82  83
ATOM     83  N   UNL     1      12.993   0.614  -7.561  1.00  0.00    -0.377 N 
ATOM     84  H   UNL     1      13.354   1.346  -8.111  1.00  0.00     0.160 HD
BRANCH  83  85
ATOM     85  C   UNL     1      13.410   0.513  -6.240  1.00  0.00     0.116 A 
ATOM     86  C   UNL     1      13.782  -0.732  -5.705  1.00  0.00     0.033 A 
ATOM     87  C   UNL     1      13.449   1.613  -5.357  1.00  0.00     0.327 A 
ATOM     88  C   UNL     1      14.198  -0.870  -4.374  1.00  0.00     0.006 A 
ATOM     89  C   UNL     1      13.857   1.482  -4.030  1.00  0.00     0.202 A 
ATOM     90  C   UNL     1      14.235   0.240  -3.536  1.00  0.00     0.047 A 
ATOM     91  F   UNL     1      13.936   2.541  -3.212  1.00  0.00    -0.199 F 
BRANCH  87  92
ATOM     92  N   UNL     1      13.079   2.936  -5.811  1.00  0.00     0.068 N 
ATOM     93  O   UNL     1      13.574   3.328  -6.882  1.00  0.00    -0.258 OA
ATOM     94  O   UNL     1      12.293   3.597  -5.117  1.00  0.00    -0.258 OA
ENDBRANCH  87  92
ENDBRANCH  83  85
ENDBRANCH  82  83
ENDBRANCH  81  82
ENDBRANCH  74  77
ENDBRANCH  72  73
ENDBRANCH  71  72
ENDBRANCH   1  71
TORSDOF 20
