REMARK SMILES Cc1cscc1C(=O)N1C[C@@H](C(=O)NCCCCCCNC(=O)c2ccc(-c3c4nc(c(-c5ccc(S(=O)(=O)[O-])cc5)c5ccc([nH]5)c(-c5ccc(S(=O)(=O)[O-])cc5)c5nc(c(-c6ccc(S(=O)(=O)[O-])cc6)c6ccc3[nH]6)C=C5)C=C4)cc2)Oc2ccccc21
REMARK SMILES IDX 18 1 17 2 16 3 15 4 14 5 12 6 13 7 11 9 9 10 10 11 90 12
REMARK SMILES IDX 85 13 89 14 84 15 86 16 88 17 87 18 7 19 8 20 6 21 1 22 2 23
REMARK SMILES IDX 3 24 4 25 5 26 19 27 20 28 21 29 22 30 23 32 24 33 25 34
REMARK SMILES IDX 83 35 26 36 82 37 27 38 28 39 29 40 76 41 30 42 81 43 75 44
REMARK SMILES IDX 77 45 31 46 80 47 74 48 73 49 32 51 62 52 43 53 61 54 44 55
REMARK SMILES IDX 47 56 60 57 78 58 45 59 46 60 59 62 79 63 48 64 33 65 34 66
REMARK SMILES IDX 42 67 35 68 41 69 36 70 37 71 38 72 39 73 40 74 63 75 64 76
REMARK SMILES IDX 72 77 65 78 71 79 66 80 67 81 68 82 69 83 70 84 49 85 50 86
REMARK SMILES IDX 58 87 51 88 57 89 52 90 53 91 54 92 55 93 56 94
REMARK H PARENT 14 8 21 31 77 50 47 61
REMARK Flexibility Score: inf
ROOT
ATOM      1  C   UNL     1       3.684   8.332   0.261  1.00  0.00     0.002 C 
ENDROOT
BRANCH   1   2
ATOM      2  C   UNL     1       4.545   8.367  -1.004  1.00  0.00     0.002 C 
BRANCH   2   3
ATOM      3  C   UNL     1       5.655   7.316  -1.113  1.00  0.00     0.021 C 
BRANCH   3   4
ATOM      4  C   UNL     1       5.240   5.867  -0.866  1.00  0.00     0.116 C 
BRANCH   4   5
ATOM      5  N   UNL     1       4.189   5.400  -1.747  1.00  0.00    -0.353 N 
ATOM      6  C   UNL     1       3.680   4.139  -1.869  1.00  0.00     0.262 C 
ATOM      7  O   UNL     1       2.671   4.003  -2.573  1.00  0.00    -0.271 OA
ATOM      8  H   UNL     1       3.789   6.081  -2.335  1.00  0.00     0.163 HD
BRANCH   6   9
ATOM      9  C   UNL     1       4.392   2.899  -1.263  1.00  0.00     0.281 C 
ATOM     10  N   UNL     1       2.717   2.253   0.450  1.00  0.00    -0.301 N 
ATOM     11  C   UNL     1       3.350   1.864  -0.824  1.00  0.00     0.181 C 
ATOM     12  C   UNL     1       3.614   2.844   1.399  1.00  0.00     0.086 A 
ATOM     13  C   UNL     1       4.931   3.140   1.009  1.00  0.00     0.144 A 
ATOM     14  C   UNL     1       3.260   3.067   2.737  1.00  0.00     0.030 A 
ATOM     15  O   UNL     1       5.401   3.034  -0.276  1.00  0.00    -0.477 OA
ATOM     16  C   UNL     1       5.873   3.599   1.935  1.00  0.00     0.049 A 
ATOM     17  C   UNL     1       4.195   3.555   3.657  1.00  0.00     0.002 A 
ATOM     18  C   UNL     1       5.503   3.812   3.259  1.00  0.00     0.004 A 
BRANCH  10  19
ATOM     19  C   UNL     1       1.354   2.072   0.684  1.00  0.00     0.259 C 
ATOM     20  O   UNL     1       0.687   2.756   1.480  1.00  0.00    -0.269 OA
BRANCH  19  21
ATOM     21  C   UNL     1       0.687   0.998  -0.066  1.00  0.00     0.053 A 
ATOM     22  C   UNL     1       2.173  -1.033   0.687  1.00  0.00     0.046 C 
ATOM     23  C   UNL     1       1.049  -0.410  -0.086  1.00  0.00    -0.028 A 
ATOM     24  C   UNL     1       0.187  -1.136  -0.896  1.00  0.00     0.069 A 
ATOM     25  S   UNL     1      -1.054  -0.177  -1.577  1.00  0.00    -0.151 S 
ATOM     26  C   UNL     1      -0.466   1.227  -0.801  1.00  0.00     0.079 A 
ENDBRANCH  19  21
ENDBRANCH  10  19
ENDBRANCH   6   9
ENDBRANCH   4   5
ENDBRANCH   3   4
ENDBRANCH   2   3
ENDBRANCH   1   2
BRANCH   1  27
ATOM     27  C   UNL     1       4.417   8.448   1.602  1.00  0.00     0.021 C 
BRANCH  27  28
ATOM     28  C   UNL     1       5.407   9.604   1.747  1.00  0.00     0.116 C 
BRANCH  28  29
ATOM     29  N   UNL     1       4.831  10.903   1.464  1.00  0.00    -0.352 N 
ATOM     30  C   UNL     1       5.119  12.136   1.996  1.00  0.00     0.251 C 
ATOM     31  H   UNL     1       4.120  10.902   0.783  1.00  0.00     0.163 HD
ATOM     32  O   UNL     1       4.452  13.105   1.638  1.00  0.00    -0.269 OA
BRANCH  30  33
ATOM     33  C   UNL     1       6.185  12.318   3.014  1.00  0.00     0.039 A 
ATOM     34  C   UNL     1       5.934  13.208   4.068  1.00  0.00     0.014 A 
ATOM     35  C   UNL     1       7.429  11.685   2.930  1.00  0.00     0.014 A 
ATOM     36  C   UNL     1       6.898  13.421   5.058  1.00  0.00     0.010 A 
ATOM     37  C   UNL     1       8.380  11.870   3.938  1.00  0.00     0.010 A 
ATOM     38  C   UNL     1       8.122  12.737   5.012  1.00  0.00    -0.014 A 
BRANCH  38  39
ATOM     39  C   UNL     1       9.125  12.914   6.090  1.00  0.00     0.031 A 
ATOM     40  C   UNL     1      10.382  13.701   5.851  1.00  0.00     0.074 A 
ATOM     41  C   UNL     1       8.924  12.327   7.286  1.00  0.00     0.049 A 
ATOM     42  N   UNL     1      11.377  13.930   6.671  1.00  0.00    -0.248 NA
ATOM     43  C   UNL     1      10.549  14.294   4.516  1.00  0.00     0.031 C 
ATOM     44  C   UNL     1       7.770  11.499   7.640  1.00  0.00     0.029 A 
ATOM     45  N   UNL     1       9.693  12.334   8.422  1.00  0.00    -0.354 N 
ATOM     46  C   UNL     1      12.302  14.668   5.945  1.00  0.00     0.074 A 
ATOM     47  C   UNL     1      11.751  14.847   4.617  1.00  0.00     0.031 C 
ATOM     48  C   UNL     1       7.902  11.084   8.911  1.00  0.00     0.029 A 
ATOM     49  C   UNL     1       9.152  11.609   9.456  1.00  0.00     0.049 A 
ATOM     50  H   UNL     1      10.550  12.812   8.490  1.00  0.00     0.167 HD
ATOM     51  C   UNL     1      13.503  15.154   6.342  1.00  0.00     0.031 A 
ATOM     52  C   UNL     1       9.605  11.391  10.704  1.00  0.00     0.031 A 
ATOM     53  C   UNL     1      14.051  15.011   7.664  1.00  0.00     0.049 A 
ATOM     54  C   UNL     1      10.900  12.005  11.147  1.00  0.00     0.074 A 
ATOM     55  C   UNL     1      15.243  15.508   8.163  1.00  0.00     0.029 A 
ATOM     56  N   UNL     1      13.440  14.325   8.700  1.00  0.00    -0.354 N 
ATOM     57  N   UNL     1      11.742  12.732  10.455  1.00  0.00    -0.248 NA
ATOM     58  C   UNL     1      11.298  11.777  12.543  1.00  0.00     0.031 C 
ATOM     59  C   UNL     1      15.354  15.117   9.504  1.00  0.00     0.029 A 
ATOM     60  C   UNL     1      14.227  14.384   9.838  1.00  0.00     0.049 A 
ATOM     61  H   UNL     1      12.572  13.863   8.638  1.00  0.00     0.167 HD
ATOM     62  C   UNL     1      12.770  13.053  11.333  1.00  0.00     0.074 A 
ATOM     63  C   UNL     1      12.440  12.449  12.608  1.00  0.00     0.031 C 
ATOM     64  C   UNL     1      13.887  13.783  11.100  1.00  0.00     0.031 A 
BRANCH  51  65
ATOM     65  C   UNL     1      14.311  15.880   5.306  1.00  0.00    -0.014 A 
ATOM     66  C   UNL     1      14.057  17.235   5.020  1.00  0.00     0.010 A 
ATOM     67  C   UNL     1      15.321  15.193   4.604  1.00  0.00     0.010 A 
ATOM     68  C   UNL     1      14.777  17.882   4.012  1.00  0.00     0.020 A 
ATOM     69  C   UNL     1      16.049  15.839   3.602  1.00  0.00     0.020 A 
ATOM     70  C   UNL     1      15.755  17.174   3.298  1.00  0.00     0.054 A 
BRANCH  70  71
ATOM     71  S   UNL     1      16.675  18.009   1.973  1.00  0.00     0.124 S 
ATOM     72  O   UNL     1      15.836  17.732   0.809  1.00  0.00    -0.237 OA
ATOM     73  O   UNL     1      16.700  19.403   2.409  1.00  0.00    -0.237 OA
ATOM     74  O   UNL     1      17.971  17.335   1.986  1.00  0.00    -0.744 OA
ENDBRANCH  70  71
ENDBRANCH  51  65
BRANCH  52  75
ATOM     75  C   UNL     1       8.804  10.559  11.634  1.00  0.00    -0.014 A 
ATOM     76  C   UNL     1       7.903  11.168  12.528  1.00  0.00     0.010 A 
ATOM     77  C   UNL     1       8.911   9.156  11.593  1.00  0.00     0.010 A 
ATOM     78  C   UNL     1       7.112  10.384  13.372  1.00  0.00     0.020 A 
ATOM     79  C   UNL     1       8.117   8.371  12.431  1.00  0.00     0.020 A 
ATOM     80  C   UNL     1       7.226   8.990  13.318  1.00  0.00     0.054 A 
BRANCH  80  81
ATOM     81  S   UNL     1       6.143   7.963  14.353  1.00  0.00     0.124 S 
ATOM     82  O   UNL     1       6.960   7.766  15.545  1.00  0.00    -0.237 OA
ATOM     83  O   UNL     1       4.960   8.803  14.528  1.00  0.00    -0.237 OA
ATOM     84  O   UNL     1       5.932   6.774  13.529  1.00  0.00    -0.744 OA
ENDBRANCH  80  81
ENDBRANCH  52  75
BRANCH  64  85
ATOM     85  C   UNL     1      14.827  13.974  12.254  1.00  0.00    -0.014 A 
ATOM     86  C   UNL     1      15.790  12.993  12.558  1.00  0.00     0.010 A 
ATOM     87  C   UNL     1      14.762  15.150  13.025  1.00  0.00     0.010 A 
ATOM     88  C   UNL     1      16.663  13.177  13.633  1.00  0.00     0.020 A 
ATOM     89  C   UNL     1      15.638  15.339  14.096  1.00  0.00     0.020 A 
ATOM     90  C   UNL     1      16.575  14.345  14.401  1.00  0.00     0.054 A 
BRANCH  90  91
ATOM     91  S   UNL     1      17.731  14.598  15.779  1.00  0.00     0.124 S 
ATOM     92  O   UNL     1      17.006  14.001  16.896  1.00  0.00    -0.237 OA
ATOM     93  O   UNL     1      18.926  13.875  15.349  1.00  0.00    -0.237 OA
ATOM     94  O   UNL     1      17.878  16.051  15.831  1.00  0.00    -0.744 OA
ENDBRANCH  90  91
ENDBRANCH  64  85
ENDBRANCH  38  39
ENDBRANCH  30  33
ENDBRANCH  28  29
ENDBRANCH  27  28
ENDBRANCH   1  27
TORSDOF 18
