REMARK SMILES CC(C)c1nc(C(=O)NCCCCCCNC(=O)c2ccc(-c3c4nc(c(-c5ccc(S(=O)(=O)[O-])cc5)c5ccc([nH]5)c(-c5ccc(S(=O)(=O)[O-])cc5)c5nc(c(-c6ccc(S(=O)(=O)[O-])cc6)c6ccc3[nH]6)C=C5)C=C4)cc2)nn1-c1ccccc1F
REMARK SMILES IDX 13 1 12 2 11 3 10 4 9 5 7 6 8 7 6 9 4 10 5 11 80 12 79 13
REMARK SMILES IDX 2 14 1 15 3 16 81 17 82 18 86 19 83 20 85 21 87 22 84 23
REMARK SMILES IDX 14 24 15 25 16 26 17 27 18 29 19 30 20 31 78 32 21 33 77 34
REMARK SMILES IDX 22 35 23 36 24 37 71 38 25 39 76 40 70 41 72 42 26 43 75 44
REMARK SMILES IDX 69 45 68 46 27 48 57 49 38 50 56 51 39 52 42 53 55 54 73 55
REMARK SMILES IDX 40 56 41 57 54 59 74 60 43 61 28 62 29 63 37 64 30 65 36 66
REMARK SMILES IDX 31 67 32 68 33 69 34 70 35 71 58 72 59 73 67 74 60 75 66 76
REMARK SMILES IDX 61 77 62 78 63 79 64 80 65 81 44 82 45 83 53 84 46 85 52 86
REMARK SMILES IDX 47 87 48 88 49 89 50 90 51 91
REMARK H PARENT 9 8 16 28 72 47 42 58
REMARK Flexibility Score: inf
ROOT
ATOM      1  C   UNL     1      -8.901   1.468   1.620  1.00  0.00     0.002 C 
ENDROOT
BRANCH   1   2
ATOM      2  C   UNL     1      -8.253   0.958   0.324  1.00  0.00     0.002 C 
BRANCH   2   3
ATOM      3  C   UNL     1      -6.768   1.265   0.132  1.00  0.00     0.021 C 
BRANCH   3   4
ATOM      4  C   UNL     1      -5.843   0.821   1.261  1.00  0.00     0.116 C 
BRANCH   4   5
ATOM      5  N   UNL     1      -5.685  -0.622   1.338  1.00  0.00    -0.349 N 
ATOM      6  C   UNL     1      -4.525  -1.376   1.446  1.00  0.00     0.290 C 
ATOM      7  O   UNL     1      -4.647  -2.603   1.453  1.00  0.00    -0.266 OA
ATOM      8  H   UNL     1      -6.522  -1.140   1.308  1.00  0.00     0.163 HD
BRANCH   6   9
ATOM      9  C   UNL     1      -3.206  -0.704   1.530  1.00  0.00     0.239 A 
ATOM     10  C   UNL     1      -1.119  -0.331   1.256  1.00  0.00     0.136 A 
ATOM     11  N   UNL     1      -2.017  -1.298   1.151  1.00  0.00    -0.207 NA
ATOM     12  N   UNL     1      -1.794   0.841   1.565  1.00  0.00    -0.214 N 
ATOM     13  N   UNL     1      -3.020   0.526   2.039  1.00  0.00    -0.140 NA
BRANCH  10  14
ATOM     14  C   UNL     1       0.370  -0.560   1.317  1.00  0.00     0.051 C 
ATOM     15  C   UNL     1       1.079  -0.451  -0.027  1.00  0.00     0.016 C 
ATOM     16  C   UNL     1       1.074   0.269   2.393  1.00  0.00     0.016 C 
ENDBRANCH  10  14
BRANCH  12  17
ATOM     17  C   UNL     1      -1.423   2.193   1.468  1.00  0.00     0.102 A 
ATOM     18  C   UNL     1      -1.833   3.096   2.459  1.00  0.00     0.031 A 
ATOM     19  C   UNL     1      -0.734   2.656   0.352  1.00  0.00     0.148 A 
ATOM     20  C   UNL     1      -1.461   4.438   2.364  1.00  0.00     0.002 A 
ATOM     21  C   UNL     1      -0.375   3.996   0.250  1.00  0.00     0.041 A 
ATOM     22  F   UNL     1      -0.505   1.855  -0.693  1.00  0.00    -0.205 F 
ATOM     23  C   UNL     1      -0.723   4.886   1.266  1.00  0.00     0.003 A 
ENDBRANCH  12  17
ENDBRANCH   6   9
ENDBRANCH   4   5
ENDBRANCH   3   4
ENDBRANCH   2   3
ENDBRANCH   1   2
BRANCH   1  24
ATOM     24  C   UNL     1      -8.695   2.947   1.978  1.00  0.00     0.021 C 
BRANCH  24  25
ATOM     25  C   UNL     1      -9.261   3.930   0.965  1.00  0.00     0.116 C 
BRANCH  25  26
ATOM     26  N   UNL     1     -10.723   3.905   0.888  1.00  0.00    -0.352 N 
ATOM     27  C   UNL     1     -11.549   4.653   0.061  1.00  0.00     0.251 C 
ATOM     28  H   UNL     1     -11.176   3.281   1.499  1.00  0.00     0.163 HD
ATOM     29  O   UNL     1     -12.726   4.813   0.331  1.00  0.00    -0.269 OA
BRANCH  27  30
ATOM     30  C   UNL     1     -10.964   5.251  -1.155  1.00  0.00     0.039 A 
ATOM     31  C   UNL     1     -11.294   6.541  -1.582  1.00  0.00     0.014 A 
ATOM     32  C   UNL     1     -10.029   4.495  -1.851  1.00  0.00     0.014 A 
ATOM     33  C   UNL     1     -10.604   7.090  -2.665  1.00  0.00     0.010 A 
ATOM     34  C   UNL     1      -9.228   5.098  -2.782  1.00  0.00     0.010 A 
ATOM     35  C   UNL     1      -9.555   6.366  -3.250  1.00  0.00    -0.014 A 
BRANCH  35  36
ATOM     36  C   UNL     1      -8.736   6.926  -4.321  1.00  0.00     0.031 A 
ATOM     37  C   UNL     1      -8.054   8.213  -4.011  1.00  0.00     0.074 A 
ATOM     38  C   UNL     1      -8.399   6.209  -5.416  1.00  0.00     0.049 A 
ATOM     39  N   UNL     1      -8.241   9.365  -4.565  1.00  0.00    -0.248 NA
ATOM     40  C   UNL     1      -7.116   8.246  -2.877  1.00  0.00     0.031 C 
ATOM     41  C   UNL     1      -8.704   4.801  -5.716  1.00  0.00     0.029 A 
ATOM     42  N   UNL     1      -7.574   6.553  -6.438  1.00  0.00    -0.354 N 
ATOM     43  C   UNL     1      -7.310  10.230  -3.994  1.00  0.00     0.074 A 
ATOM     44  C   UNL     1      -6.768   9.534  -2.853  1.00  0.00     0.031 C 
ATOM     45  C   UNL     1      -7.868   4.351  -6.676  1.00  0.00     0.029 A 
ATOM     46  C   UNL     1      -7.118   5.478  -7.193  1.00  0.00     0.049 A 
ATOM     47  H   UNL     1      -7.320   7.484  -6.629  1.00  0.00     0.167 HD
ATOM     48  C   UNL     1      -6.895  11.365  -4.627  1.00  0.00     0.031 A 
ATOM     49  C   UNL     1      -6.167   5.507  -8.158  1.00  0.00     0.031 A 
ATOM     50  C   UNL     1      -7.729  11.680  -5.758  1.00  0.00     0.049 A 
ATOM     51  C   UNL     1      -6.055   6.916  -8.608  1.00  0.00     0.074 A 
ATOM     52  C   UNL     1      -9.068  11.969  -5.928  1.00  0.00     0.029 A 
ATOM     53  N   UNL     1      -7.259  11.323  -7.000  1.00  0.00    -0.354 N 
ATOM     54  N   UNL     1      -7.021   7.554  -9.208  1.00  0.00    -0.248 NA
ATOM     55  C   UNL     1      -5.045   7.758  -7.988  1.00  0.00     0.031 C 
ATOM     56  C   UNL     1      -9.435  11.298  -7.133  1.00  0.00     0.029 A 
ATOM     57  C   UNL     1      -8.287  10.704  -7.664  1.00  0.00     0.049 A 
ATOM     58  H   UNL     1      -6.352  11.484  -7.349  1.00  0.00     0.167 HD
ATOM     59  C   UNL     1      -6.984   8.837  -8.679  1.00  0.00     0.074 A 
ATOM     60  C   UNL     1      -5.684   8.931  -8.016  1.00  0.00     0.031 C 
ATOM     61  C   UNL     1      -8.114   9.601  -8.589  1.00  0.00     0.031 A 
BRANCH  48  62
ATOM     62  C   UNL     1      -5.526  11.983  -4.460  1.00  0.00    -0.014 A 
ATOM     63  C   UNL     1      -5.242  13.201  -5.113  1.00  0.00     0.010 A 
ATOM     64  C   UNL     1      -4.432  11.283  -3.914  1.00  0.00     0.010 A 
ATOM     65  C   UNL     1      -3.925  13.654  -5.274  1.00  0.00     0.020 A 
ATOM     66  C   UNL     1      -3.119  11.748  -4.028  1.00  0.00     0.020 A 
ATOM     67  C   UNL     1      -2.870  12.912  -4.742  1.00  0.00     0.054 A 
BRANCH  67  68
ATOM     68  S   UNL     1      -1.167  13.437  -5.054  1.00  0.00     0.124 S 
ATOM     69  O   UNL     1      -1.052  13.239  -6.496  1.00  0.00    -0.237 OA
ATOM     70  O   UNL     1      -1.181  14.825  -4.603  1.00  0.00    -0.237 OA
ATOM     71  O   UNL     1      -0.373  12.527  -4.231  1.00  0.00    -0.744 OA
ENDBRANCH  67  68
ENDBRANCH  48  62
BRANCH  49  72
ATOM     72  C   UNL     1      -5.157   4.468  -8.473  1.00  0.00    -0.014 A 
ATOM     73  C   UNL     1      -4.424   4.510  -9.672  1.00  0.00     0.010 A 
ATOM     74  C   UNL     1      -4.712   3.590  -7.462  1.00  0.00     0.010 A 
ATOM     75  C   UNL     1      -3.250   3.753  -9.829  1.00  0.00     0.020 A 
ATOM     76  C   UNL     1      -3.546   2.828  -7.612  1.00  0.00     0.020 A 
ATOM     77  C   UNL     1      -2.806   2.934  -8.787  1.00  0.00     0.054 A 
BRANCH  77  78
ATOM     78  S   UNL     1      -1.188   2.115  -8.921  1.00  0.00     0.124 S 
ATOM     79  O   UNL     1      -1.443   1.086  -9.925  1.00  0.00    -0.237 OA
ATOM     80  O   UNL     1      -0.314   3.206  -9.341  1.00  0.00    -0.237 OA
ATOM     81  O   UNL     1      -0.942   1.616  -7.569  1.00  0.00    -0.744 OA
ENDBRANCH  77  78
ENDBRANCH  49  72
BRANCH  61  82
ATOM     82  C   UNL     1      -9.360   9.138  -9.316  1.00  0.00    -0.014 A 
ATOM     83  C   UNL     1     -10.023   7.925  -9.043  1.00  0.00     0.010 A 
ATOM     84  C   UNL     1      -9.971  10.047 -10.198  1.00  0.00     0.010 A 
ATOM     85  C   UNL     1     -11.250   7.621  -9.656  1.00  0.00     0.020 A 
ATOM     86  C   UNL     1     -11.200   9.759 -10.797  1.00  0.00     0.020 A 
ATOM     87  C   UNL     1     -11.830   8.543 -10.531  1.00  0.00     0.054 A 
BRANCH  87  88
ATOM     88  S   UNL     1     -13.437   8.170 -11.289  1.00  0.00     0.124 S 
ATOM     89  O   UNL     1     -13.111   7.081 -12.205  1.00  0.00    -0.237 OA
ATOM     90  O   UNL     1     -14.261   7.800 -10.140  1.00  0.00    -0.237 OA
ATOM     91  O   UNL     1     -13.818   9.426 -11.934  1.00  0.00    -0.744 OA
ENDBRANCH  87  88
ENDBRANCH  61  82
ENDBRANCH  35  36
ENDBRANCH  27  30
ENDBRANCH  25  26
ENDBRANCH  24  25
ENDBRANCH   1  24
TORSDOF 18
