REMARK SMILES C#CCN(CC(=O)NCCCCCCNC(=O)c1ccc(-c2c3nc(c(-c4ccc(S(=O)(=O)[O-])cc4)c4ccc([nH]4)c(-c4ccc(S(=O)(=O)[O-])cc4)c4nc(c(-c5ccc(S(=O)(=O)[O-])cc5)c5ccc2[nH]5)C=C4)C=C3)cc1)C(=O)Nc1cc(Br)ccc1C
REMARK SMILES IDX 11 1 10 2 9 3 8 4 6 5 7 6 5 8 4 9 3 10 2 11 1 12 78 13 79 14
REMARK SMILES IDX 80 15 81 17 82 18 87 19 83 20 86 21 88 22 84 23 85 24 12 25
REMARK SMILES IDX 13 26 14 27 15 28 16 29 17 31 18 32 19 33 77 34 20 35 76 36
REMARK SMILES IDX 21 37 22 38 23 39 70 40 24 41 75 42 69 43 71 44 25 45 74 46
REMARK SMILES IDX 68 47 67 48 26 50 56 51 37 52 55 53 38 54 41 55 54 56 72 57
REMARK SMILES IDX 39 58 40 59 53 61 73 62 42 63 27 64 28 65 36 66 29 67 35 68
REMARK SMILES IDX 30 69 31 70 32 71 33 72 34 73 57 74 58 75 66 76 59 77 65 78
REMARK SMILES IDX 60 79 61 80 62 81 63 82 64 83 43 84 44 85 52 86 45 87 51 88
REMARK SMILES IDX 46 89 47 90 48 91 49 92 50 93
REMARK H PARENT 8 7 80 16 15 30 71 49 41 60
REMARK Flexibility Score: inf
ROOT
ATOM      1  C   UNL     1      -6.356   0.749  -1.974  1.00  0.00     0.002 C 
ENDROOT
BRANCH   1   2
ATOM      2  C   UNL     1      -5.004   0.955  -1.280  1.00  0.00     0.021 C 
BRANCH   2   3
ATOM      3  C   UNL     1      -5.013   0.748   0.236  1.00  0.00     0.116 C 
BRANCH   3   4
ATOM      4  N   UNL     1      -5.402  -0.577   0.670  1.00  0.00    -0.355 N 
ATOM      5  C   UNL     1      -4.708  -1.652   1.131  1.00  0.00     0.239 C 
ATOM      6  O   UNL     1      -5.378  -2.474   1.773  1.00  0.00    -0.273 OA
ATOM      7  H   UNL     1      -6.372  -0.733   0.620  1.00  0.00     0.163 HD
BRANCH   5   8
ATOM      8  C   UNL     1      -3.174  -1.825   1.055  1.00  0.00     0.222 C 
BRANCH   8   9
ATOM      9  N   UNL     1      -2.434  -1.302  -0.097  1.00  0.00    -0.304 N 
BRANCH   9  10
ATOM     10  C   UNL     1      -1.873   0.030   0.082  1.00  0.00     0.211 C 
BRANCH  10  11
ATOM     11  C   UNL     1      -0.353   0.030   0.082  1.00  0.00    -0.085 C 
ATOM     12  C   UNL     1       0.951   0.030   0.082  1.00  0.00     0.006 C 
ENDBRANCH  10  11
ENDBRANCH   9  10
BRANCH   9  13
ATOM     13  C   UNL     1      -2.082  -1.966  -1.260  1.00  0.00     0.323 C 
ATOM     14  O   UNL     1      -1.459  -1.405  -2.167  1.00  0.00    -0.248 OA
ATOM     15  N   UNL     1      -2.213  -3.317  -1.371  1.00  0.00    -0.307 N 
ATOM     16  H   UNL     1      -1.423  -3.758  -1.759  1.00  0.00     0.171 HD
BRANCH  15  17
ATOM     17  C   UNL     1      -3.245  -4.205  -1.044  1.00  0.00     0.046 A 
ATOM     18  C   UNL     1      -2.874  -5.502  -0.671  1.00  0.00     0.042 A 
ATOM     19  C   UNL     1      -4.604  -3.882  -1.147  1.00  0.00    -0.027 A 
ATOM     20  C   UNL     1      -3.841  -6.398  -0.216  1.00  0.00     0.020 A 
ATOM     21  C   UNL     1      -5.556  -4.765  -0.618  1.00  0.00     0.007 A 
ATOM     22  C   UNL     1      -5.078  -2.716  -1.962  1.00  0.00     0.046 C 
ATOM     23  Br  UNL     1      -3.340  -8.149   0.288  1.00  0.00    -0.051 Br
ATOM     24  C   UNL     1      -5.174  -6.012  -0.129  1.00  0.00     0.016 A 
ENDBRANCH  15  17
ENDBRANCH   9  13
ENDBRANCH   8   9
ENDBRANCH   5   8
ENDBRANCH   3   4
ENDBRANCH   2   3
ENDBRANCH   1   2
BRANCH   1  25
ATOM     25  C   UNL     1      -7.532   1.527  -1.377  1.00  0.00     0.002 C 
BRANCH  25  26
ATOM     26  C   UNL     1      -7.286   3.021  -1.173  1.00  0.00     0.021 C 
BRANCH  26  27
ATOM     27  C   UNL     1      -6.936   3.779  -2.444  1.00  0.00     0.116 C 
BRANCH  27  28
ATOM     28  N   UNL     1      -8.079   3.897  -3.333  1.00  0.00    -0.352 N 
ATOM     29  C   UNL     1      -8.701   5.036  -3.779  1.00  0.00     0.251 C 
ATOM     30  H   UNL     1      -8.457   3.048  -3.658  1.00  0.00     0.163 HD
ATOM     31  O   UNL     1      -9.796   4.963  -4.335  1.00  0.00    -0.269 OA
BRANCH  29  32
ATOM     32  C   UNL     1      -8.056   6.350  -3.570  1.00  0.00     0.039 A 
ATOM     33  C   UNL     1      -8.824   7.422  -3.111  1.00  0.00     0.014 A 
ATOM     34  C   UNL     1      -6.691   6.519  -3.819  1.00  0.00     0.014 A 
ATOM     35  C   UNL     1      -8.211   8.651  -2.856  1.00  0.00     0.010 A 
ATOM     36  C   UNL     1      -6.067   7.716  -3.480  1.00  0.00     0.010 A 
ATOM     37  C   UNL     1      -6.823   8.801  -3.012  1.00  0.00    -0.014 A 
BRANCH  37  38
ATOM     38  C   UNL     1      -6.147  10.092  -2.721  1.00  0.00     0.031 A 
ATOM     39  C   UNL     1      -5.442  10.836  -3.826  1.00  0.00     0.074 A 
ATOM     40  C   UNL     1      -6.120  10.570  -1.461  1.00  0.00     0.049 A 
ATOM     41  N   UNL     1      -4.753  11.946  -3.764  1.00  0.00    -0.248 NA
ATOM     42  C   UNL     1      -5.497  10.240  -5.172  1.00  0.00     0.031 C 
ATOM     43  C   UNL     1      -6.733   9.926  -0.296  1.00  0.00     0.029 A 
ATOM     44  N   UNL     1      -5.551  11.709  -0.948  1.00  0.00    -0.354 N 
ATOM     45  C   UNL     1      -4.280  12.170  -5.053  1.00  0.00     0.074 A 
ATOM     46  C   UNL     1      -4.712  11.053  -5.862  1.00  0.00     0.031 C 
ATOM     47  C   UNL     1      -6.532  10.694   0.787  1.00  0.00     0.029 A 
ATOM     48  C   UNL     1      -5.741  11.861   0.406  1.00  0.00     0.049 A 
ATOM     49  H   UNL     1      -5.053  12.356  -1.497  1.00  0.00     0.167 HD
ATOM     50  C   UNL     1      -3.571  13.222  -5.527  1.00  0.00     0.031 A 
ATOM     51  C   UNL     1      -5.321  12.825   1.248  1.00  0.00     0.031 A 
ATOM     52  C   UNL     1      -3.155  14.338  -4.721  1.00  0.00     0.049 A 
ATOM     53  C   UNL     1      -4.520  13.976   0.702  1.00  0.00     0.074 A 
ATOM     54  C   UNL     1      -2.479  15.479  -5.117  1.00  0.00     0.029 A 
ATOM     55  N   UNL     1      -3.373  14.456  -3.357  1.00  0.00    -0.354 N 
ATOM     56  N   UNL     1      -4.138  14.202  -0.533  1.00  0.00    -0.248 NA
ATOM     57  C   UNL     1      -4.105  15.011   1.659  1.00  0.00     0.031 C 
ATOM     58  C   UNL     1      -2.236  16.258  -3.982  1.00  0.00     0.029 A 
ATOM     59  C   UNL     1      -2.822  15.637  -2.890  1.00  0.00     0.049 A 
ATOM     60  H   UNL     1      -3.849  13.796  -2.802  1.00  0.00     0.167 HD
ATOM     61  C   UNL     1      -3.466  15.420  -0.505  1.00  0.00     0.074 A 
ATOM     62  C   UNL     1      -3.507  15.888   0.865  1.00  0.00     0.031 C 
ATOM     63  C   UNL     1      -2.872  16.091  -1.523  1.00  0.00     0.031 A 
BRANCH  50  64
ATOM     64  C   UNL     1      -3.195  13.210  -6.986  1.00  0.00    -0.014 A 
ATOM     65  C   UNL     1      -4.169  13.351  -7.992  1.00  0.00     0.010 A 
ATOM     66  C   UNL     1      -1.842  13.098  -7.359  1.00  0.00     0.010 A 
ATOM     67  C   UNL     1      -3.804  13.337  -9.340  1.00  0.00     0.020 A 
ATOM     68  C   UNL     1      -1.469  13.116  -8.706  1.00  0.00     0.020 A 
ATOM     69  C   UNL     1      -2.455  13.219  -9.689  1.00  0.00     0.054 A 
BRANCH  69  70
ATOM     70  S   UNL     1      -2.009  13.231 -11.447  1.00  0.00     0.124 S 
ATOM     71  O   UNL     1      -2.500  11.929 -11.891  1.00  0.00    -0.237 OA
ATOM     72  O   UNL     1      -2.745  14.386 -11.954  1.00  0.00    -0.237 OA
ATOM     73  O   UNL     1      -0.556  13.377 -11.435  1.00  0.00    -0.744 OA
ENDBRANCH  69  70
ENDBRANCH  50  64
BRANCH  51  74
ATOM     74  C   UNL     1      -5.660  12.750   2.697  1.00  0.00    -0.014 A 
ATOM     75  C   UNL     1      -6.560  13.666   3.271  1.00  0.00     0.010 A 
ATOM     76  C   UNL     1      -5.087  11.756   3.512  1.00  0.00     0.010 A 
ATOM     77  C   UNL     1      -6.864  13.603   4.634  1.00  0.00     0.020 A 
ATOM     78  C   UNL     1      -5.412  11.671   4.868  1.00  0.00     0.020 A 
ATOM     79  C   UNL     1      -6.290  12.603   5.424  1.00  0.00     0.054 A 
BRANCH  79  80
ATOM     80  S   UNL     1      -6.734  12.513   7.181  1.00  0.00     0.124 S 
ATOM     81  O   UNL     1      -6.038  13.672   7.730  1.00  0.00    -0.237 OA
ATOM     82  O   UNL     1      -8.191  12.607   7.142  1.00  0.00    -0.237 OA
ATOM     83  O   UNL     1      -6.213  11.213   7.598  1.00  0.00    -0.744 OA
ENDBRANCH  79  80
ENDBRANCH  51  74
BRANCH  63  84
ATOM     84  C   UNL     1      -2.252  17.427  -1.207  1.00  0.00    -0.014 A 
ATOM     85  C   UNL     1      -1.071  17.527  -0.451  1.00  0.00     0.010 A 
ATOM     86  C   UNL     1      -2.833  18.598  -1.730  1.00  0.00     0.010 A 
ATOM     87  C   UNL     1      -0.501  18.778  -0.196  1.00  0.00     0.020 A 
ATOM     88  C   UNL     1      -2.249  19.846  -1.504  1.00  0.00     0.020 A 
ATOM     89  C   UNL     1      -1.093  19.929  -0.725  1.00  0.00     0.054 A 
BRANCH  89  90
ATOM     90  S   UNL     1      -0.308  21.535  -0.416  1.00  0.00     0.124 S 
ATOM     91  O   UNL     1      -0.606  21.752   0.997  1.00  0.00    -0.237 OA
ATOM     92  O   UNL     1       1.094  21.270  -0.730  1.00  0.00    -0.237 OA
ATOM     93  O   UNL     1      -0.988  22.438  -1.342  1.00  0.00    -0.744 OA
ENDBRANCH  89  90
ENDBRANCH  63  84
ENDBRANCH  37  38
ENDBRANCH  29  32
ENDBRANCH  27  28
ENDBRANCH  26  27
ENDBRANCH  25  26
ENDBRANCH   1  25
TORSDOF 21
