REMARK SMILES CCc1cc(C(=O)c2[nH]c3cc(Cl)ccc3c2CC(=O)NCCCCCCNC(=O)c2ccc(-c3c4nc(c(-c5ccc(S(=O)(=O)[O-])cc5)c5ccc([nH]5)c(-c5ccc(S(=O)(=O)[O-])cc5)c5nc(c(-c6ccc(S(=O)(=O)[O-])cc6)c6ccc3[nH]6)C=C5)C=C4)cc2)ncc1Cl
REMARK SMILES IDX 24 1 23 2 22 3 21 4 19 5 20 6 18 8 17 9 8 10 9 11 10 12
REMARK SMILES IDX 16 14 11 15 15 16 12 17 14 18 13 19 6 20 7 21 5 22 3 23 4 24
REMARK SMILES IDX 93 25 92 26 94 27 91 28 2 29 1 30 25 31 26 32 27 33 28 34
REMARK SMILES IDX 29 35 30 37 31 38 32 39 90 40 33 41 89 42 34 43 35 44 36 45
REMARK SMILES IDX 83 46 37 47 88 48 82 49 84 50 38 51 87 52 81 53 80 54 39 56
REMARK SMILES IDX 69 57 50 58 68 59 51 60 54 61 67 62 85 63 52 64 53 65 66 67
REMARK SMILES IDX 86 68 55 69 40 70 41 71 49 72 42 73 48 74 43 75 44 76 45 77
REMARK SMILES IDX 46 78 47 79 70 80 71 81 79 82 72 83 78 84 73 85 74 86 75 87
REMARK SMILES IDX 76 88 77 89 56 90 57 91 65 92 58 93 64 94 59 95 60 96 61 97
REMARK SMILES IDX 62 98 63 99
REMARK H PARENT 21 7 9 13 28 36 84 55 54 66
REMARK Flexibility Score: inf
ROOT
ATOM      1  C   UNL     1       5.792   1.444  -9.982  1.00  0.00     0.002 C 
ENDROOT
BRANCH   1   2
ATOM      2  C   UNL     1       4.864   2.363  -9.178  1.00  0.00     0.021 C 
BRANCH   2   3
ATOM      3  C   UNL     1       3.471   2.556  -9.777  1.00  0.00     0.116 C 
BRANCH   3   4
ATOM      4  N   UNL     1       2.664   1.353  -9.706  1.00  0.00    -0.356 N 
ATOM      5  C   UNL     1       1.633   1.049  -8.864  1.00  0.00     0.224 C 
ATOM      6  O   UNL     1       1.023  -0.009  -9.041  1.00  0.00    -0.275 OA
ATOM      7  H   UNL     1       2.893   0.654 -10.361  1.00  0.00     0.163 HD
BRANCH   5   8
ATOM      8  C   UNL     1       1.174   2.040  -7.807  1.00  0.00     0.138 C 
BRANCH   8   9
ATOM      9  C   UNL     1       2.177   2.330  -6.727  1.00  0.00    -0.002 A 
ATOM     10  C   UNL     1       2.795   1.422  -5.872  1.00  0.00     0.093 A 
ATOM     11  N   UNL     1       3.705   2.122  -5.114  1.00  0.00    -0.351 N 
ATOM     12  C   UNL     1       3.596   3.470  -5.348  1.00  0.00     0.048 A 
ATOM     13  H   UNL     1       4.346   1.712  -4.490  1.00  0.00     0.167 HD
ATOM     14  C   UNL     1       2.646   3.636  -6.354  1.00  0.00     0.004 A 
ATOM     15  C   UNL     1       4.278   4.543  -4.760  1.00  0.00     0.047 A 
ATOM     16  C   UNL     1       2.359   4.946  -6.795  1.00  0.00     0.012 A 
ATOM     17  C   UNL     1       3.969   5.827  -5.215  1.00  0.00     0.043 A 
ATOM     18  C   UNL     1       3.027   6.034  -6.218  1.00  0.00     0.021 A 
ATOM     19  Cl  UNL     1       4.772   7.181  -4.517  1.00  0.00    -0.084 Cl
BRANCH  10  20
ATOM     20  C   UNL     1       2.655  -0.021  -5.793  1.00  0.00     0.227 C 
ATOM     21  O   UNL     1       3.212  -0.755  -6.601  1.00  0.00    -0.285 OA
BRANCH  20  22
ATOM     22  C   UNL     1       1.852  -0.603  -4.649  1.00  0.00     0.113 A 
ATOM     23  C   UNL     1       0.629  -0.418  -2.560  1.00  0.00    -0.026 A 
ATOM     24  C   UNL     1       1.329   0.187  -3.622  1.00  0.00     0.037 A 
ATOM     25  C   UNL     1       0.462  -1.807  -2.587  1.00  0.00     0.062 A 
ATOM     26  C   UNL     1       1.008  -2.515  -3.650  1.00  0.00     0.132 A 
ATOM     27  Cl  UNL     1      -0.389  -2.671  -1.364  1.00  0.00    -0.082 Cl
ATOM     28  N   UNL     1       1.702  -1.952  -4.665  1.00  0.00    -0.251 NA
BRANCH  23  29
ATOM     29  C   UNL     1       0.126   0.446  -1.427  1.00  0.00     0.034 C 
ATOM     30  C   UNL     1       1.072   0.434  -0.233  1.00  0.00     0.009 C 
ENDBRANCH  23  29
ENDBRANCH  20  22
ENDBRANCH  10  20
ENDBRANCH   8   9
ENDBRANCH   5   8
ENDBRANCH   3   4
ENDBRANCH   2   3
ENDBRANCH   1   2
BRANCH   1  31
ATOM     31  C   UNL     1       6.084   1.879 -11.422  1.00  0.00     0.002 C 
BRANCH  31  32
ATOM     32  C   UNL     1       6.605   3.310 -11.601  1.00  0.00     0.021 C 
BRANCH  32  33
ATOM     33  C   UNL     1       7.901   3.643 -10.861  1.00  0.00     0.116 C 
BRANCH  33  34
ATOM     34  N   UNL     1       9.031   2.873 -11.347  1.00  0.00    -0.352 N 
ATOM     35  C   UNL     1      10.323   3.270 -11.592  1.00  0.00     0.251 C 
ATOM     36  H   UNL     1       8.844   1.924 -11.528  1.00  0.00     0.163 HD
ATOM     37  O   UNL     1      11.094   2.492 -12.149  1.00  0.00    -0.269 OA
BRANCH  35  38
ATOM     38  C   UNL     1      10.796   4.623 -11.213  1.00  0.00     0.039 A 
ATOM     39  C   UNL     1      11.626   5.311 -12.107  1.00  0.00     0.014 A 
ATOM     40  C   UNL     1      10.500   5.189  -9.968  1.00  0.00     0.014 A 
ATOM     41  C   UNL     1      12.126   6.574 -11.774  1.00  0.00     0.010 A 
ATOM     42  C   UNL     1      10.975   6.464  -9.648  1.00  0.00     0.010 A 
ATOM     43  C   UNL     1      11.796   7.164 -10.545  1.00  0.00    -0.014 A 
BRANCH  43  44
ATOM     44  C   UNL     1      12.330   8.498 -10.177  1.00  0.00     0.031 A 
ATOM     45  C   UNL     1      13.414   8.622  -9.143  1.00  0.00     0.074 A 
ATOM     46  C   UNL     1      11.821   9.607 -10.746  1.00  0.00     0.049 A 
ATOM     47  N   UNL     1      13.965   9.703  -8.652  1.00  0.00    -0.248 NA
ATOM     48  C   UNL     1      13.936   7.368  -8.581  1.00  0.00     0.031 C 
ATOM     49  C   UNL     1      10.757   9.632 -11.751  1.00  0.00     0.029 A 
ATOM     50  N   UNL     1      12.135  10.929 -10.556  1.00  0.00    -0.354 N 
ATOM     51  C   UNL     1      14.877   9.264  -7.701  1.00  0.00     0.074 A 
ATOM     52  C   UNL     1      14.801   7.817  -7.682  1.00  0.00     0.031 C 
ATOM     53  C   UNL     1      10.517  10.907 -12.100  1.00  0.00     0.029 A 
ATOM     54  C   UNL     1      11.396  11.787 -11.333  1.00  0.00     0.049 A 
ATOM     55  H   UNL     1      12.824  11.234  -9.922  1.00  0.00     0.167 HD
ATOM     56  C   UNL     1      15.703   9.993  -6.912  1.00  0.00     0.031 A 
ATOM     57  C   UNL     1      11.423  13.130 -11.423  1.00  0.00     0.031 A 
ATOM     58  C   UNL     1      15.803  11.426  -6.934  1.00  0.00     0.049 A 
ATOM     59  C   UNL     1      12.385  13.916 -10.581  1.00  0.00     0.074 A 
ATOM     60  C   UNL     1      16.617  12.249  -6.174  1.00  0.00     0.029 A 
ATOM     61  N   UNL     1      15.071  12.252  -7.772  1.00  0.00    -0.354 N 
ATOM     62  N   UNL     1      13.240  13.480  -9.688  1.00  0.00    -0.248 NA
ATOM     63  C   UNL     1      12.392  15.374 -10.767  1.00  0.00     0.031 C 
ATOM     64  C   UNL     1      16.374  13.576  -6.552  1.00  0.00     0.029 A 
ATOM     65  C   UNL     1      15.419  13.575  -7.556  1.00  0.00     0.049 A 
ATOM     66  H   UNL     1      14.402  11.944  -8.426  1.00  0.00     0.167 HD
ATOM     67  C   UNL     1      13.895  14.610  -9.213  1.00  0.00     0.074 A 
ATOM     68  C   UNL     1      13.343  15.747  -9.921  1.00  0.00     0.031 C 
ATOM     69  C   UNL     1      14.868  14.694  -8.273  1.00  0.00     0.031 A 
BRANCH  56  70
ATOM     70  C   UNL     1      16.548   9.224  -5.939  1.00  0.00    -0.014 A 
ATOM     71  C   UNL     1      17.728   8.585  -6.358  1.00  0.00     0.010 A 
ATOM     72  C   UNL     1      16.139   9.112  -4.598  1.00  0.00     0.010 A 
ATOM     73  C   UNL     1      18.459   7.799  -5.464  1.00  0.00     0.020 A 
ATOM     74  C   UNL     1      16.875   8.337  -3.699  1.00  0.00     0.020 A 
ATOM     75  C   UNL     1      18.016   7.664  -4.144  1.00  0.00     0.054 A 
BRANCH  75  76
ATOM     76  S   UNL     1      18.944   6.613  -2.993  1.00  0.00     0.124 S 
ATOM     77  O   UNL     1      18.305   5.315  -3.194  1.00  0.00    -0.237 OA
ATOM     78  O   UNL     1      20.318   6.717  -3.478  1.00  0.00    -0.237 OA
ATOM     79  O   UNL     1      18.698   7.237  -1.695  1.00  0.00    -0.744 OA
ENDBRANCH  75  76
ENDBRANCH  56  70
BRANCH  57  80
ATOM     80  C   UNL     1      10.518  13.813 -12.379  1.00  0.00    -0.014 A 
ATOM     81  C   UNL     1      10.990  14.190 -13.647  1.00  0.00     0.010 A 
ATOM     82  C   UNL     1       9.173  14.045 -12.043  1.00  0.00     0.010 A 
ATOM     83  C   UNL     1      10.129  14.789 -14.570  1.00  0.00     0.020 A 
ATOM     84  C   UNL     1       8.308  14.635 -12.967  1.00  0.00     0.020 A 
ATOM     85  C   UNL     1       8.792  15.006 -14.225  1.00  0.00     0.054 A 
BRANCH  85  86
ATOM     86  S   UNL     1       7.656  15.702 -15.457  1.00  0.00     0.124 S 
ATOM     87  O   UNL     1       7.831  17.136 -15.254  1.00  0.00    -0.237 OA
ATOM     88  O   UNL     1       8.177  15.173 -16.716  1.00  0.00    -0.237 OA
ATOM     89  O   UNL     1       6.359  15.162 -15.056  1.00  0.00    -0.744 OA
ENDBRANCH  85  86
ENDBRANCH  57  80
BRANCH  69  90
ATOM     90  C   UNL     1      15.412  16.061  -7.975  1.00  0.00    -0.014 A 
ATOM     91  C   UNL     1      14.746  16.920  -7.084  1.00  0.00     0.010 A 
ATOM     92  C   UNL     1      16.617  16.477  -8.567  1.00  0.00     0.010 A 
ATOM     93  C   UNL     1      15.267  18.186  -6.805  1.00  0.00     0.020 A 
ATOM     94  C   UNL     1      17.144  17.739  -8.284  1.00  0.00     0.020 A 
ATOM     95  C   UNL     1      16.459  18.591  -7.414  1.00  0.00     0.054 A 
BRANCH  95  96
ATOM     96  S   UNL     1      17.151  20.222  -7.019  1.00  0.00     0.124 S 
ATOM     97  O   UNL     1      16.472  21.081  -7.985  1.00  0.00    -0.237 OA
ATOM     98  O   UNL     1      16.763  20.418  -5.623  1.00  0.00    -0.237 OA
ATOM     99  O   UNL     1      18.585  20.044  -7.238  1.00  0.00    -0.744 OA
ENDBRANCH  95  96
ENDBRANCH  69  90
ENDBRANCH  43  44
ENDBRANCH  35  38
ENDBRANCH  33  34
ENDBRANCH  32  33
ENDBRANCH  31  32
ENDBRANCH   1  31
TORSDOF 20
