REMARK SMILES Cc1cc(S(F)(F)(F)(F)F)cc2c1O[C@H](C(F)(F)F)C(C(=O)NCCCCCCNC(=O)c1ccc(-c3c4nc(c(-c5ccc(S(=O)(=O)[O-])cc5)c5ccc([nH]5)c(-c5ccc(S(=O)(=O)[O-])cc5)c5nc(c(-c6ccc(S(=O)(=O)[O-])cc6)c6ccc3[nH]6)C=C5)C=C4)cc1)=C2
REMARK SMILES IDX 27 1 26 2 25 3 24 4 23 5 21 6 22 7 20 9 1 10 2 11 3 12 13 13
REMARK SMILES IDX 4 14 12 15 14 16 11 17 93 18 15 19 5 20 6 21 7 22 8 23 9 24
REMARK SMILES IDX 10 25 16 26 17 27 18 28 19 29 28 30 29 31 30 32 31 33 32 35
REMARK SMILES IDX 33 36 34 37 92 38 35 39 91 40 36 41 37 42 38 43 85 44 39 45
REMARK SMILES IDX 90 46 84 47 86 48 40 49 89 50 83 51 82 52 41 54 71 55 52 56
REMARK SMILES IDX 70 57 53 58 56 59 69 60 87 61 54 62 55 63 68 65 88 66 57 67
REMARK SMILES IDX 42 68 43 69 51 70 44 71 50 72 45 73 46 74 47 75 48 76 49 77
REMARK SMILES IDX 72 78 73 79 81 80 74 81 80 82 75 83 76 84 77 85 78 86 79 87
REMARK SMILES IDX 58 88 59 89 67 90 60 91 66 92 61 93 62 94 63 95 64 96 65 97
REMARK H PARENT 23 8 30 34 86 53 56 64
REMARK Flexibility Score: inf
ROOT
ATOM      1  C   UNL     1       3.659  -8.040   3.485  1.00  0.00     0.002 C 
ENDROOT
BRANCH   1   2
ATOM      2  C   UNL     1       2.169  -7.993   3.191  1.00  0.00     0.002 C 
BRANCH   2   3
ATOM      3  C   UNL     1       1.765  -6.569   2.846  1.00  0.00     0.021 C 
BRANCH   3   4
ATOM      4  C   UNL     1       2.538  -6.106   1.622  1.00  0.00     0.116 C 
BRANCH   4   5
ATOM      5  N   UNL     1       2.234  -6.990   0.487  1.00  0.00    -0.352 N 
ATOM      6  C   UNL     1       1.630  -6.438  -0.734  1.00  0.00     0.251 C 
ATOM      7  O   UNL     1       1.368  -7.202  -1.715  1.00  0.00    -0.270 OA
ATOM      8  H   UNL     1       2.435  -7.952   0.545  1.00  0.00     0.163 HD
BRANCH   6   9
ATOM      9  C   UNL     1       1.320  -4.952  -0.824  1.00  0.00     0.067 C 
ATOM     10  C   UNL     1       0.988   0.033   0.094  1.00  0.00     0.048 C 
ATOM     11  C   UNL     1       0.481  -0.858  -1.029  1.00  0.00    -0.007 A 
ATOM     12  C   UNL     1      -0.085  -0.358  -2.181  1.00  0.00     0.031 A 
ATOM     13  C   UNL     1       0.768  -2.219  -0.943  1.00  0.00     0.130 A 
ATOM     14  C   UNL     1      -0.376  -1.196  -3.250  1.00  0.00     0.108 A 
ATOM     15  C   UNL     1       0.476  -3.067  -2.034  1.00  0.00     0.019 A 
ATOM     16  O   UNL     1       1.371  -2.813   0.258  1.00  0.00    -0.475 OA
ATOM     17  C   UNL     1      -0.098  -2.532  -3.189  1.00  0.00     0.036 A 
ATOM     18  C   UNL     1       0.787  -4.492  -1.915  1.00  0.00     0.025 C 
ATOM     19  C   UNL     1       1.620  -4.139   0.270  1.00  0.00     0.314 C 
BRANCH  14  20
ATOM     20  S   UNL     1      -1.134  -0.508  -4.743  1.00  0.00     0.310 S 
ATOM     21  F   UNL     1      -2.581  -0.269  -4.139  1.00  0.00    -0.094 F 
ATOM     22  F   UNL     1      -1.627  -1.941  -5.176  1.00  0.00    -0.094 F 
ATOM     23  F   UNL     1      -1.655   0.104  -6.074  1.00  0.00    -0.094 F 
ATOM     24  F   UNL     1      -0.760   0.939  -4.233  1.00  0.00    -0.094 F 
ATOM     25  F   UNL     1      -0.703  -1.098  -3.341  1.00  0.00    -0.094 F 
ENDBRANCH  14  20
BRANCH  19  26
ATOM     26  C   UNL     1       3.139  -4.182   0.297  1.00  0.00     0.429 C 
ATOM     27  F   UNL     1       3.583  -3.499   1.349  1.00  0.00    -0.167 F 
ATOM     28  F   UNL     1       3.545  -5.446   0.386  1.00  0.00    -0.167 F 
ATOM     29  F   UNL     1       3.619  -3.640  -0.818  1.00  0.00    -0.167 F 
ENDBRANCH  19  26
ENDBRANCH   6   9
ENDBRANCH   4   5
ENDBRANCH   3   4
ENDBRANCH   2   3
ENDBRANCH   1   2
BRANCH   1  30
ATOM     30  C   UNL     1       3.973  -7.126   4.658  1.00  0.00     0.021 C 
BRANCH  30  31
ATOM     31  C   UNL     1       3.201  -7.589   5.883  1.00  0.00     0.116 C 
BRANCH  31  32
ATOM     32  N   UNL     1       3.591  -8.966   6.216  1.00  0.00    -0.352 N 
ATOM     33  C   UNL     1       4.185  -9.265   7.528  1.00  0.00     0.251 C 
ATOM     34  H   UNL     1       3.455  -9.689   5.562  1.00  0.00     0.163 HD
ATOM     35  O   UNL     1       4.523 -10.455   7.816  1.00  0.00    -0.269 OA
BRANCH  33  36
ATOM     36  C   UNL     1       4.395  -8.149   8.538  1.00  0.00     0.039 A 
ATOM     37  C   UNL     1       5.607  -7.924   9.183  1.00  0.00     0.014 A 
ATOM     38  C   UNL     1       3.417  -7.290   8.730  1.00  0.00     0.014 A 
ATOM     39  C   UNL     1       5.881  -6.593   9.566  1.00  0.00     0.010 A 
ATOM     40  C   UNL     1       3.590  -6.184   9.569  1.00  0.00     0.010 A 
ATOM     41  C   UNL     1       4.789  -5.833   9.982  1.00  0.00    -0.014 A 
BRANCH  41  42
ATOM     42  C   UNL     1       4.979  -4.629  10.890  1.00  0.00     0.031 A 
ATOM     43  C   UNL     1       4.333  -4.658  12.127  1.00  0.00     0.074 A 
ATOM     44  C   UNL     1       5.862  -3.636  10.502  1.00  0.00     0.049 A 
ATOM     45  N   UNL     1       4.465  -3.794  13.135  1.00  0.00    -0.248 NA
ATOM     46  C   UNL     1       3.368  -5.692  12.529  1.00  0.00     0.031 C 
ATOM     47  C   UNL     1       6.524  -3.604   9.259  1.00  0.00     0.029 A 
ATOM     48  N   UNL     1       6.256  -2.527  11.217  1.00  0.00    -0.354 N 
ATOM     49  C   UNL     1       3.699  -4.164  14.163  1.00  0.00     0.074 A 
ATOM     50  C   UNL     1       2.978  -5.387  13.786  1.00  0.00     0.031 C 
ATOM     51  C   UNL     1       7.297  -2.487   9.221  1.00  0.00     0.029 A 
ATOM     52  C   UNL     1       7.131  -1.802  10.440  1.00  0.00     0.049 A 
ATOM     53  H   UNL     1       5.962  -2.294  12.128  1.00  0.00     0.167 HD
ATOM     54  C   UNL     1       3.575  -3.530  15.401  1.00  0.00     0.031 A 
ATOM     55  C   UNL     1       7.758  -0.607  10.757  1.00  0.00     0.031 A 
ATOM     56  C   UNL     1       4.236  -2.359  15.734  1.00  0.00     0.049 A 
ATOM     57  C   UNL     1       7.589   0.058  11.974  1.00  0.00     0.074 A 
ATOM     58  C   UNL     1       4.129  -1.712  16.980  1.00  0.00     0.029 A 
ATOM     59  N   UNL     1       5.092  -1.620  14.947  1.00  0.00    -0.354 N 
ATOM     60  N   UNL     1       6.854  -0.333  13.016  1.00  0.00    -0.248 NA
ATOM     61  C   UNL     1       8.223   1.340  12.308  1.00  0.00     0.031 C 
ATOM     62  C   UNL     1       4.901  -0.593  16.942  1.00  0.00     0.029 A 
ATOM     63  C   UNL     1       5.504  -0.523  15.672  1.00  0.00     0.049 A 
ATOM     64  H   UNL     1       5.363  -1.839  14.027  1.00  0.00     0.167 HD
ATOM     65  C   UNL     1       6.955   0.553  14.008  1.00  0.00     0.074 A 
ATOM     66  C   UNL     1       7.831   1.646  13.564  1.00  0.00     0.031 C 
ATOM     67  C   UNL     1       6.355   0.494  15.267  1.00  0.00     0.031 A 
BRANCH  54  68
ATOM     68  C   UNL     1       2.665  -4.161  16.442  1.00  0.00    -0.014 A 
ATOM     69  C   UNL     1       2.976  -5.412  16.963  1.00  0.00     0.010 A 
ATOM     70  C   UNL     1       1.627  -3.519  16.934  1.00  0.00     0.010 A 
ATOM     71  C   UNL     1       2.513  -5.685  18.269  1.00  0.00     0.020 A 
ATOM     72  C   UNL     1       0.851  -4.087  17.951  1.00  0.00     0.020 A 
ATOM     73  C   UNL     1       1.275  -5.144  18.611  1.00  0.00     0.054 A 
BRANCH  73  74
ATOM     74  S   UNL     1       0.274  -5.876  19.930  1.00  0.00     0.124 S 
ATOM     75  O   UNL     1      -0.055  -7.328  19.574  1.00  0.00    -0.237 OA
ATOM     76  O   UNL     1       1.057  -5.839  21.244  1.00  0.00    -0.237 OA
ATOM     77  O   UNL     1      -1.177  -4.989  20.105  1.00  0.00    -0.744 OA
ENDBRANCH  73  74
ENDBRANCH  54  68
BRANCH  55  78
ATOM     78  C   UNL     1       8.682   0.014   9.722  1.00  0.00    -0.014 A 
ATOM     79  C   UNL     1       9.998   0.282  10.083  1.00  0.00     0.010 A 
ATOM     80  C   UNL     1       8.277   0.374   8.523  1.00  0.00     0.010 A 
ATOM     81  C   UNL     1      10.923   0.440   9.027  1.00  0.00     0.020 A 
ATOM     82  C   UNL     1       9.148   1.018   7.637  1.00  0.00     0.020 A 
ATOM     83  C   UNL     1      10.442   1.055   7.872  1.00  0.00     0.054 A 
BRANCH  83  84
ATOM     84  S   UNL     1      11.570   1.884   6.725  1.00  0.00     0.124 S 
ATOM     85  O   UNL     1      12.301   3.014   7.455  1.00  0.00    -0.237 OA
ATOM     86  O   UNL     1      12.591   0.875   6.195  1.00  0.00    -0.237 OA
ATOM     87  O   UNL     1      10.679   2.533   5.418  1.00  0.00    -0.744 OA
ENDBRANCH  83  84
ENDBRANCH  55  78
BRANCH  67  88
ATOM     88  C   UNL     1       6.652   1.611  16.253  1.00  0.00    -0.014 A 
ATOM     89  C   UNL     1       6.210   2.915  16.053  1.00  0.00     0.010 A 
ATOM     90  C   UNL     1       7.216   1.312  17.404  1.00  0.00     0.010 A 
ATOM     91  C   UNL     1       5.930   3.672  17.212  1.00  0.00     0.020 A 
ATOM     92  C   UNL     1       7.376   2.285  18.397  1.00  0.00     0.020 A 
ATOM     93  C   UNL     1       6.752   3.441  18.314  1.00  0.00     0.054 A 
BRANCH  93  94
ATOM     94  S   UNL     1       6.954   4.698  19.600  1.00  0.00     0.124 S 
ATOM     95  O   UNL     1       7.535   5.972  18.981  1.00  0.00    -0.237 OA
ATOM     96  O   UNL     1       5.593   5.011  20.227  1.00  0.00    -0.237 OA
ATOM     97  O   UNL     1       8.017   4.115  20.806  1.00  0.00    -0.744 OA
ENDBRANCH  93  94
ENDBRANCH  67  88
ENDBRANCH  41  42
ENDBRANCH  33  36
ENDBRANCH  31  32
ENDBRANCH  30  31
ENDBRANCH   1  30
TORSDOF 18
