REMARK SMILES O=C(Cn1c(-c2nc(-c3ccc(C(F)(F)F)cc3)no2)cc2ccccc21)NCCCCCCNC(=O)c1ccc(-c2c3nc(c(-c4ccc(S(=O)(=O)[O-])cc4)c4ccc([nH]4)c(-c4ccc(S(=O)(=O)[O-])cc4)c4nc(c(-c5ccc(S(=O)(=O)[O-])cc5)c5ccc2[nH]5)C=C4)C=C3)cc1
REMARK SMILES IDX 31 1 30 2 29 3 28 4 1 5 2 6 3 8 4 9 5 10 27 11 21 12 22 13
REMARK SMILES IDX 26 14 23 15 25 16 24 17 6 18 7 19 20 20 8 21 19 22 9 23
REMARK SMILES IDX 10 24 18 25 11 26 17 27 12 28 13 29 14 30 15 31 16 32 32 33
REMARK SMILES IDX 33 34 34 35 35 36 36 37 37 39 38 40 39 41 97 42 40 43 96 44
REMARK SMILES IDX 41 45 42 46 43 47 90 48 44 49 95 50 89 51 91 52 45 53 94 54
REMARK SMILES IDX 88 55 87 56 46 58 76 59 57 60 75 61 58 62 61 63 74 64 92 65
REMARK SMILES IDX 59 66 60 67 73 69 93 70 62 71 47 72 48 73 56 74 49 75 55 76
REMARK SMILES IDX 50 77 51 78 52 79 53 80 54 81 77 82 78 83 86 84 79 85 85 86
REMARK SMILES IDX 80 87 81 88 82 89 83 90 84 91 63 92 64 93 72 94 65 95 71 96
REMARK SMILES IDX 66 97 67 98 68 99 69 100 70 101
REMARK H PARENT 28 7 35 38 91 57 61 68
REMARK Flexibility Score: inf
ROOT
ATOM      1  C   UNL     1       4.179   0.630   3.746  1.00  0.00     0.002 C 
ENDROOT
BRANCH   1   2
ATOM      2  C   UNL     1       2.697   0.281   3.560  1.00  0.00     0.021 C 
BRANCH   2   3
ATOM      3  C   UNL     1       2.052   0.890   2.322  1.00  0.00     0.116 C 
BRANCH   3   4
ATOM      4  N   UNL     1       2.676   0.431   1.097  1.00  0.00    -0.355 N 
ATOM      5  O   UNL     1       0.752  -0.396   0.152  1.00  0.00    -0.273 OA
ATOM      6  C   UNL     1       1.944  -0.113   0.061  1.00  0.00     0.239 C 
ATOM      7  H   UNL     1       3.653   0.509   1.000  1.00  0.00     0.163 HD
BRANCH   6   8
ATOM      8  C   UNL     1       2.740  -0.455  -1.173  1.00  0.00     0.222 C 
BRANCH   8   9
ATOM      9  N   UNL     1       3.425   0.633  -1.875  1.00  0.00    -0.327 N 
ATOM     10  C   UNL     1       3.163   1.989  -1.868  1.00  0.00     0.109 A 
ATOM     11  C   UNL     1       4.539   0.383  -2.685  1.00  0.00     0.049 A 
ATOM     12  C   UNL     1       4.081   2.594  -2.707  1.00  0.00     0.042 A 
ATOM     13  C   UNL     1       4.967   1.609  -3.196  1.00  0.00     0.000 A 
ATOM     14  C   UNL     1       5.221  -0.810  -2.992  1.00  0.00     0.027 A 
ATOM     15  C   UNL     1       6.117   1.661  -4.006  1.00  0.00     0.010 A 
ATOM     16  C   UNL     1       6.363  -0.735  -3.797  1.00  0.00     0.002 A 
ATOM     17  C   UNL     1       6.811   0.484  -4.294  1.00  0.00     0.001 A 
BRANCH  10  18
ATOM     18  C   UNL     1       2.287   2.709  -0.998  1.00  0.00     0.274 A 
ATOM     19  N   UNL     1       0.976   2.820  -1.078  1.00  0.00    -0.185 NA
ATOM     20  O   UNL     1       2.816   3.442   0.028  1.00  0.00    -0.332 OA
ATOM     21  C   UNL     1       0.689   3.709  -0.049  1.00  0.00     0.202 A 
ATOM     22  N   UNL     1       1.770   4.075   0.657  1.00  0.00    -0.057 NA
BRANCH  21  23
ATOM     23  C   UNL     1      -0.639   4.223   0.291  1.00  0.00     0.023 A 
ATOM     24  C   UNL     1      -0.749   5.257   1.239  1.00  0.00     0.013 A 
ATOM     25  C   UNL     1      -1.813   3.715  -0.274  1.00  0.00     0.013 A 
ATOM     26  C   UNL     1      -1.991   5.751   1.639  1.00  0.00     0.014 A 
ATOM     27  C   UNL     1      -3.067   4.212   0.128  1.00  0.00     0.014 A 
ATOM     28  C   UNL     1      -3.168   5.226   1.097  1.00  0.00     0.056 A 
BRANCH  28  29
ATOM     29  C   UNL     1      -4.498   5.742   1.588  1.00  0.00     0.416 C 
ATOM     30  F   UNL     1      -4.712   5.455   2.904  1.00  0.00    -0.166 F 
ATOM     31  F   UNL     1      -4.621   7.093   1.477  1.00  0.00    -0.166 F 
ATOM     32  F   UNL     1      -5.567   5.218   0.922  1.00  0.00    -0.166 F 
ENDBRANCH  28  29
ENDBRANCH  21  23
ENDBRANCH  10  18
ENDBRANCH   8   9
ENDBRANCH   6   8
ENDBRANCH   3   4
ENDBRANCH   2   3
ENDBRANCH   1   2
BRANCH   1  33
ATOM     33  C   UNL     1       4.498   2.121   3.905  1.00  0.00     0.002 C 
BRANCH  33  34
ATOM     34  C   UNL     1       3.768   2.843   5.045  1.00  0.00     0.021 C 
BRANCH  34  35
ATOM     35  C   UNL     1       3.792   2.111   6.387  1.00  0.00     0.116 C 
BRANCH  35  36
ATOM     36  N   UNL     1       5.121   1.815   6.876  1.00  0.00    -0.352 N 
ATOM     37  C   UNL     1       6.035   2.475   7.646  1.00  0.00     0.251 C 
ATOM     38  H   UNL     1       5.442   0.931   6.585  1.00  0.00     0.163 HD
ATOM     39  O   UNL     1       7.037   1.829   7.967  1.00  0.00    -0.269 OA
BRANCH  37  40
ATOM     40  C   UNL     1       5.939   3.903   8.048  1.00  0.00     0.039 A 
ATOM     41  C   UNL     1       4.824   4.726   7.881  1.00  0.00     0.014 A 
ATOM     42  C   UNL     1       7.114   4.462   8.583  1.00  0.00     0.014 A 
ATOM     43  C   UNL     1       4.913   6.092   8.119  1.00  0.00     0.010 A 
ATOM     44  C   UNL     1       7.202   5.821   8.847  1.00  0.00     0.010 A 
ATOM     45  C   UNL     1       6.118   6.642   8.552  1.00  0.00    -0.014 A 
BRANCH  45  46
ATOM     46  C   UNL     1       6.184   8.088   8.739  1.00  0.00     0.031 A 
ATOM     47  C   UNL     1       5.308   8.641   9.814  1.00  0.00     0.074 A 
ATOM     48  C   UNL     1       7.082   8.845   8.077  1.00  0.00     0.049 A 
ATOM     49  N   UNL     1       4.441   9.600   9.746  1.00  0.00    -0.248 NA
ATOM     50  C   UNL     1       5.351   7.968  11.124  1.00  0.00     0.031 C 
ATOM     51  C   UNL     1       8.185   8.388   7.223  1.00  0.00     0.029 A 
ATOM     52  N   UNL     1       7.285  10.189   8.143  1.00  0.00    -0.354 N 
ATOM     53  C   UNL     1       3.946   9.768  11.040  1.00  0.00     0.074 A 
ATOM     54  C   UNL     1       4.446   8.659  11.813  1.00  0.00     0.031 C 
ATOM     55  C   UNL     1       9.079   9.392   7.079  1.00  0.00     0.029 A 
ATOM     56  C   UNL     1       8.537  10.590   7.693  1.00  0.00     0.049 A 
ATOM     57  H   UNL     1       6.607  10.819   8.479  1.00  0.00     0.167 HD
ATOM     58  C   UNL     1       3.301  10.897  11.447  1.00  0.00     0.031 A 
ATOM     59  C   UNL     1       9.123  11.796   7.900  1.00  0.00     0.031 A 
ATOM     60  C   UNL     1       2.790  11.655  10.340  1.00  0.00     0.049 A 
ATOM     61  C   UNL     1       8.048  12.753   8.256  1.00  0.00     0.074 A 
ATOM     62  C   UNL     1       1.846  11.417   9.362  1.00  0.00     0.029 A 
ATOM     63  N   UNL     1       3.520  12.734   9.907  1.00  0.00    -0.354 N 
ATOM     64  N   UNL     1       7.098  13.116   7.440  1.00  0.00    -0.248 NA
ATOM     65  C   UNL     1       7.788  12.990   9.666  1.00  0.00     0.031 C 
ATOM     66  C   UNL     1       2.368  12.038   8.192  1.00  0.00     0.029 A 
ATOM     67  C   UNL     1       3.567  12.668   8.537  1.00  0.00     0.049 A 
ATOM     68  H   UNL     1       3.932  13.426  10.473  1.00  0.00     0.167 HD
ATOM     69  C   UNL     1       5.971  13.235   8.240  1.00  0.00     0.074 A 
ATOM     70  C   UNL     1       6.479  13.241   9.610  1.00  0.00     0.031 C 
ATOM     71  C   UNL     1       4.715  13.045   7.736  1.00  0.00     0.031 A 
BRANCH  58  72
ATOM     72  C   UNL     1       3.405  11.461  12.845  1.00  0.00    -0.014 A 
ATOM     73  C   UNL     1       4.379  11.032  13.770  1.00  0.00     0.010 A 
ATOM     74  C   UNL     1       2.682  12.625  13.182  1.00  0.00     0.010 A 
ATOM     75  C   UNL     1       4.622  11.709  14.966  1.00  0.00     0.020 A 
ATOM     76  C   UNL     1       2.950  13.341  14.361  1.00  0.00     0.020 A 
ATOM     77  C   UNL     1       3.919  12.873  15.246  1.00  0.00     0.054 A 
BRANCH  77  78
ATOM     78  S   UNL     1       4.367  13.801  16.734  1.00  0.00     0.124 S 
ATOM     79  O   UNL     1       3.881  12.918  17.794  1.00  0.00    -0.237 OA
ATOM     80  O   UNL     1       5.823  13.894  16.615  1.00  0.00    -0.237 OA
ATOM     81  O   UNL     1       3.649  15.057  16.587  1.00  0.00    -0.744 OA
ENDBRANCH  77  78
ENDBRANCH  58  72
BRANCH  59  82
ATOM     82  C   UNL     1      10.543  12.032   8.272  1.00  0.00    -0.014 A 
ATOM     83  C   UNL     1      11.263  11.033   8.961  1.00  0.00     0.010 A 
ATOM     84  C   UNL     1      11.086  13.330   8.240  1.00  0.00     0.010 A 
ATOM     85  C   UNL     1      12.437  11.332   9.659  1.00  0.00     0.020 A 
ATOM     86  C   UNL     1      12.265  13.638   8.941  1.00  0.00     0.020 A 
ATOM     87  C   UNL     1      12.910  12.642   9.677  1.00  0.00     0.054 A 
BRANCH  87  88
ATOM     88  S   UNL     1      14.319  13.027  10.756  1.00  0.00     0.124 S 
ATOM     89  O   UNL     1      13.749  12.821  12.084  1.00  0.00    -0.237 OA
ATOM     90  O   UNL     1      15.313  12.040  10.341  1.00  0.00    -0.237 OA
ATOM     91  O   UNL     1      14.644  14.411  10.422  1.00  0.00    -0.744 OA
ENDBRANCH  87  88
ENDBRANCH  59  82
BRANCH  71  92
ATOM     92  C   UNL     1       4.531  12.936   6.235  1.00  0.00    -0.014 A 
ATOM     93  C   UNL     1       3.546  13.745   5.639  1.00  0.00     0.010 A 
ATOM     94  C   UNL     1       5.121  11.919   5.455  1.00  0.00     0.010 A 
ATOM     95  C   UNL     1       3.122  13.517   4.328  1.00  0.00     0.020 A 
ATOM     96  C   UNL     1       4.717  11.701   4.128  1.00  0.00     0.020 A 
ATOM     97  C   UNL     1       3.696  12.485   3.584  1.00  0.00     0.054 A 
BRANCH  97  98
ATOM     98  S   UNL     1       3.051  12.167   1.918  1.00  0.00     0.124 S 
ATOM     99  O   UNL     1       1.737  11.592   2.200  1.00  0.00    -0.237 OA
ATOM    100  O   UNL     1       3.031  13.500   1.319  1.00  0.00    -0.237 OA
ATOM    101  O   UNL     1       4.018  11.242   1.332  1.00  0.00    -0.744 OA
ENDBRANCH  97  98
ENDBRANCH  71  92
ENDBRANCH  45  46
ENDBRANCH  37  40
ENDBRANCH  35  36
ENDBRANCH  34  35
ENDBRANCH  33  34
ENDBRANCH   1  33
TORSDOF 20
