REMARK SMILES CC(C)n1cncc1C[NH2+][C@H]1[C@@H]2CC[C@@H](C2)[C@@H]1C(=O)NCCCCCCNC(=O)c1ccc(-c2c3nc(c(-c4ccc(S(=O)(=O)[O-])cc4)c4ccc([nH]4)c(-c4ccc(S(=O)(=O)[O-])cc4)c4nc(c(-c5ccc(S(=O)(=O)[O-])cc5)c5ccc2[nH]5)C=C4)C=C3)cc1
REMARK SMILES IDX 23 1 22 2 21 3 20 4 18 5 19 6 17 8 11 9 12 10 13 11 16 12
REMARK SMILES IDX 15 13 14 14 10 15 9 18 8 19 4 20 5 21 6 22 7 23 2 24 1 25
REMARK SMILES IDX 3 26 24 27 25 28 26 29 27 30 28 31 29 33 30 34 31 35 89 36
REMARK SMILES IDX 32 37 88 38 33 39 34 40 35 41 82 42 36 43 87 44 81 45 83 46
REMARK SMILES IDX 37 47 86 48 80 49 79 50 38 52 68 53 49 54 67 55 50 56 53 57
REMARK SMILES IDX 66 58 84 59 51 60 52 61 65 63 85 64 54 65 39 66 40 67 48 68
REMARK SMILES IDX 41 69 47 70 42 71 43 72 44 73 45 74 46 75 69 76 70 77 78 78
REMARK SMILES IDX 71 79 77 80 72 81 73 82 74 83 75 84 76 85 55 86 56 87 64 88
REMARK SMILES IDX 57 89 63 90 58 91 59 92 60 93 61 94 62 95
REMARK H PARENT 20 7 10 16 10 17 27 32 83 51 53 62
REMARK Flexibility Score: inf
ROOT
ATOM      1  C   UNL     1       2.100   8.461   2.550  1.00  0.00     0.002 C 
ENDROOT
BRANCH   1   2
ATOM      2  C   UNL     1       1.125   8.041   1.451  1.00  0.00     0.021 C 
BRANCH   2   3
ATOM      3  C   UNL     1       0.750   6.560   1.475  1.00  0.00     0.116 C 
BRANCH   3   4
ATOM      4  N   UNL     1      -0.387   6.317   2.328  1.00  0.00    -0.356 N 
ATOM      5  C   UNL     1      -1.650   5.903   2.080  1.00  0.00     0.229 C 
ATOM      6  O   UNL     1      -2.392   5.871   3.072  1.00  0.00    -0.275 OA
ATOM      7  H   UNL     1      -0.208   6.487   3.281  1.00  0.00     0.163 HD
BRANCH   5   8
ATOM      8  C   UNL     1      -2.199   5.461   0.726  1.00  0.00     0.140 C 
ATOM      9  C   UNL     1      -1.413   4.434  -0.125  1.00  0.00     0.198 C 
ATOM     10  C   UNL     1      -1.688   4.954  -1.569  1.00  0.00     0.048 C 
ATOM     11  C   UNL     1      -0.818   6.195  -1.838  1.00  0.00     0.010 C 
ATOM     12  C   UNL     1      -3.075   5.598  -1.456  1.00  0.00     0.014 C 
ATOM     13  C   UNL     1      -2.650   6.525  -0.304  1.00  0.00     0.008 C 
ATOM     14  C   UNL     1      -1.499   7.276  -0.987  1.00  0.00     0.005 C 
BRANCH   9  15
ATOM     15  N   UNL     1      -1.935   3.063   0.022  1.00  0.00    -0.338 N 
ATOM     16  H   UNL     1      -2.955   3.092  -0.000  1.00  0.00     0.346 HD
ATOM     17  H   UNL     1      -1.573   2.496  -0.745  1.00  0.00     0.346 HD
BRANCH  15  18
ATOM     18  C   UNL     1      -1.503   2.462   1.283  1.00  0.00     0.317 C 
BRANCH  18  19
ATOM     19  C   UNL     1      -1.885   1.027   1.330  1.00  0.00     0.093 A 
ATOM     20  N   UNL     1      -1.041  -0.061   1.391  1.00  0.00    -0.327 N 
ATOM     21  C   UNL     1      -1.834  -1.183   1.443  1.00  0.00     0.200 A 
ATOM     22  N   UNL     1      -3.111  -0.888   1.434  1.00  0.00    -0.245 NA
ATOM     23  C   UNL     1      -3.154   0.476   1.362  1.00  0.00     0.140 A 
BRANCH  20  24
ATOM     24  C   UNL     1       0.416  -0.137   1.351  1.00  0.00     0.082 C 
ATOM     25  C   UNL     1       0.955   0.135  -0.052  1.00  0.00     0.031 C 
ATOM     26  C   UNL     1       1.134   0.690   2.419  1.00  0.00     0.031 C 
ENDBRANCH  20  24
ENDBRANCH  18  19
ENDBRANCH  15  18
ENDBRANCH   9  15
ENDBRANCH   5   8
ENDBRANCH   3   4
ENDBRANCH   2   3
ENDBRANCH   1   2
BRANCH   1  27
ATOM     27  C   UNL     1       3.436   7.704   2.572  1.00  0.00     0.002 C 
BRANCH  27  28
ATOM     28  C   UNL     1       4.186   7.612   1.234  1.00  0.00     0.021 C 
BRANCH  28  29
ATOM     29  C   UNL     1       4.624   8.962   0.683  1.00  0.00     0.116 C 
BRANCH  29  30
ATOM     30  N   UNL     1       5.584   9.618   1.564  1.00  0.00    -0.352 N 
ATOM     31  C   UNL     1       6.194  10.847   1.421  1.00  0.00     0.251 C 
ATOM     32  H   UNL     1       5.830   9.115   2.373  1.00  0.00     0.163 HD
ATOM     33  O   UNL     1       7.219  11.098   2.034  1.00  0.00    -0.269 OA
BRANCH  31  34
ATOM     34  C   UNL     1       5.593  11.848   0.519  1.00  0.00     0.039 A 
ATOM     35  C   UNL     1       6.405  12.668  -0.269  1.00  0.00     0.014 A 
ATOM     36  C   UNL     1       4.205  11.971   0.477  1.00  0.00     0.014 A 
ATOM     37  C   UNL     1       5.806  13.562  -1.153  1.00  0.00     0.010 A 
ATOM     38  C   UNL     1       3.614  12.762  -0.479  1.00  0.00     0.010 A 
ATOM     39  C   UNL     1       4.408  13.590  -1.266  1.00  0.00    -0.014 A 
BRANCH  39  40
ATOM     40  C   UNL     1       3.764  14.386  -2.306  1.00  0.00     0.031 A 
ATOM     41  C   UNL     1       4.189  14.039  -3.688  1.00  0.00     0.074 A 
ATOM     42  C   UNL     1       2.707  15.192  -2.070  1.00  0.00     0.049 A 
ATOM     43  N   UNL     1       4.892  14.754  -4.502  1.00  0.00    -0.248 NA
ATOM     44  C   UNL     1       3.938  12.669  -4.169  1.00  0.00     0.031 C 
ATOM     45  C   UNL     1       1.976  15.376  -0.811  1.00  0.00     0.029 A 
ATOM     46  N   UNL     1       1.974  15.928  -2.949  1.00  0.00    -0.354 N 
ATOM     47  C   UNL     1       4.970  14.024  -5.684  1.00  0.00     0.074 A 
ATOM     48  C   UNL     1       4.553  12.685  -5.353  1.00  0.00     0.031 C 
ATOM     49  C   UNL     1       0.784  15.962  -1.061  1.00  0.00     0.029 A 
ATOM     50  C   UNL     1       0.740  16.348  -2.459  1.00  0.00     0.049 A 
ATOM     51  H   UNL     1       2.289  16.145  -3.856  1.00  0.00     0.167 HD
ATOM     52  C   UNL     1       5.116  14.640  -6.891  1.00  0.00     0.031 A 
ATOM     53  C   UNL     1      -0.260  16.942  -3.160  1.00  0.00     0.031 A 
ATOM     54  C   UNL     1       5.475  16.027  -6.731  1.00  0.00     0.049 A 
ATOM     55  C   UNL     1       0.350  17.508  -4.387  1.00  0.00     0.074 A 
ATOM     56  C   UNL     1       6.528  16.702  -6.148  1.00  0.00     0.029 A 
ATOM     57  N   UNL     1       4.456  16.943  -6.862  1.00  0.00    -0.354 N 
ATOM     58  N   UNL     1       1.216  18.482  -4.371  1.00  0.00    -0.248 NA
ATOM     59  C   UNL     1       0.346  16.698  -5.595  1.00  0.00     0.031 C 
ATOM     60  C   UNL     1       5.938  17.847  -5.539  1.00  0.00     0.029 A 
ATOM     61  C   UNL     1       4.575  17.857  -5.849  1.00  0.00     0.049 A 
ATOM     62  H   UNL     1       3.763  16.941  -7.561  1.00  0.00     0.167 HD
ATOM     63  C   UNL     1       2.150  18.140  -5.339  1.00  0.00     0.074 A 
ATOM     64  C   UNL     1       1.502  17.097  -6.133  1.00  0.00     0.031 C 
ATOM     65  C   UNL     1       3.454  18.533  -5.228  1.00  0.00     0.031 A 
BRANCH  52  66
ATOM     66  C   UNL     1       4.523  14.125  -8.185  1.00  0.00    -0.014 A 
ATOM     67  C   UNL     1       4.724  14.875  -9.364  1.00  0.00     0.010 A 
ATOM     68  C   UNL     1       3.554  13.104  -8.241  1.00  0.00     0.010 A 
ATOM     69  C   UNL     1       3.936  14.670 -10.504  1.00  0.00     0.020 A 
ATOM     70  C   UNL     1       2.793  12.861  -9.387  1.00  0.00     0.020 A 
ATOM     71  C   UNL     1       2.963  13.672 -10.500  1.00  0.00     0.054 A 
BRANCH  71  72
ATOM     72  S   UNL     1       1.880  13.481 -11.936  1.00  0.00     0.124 S 
ATOM     73  O   UNL     1       1.119  14.726 -11.904  1.00  0.00    -0.237 OA
ATOM     74  O   UNL     1       2.838  13.348 -13.029  1.00  0.00    -0.237 OA
ATOM     75  O   UNL     1       1.119  12.271 -11.630  1.00  0.00    -0.744 OA
ENDBRANCH  71  72
ENDBRANCH  52  66
BRANCH  53  76
ATOM     76  C   UNL     1      -1.728  16.807  -2.978  1.00  0.00    -0.014 A 
ATOM     77  C   UNL     1      -2.625  17.684  -3.617  1.00  0.00     0.010 A 
ATOM     78  C   UNL     1      -2.260  15.636  -2.401  1.00  0.00     0.010 A 
ATOM     79  C   UNL     1      -3.991  17.368  -3.732  1.00  0.00     0.020 A 
ATOM     80  C   UNL     1      -3.620  15.317  -2.506  1.00  0.00     0.020 A 
ATOM     81  C   UNL     1      -4.476  16.173  -3.195  1.00  0.00     0.054 A 
BRANCH  81  82
ATOM     82  S   UNL     1      -6.199  15.680  -3.509  1.00  0.00     0.124 S 
ATOM     83  O   UNL     1      -6.948  16.625  -2.687  1.00  0.00    -0.237 OA
ATOM     84  O   UNL     1      -6.323  15.859  -4.952  1.00  0.00    -0.237 OA
ATOM     85  O   UNL     1      -6.245  14.290  -3.055  1.00  0.00    -0.744 OA
ENDBRANCH  81  82
ENDBRANCH  53  76
BRANCH  65  86
ATOM     86  C   UNL     1       3.800  19.610  -4.223  1.00  0.00    -0.014 A 
ATOM     87  C   UNL     1       3.608  19.490  -2.833  1.00  0.00     0.010 A 
ATOM     88  C   UNL     1       4.495  20.733  -4.707  1.00  0.00     0.010 A 
ATOM     89  C   UNL     1       4.079  20.481  -1.956  1.00  0.00     0.020 A 
ATOM     90  C   UNL     1       4.984  21.711  -3.841  1.00  0.00     0.020 A 
ATOM     91  C   UNL     1       4.766  21.586  -2.469  1.00  0.00     0.054 A 
BRANCH  91  92
ATOM     92  S   UNL     1       5.416  22.845  -1.334  1.00  0.00     0.124 S 
ATOM     93  O   UNL     1       4.200  23.480  -0.834  1.00  0.00    -0.237 OA
ATOM     94  O   UNL     1       6.159  22.052  -0.358  1.00  0.00    -0.237 OA
ATOM     95  O   UNL     1       6.247  23.691  -2.191  1.00  0.00    -0.744 OA
ENDBRANCH  91  92
ENDBRANCH  65  86
ENDBRANCH  39  40
ENDBRANCH  31  34
ENDBRANCH  29  30
ENDBRANCH  28  29
ENDBRANCH  27  28
ENDBRANCH   1  27
TORSDOF 20
