REMARK SMILES CC(C)C[C@H](NC(=O)Cc1ccccc1)C(=O)NCCCCCCNC(=O)c1ccc(-c2c3nc(c(-c4ccc(S(=O)(=O)[O-])cc4)c4ccc([nH]4)c(-c4ccc(S(=O)(=O)[O-])cc4)c4nc(c(-c5ccc(S(=O)(=O)[O-])cc5)c5ccc2[nH]5)C=C4)C=C3)cc1
REMARK SMILES IDX 21 1 20 2 19 3 18 4 16 5 17 6 5 8 4 9 2 10 1 11 3 12 6 13
REMARK SMILES IDX 7 14 8 16 9 17 10 18 11 19 15 20 12 21 14 22 13 23 22 24
REMARK SMILES IDX 23 25 24 26 25 27 26 28 27 30 28 31 29 32 87 33 30 34 86 35
REMARK SMILES IDX 31 36 32 37 33 38 80 39 34 40 85 41 79 42 81 43 35 44 84 45
REMARK SMILES IDX 78 46 77 47 36 49 66 50 47 51 65 52 48 53 51 54 64 55 82 56
REMARK SMILES IDX 49 57 50 58 63 60 83 61 52 62 37 63 38 64 46 65 39 66 45 67
REMARK SMILES IDX 40 68 41 69 42 70 43 71 44 72 67 73 68 74 76 75 69 76 75 77
REMARK SMILES IDX 70 78 71 79 72 80 73 81 74 82 53 83 54 84 62 85 55 86 61 87
REMARK SMILES IDX 56 88 57 89 58 90 59 91 60 92
REMARK H PARENT 18 7 6 15 25 29 81 48 51 59
REMARK Flexibility Score: inf
ROOT
ATOM      1  C   UNL     1      -5.166   4.293  -0.403  1.00  0.00     0.002 C 
ENDROOT
BRANCH   1   2
ATOM      2  C   UNL     1      -3.679   3.966  -0.550  1.00  0.00     0.021 C 
BRANCH   2   3
ATOM      3  C   UNL     1      -3.139   3.101   0.579  1.00  0.00     0.116 C 
BRANCH   3   4
ATOM      4  N   UNL     1      -3.627   1.734   0.471  1.00  0.00    -0.354 N 
ATOM      5  C   UNL     1      -2.985   0.560   0.748  1.00  0.00     0.242 C 
ATOM      6  O   UNL     1      -3.617  -0.493   0.642  1.00  0.00    -0.273 OA
ATOM      7  H   UNL     1      -4.554   1.642   0.153  1.00  0.00     0.163 HD
BRANCH   5   8
ATOM      8  C   UNL     1      -1.526   0.578   1.251  1.00  0.00     0.171 C 
BRANCH   8   9
ATOM      9  C   UNL     1      -1.438   1.213   2.644  1.00  0.00     0.038 C 
BRANCH   9  10
ATOM     10  C   UNL     1      -2.603   1.018   3.637  1.00  0.00    -0.015 C 
ATOM     11  C   UNL     1      -2.813  -0.434   4.049  1.00  0.00     0.007 C 
ATOM     12  C   UNL     1      -2.348   1.883   4.878  1.00  0.00     0.007 C 
ENDBRANCH   9  10
ENDBRANCH   8   9
BRANCH   8  13
ATOM     13  N   UNL     1      -0.740   1.231   0.177  1.00  0.00    -0.344 N 
ATOM     14  C   UNL     1       0.422   1.928   0.093  1.00  0.00     0.225 C 
ATOM     15  H   UNL     1      -1.172   1.134  -0.702  1.00  0.00     0.164 HD
ATOM     16  O   UNL     1       0.694   2.412  -1.011  1.00  0.00    -0.275 OA
BRANCH  14  17
ATOM     17  C   UNL     1       1.360   2.121   1.268  1.00  0.00     0.135 C 
BRANCH  17  18
ATOM     18  C   UNL     1       0.976   3.207   2.248  1.00  0.00    -0.039 A 
ATOM     19  C   UNL     1       0.347   4.397   1.851  1.00  0.00     0.004 A 
ATOM     20  C   UNL     1       1.221   3.002   3.617  1.00  0.00     0.004 A 
ATOM     21  C   UNL     1      -0.128   5.299   2.807  1.00  0.00     0.000 A 
ATOM     22  C   UNL     1       0.748   3.905   4.569  1.00  0.00     0.000 A 
ATOM     23  C   UNL     1       0.056   5.043   4.165  1.00  0.00     0.000 A 
ENDBRANCH  17  18
ENDBRANCH  14  17
ENDBRANCH   8  13
ENDBRANCH   5   8
ENDBRANCH   3   4
ENDBRANCH   2   3
ENDBRANCH   1   2
BRANCH   1  24
ATOM     24  C   UNL     1      -5.519   5.098   0.853  1.00  0.00     0.002 C 
BRANCH  24  25
ATOM     25  C   UNL     1      -4.758   6.417   1.007  1.00  0.00     0.021 C 
BRANCH  25  26
ATOM     26  C   UNL     1      -4.850   7.345  -0.200  1.00  0.00     0.116 C 
BRANCH  26  27
ATOM     27  N   UNL     1      -6.225   7.697  -0.515  1.00  0.00    -0.352 N 
ATOM     28  C   UNL     1      -6.771   8.937  -0.739  1.00  0.00     0.251 C 
ATOM     29  H   UNL     1      -6.853   6.941  -0.576  1.00  0.00     0.163 HD
ATOM     30  O   UNL     1      -7.986   9.072  -0.805  1.00  0.00    -0.269 OA
BRANCH  28  31
ATOM     31  C   UNL     1      -5.877  10.106  -0.876  1.00  0.00     0.039 A 
ATOM     32  C   UNL     1      -6.186  11.276  -0.180  1.00  0.00     0.014 A 
ATOM     33  C   UNL     1      -4.734  10.040  -1.677  1.00  0.00     0.014 A 
ATOM     34  C   UNL     1      -5.315  12.364  -0.244  1.00  0.00     0.010 A 
ATOM     35  C   UNL     1      -3.830  11.097  -1.678  1.00  0.00     0.010 A 
ATOM     36  C   UNL     1      -4.113  12.272  -0.966  1.00  0.00    -0.014 A 
BRANCH  36  37
ATOM     37  C   UNL     1      -3.142  13.395  -0.986  1.00  0.00     0.031 A 
ATOM     38  C   UNL     1      -2.819  14.092  -2.280  1.00  0.00     0.074 A 
ATOM     39  C   UNL     1      -2.512  13.750   0.152  1.00  0.00     0.049 A 
ATOM     40  N   UNL     1      -1.966  15.059  -2.503  1.00  0.00    -0.248 NA
ATOM     41  C   UNL     1      -3.528  13.629  -3.484  1.00  0.00     0.031 C 
ATOM     42  C   UNL     1      -2.711  13.125   1.462  1.00  0.00     0.029 A 
ATOM     43  N   UNL     1      -1.572  14.722   0.390  1.00  0.00    -0.354 N 
ATOM     44  C   UNL     1      -2.027  15.311  -3.869  1.00  0.00     0.074 A 
ATOM     45  C   UNL     1      -2.960  14.360  -4.432  1.00  0.00     0.031 C 
ATOM     46  C   UNL     1      -1.941  13.748   2.369  1.00  0.00     0.029 A 
ATOM     47  C   UNL     1      -1.160  14.783   1.700  1.00  0.00     0.049 A 
ATOM     48  H   UNL     1      -1.225  15.319  -0.312  1.00  0.00     0.167 HD
ATOM     49  C   UNL     1      -1.382  16.261  -4.586  1.00  0.00     0.031 A 
ATOM     50  C   UNL     1      -0.248  15.576   2.297  1.00  0.00     0.031 A 
ATOM     51  C   UNL     1      -0.459  17.209  -4.020  1.00  0.00     0.049 A 
ATOM     52  C   UNL     1       0.473  16.608   1.472  1.00  0.00     0.074 A 
ATOM     53  C   UNL     1       0.208  18.242  -4.654  1.00  0.00     0.029 A 
ATOM     54  N   UNL     1      -0.069  17.238  -2.689  1.00  0.00    -0.354 N 
ATOM     55  N   UNL     1       0.350  16.875   0.194  1.00  0.00    -0.248 NA
ATOM     56  C   UNL     1       1.448  17.454   2.174  1.00  0.00     0.031 C 
ATOM     57  C   UNL     1       1.047  18.858  -3.720  1.00  0.00     0.029 A 
ATOM     58  C   UNL     1       0.850  18.253  -2.488  1.00  0.00     0.049 A 
ATOM     59  H   UNL     1      -0.398  16.626  -1.990  1.00  0.00     0.167 HD
ATOM     60  C   UNL     1       1.210  17.939  -0.055  1.00  0.00     0.074 A 
ATOM     61  C   UNL     1       1.833  18.277   1.208  1.00  0.00     0.031 C 
ATOM     62  C   UNL     1       1.461  18.579  -1.224  1.00  0.00     0.031 A 
BRANCH  49  63
ATOM     63  C   UNL     1      -1.648  16.320  -6.069  1.00  0.00    -0.014 A 
ATOM     64  C   UNL     1      -2.897  16.735  -6.568  1.00  0.00     0.010 A 
ATOM     65  C   UNL     1      -0.619  16.011  -6.977  1.00  0.00     0.010 A 
ATOM     66  C   UNL     1      -3.122  16.802  -7.945  1.00  0.00     0.020 A 
ATOM     67  C   UNL     1      -0.831  16.107  -8.355  1.00  0.00     0.020 A 
ATOM     68  C   UNL     1      -2.087  16.489  -8.830  1.00  0.00     0.054 A 
BRANCH  68  69
ATOM     69  S   UNL     1      -2.400  16.622 -10.612  1.00  0.00     0.124 S 
ATOM     70  O   UNL     1      -3.296  15.492 -10.845  1.00  0.00    -0.237 OA
ATOM     71  O   UNL     1      -3.011  17.943 -10.731  1.00  0.00    -0.237 OA
ATOM     72  O   UNL     1      -1.072  16.496 -11.209  1.00  0.00    -0.744 OA
ENDBRANCH  68  69
ENDBRANCH  49  63
BRANCH  50  73
ATOM     73  C   UNL     1       0.030  15.430   3.753  1.00  0.00    -0.014 A 
ATOM     74  C   UNL     1      -0.337  16.441   4.658  1.00  0.00     0.010 A 
ATOM     75  C   UNL     1       0.668  14.275   4.242  1.00  0.00     0.010 A 
ATOM     76  C   UNL     1      -0.049  16.312   6.021  1.00  0.00     0.020 A 
ATOM     77  C   UNL     1       0.928  14.128   5.607  1.00  0.00     0.020 A 
ATOM     78  C   UNL     1       0.581  15.154   6.487  1.00  0.00     0.054 A 
BRANCH  78  79
ATOM     79  S   UNL     1       0.908  14.991   8.264  1.00  0.00     0.124 S 
ATOM     80  O   UNL     1       1.997  15.943   8.460  1.00  0.00    -0.237 OA
ATOM     81  O   UNL     1      -0.374  15.363   8.855  1.00  0.00    -0.237 OA
ATOM     82  O   UNL     1       1.271  13.584   8.416  1.00  0.00    -0.744 OA
ENDBRANCH  78  79
ENDBRANCH  50  73
BRANCH  62  83
ATOM     83  C   UNL     1       2.423  19.738  -1.189  1.00  0.00    -0.014 A 
ATOM     84  C   UNL     1       3.801  19.541  -0.992  1.00  0.00     0.010 A 
ATOM     85  C   UNL     1       1.942  21.042  -1.413  1.00  0.00     0.010 A 
ATOM     86  C   UNL     1       4.676  20.631  -0.986  1.00  0.00     0.020 A 
ATOM     87  C   UNL     1       2.818  22.130  -1.440  1.00  0.00     0.020 A 
ATOM     88  C   UNL     1       4.179  21.919  -1.212  1.00  0.00     0.054 A 
BRANCH  88  89
ATOM     89  S   UNL     1       5.342  23.310  -1.242  1.00  0.00     0.124 S 
ATOM     90  O   UNL     1       5.699  23.439   0.168  1.00  0.00    -0.237 OA
ATOM     91  O   UNL     1       6.404  22.819  -2.117  1.00  0.00    -0.237 OA
ATOM     92  O   UNL     1       4.552  24.411  -1.788  1.00  0.00    -0.744 OA
ENDBRANCH  88  89
ENDBRANCH  62  83
ENDBRANCH  36  37
ENDBRANCH  28  31
ENDBRANCH  26  27
ENDBRANCH  25  26
ENDBRANCH  24  25
ENDBRANCH   1  24
TORSDOF 21
