REMARK SMILES Cc1nn(C(C)C)c(C)c1S(=O)(=O)Nc1cccc(C(=O)NCCCCCCNC(=O)c2ccc(-c3c4nc(c(-c5ccc(S(=O)(=O)[O-])cc5)c5ccc([nH]5)c(-c5ccc(S(=O)(=O)[O-])cc5)c5nc(c(-c6ccc(S(=O)(=O)[O-])cc6)c6ccc3[nH]6)C=C5)C=C4)cc2)c1C
REMARK SMILES IDX 25 1 24 2 23 3 22 4 20 5 21 6 19 8 15 9 16 10 92 11 17 12
REMARK SMILES IDX 93 13 18 14 14 15 11 17 12 18 13 19 10 20 1 21 2 22 3 23
REMARK SMILES IDX 4 24 8 25 9 26 5 27 6 28 7 29 26 30 27 31 28 32 29 33 30 34
REMARK SMILES IDX 31 36 32 37 33 38 91 39 34 40 90 41 35 42 36 43 37 44 84 45
REMARK SMILES IDX 38 46 89 47 83 48 85 49 39 50 88 51 82 52 81 53 40 55 70 56
REMARK SMILES IDX 51 57 69 58 52 59 55 60 68 61 86 62 53 63 54 64 67 66 87 67
REMARK SMILES IDX 56 68 41 69 42 70 50 71 43 72 49 73 44 74 45 75 46 76 47 77
REMARK SMILES IDX 48 78 71 79 72 80 80 81 73 82 79 83 74 84 75 85 76 86 77 87
REMARK SMILES IDX 78 88 57 89 58 90 66 91 59 92 65 93 60 94 61 95 62 96 63 97
REMARK SMILES IDX 64 98
REMARK H PARENT 22 7 14 16 29 35 85 54 55 65
REMARK Flexibility Score: inf
ROOT
ATOM      1  C   UNL     1      -0.322  -7.225   0.667  1.00  0.00     0.002 C 
ENDROOT
BRANCH   1   2
ATOM      2  C   UNL     1      -0.068  -5.918  -0.103  1.00  0.00     0.021 C 
BRANCH   2   3
ATOM      3  C   UNL     1      -0.354  -4.638   0.685  1.00  0.00     0.116 C 
BRANCH   3   4
ATOM      4  N   UNL     1       0.688  -4.380   1.657  1.00  0.00    -0.352 N 
ATOM      5  C   UNL     1       1.722  -3.491   1.770  1.00  0.00     0.251 C 
ATOM      6  O   UNL     1       2.302  -3.540   2.855  1.00  0.00    -0.269 OA
ATOM      7  H   UNL     1       0.642  -4.995   2.424  1.00  0.00     0.163 HD
BRANCH   5   8
ATOM      8  C   UNL     1       2.106  -2.461   0.732  1.00  0.00     0.044 A 
ATOM      9  C   UNL     1       2.915  -0.202   0.223  1.00  0.00     0.053 A 
ATOM     10  C   UNL     1       2.462  -0.312  -1.089  1.00  0.00     0.027 A 
ATOM     11  C   UNL     1       2.864  -1.316   1.103  1.00  0.00    -0.014 A 
ATOM     12  C   UNL     1       1.889  -1.508  -1.511  1.00  0.00     0.003 A 
ATOM     13  C   UNL     1       3.575  -1.212   2.435  1.00  0.00     0.047 C 
ATOM     14  C   UNL     1       1.700  -2.562  -0.606  1.00  0.00     0.014 A 
BRANCH   9  15
ATOM     15  N   UNL     1       3.364   1.029   0.762  1.00  0.00    -0.279 N 
ATOM     16  H   UNL     1       4.086   0.967   1.428  1.00  0.00     0.180 HD
BRANCH  15  17
ATOM     17  S   UNL     1       2.834   2.553   0.416  1.00  0.00     0.265 S 
ATOM     18  O   UNL     1       3.371   2.933  -0.874  1.00  0.00    -0.201 OA
ATOM     19  O   UNL     1       3.163   3.327   1.598  1.00  0.00    -0.201 OA
BRANCH  17  20
ATOM     20  C   UNL     1       1.143   2.814   0.240  1.00  0.00     0.131 A 
ATOM     21  C   UNL     1      -0.098   0.590   0.984  1.00  0.00     0.070 C 
ATOM     22  C   UNL     1       0.032   1.960   0.439  1.00  0.00     0.080 A 
ATOM     23  N   UNL     1      -1.108   2.566   0.077  1.00  0.00    -0.176 NA
ATOM     24  N   UNL     1      -0.753   3.824  -0.227  1.00  0.00    -0.266 N 
ATOM     25  C   UNL     1       0.588   4.049  -0.081  1.00  0.00     0.056 A 
ATOM     26  C   UNL     1       1.218   5.387  -0.230  1.00  0.00     0.068 C 
BRANCH  24  27
ATOM     27  C   UNL     1      -1.788   4.780  -0.613  1.00  0.00     0.101 C 
ATOM     28  C   UNL     1      -2.235   4.557  -2.057  1.00  0.00     0.033 C 
ATOM     29  C   UNL     1      -2.975   4.750   0.351  1.00  0.00     0.033 C 
ENDBRANCH  24  27
ENDBRANCH  17  20
ENDBRANCH  15  17
ENDBRANCH   9  15
ENDBRANCH   5   8
ENDBRANCH   3   4
ENDBRANCH   2   3
ENDBRANCH   1   2
BRANCH   1  30
ATOM     30  C   UNL     1      -1.701  -7.384   1.325  1.00  0.00     0.002 C 
BRANCH  30  31
ATOM     31  C   UNL     1      -2.909  -6.998   0.471  1.00  0.00     0.021 C 
BRANCH  31  32
ATOM     32  C   UNL     1      -3.148  -7.929  -0.710  1.00  0.00     0.116 C 
BRANCH  32  33
ATOM     33  N   UNL     1      -4.426  -8.623  -0.617  1.00  0.00    -0.352 N 
ATOM     34  C   UNL     1      -5.089  -9.312  -1.620  1.00  0.00     0.251 C 
ATOM     35  H   UNL     1      -4.870  -8.600   0.261  1.00  0.00     0.163 HD
ATOM     36  O   UNL     1      -6.253  -9.641  -1.554  1.00  0.00    -0.269 OA
BRANCH  34  37
ATOM     37  C   UNL     1      -4.242  -9.762  -2.742  1.00  0.00     0.039 A 
ATOM     38  C   UNL     1      -3.859 -11.108  -2.740  1.00  0.00     0.014 A 
ATOM     39  C   UNL     1      -3.604  -8.818  -3.541  1.00  0.00     0.014 A 
ATOM     40  C   UNL     1      -2.707 -11.483  -3.418  1.00  0.00     0.010 A 
ATOM     41  C   UNL     1      -2.415  -9.175  -4.139  1.00  0.00     0.010 A 
ATOM     42  C   UNL     1      -1.945 -10.492  -4.034  1.00  0.00    -0.014 A 
BRANCH  42  43
ATOM     43  C   UNL     1      -0.624 -10.730  -4.594  1.00  0.00     0.031 A 
ATOM     44  C   UNL     1      -0.509 -10.906  -6.062  1.00  0.00     0.074 A 
ATOM     45  C   UNL     1       0.466 -10.707  -3.792  1.00  0.00     0.049 A 
ATOM     46  N   UNL     1       0.490 -11.454  -6.665  1.00  0.00    -0.248 NA
ATOM     47  C   UNL     1      -1.575 -10.505  -6.980  1.00  0.00     0.031 C 
ATOM     48  C   UNL     1       1.864 -10.690  -4.220  1.00  0.00     0.029 A 
ATOM     49  N   UNL     1       0.557 -10.892  -2.408  1.00  0.00    -0.354 N 
ATOM     50  C   UNL     1       0.344 -11.218  -8.016  1.00  0.00     0.074 A 
ATOM     51  C   UNL     1      -0.995 -10.704  -8.166  1.00  0.00     0.031 C 
ATOM     52  C   UNL     1       2.622 -11.175  -3.222  1.00  0.00     0.029 A 
ATOM     53  C   UNL     1       1.706 -11.676  -2.209  1.00  0.00     0.049 A 
ATOM     54  H   UNL     1      -0.054 -10.546  -1.718  1.00  0.00     0.167 HD
ATOM     55  C   UNL     1       1.426 -11.348  -8.836  1.00  0.00     0.031 A 
ATOM     56  C   UNL     1       1.682 -12.971  -1.765  1.00  0.00     0.031 A 
ATOM     57  C   UNL     1       2.560 -11.922  -8.115  1.00  0.00     0.049 A 
ATOM     58  C   UNL     1       2.321 -13.944  -2.749  1.00  0.00     0.074 A 
ATOM     59  C   UNL     1       3.674 -11.364  -7.511  1.00  0.00     0.029 A 
ATOM     60  N   UNL     1       2.463 -13.224  -7.638  1.00  0.00    -0.354 N 
ATOM     61  N   UNL     1       2.508 -13.679  -4.015  1.00  0.00    -0.248 NA
ATOM     62  C   UNL     1       2.781 -15.288  -2.398  1.00  0.00     0.031 C 
ATOM     63  C   UNL     1       4.170 -12.303  -6.565  1.00  0.00     0.029 A 
ATOM     64  C   UNL     1       3.387 -13.443  -6.634  1.00  0.00     0.049 A 
ATOM     65  H   UNL     1       1.824 -13.897  -7.969  1.00  0.00     0.167 HD
ATOM     66  C   UNL     1       3.110 -14.744  -4.633  1.00  0.00     0.074 A 
ATOM     67  C   UNL     1       3.260 -15.729  -3.577  1.00  0.00     0.031 C 
ATOM     68  C   UNL     1       3.439 -14.733  -5.959  1.00  0.00     0.031 A 
BRANCH  55  69
ATOM     69  C   UNL     1       1.535 -10.685 -10.194  1.00  0.00    -0.014 A 
ATOM     70  C   UNL     1       2.809 -10.351 -10.702  1.00  0.00     0.010 A 
ATOM     71  C   UNL     1       0.438 -10.290 -10.983  1.00  0.00     0.010 A 
ATOM     72  C   UNL     1       2.972  -9.586 -11.869  1.00  0.00     0.020 A 
ATOM     73  C   UNL     1       0.581  -9.498 -12.133  1.00  0.00     0.020 A 
ATOM     74  C   UNL     1       1.851  -9.138 -12.564  1.00  0.00     0.054 A 
BRANCH  74  75
ATOM     75  S   UNL     1       2.069  -8.086 -14.023  1.00  0.00     0.124 S 
ATOM     76  O   UNL     1       2.818  -6.953 -13.485  1.00  0.00    -0.237 OA
ATOM     77  O   UNL     1       2.808  -8.958 -14.931  1.00  0.00    -0.237 OA
ATOM     78  O   UNL     1       0.701  -7.778 -14.436  1.00  0.00    -0.744 OA
ENDBRANCH  74  75
ENDBRANCH  55  69
BRANCH  56  79
ATOM     79  C   UNL     1       0.548 -13.294  -0.851  1.00  0.00    -0.014 A 
ATOM     80  C   UNL     1       0.511 -12.644   0.402  1.00  0.00     0.010 A 
ATOM     81  C   UNL     1      -0.631 -13.885  -1.337  1.00  0.00     0.010 A 
ATOM     82  C   UNL     1      -0.702 -12.432   1.065  1.00  0.00     0.020 A 
ATOM     83  C   UNL     1      -1.849 -13.686  -0.665  1.00  0.00     0.020 A 
ATOM     84  C   UNL     1      -1.883 -12.906   0.495  1.00  0.00     0.054 A 
BRANCH  84  85
ATOM     85  S   UNL     1      -3.461 -12.325   1.190  1.00  0.00     0.124 S 
ATOM     86  O   UNL     1      -3.451 -12.918   2.523  1.00  0.00    -0.237 OA
ATOM     87  O   UNL     1      -3.303 -10.870   1.149  1.00  0.00    -0.237 OA
ATOM     88  O   UNL     1      -4.454 -12.863   0.266  1.00  0.00    -0.744 OA
ENDBRANCH  84  85
ENDBRANCH  56  79
BRANCH  68  89
ATOM     89  C   UNL     1       3.909 -15.924  -6.761  1.00  0.00    -0.014 A 
ATOM     90  C   UNL     1       3.575 -17.252  -6.458  1.00  0.00     0.010 A 
ATOM     91  C   UNL     1       4.597 -15.694  -7.978  1.00  0.00     0.010 A 
ATOM     92  C   UNL     1       3.957 -18.306  -7.301  1.00  0.00     0.020 A 
ATOM     93  C   UNL     1       4.941 -16.731  -8.847  1.00  0.00     0.020 A 
ATOM     94  C   UNL     1       4.638 -18.038  -8.490  1.00  0.00     0.054 A 
BRANCH  94  95
ATOM     95  S   UNL     1       5.060 -19.398  -9.610  1.00  0.00     0.124 S 
ATOM     96  O   UNL     1       6.351 -19.831  -9.082  1.00  0.00    -0.237 OA
ATOM     97  O   UNL     1       3.957 -20.337  -9.416  1.00  0.00    -0.237 OA
ATOM     98  O   UNL     1       5.101 -18.760 -10.923  1.00  0.00    -0.744 OA
ENDBRANCH  94  95
ENDBRANCH  68  89
ENDBRANCH  42  43
ENDBRANCH  34  37
ENDBRANCH  32  33
ENDBRANCH  31  32
ENDBRANCH  30  31
ENDBRANCH   1  30
TORSDOF 20
