REMARK SMILES CC(C)Cc1ccc([C@H](C)C(=O)NCCCCCCNC(=O)c2ccc(-c3c4nc(c(-c5ccc(S(=O)(=O)[O-])cc5)c5ccc([nH]5)c(-c5ccc(S(=O)(=O)[O-])cc5)c5nc(c(-c6ccc(S(=O)(=O)[O-])cc6)c6ccc3[nH]6)C=C5)C=C4)cc2)cc1
REMARK SMILES IDX 16 1 15 2 14 3 13 4 11 5 12 6 9 8 10 9 8 10 5 11 6 12 84 13
REMARK SMILES IDX 7 14 83 15 4 16 2 17 1 18 3 19 17 20 18 21 19 22 20 23 21 24
REMARK SMILES IDX 22 26 23 27 24 28 82 29 25 30 81 31 26 32 27 33 28 34 75 35
REMARK SMILES IDX 29 36 80 37 74 38 76 39 30 40 79 41 73 42 72 43 31 45 61 46
REMARK SMILES IDX 42 47 60 48 43 49 46 50 59 51 77 52 44 53 45 54 58 56 78 57
REMARK SMILES IDX 47 58 32 59 33 60 41 61 34 62 40 63 35 64 36 65 37 66 38 67
REMARK SMILES IDX 39 68 62 69 63 70 71 71 64 72 70 73 65 74 66 75 67 76 68 77
REMARK SMILES IDX 69 78 48 79 49 80 57 81 50 82 56 83 51 84 52 85 53 86 54 87
REMARK SMILES IDX 55 88
REMARK H PARENT 13 7 20 25 76 44 46 55
REMARK Flexibility Score: inf
ROOT
ATOM      1  C   UNL     1      -4.533   5.966   2.404  1.00  0.00     0.002 C 
ENDROOT
BRANCH   1   2
ATOM      2  C   UNL     1      -3.493   4.852   2.286  1.00  0.00     0.021 C 
BRANCH   2   3
ATOM      3  C   UNL     1      -2.988   4.296   3.612  1.00  0.00     0.116 C 
BRANCH   3   4
ATOM      4  N   UNL     1      -3.987   3.515   4.311  1.00  0.00    -0.356 N 
ATOM      5  C   UNL     1      -3.883   2.271   4.862  1.00  0.00     0.227 C 
ATOM      6  O   UNL     1      -4.854   1.844   5.496  1.00  0.00    -0.274 OA
ATOM      7  H   UNL     1      -4.869   3.943   4.401  1.00  0.00     0.163 HD
BRANCH   5   8
ATOM      8  C   UNL     1      -2.619   1.409   4.694  1.00  0.00     0.105 C 
ATOM      9  C   UNL     1      -2.373   1.042   3.224  1.00  0.00     0.023 C 
BRANCH   8  10
ATOM     10  C   UNL     1      -1.441   1.944   5.502  1.00  0.00    -0.036 A 
ATOM     11  C   UNL     1       0.601   3.034   7.138  1.00  0.00    -0.048 A 
ATOM     12  C   UNL     1       0.637   3.196   5.752  1.00  0.00     0.004 A 
ATOM     13  C   UNL     1      -0.438   2.287   7.700  1.00  0.00     0.004 A 
ATOM     14  C   UNL     1      -0.357   2.636   4.943  1.00  0.00     0.005 A 
ATOM     15  C   UNL     1      -1.454   1.766   6.896  1.00  0.00     0.005 A 
BRANCH  11  16
ATOM     16  C   UNL     1       1.642   3.690   8.013  1.00  0.00     0.038 C 
BRANCH  16  17
ATOM     17  C   UNL     1       1.257   5.116   8.461  1.00  0.00    -0.013 C 
ATOM     18  C   UNL     1       0.043   5.129   9.395  1.00  0.00     0.008 C 
ATOM     19  C   UNL     1       2.446   5.775   9.165  1.00  0.00     0.008 C 
ENDBRANCH  16  17
ENDBRANCH  11  16
ENDBRANCH   8  10
ENDBRANCH   5   8
ENDBRANCH   3   4
ENDBRANCH   2   3
ENDBRANCH   1   2
BRANCH   1  20
ATOM     20  C   UNL     1      -4.107   7.179   3.237  1.00  0.00     0.002 C 
BRANCH  20  21
ATOM     21  C   UNL     1      -2.772   7.817   2.844  1.00  0.00     0.021 C 
BRANCH  21  22
ATOM     22  C   UNL     1      -2.661   8.242   1.383  1.00  0.00     0.116 C 
BRANCH  22  23
ATOM     23  N   UNL     1      -3.665   9.226   1.015  1.00  0.00    -0.352 N 
ATOM     24  C   UNL     1      -3.504  10.460   0.432  1.00  0.00     0.251 C 
ATOM     25  H   UNL     1      -4.595   8.972   1.212  1.00  0.00     0.163 HD
ATOM     26  O   UNL     1      -4.454  11.231   0.362  1.00  0.00    -0.269 OA
BRANCH  24  27
ATOM     27  C   UNL     1      -2.180  10.861  -0.091  1.00  0.00     0.039 A 
ATOM     28  C   UNL     1      -1.704  12.144   0.190  1.00  0.00     0.014 A 
ATOM     29  C   UNL     1      -1.413   9.980  -0.858  1.00  0.00     0.014 A 
ATOM     30  C   UNL     1      -0.432  12.521  -0.249  1.00  0.00     0.010 A 
ATOM     31  C   UNL     1      -0.117  10.331  -1.229  1.00  0.00     0.010 A 
ATOM     32  C   UNL     1       0.386  11.607  -0.932  1.00  0.00    -0.014 A 
BRANCH  32  33
ATOM     33  C   UNL     1       1.769  11.966  -1.340  1.00  0.00     0.031 A 
ATOM     34  C   UNL     1       2.143  12.004  -2.798  1.00  0.00     0.074 A 
ATOM     35  C   UNL     1       2.704  12.199  -0.397  1.00  0.00     0.049 A 
ATOM     36  N   UNL     1       3.309  12.241  -3.343  1.00  0.00    -0.248 NA
ATOM     37  C   UNL     1       1.075  11.718  -3.769  1.00  0.00     0.031 C 
ATOM     38  C   UNL     1       2.476  12.158   1.050  1.00  0.00     0.029 A 
ATOM     39  N   UNL     1       4.035  12.513  -0.512  1.00  0.00    -0.354 N 
ATOM     40  C   UNL     1       3.119  12.117  -4.715  1.00  0.00     0.074 A 
ATOM     41  C   UNL     1       1.738  11.734  -4.916  1.00  0.00     0.031 C 
ATOM     42  C   UNL     1       3.619  12.462   1.685  1.00  0.00     0.029 A 
ATOM     43  C   UNL     1       4.672  12.674   0.697  1.00  0.00     0.049 A 
ATOM     44  H   UNL     1       4.492  12.613  -1.378  1.00  0.00     0.167 HD
ATOM     45  C   UNL     1       4.006  12.323  -5.717  1.00  0.00     0.031 A 
ATOM     46  C   UNL     1       5.960  12.950   0.981  1.00  0.00     0.031 A 
ATOM     47  C   UNL     1       5.377  12.710  -5.512  1.00  0.00     0.049 A 
ATOM     48  C   UNL     1       6.933  13.150  -0.150  1.00  0.00     0.074 A 
ATOM     49  C   UNL     1       6.341  12.993  -6.464  1.00  0.00     0.029 A 
ATOM     50  N   UNL     1       5.981  12.864  -4.274  1.00  0.00    -0.354 N 
ATOM     51  N   UNL     1       6.716  13.094  -1.443  1.00  0.00    -0.248 NA
ATOM     52  C   UNL     1       8.321  13.463   0.216  1.00  0.00     0.031 C 
ATOM     53  C   UNL     1       7.544  13.258  -5.802  1.00  0.00     0.029 A 
ATOM     54  C   UNL     1       7.312  13.210  -4.437  1.00  0.00     0.049 A 
ATOM     55  H   UNL     1       5.531  12.746  -3.406  1.00  0.00     0.167 HD
ATOM     56  C   UNL     1       7.933  13.396  -2.044  1.00  0.00     0.074 A 
ATOM     57  C   UNL     1       8.877  13.648  -0.974  1.00  0.00     0.031 C 
ATOM     58  C   UNL     1       8.241  13.460  -3.363  1.00  0.00     0.031 A 
BRANCH  45  59
ATOM     59  C   UNL     1       3.524  12.124  -7.132  1.00  0.00    -0.014 A 
ATOM     60  C   UNL     1       2.594  13.004  -7.715  1.00  0.00     0.010 A 
ATOM     61  C   UNL     1       4.046  11.072  -7.907  1.00  0.00     0.010 A 
ATOM     62  C   UNL     1       2.165  12.812  -9.032  1.00  0.00     0.020 A 
ATOM     63  C   UNL     1       3.644  10.895  -9.234  1.00  0.00     0.020 A 
ATOM     64  C   UNL     1       2.694  11.758  -9.783  1.00  0.00     0.054 A 
BRANCH  64  65
ATOM     65  S   UNL     1       2.140  11.551 -11.497  1.00  0.00     0.124 S 
ATOM     66  O   UNL     1       0.768  11.083 -11.316  1.00  0.00    -0.237 OA
ATOM     67  O   UNL     1       2.276  12.900 -12.041  1.00  0.00    -0.237 OA
ATOM     68  O   UNL     1       3.067  10.564 -12.046  1.00  0.00    -0.744 OA
ENDBRANCH  64  65
ENDBRANCH  45  59
BRANCH  46  69
ATOM     69  C   UNL     1       6.404  13.059   2.399  1.00  0.00    -0.014 A 
ATOM     70  C   UNL     1       6.800  14.298   2.934  1.00  0.00     0.010 A 
ATOM     71  C   UNL     1       6.433  11.920   3.225  1.00  0.00     0.010 A 
ATOM     72  C   UNL     1       7.237  14.392   4.258  1.00  0.00     0.020 A 
ATOM     73  C   UNL     1       6.838  12.015   4.559  1.00  0.00     0.020 A 
ATOM     74  C   UNL     1       7.251  13.249   5.064  1.00  0.00     0.054 A 
BRANCH  74  75
ATOM     75  S   UNL     1       7.782  13.403   6.792  1.00  0.00     0.124 S 
ATOM     76  O   UNL     1       9.220  13.612   6.650  1.00  0.00    -0.237 OA
ATOM     77  O   UNL     1       7.016  14.557   7.255  1.00  0.00    -0.237 OA
ATOM     78  O   UNL     1       7.390  12.126   7.384  1.00  0.00    -0.744 OA
ENDBRANCH  74  75
ENDBRANCH  46  69
BRANCH  58  79
ATOM     79  C   UNL     1       9.647  13.858  -3.731  1.00  0.00    -0.014 A 
ATOM     80  C   UNL     1      10.735  12.994  -3.516  1.00  0.00     0.010 A 
ATOM     81  C   UNL     1       9.871  15.098  -4.359  1.00  0.00     0.010 A 
ATOM     82  C   UNL     1      12.025  13.376  -3.893  1.00  0.00     0.020 A 
ATOM     83  C   UNL     1      11.154  15.470  -4.767  1.00  0.00     0.020 A 
ATOM     84  C   UNL     1      12.226  14.611  -4.519  1.00  0.00     0.054 A 
BRANCH  84  85
ATOM     85  S   UNL     1      13.903  15.061  -5.041  1.00  0.00     0.124 S 
ATOM     86  O   UNL     1      14.558  15.331  -3.764  1.00  0.00    -0.237 OA
ATOM     87  O   UNL     1      14.354  13.858  -5.737  1.00  0.00    -0.237 OA
ATOM     88  O   UNL     1      13.700  16.228  -5.896  1.00  0.00    -0.744 OA
ENDBRANCH  84  85
ENDBRANCH  58  79
ENDBRANCH  32  33
ENDBRANCH  24  27
ENDBRANCH  22  23
ENDBRANCH  21  22
ENDBRANCH  20  21
ENDBRANCH   1  20
TORSDOF 19
