REMARK SMILES O=C(NCCCCCCNC(=O)[C@H]1CCCN(c2cc(-c3ccccn3)nc(-c3ccccc3F)n2)C1)c1ccc(-c2c3nc(c(-c4ccc(S(=O)(=O)[O-])cc4)c4ccc([nH]4)c(-c4ccc(S(=O)(=O)[O-])cc4)c4nc(c(-c5ccc(S(=O)(=O)[O-])cc5)c5ccc2[nH]5)C=C4)C=C3)cc1
REMARK SMILES IDX 6 1 5 2 4 3 3 4 1 5 2 6 38 8 39 9 97 10 40 11 96 12 41 13
REMARK SMILES IDX 42 14 43 15 90 16 44 17 95 18 89 19 91 20 45 21 94 22 88 23
REMARK SMILES IDX 87 24 46 26 76 27 57 28 75 29 58 30 61 31 74 32 92 33 59 34
REMARK SMILES IDX 60 35 73 37 93 38 62 39 47 40 48 41 56 42 49 43 55 44 50 45
REMARK SMILES IDX 51 46 52 47 53 48 54 49 77 50 78 51 86 52 79 53 85 54 80 55
REMARK SMILES IDX 81 56 82 57 83 58 84 59 63 60 64 61 72 62 65 63 71 64 66 65
REMARK SMILES IDX 67 66 68 67 69 68 70 69 7 70 8 71 9 72 10 73 11 74 12 76
REMARK SMILES IDX 13 77 14 78 37 79 15 80 17 81 16 82 18 83 19 84 36 85 20 86
REMARK SMILES IDX 28 87 27 88 21 89 22 90 26 91 23 92 25 93 24 94 29 95 30 96
REMARK SMILES IDX 34 97 31 98 33 99 35 100 32 101
REMARK H PARENT 3 7 91 25 61 36 10 75
REMARK Flexibility Score: inf
ROOT
ATOM      1  C   UNL     1      11.360   6.391  -6.535  1.00  0.00     0.002 C 
ENDROOT
BRANCH   1   2
ATOM      2  C   UNL     1      11.507   7.799  -7.117  1.00  0.00     0.021 C 
BRANCH   2   3
ATOM      3  C   UNL     1      12.947   8.254  -7.318  1.00  0.00     0.116 C 
BRANCH   3   4
ATOM      4  N   UNL     1      13.638   7.450  -8.312  1.00  0.00    -0.352 N 
ATOM      5  O   UNL     1      14.600   7.015 -10.303  1.00  0.00    -0.269 OA
ATOM      6  C   UNL     1      14.244   7.851  -9.476  1.00  0.00     0.251 C 
ATOM      7  H   UNL     1      13.676   6.484  -8.124  1.00  0.00     0.163 HD
BRANCH   6   8
ATOM      8  C   UNL     1      14.454   9.291  -9.734  1.00  0.00     0.039 A 
ATOM      9  C   UNL     1      14.951  10.126  -8.729  1.00  0.00     0.014 A 
ATOM     10  C   UNL     1      14.169   9.809 -11.000  1.00  0.00     0.014 A 
ATOM     11  C   UNL     1      15.050  11.494  -8.952  1.00  0.00     0.010 A 
ATOM     12  C   UNL     1      14.347  11.173 -11.248  1.00  0.00     0.010 A 
ATOM     13  C   UNL     1      14.771  12.030 -10.220  1.00  0.00    -0.014 A 
BRANCH  13  14
ATOM     14  C   UNL     1      15.017  13.472 -10.470  1.00  0.00     0.031 A 
ATOM     15  C   UNL     1      13.890  14.412 -10.797  1.00  0.00     0.074 A 
ATOM     16  C   UNL     1      16.282  13.931 -10.382  1.00  0.00     0.049 A 
ATOM     17  N   UNL     1      13.939  15.699 -11.029  1.00  0.00    -0.248 NA
ATOM     18  C   UNL     1      12.537  13.839 -10.879  1.00  0.00     0.031 C 
ATOM     19  C   UNL     1      17.457  13.108 -10.079  1.00  0.00     0.029 A 
ATOM     20  N   UNL     1      16.792  15.195 -10.522  1.00  0.00    -0.354 N 
ATOM     21  C   UNL     1      12.633  16.088 -11.304  1.00  0.00     0.074 A 
ATOM     22  C   UNL     1      11.815  14.896 -11.228  1.00  0.00     0.031 C 
ATOM     23  C   UNL     1      18.541  13.894 -10.013  1.00  0.00     0.029 A 
ATOM     24  C   UNL     1      18.152  15.262 -10.332  1.00  0.00     0.049 A 
ATOM     25  H   UNL     1      16.238  15.980 -10.737  1.00  0.00     0.167 HD
ATOM     26  C   UNL     1      12.162  17.327 -11.591  1.00  0.00     0.031 A 
ATOM     27  C   UNL     1      19.001  16.303 -10.425  1.00  0.00     0.031 A 
ATOM     28  C   UNL     1      12.986  18.507 -11.667  1.00  0.00     0.049 A 
ATOM     29  C   UNL     1      18.455  17.656 -10.773  1.00  0.00     0.074 A 
ATOM     30  C   UNL     1      12.597  19.811 -11.920  1.00  0.00     0.029 A 
ATOM     31  N   UNL     1      14.362  18.528 -11.497  1.00  0.00    -0.354 N 
ATOM     32  N   UNL     1      17.210  18.008 -10.992  1.00  0.00    -0.248 NA
ATOM     33  C   UNL     1      19.425  18.753 -10.885  1.00  0.00     0.031 C 
ATOM     34  C   UNL     1      13.744  20.611 -11.956  1.00  0.00     0.029 A 
ATOM     35  C   UNL     1      14.841  19.817 -11.665  1.00  0.00     0.049 A 
ATOM     36  H   UNL     1      14.918  17.742 -11.289  1.00  0.00     0.167 HD
ATOM     37  C   UNL     1      17.246  19.373 -11.251  1.00  0.00     0.074 A 
ATOM     38  C   UNL     1      18.631  19.784 -11.139  1.00  0.00     0.031 C 
ATOM     39  C   UNL     1      16.223  20.209 -11.554  1.00  0.00     0.031 A 
BRANCH  26  40
ATOM     40  C   UNL     1      10.689  17.473 -11.871  1.00  0.00    -0.014 A 
ATOM     41  C   UNL     1       9.737  17.377 -10.840  1.00  0.00     0.010 A 
ATOM     42  C   UNL     1      10.256  17.778 -13.175  1.00  0.00     0.010 A 
ATOM     43  C   UNL     1       8.377  17.555 -11.114  1.00  0.00     0.020 A 
ATOM     44  C   UNL     1       8.899  17.981 -13.448  1.00  0.00     0.020 A 
ATOM     45  C   UNL     1       7.967  17.855 -12.417  1.00  0.00     0.054 A 
BRANCH  45  46
ATOM     46  S   UNL     1       6.199  18.114 -12.736  1.00  0.00     0.124 S 
ATOM     47  O   UNL     1       5.674  16.754 -12.643  1.00  0.00    -0.237 OA
ATOM     48  O   UNL     1       5.807  19.015 -11.655  1.00  0.00    -0.237 OA
ATOM     49  O   UNL     1       6.171  18.702 -14.073  1.00  0.00    -0.744 OA
ENDBRANCH  45  46
ENDBRANCH  26  40
BRANCH  27  50
ATOM     50  C   UNL     1      20.456  16.091 -10.201  1.00  0.00    -0.014 A 
ATOM     51  C   UNL     1      21.093  16.621  -9.066  1.00  0.00     0.010 A 
ATOM     52  C   UNL     1      21.209  15.334 -11.118  1.00  0.00     0.010 A 
ATOM     53  C   UNL     1      22.460  16.413  -8.862  1.00  0.00     0.020 A 
ATOM     54  C   UNL     1      22.568  15.098 -10.902  1.00  0.00     0.020 A 
ATOM     55  C   UNL     1      23.188  15.652  -9.781  1.00  0.00     0.054 A 
BRANCH  55  56
ATOM     56  S   UNL     1      24.951  15.355  -9.472  1.00  0.00     0.124 S 
ATOM     57  O   UNL     1      25.539  16.645  -9.816  1.00  0.00    -0.237 OA
ATOM     58  O   UNL     1      24.969  15.009  -8.053  1.00  0.00    -0.237 OA
ATOM     59  O   UNL     1      25.275  14.255 -10.377  1.00  0.00    -0.744 OA
ENDBRANCH  55  56
ENDBRANCH  27  50
BRANCH  39  60
ATOM     60  C   UNL     1      16.561  21.662 -11.754  1.00  0.00    -0.014 A 
ATOM     61  C   UNL     1      17.239  22.101 -12.905  1.00  0.00     0.010 A 
ATOM     62  C   UNL     1      16.157  22.605 -10.792  1.00  0.00     0.010 A 
ATOM     63  C   UNL     1      17.536  23.456 -13.074  1.00  0.00     0.020 A 
ATOM     64  C   UNL     1      16.427  23.963 -10.971  1.00  0.00     0.020 A 
ATOM     65  C   UNL     1      17.129  24.378 -12.105  1.00  0.00     0.054 A 
BRANCH  65  66
ATOM     66  S   UNL     1      17.491  26.136 -12.365  1.00  0.00     0.124 S 
ATOM     67  O   UNL     1      18.923  26.196 -12.083  1.00  0.00    -0.237 OA
ATOM     68  O   UNL     1      17.116  26.338 -13.762  1.00  0.00    -0.237 OA
ATOM     69  O   UNL     1      16.636  26.813 -11.393  1.00  0.00    -0.744 OA
ENDBRANCH  65  66
ENDBRANCH  39  60
ENDBRANCH  13  14
ENDBRANCH   6   8
ENDBRANCH   3   4
ENDBRANCH   2   3
ENDBRANCH   1   2
BRANCH   1  70
ATOM     70  C   UNL     1      12.050   6.162  -5.185  1.00  0.00     0.002 C 
BRANCH  70  71
ATOM     71  C   UNL     1      11.744   7.208  -4.108  1.00  0.00     0.021 C 
BRANCH  71  72
ATOM     72  C   UNL     1      10.256   7.377  -3.805  1.00  0.00     0.116 C 
BRANCH  72  73
ATOM     73  N   UNL     1       9.752   6.276  -3.002  1.00  0.00    -0.356 N 
ATOM     74  C   UNL     1       9.182   6.138  -1.783  1.00  0.00     0.224 C 
ATOM     75  H   UNL     1       9.851   5.410  -3.461  1.00  0.00     0.163 HD
ATOM     76  O   UNL     1       8.928   4.968  -1.461  1.00  0.00    -0.275 OA
BRANCH  74  77
ATOM     77  C   UNL     1       8.823   7.260  -0.808  1.00  0.00     0.098 C 
ATOM     78  C   UNL     1       9.462   6.965   0.567  1.00  0.00     0.017 C 
ATOM     79  C   UNL     1       9.131   8.684  -1.220  1.00  0.00     0.131 C 
ATOM     80  C   UNL     1       9.103   8.027   1.615  1.00  0.00     0.022 C 
ATOM     81  N   UNL     1       8.787   9.622  -0.162  1.00  0.00    -0.356 N 
ATOM     82  C   UNL     1       9.411   9.447   1.132  1.00  0.00     0.118 C 
BRANCH  81  83
ATOM     83  C   UNL     1       8.055  10.726  -0.517  1.00  0.00     0.133 A 
ATOM     84  C   UNL     1       8.524  12.004  -0.319  1.00  0.00     0.077 A 
ATOM     85  N   UNL     1       6.884  10.500  -1.129  1.00  0.00    -0.211 NA
ATOM     86  C   UNL     1       7.755  13.042  -0.815  1.00  0.00     0.095 A 
ATOM     87  C   UNL     1       6.178  11.564  -1.546  1.00  0.00     0.165 A 
ATOM     88  N   UNL     1       6.570  12.838  -1.426  1.00  0.00    -0.226 NA
BRANCH  86  89
ATOM     89  C   UNL     1       8.223  14.431  -0.741  1.00  0.00     0.089 A 
ATOM     90  C   UNL     1       9.292  14.878  -1.521  1.00  0.00     0.030 A 
ATOM     91  N   UNL     1       7.583  15.239   0.144  1.00  0.00    -0.255 NA
ATOM     92  C   UNL     1       9.709  16.201  -1.402  1.00  0.00     0.004 A 
ATOM     93  C   UNL     1       7.996  16.523   0.219  1.00  0.00     0.112 A 
ATOM     94  C   UNL     1       9.046  17.043  -0.519  1.00  0.00     0.020 A 
ENDBRANCH  86  89
BRANCH  87  95
ATOM     95  C   UNL     1       4.851  11.294  -2.089  1.00  0.00     0.055 A 
ATOM     96  C   UNL     1       3.923  10.523  -1.361  1.00  0.00     0.015 A 
ATOM     97  C   UNL     1       4.456  11.774  -3.341  1.00  0.00     0.134 A 
ATOM     98  C   UNL     1       2.645  10.263  -1.864  1.00  0.00     0.001 A 
ATOM     99  C   UNL     1       3.185  11.511  -3.854  1.00  0.00     0.040 A 
ATOM    100  F   UNL     1       5.312  12.472  -4.102  1.00  0.00    -0.206 F 
ATOM    101  C   UNL     1       2.275  10.759  -3.112  1.00  0.00     0.003 A 
ENDBRANCH  87  95
ENDBRANCH  81  83
ENDBRANCH  74  77
ENDBRANCH  72  73
ENDBRANCH  71  72
ENDBRANCH  70  71
ENDBRANCH   1  70
TORSDOF 19
