REMARK SMILES O=C(Cc1ccccc1Nc1c(Cl)cccc1Cl)NCCCCCCNC(=O)c1ccc(-c2c3nc(c(-c4ccc(S(=O)(=O)[O-])cc4)c4ccc([nH]4)c(-c4ccc(S(=O)(=O)[O-])cc4)c4nc(c(-c5ccc(S(=O)(=O)[O-])cc5)c5ccc2[nH]5)C=C4)C=C3)cc1
REMARK SMILES IDX 22 1 21 2 20 3 19 4 1 5 2 6 3 8 4 9 5 10 9 11 6 12 8 13 7 14
REMARK SMILES IDX 10 15 11 17 12 18 17 19 13 20 14 21 16 22 18 23 15 24 23 25
REMARK SMILES IDX 24 26 25 27 26 28 27 29 28 31 29 32 30 33 88 34 31 35 87 36
REMARK SMILES IDX 32 37 33 38 34 39 81 40 35 41 86 42 80 43 82 44 36 45 85 46
REMARK SMILES IDX 79 47 78 48 37 50 67 51 48 52 66 53 49 54 52 55 65 56 83 57
REMARK SMILES IDX 50 58 51 59 64 61 84 62 53 63 38 64 39 65 47 66 40 67 46 68
REMARK SMILES IDX 41 69 42 70 43 71 44 72 45 73 68 74 69 75 77 76 70 77 76 78
REMARK SMILES IDX 71 79 72 80 73 81 74 82 75 83 54 84 55 85 63 86 56 87 62 88
REMARK SMILES IDX 57 89 58 90 59 91 60 92 61 93
REMARK H PARENT 19 7 10 16 26 30 82 49 52 60
REMARK Flexibility Score: inf
ROOT
ATOM      1  C   UNL     1       3.986   3.432  -1.614  1.00  0.00     0.002 C 
ENDROOT
BRANCH   1   2
ATOM      2  C   UNL     1       2.488   3.183  -1.398  1.00  0.00     0.021 C 
BRANCH   2   3
ATOM      3  C   UNL     1       2.006   1.779  -1.775  1.00  0.00     0.116 C 
BRANCH   3   4
ATOM      4  N   UNL     1       2.700   0.758  -1.016  1.00  0.00    -0.356 N 
ATOM      5  O   UNL     1       0.919   0.135   0.287  1.00  0.00    -0.275 OA
ATOM      6  C   UNL     1       2.108   0.035  -0.009  1.00  0.00     0.224 C 
ATOM      7  H   UNL     1       3.642   0.575  -1.232  1.00  0.00     0.163 HD
BRANCH   6   8
ATOM      8  C   UNL     1       3.060  -0.797   0.832  1.00  0.00     0.137 C 
BRANCH   8   9
ATOM      9  C   UNL     1       3.887  -1.828   0.093  1.00  0.00    -0.015 A 
ATOM     10  C   UNL     1       3.414  -3.154   0.063  1.00  0.00     0.006 A 
ATOM     11  C   UNL     1       5.109  -1.516  -0.546  1.00  0.00     0.042 A 
ATOM     12  C   UNL     1       4.145  -4.165  -0.559  1.00  0.00     0.000 A 
ATOM     13  C   UNL     1       5.832  -2.554  -1.155  1.00  0.00     0.026 A 
ATOM     14  C   UNL     1       5.359  -3.866  -1.162  1.00  0.00     0.002 A 
BRANCH  11  15
ATOM     15  N   UNL     1       5.570  -0.182  -0.601  1.00  0.00    -0.353 N 
ATOM     16  H   UNL     1       5.175   0.417   0.073  1.00  0.00     0.167 HD
BRANCH  15  17
ATOM     17  C   UNL     1       6.508   0.439  -1.468  1.00  0.00     0.076 A 
ATOM     18  C   UNL     1       7.496   1.280  -0.908  1.00  0.00     0.066 A 
ATOM     19  C   UNL     1       6.543   0.252  -2.867  1.00  0.00     0.066 A 
ATOM     20  Cl  UNL     1       7.515   1.598   0.797  1.00  0.00    -0.082 Cl
ATOM     21  C   UNL     1       8.481   1.887  -1.693  1.00  0.00     0.023 A 
ATOM     22  C   UNL     1       7.532   0.862  -3.652  1.00  0.00     0.023 A 
ATOM     23  Cl  UNL     1       5.309  -0.608  -3.729  1.00  0.00    -0.082 Cl
ATOM     24  C   UNL     1       8.502   1.672  -3.067  1.00  0.00     0.003 A 
ENDBRANCH  15  17
ENDBRANCH  11  15
ENDBRANCH   8   9
ENDBRANCH   6   8
ENDBRANCH   3   4
ENDBRANCH   2   3
ENDBRANCH   1   2
BRANCH   1  25
ATOM     25  C   UNL     1       4.492   3.189  -3.038  1.00  0.00     0.002 C 
BRANCH  25  26
ATOM     26  C   UNL     1       3.838   4.033  -4.129  1.00  0.00     0.021 C 
BRANCH  26  27
ATOM     27  C   UNL     1       4.004   5.538  -3.960  1.00  0.00     0.116 C 
BRANCH  27  28
ATOM     28  N   UNL     1       5.396   5.962  -4.040  1.00  0.00    -0.352 N 
ATOM     29  C   UNL     1       5.972   6.916  -4.843  1.00  0.00     0.251 C 
ATOM     30  H   UNL     1       6.013   5.497  -3.430  1.00  0.00     0.163 HD
ATOM     31  O   UNL     1       7.195   7.024  -4.886  1.00  0.00    -0.269 OA
BRANCH  29  32
ATOM     32  C   UNL     1       5.119   7.788  -5.682  1.00  0.00     0.039 A 
ATOM     33  C   UNL     1       5.460   7.982  -7.023  1.00  0.00     0.014 A 
ATOM     34  C   UNL     1       3.973   8.389  -5.155  1.00  0.00     0.014 A 
ATOM     35  C   UNL     1       4.604   8.706  -7.857  1.00  0.00     0.010 A 
ATOM     36  C   UNL     1       3.085   9.048  -6.003  1.00  0.00     0.010 A 
ATOM     37  C   UNL     1       3.385   9.203  -7.365  1.00  0.00    -0.014 A 
BRANCH  37  38
ATOM     38  C   UNL     1       2.392   9.845  -8.264  1.00  0.00     0.031 A 
ATOM     39  C   UNL     1       2.002  11.284  -8.068  1.00  0.00     0.074 A 
ATOM     40  C   UNL     1       1.772   9.103  -9.203  1.00  0.00     0.049 A 
ATOM     41  N   UNL     1       1.098  11.986  -8.702  1.00  0.00    -0.248 NA
ATOM     42  C   UNL     1       2.703  12.022  -7.006  1.00  0.00     0.031 C 
ATOM     43  C   UNL     1       2.019   7.682  -9.459  1.00  0.00     0.029 A 
ATOM     44  N   UNL     1       0.791   9.436 -10.105  1.00  0.00    -0.354 N 
ATOM     45  C   UNL     1       1.112  13.243  -8.110  1.00  0.00     0.074 A 
ATOM     46  C   UNL     1       2.078  13.190  -7.033  1.00  0.00     0.031 C 
ATOM     47  C   UNL     1       1.221   7.269 -10.456  1.00  0.00     0.029 A 
ATOM     48  C   UNL     1       0.377   8.381 -10.883  1.00  0.00     0.049 A 
ATOM     49  H   UNL     1       0.420  10.344 -10.186  1.00  0.00     0.167 HD
ATOM     50  C   UNL     1       0.399  14.347  -8.441  1.00  0.00     0.031 A 
ATOM     51  C   UNL     1      -0.585   8.305 -11.823  1.00  0.00     0.031 A 
ATOM     52  C   UNL     1      -0.569  14.395  -9.506  1.00  0.00     0.049 A 
ATOM     53  C   UNL     1      -1.377   9.535 -12.166  1.00  0.00     0.074 A 
ATOM     54  C   UNL     1      -1.304  15.479  -9.954  1.00  0.00     0.029 A 
ATOM     55  N   UNL     1      -0.946  13.310 -10.284  1.00  0.00    -0.354 N 
ATOM     56  N   UNL     1      -1.295  10.737 -11.646  1.00  0.00    -0.248 NA
ATOM     57  C   UNL     1      -2.383   9.403 -13.229  1.00  0.00     0.031 C 
ATOM     58  C   UNL     1      -2.163  15.037 -10.966  1.00  0.00     0.029 A 
ATOM     59  C   UNL     1      -1.923  13.690 -11.188  1.00  0.00     0.049 A 
ATOM     60  H   UNL     1      -0.573  12.402 -10.204  1.00  0.00     0.167 HD
ATOM     61  C   UNL     1      -2.231  11.508 -12.326  1.00  0.00     0.074 A 
ATOM     62  C   UNL     1      -2.852  10.642 -13.309  1.00  0.00     0.031 C 
ATOM     63  C   UNL     1      -2.546  12.815 -12.151  1.00  0.00     0.031 A 
BRANCH  50  64
ATOM     64  C   UNL     1       0.637  15.591  -7.624  1.00  0.00    -0.014 A 
ATOM     65  C   UNL     1       1.858  16.287  -7.703  1.00  0.00     0.010 A 
ATOM     66  C   UNL     1      -0.370  16.074  -6.770  1.00  0.00     0.010 A 
ATOM     67  C   UNL     1       2.090  17.405  -6.898  1.00  0.00     0.020 A 
ATOM     68  C   UNL     1      -0.153  17.211  -5.985  1.00  0.00     0.020 A 
ATOM     69  C   UNL     1       1.085  17.854  -6.036  1.00  0.00     0.054 A 
BRANCH  69  70
ATOM     70  S   UNL     1       1.418  19.298  -4.990  1.00  0.00     0.124 S 
ATOM     71  O   UNL     1       2.308  18.735  -3.977  1.00  0.00    -0.237 OA
ATOM     72  O   UNL     1       2.042  20.234  -5.923  1.00  0.00    -0.237 OA
ATOM     73  O   UNL     1       0.096  19.690  -4.510  1.00  0.00    -0.744 OA
ENDBRANCH  69  70
ENDBRANCH  50  64
BRANCH  51  74
ATOM     74  C   UNL     1      -0.844   7.006 -12.501  1.00  0.00    -0.014 A 
ATOM     75  C   UNL     1      -0.443   6.800 -13.831  1.00  0.00     0.010 A 
ATOM     76  C   UNL     1      -1.446   5.948 -11.795  1.00  0.00     0.010 A 
ATOM     77  C   UNL     1      -0.638   5.559 -14.444  1.00  0.00     0.020 A 
ATOM     78  C   UNL     1      -1.620   4.698 -12.396  1.00  0.00     0.020 A 
ATOM     79  C   UNL     1      -1.218   4.513 -13.720  1.00  0.00     0.054 A 
BRANCH  79  80
ATOM     80  S   UNL     1      -1.381   2.886 -14.508  1.00  0.00     0.124 S 
ATOM     81  O   UNL     1      -2.490   3.104 -15.431  1.00  0.00    -0.237 OA
ATOM     82  O   UNL     1      -0.069   2.703 -15.125  1.00  0.00    -0.237 OA
ATOM     83  O   UNL     1      -1.662   1.991 -13.388  1.00  0.00    -0.744 OA
ENDBRANCH  79  80
ENDBRANCH  51  74
BRANCH  63  84
ATOM     84  C   UNL     1      -3.607  13.398 -13.046  1.00  0.00    -0.014 A 
ATOM     85  C   UNL     1      -4.964  13.075 -12.866  1.00  0.00     0.010 A 
ATOM     86  C   UNL     1      -3.249  14.327 -14.039  1.00  0.00     0.010 A 
ATOM     87  C   UNL     1      -5.941  13.655 -13.680  1.00  0.00     0.020 A 
ATOM     88  C   UNL     1      -4.226  14.928 -14.837  1.00  0.00     0.020 A 
ATOM     89  C   UNL     1      -5.566  14.579 -14.659  1.00  0.00     0.054 A 
BRANCH  89  90
ATOM     90  S   UNL     1      -6.859  15.359 -15.666  1.00  0.00     0.124 S 
ATOM     91  O   UNL     1      -7.245  14.271 -16.560  1.00  0.00    -0.237 OA
ATOM     92  O   UNL     1      -7.857  15.738 -14.668  1.00  0.00    -0.237 OA
ATOM     93  O   UNL     1      -6.172  16.478 -16.306  1.00  0.00    -0.744 OA
ENDBRANCH  89  90
ENDBRANCH  63  84
ENDBRANCH  37  38
ENDBRANCH  29  32
ENDBRANCH  27  28
ENDBRANCH  26  27
ENDBRANCH  25  26
ENDBRANCH   1  25
TORSDOF 19
