REMARK SMILES O=C(NCCCCCCNC(=O)[C@@H]1CCCN1C(=O)[C@@H]1CCCN1C(=O)OCC1c2ccccc2-c2ccccc21)c1ccc(-c2c3nc(c(-c4ccc(S(=O)(=O)[O-])cc4)c4ccc([nH]4)c(-c4ccc(S(=O)(=O)[O-])cc4)c4nc(c(-c5ccc(S(=O)(=O)[O-])cc5)c5ccc2[nH]5)C=C4)C=C3)cc1
REMARK SMILES IDX 8 1 7 2 6 3 5 4 4 5 3 6 1 7 2 8 42 10 43 11 101 12 44 13
REMARK SMILES IDX 100 14 45 15 46 16 47 17 94 18 48 19 99 20 93 21 95 22 49 23
REMARK SMILES IDX 98 24 92 25 91 26 50 28 80 29 61 30 79 31 62 32 65 33 78 34
REMARK SMILES IDX 96 35 63 36 64 37 77 39 97 40 66 41 51 42 52 43 60 44 53 45
REMARK SMILES IDX 59 46 54 47 55 48 56 49 57 50 58 51 81 52 82 53 90 54 83 55
REMARK SMILES IDX 89 56 84 57 85 58 86 59 87 60 88 61 67 62 68 63 76 64 69 65
REMARK SMILES IDX 75 66 70 67 71 68 72 69 73 70 74 71 9 72 10 73 11 74 12 76
REMARK SMILES IDX 13 77 14 78 17 79 15 80 16 81 18 82 19 83 20 84 21 85 24 86
REMARK SMILES IDX 22 87 23 88 25 89 26 90 27 91 28 92 29 93 30 94 41 95 31 96
REMARK SMILES IDX 35 97 36 98 40 99 32 100 34 101 37 102 39 103 33 104 38 105
REMARK H PARENT 3 9 95 27 65 38 10 75
REMARK Flexibility Score: inf
ROOT
ATOM      1  C   UNL     1       6.286   0.697  -3.726  1.00  0.00     0.021 C 
ENDROOT
BRANCH   1   2
ATOM      2  C   UNL     1       4.771   0.653  -3.963  1.00  0.00     0.002 C 
BRANCH   2   3
ATOM      3  C   UNL     1       4.089  -0.666  -3.590  1.00  0.00     0.002 C 
BRANCH   3   4
ATOM      4  C   UNL     1       4.442  -1.204  -2.207  1.00  0.00     0.021 C 
BRANCH   4   5
ATOM      5  C   UNL     1       4.274  -0.195  -1.086  1.00  0.00     0.116 C 
BRANCH   5   6
ATOM      6  N   UNL     1       2.882   0.143  -0.857  1.00  0.00    -0.352 N 
ATOM      7  O   UNL     1       0.976   0.228   0.355  1.00  0.00    -0.269 OA
ATOM      8  C   UNL     1       2.192   0.085   0.329  1.00  0.00     0.251 C 
ATOM      9  H   UNL     1       2.374   0.451  -1.642  1.00  0.00     0.163 HD
BRANCH   8  10
ATOM     10  C   UNL     1       2.951  -0.185   1.567  1.00  0.00     0.039 A 
ATOM     11  C   UNL     1       4.120   0.532   1.839  1.00  0.00     0.014 A 
ATOM     12  C   UNL     1       2.523  -1.198   2.426  1.00  0.00     0.014 A 
ATOM     13  C   UNL     1       4.929   0.147   2.899  1.00  0.00     0.010 A 
ATOM     14  C   UNL     1       3.289  -1.516   3.550  1.00  0.00     0.010 A 
ATOM     15  C   UNL     1       4.507  -0.858   3.785  1.00  0.00    -0.014 A 
BRANCH  15  16
ATOM     16  C   UNL     1       5.311  -1.129   5.002  1.00  0.00     0.031 A 
ATOM     17  C   UNL     1       5.964  -2.462   5.235  1.00  0.00     0.074 A 
ATOM     18  C   UNL     1       5.461  -0.130   5.895  1.00  0.00     0.049 A 
ATOM     19  N   UNL     1       6.695  -2.849   6.249  1.00  0.00    -0.248 NA
ATOM     20  C   UNL     1       5.769  -3.497   4.207  1.00  0.00     0.031 C 
ATOM     21  C   UNL     1       4.866   1.206   5.773  1.00  0.00     0.029 A 
ATOM     22  N   UNL     1       6.171  -0.068   7.065  1.00  0.00    -0.354 N 
ATOM     23  C   UNL     1       7.039  -4.171   5.991  1.00  0.00     0.074 A 
ATOM     24  C   UNL     1       6.412  -4.530   4.736  1.00  0.00     0.031 C 
ATOM     25  C   UNL     1       5.277   1.967   6.796  1.00  0.00     0.029 A 
ATOM     26  C   UNL     1       6.099   1.157   7.684  1.00  0.00     0.049 A 
ATOM     27  H   UNL     1       6.682  -0.828   7.427  1.00  0.00     0.167 HD
ATOM     28  C   UNL     1       7.812  -5.004   6.731  1.00  0.00     0.031 A 
ATOM     29  C   UNL     1       6.615   1.580   8.852  1.00  0.00     0.031 A 
ATOM     30  C   UNL     1       8.421  -4.638   7.985  1.00  0.00     0.049 A 
ATOM     31  C   UNL     1       7.430   0.623   9.670  1.00  0.00     0.074 A 
ATOM     32  C   UNL     1       9.223  -5.408   8.810  1.00  0.00     0.029 A 
ATOM     33  N   UNL     1       8.296  -3.399   8.596  1.00  0.00    -0.354 N 
ATOM     34  N   UNL     1       7.754  -0.619   9.400  1.00  0.00    -0.248 NA
ATOM     35  C   UNL     1       7.949   1.123  10.948  1.00  0.00     0.031 C 
ATOM     36  C   UNL     1       9.545  -4.650   9.941  1.00  0.00     0.029 A 
ATOM     37  C   UNL     1       8.992  -3.388   9.794  1.00  0.00     0.049 A 
ATOM     38  H   UNL     1       7.788  -2.638   8.232  1.00  0.00     0.167 HD
ATOM     39  C   UNL     1       8.530  -1.045  10.470  1.00  0.00     0.074 A 
ATOM     40  C   UNL     1       8.647   0.081  11.376  1.00  0.00     0.031 C 
ATOM     41  C   UNL     1       9.093  -2.259  10.685  1.00  0.00     0.031 A 
BRANCH  28  42
ATOM     42  C   UNL     1       8.030  -6.402   6.213  1.00  0.00    -0.014 A 
ATOM     43  C   UNL     1       8.851  -6.642   5.096  1.00  0.00     0.010 A 
ATOM     44  C   UNL     1       7.454  -7.497   6.883  1.00  0.00     0.010 A 
ATOM     45  C   UNL     1       9.063  -7.946   4.639  1.00  0.00     0.020 A 
ATOM     46  C   UNL     1       7.684  -8.806   6.444  1.00  0.00     0.020 A 
ATOM     47  C   UNL     1       8.475  -9.020   5.314  1.00  0.00     0.054 A 
BRANCH  47  48
ATOM     48  S   UNL     1       8.787 -10.702   4.709  1.00  0.00     0.124 S 
ATOM     49  O   UNL     1       7.989 -10.734   3.486  1.00  0.00    -0.237 OA
ATOM     50  O   UNL     1      10.234 -10.710   4.514  1.00  0.00    -0.237 OA
ATOM     51  O   UNL     1       8.302 -11.556   5.791  1.00  0.00    -0.744 OA
ENDBRANCH  47  48
ENDBRANCH  28  42
BRANCH  29  52
ATOM     52  C   UNL     1       6.346   2.966   9.321  1.00  0.00    -0.014 A 
ATOM     53  C   UNL     1       7.378   3.916   9.387  1.00  0.00     0.010 A 
ATOM     54  C   UNL     1       5.041   3.344   9.691  1.00  0.00     0.010 A 
ATOM     55  C   UNL     1       7.116   5.212   9.839  1.00  0.00     0.020 A 
ATOM     56  C   UNL     1       4.769   4.647  10.111  1.00  0.00     0.020 A 
ATOM     57  C   UNL     1       5.813   5.569  10.200  1.00  0.00     0.054 A 
BRANCH  57  58
ATOM     58  S   UNL     1       5.488   7.265  10.754  1.00  0.00     0.124 S 
ATOM     59  O   UNL     1       6.034   7.250  12.107  1.00  0.00    -0.237 OA
ATOM     60  O   UNL     1       6.228   8.064   9.780  1.00  0.00    -0.237 OA
ATOM     61  O   UNL     1       4.034   7.380  10.665  1.00  0.00    -0.744 OA
ENDBRANCH  57  58
ENDBRANCH  29  52
BRANCH  41  62
ATOM     62  C   UNL     1       9.912  -2.417  11.937  1.00  0.00    -0.014 A 
ATOM     63  C   UNL     1       9.303  -2.477  13.203  1.00  0.00     0.010 A 
ATOM     64  C   UNL     1      11.310  -2.532  11.840  1.00  0.00     0.010 A 
ATOM     65  C   UNL     1      10.083  -2.609  14.355  1.00  0.00     0.020 A 
ATOM     66  C   UNL     1      12.091  -2.693  12.987  1.00  0.00     0.020 A 
ATOM     67  C   UNL     1      11.473  -2.713  14.239  1.00  0.00     0.054 A 
BRANCH  67  68
ATOM     68  S   UNL     1      12.462  -2.915  15.745  1.00  0.00     0.124 S 
ATOM     69  O   UNL     1      12.428  -1.570  16.313  1.00  0.00    -0.237 OA
ATOM     70  O   UNL     1      11.716  -3.930  16.486  1.00  0.00    -0.237 OA
ATOM     71  O   UNL     1      13.765  -3.349  15.248  1.00  0.00    -0.744 OA
ENDBRANCH  67  68
ENDBRANCH  41  62
ENDBRANCH  15  16
ENDBRANCH   8  10
ENDBRANCH   5   6
ENDBRANCH   4   5
ENDBRANCH   3   4
ENDBRANCH   2   3
ENDBRANCH   1   2
BRANCH   1  72
ATOM     72  C   UNL     1       7.063  -0.437  -4.382  1.00  0.00     0.116 C 
BRANCH  72  73
ATOM     73  N   UNL     1       6.731  -0.609  -5.782  1.00  0.00    -0.354 N 
ATOM     74  C   UNL     1       7.473  -0.403  -6.903  1.00  0.00     0.242 C 
ATOM     75  H   UNL     1       5.814  -0.927  -5.949  1.00  0.00     0.163 HD
ATOM     76  O   UNL     1       6.953  -0.714  -7.979  1.00  0.00    -0.273 OA
BRANCH  74  77
ATOM     77  C   UNL     1       8.939   0.045  -6.824  1.00  0.00     0.174 C 
ATOM     78  C   UNL     1       9.754  -1.096  -6.185  1.00  0.00     0.037 C 
ATOM     79  N   UNL     1       9.256   1.217  -6.000  1.00  0.00    -0.329 N 
ATOM     80  C   UNL     1      10.936  -0.409  -5.534  1.00  0.00     0.024 C 
ATOM     81  C   UNL     1      10.408   0.959  -5.146  1.00  0.00     0.120 C 
BRANCH  79  82
ATOM     82  C   UNL     1       8.851   2.527  -6.135  1.00  0.00     0.246 C 
ATOM     83  O   UNL     1       9.188   3.350  -5.268  1.00  0.00    -0.272 OA
BRANCH  82  84
ATOM     84  C   UNL     1       7.846   3.009  -7.209  1.00  0.00     0.178 C 
ATOM     85  C   UNL     1       6.403   2.802  -6.753  1.00  0.00     0.037 C 
ATOM     86  N   UNL     1       7.869   2.511  -8.570  1.00  0.00    -0.296 N 
ATOM     87  C   UNL     1       5.563   2.575  -8.002  1.00  0.00     0.024 C 
ATOM     88  C   UNL     1       6.545   2.476  -9.150  1.00  0.00     0.124 C 
BRANCH  86  89
ATOM     89  C   UNL     1       8.947   2.699  -9.404  1.00  0.00     0.410 C 
ATOM     90  O   UNL     1       8.843   2.884 -10.611  1.00  0.00    -0.224 OA
BRANCH  89  91
ATOM     91  O   UNL     1      10.133   2.610  -8.746  1.00  0.00    -0.448 OA
BRANCH  91  92
ATOM     92  C   UNL     1      11.296   2.741  -9.576  1.00  0.00     0.248 C 
BRANCH  92  93
ATOM     93  C   UNL     1      11.888   1.417 -10.121  1.00  0.00     0.088 C 
ATOM     94  C   UNL     1      13.131   0.976  -9.341  1.00  0.00    -0.029 A 
ATOM     95  C   UNL     1      11.046   0.143 -10.090  1.00  0.00    -0.029 A 
ATOM     96  C   UNL     1      14.286   1.697  -9.075  1.00  0.00     0.005 A 
ATOM     97  C   UNL     1      12.999  -0.364  -8.926  1.00  0.00    -0.014 A 
ATOM     98  C   UNL     1      11.731  -0.877  -9.391  1.00  0.00    -0.014 A 
ATOM     99  C   UNL     1       9.813  -0.117 -10.669  1.00  0.00     0.005 A 
ATOM    100  C   UNL     1      15.303   1.075  -8.348  1.00  0.00     0.000 A 
ATOM    101  C   UNL     1      14.005  -0.980  -8.198  1.00  0.00     0.009 A 
ATOM    102  C   UNL     1      11.175  -2.139  -9.242  1.00  0.00     0.009 A 
ATOM    103  C   UNL     1       9.226  -1.371 -10.470  1.00  0.00     0.000 A 
ATOM    104  C   UNL     1      15.160  -0.250  -7.906  1.00  0.00     0.001 A 
ATOM    105  C   UNL     1       9.901  -2.374  -9.764  1.00  0.00     0.001 A 
ENDBRANCH  92  93
ENDBRANCH  91  92
ENDBRANCH  89  91
ENDBRANCH  86  89
ENDBRANCH  82  84
ENDBRANCH  79  82
ENDBRANCH  74  77
ENDBRANCH  72  73
ENDBRANCH   1  72
TORSDOF 22
