REMARK SMILES CO[C@H]1C[C@@H](C(=O)NCCCCCCNC(=O)c2ccc(-c3c4nc(c(-c5ccc(S(=O)(=O)[O-])cc5)c5ccc([nH]5)c(-c5ccc(S(=O)(=O)[O-])cc5)c5nc(c(-c6ccc(S(=O)(=O)[O-])cc6)c6ccc3[nH]6)C=C5)C=C4)cc2)N(C(=O)Nc2cc(C)cc(F)c2)C1
REMARK SMILES IDX 12 1 11 2 10 3 9 4 8 5 6 6 7 7 5 9 3 10 4 11 90 12 78 13
REMARK SMILES IDX 2 14 1 15 79 16 80 17 81 18 82 20 83 21 89 22 84 23 87 24
REMARK SMILES IDX 85 25 86 26 88 27 13 28 14 29 15 30 16 31 17 33 18 34 19 35
REMARK SMILES IDX 77 36 20 37 76 38 21 39 22 40 23 41 70 42 24 43 75 44 69 45
REMARK SMILES IDX 71 46 25 47 74 48 68 49 67 50 26 52 56 53 37 54 55 55 38 56
REMARK SMILES IDX 41 57 54 58 72 59 39 60 40 61 53 63 73 64 42 65 27 66 28 67
REMARK SMILES IDX 36 68 29 69 35 70 30 71 31 72 32 73 33 74 34 75 57 76 58 77
REMARK SMILES IDX 66 78 59 79 65 80 60 81 61 82 62 83 63 84 64 85 43 86 44 87
REMARK SMILES IDX 52 88 45 89 51 90 46 91 47 92 48 93 49 94 50 95
REMARK H PARENT 8 8 81 19 15 32 71 51 41 62
REMARK Flexibility Score: inf
ROOT
ATOM      1  C   UNL     1       7.653   1.576   2.286  1.00  0.00     0.002 C 
ENDROOT
BRANCH   1   2
ATOM      2  C   UNL     1       6.981   0.562   3.216  1.00  0.00     0.002 C 
BRANCH   2   3
ATOM      3  C   UNL     1       5.453   0.717   3.297  1.00  0.00     0.021 C 
BRANCH   3   4
ATOM      4  C   UNL     1       4.778   0.521   1.942  1.00  0.00     0.116 C 
BRANCH   4   5
ATOM      5  N   UNL     1       4.935  -0.868   1.588  1.00  0.00    -0.354 N 
ATOM      6  C   UNL     1       3.955  -1.807   1.741  1.00  0.00     0.242 C 
ATOM      7  O   UNL     1       4.142  -2.766   2.487  1.00  0.00    -0.273 OA
ATOM      8  H   UNL     1       5.798  -1.156   1.214  1.00  0.00     0.163 HD
BRANCH   6   9
ATOM      9  C   UNL     1       2.716  -1.606   0.884  1.00  0.00     0.179 C 
ATOM     10  C   UNL     1       0.432  -1.600   1.754  1.00  0.00     0.140 C 
ATOM     11  C   UNL     1       1.728  -0.814   1.742  1.00  0.00     0.069 C 
ATOM     12  C   UNL     1       0.822  -3.002   1.288  1.00  0.00     0.154 C 
ATOM     13  N   UNL     1       2.098  -2.895   0.588  1.00  0.00    -0.310 N 
BRANCH  10  14
ATOM     14  O   UNL     1      -0.047  -1.613   3.099  1.00  0.00    -0.380 OA
ATOM     15  C   UNL     1      -1.423  -1.296   3.215  1.00  0.00     0.195 C 
ENDBRANCH  10  14
BRANCH  13  16
ATOM     16  C   UNL     1       2.460  -3.908  -0.250  1.00  0.00     0.322 C 
ATOM     17  O   UNL     1       1.725  -4.898  -0.378  1.00  0.00    -0.248 OA
ATOM     18  N   UNL     1       3.488  -3.858  -1.130  1.00  0.00    -0.308 N 
ATOM     19  H   UNL     1       3.309  -4.438  -1.905  1.00  0.00     0.171 HD
BRANCH  18  20
ATOM     20  C   UNL     1       4.730  -3.226  -1.264  1.00  0.00     0.046 A 
ATOM     21  C   UNL     1       5.143  -2.879  -2.558  1.00  0.00     0.029 A 
ATOM     22  C   UNL     1       5.646  -3.088  -0.235  1.00  0.00     0.065 A 
ATOM     23  C   UNL     1       6.366  -2.223  -2.788  1.00  0.00    -0.046 A 
ATOM     24  C   UNL     1       6.836  -2.388  -0.444  1.00  0.00     0.125 A 
ATOM     25  C   UNL     1       6.829  -1.930  -4.183  1.00  0.00     0.044 C 
ATOM     26  C   UNL     1       7.190  -1.927  -1.702  1.00  0.00     0.042 A 
ATOM     27  F   UNL     1       7.646  -2.141   0.596  1.00  0.00    -0.207 F 
ENDBRANCH  18  20
ENDBRANCH  13  16
ENDBRANCH   6   9
ENDBRANCH   4   5
ENDBRANCH   3   4
ENDBRANCH   2   3
ENDBRANCH   1   2
BRANCH   1  28
ATOM     28  C   UNL     1       7.311   3.027   2.623  1.00  0.00     0.021 C 
BRANCH  28  29
ATOM     29  C   UNL     1       7.560   3.378   4.082  1.00  0.00     0.116 C 
BRANCH  29  30
ATOM     30  N   UNL     1       8.959   3.209   4.438  1.00  0.00    -0.352 N 
ATOM     31  C   UNL     1       9.741   4.049   5.188  1.00  0.00     0.251 C 
ATOM     32  H   UNL     1       9.397   2.395   4.099  1.00  0.00     0.163 HD
ATOM     33  O   UNL     1      10.953   3.908   5.229  1.00  0.00    -0.269 OA
BRANCH  31  34
ATOM     34  C   UNL     1       9.075   5.139   5.925  1.00  0.00     0.039 A 
ATOM     35  C   UNL     1       9.574   6.435   5.809  1.00  0.00     0.014 A 
ATOM     36  C   UNL     1       7.933   4.875   6.690  1.00  0.00     0.014 A 
ATOM     37  C   UNL     1       8.908   7.479   6.447  1.00  0.00     0.010 A 
ATOM     38  C   UNL     1       7.223   5.928   7.250  1.00  0.00     0.010 A 
ATOM     39  C   UNL     1       7.718   7.236   7.155  1.00  0.00    -0.014 A 
BRANCH  39  40
ATOM     40  C   UNL     1       7.000   8.341   7.832  1.00  0.00     0.031 A 
ATOM     41  C   UNL     1       6.856   8.335   9.329  1.00  0.00     0.074 A 
ATOM     42  C   UNL     1       6.449   9.327   7.098  1.00  0.00     0.049 A 
ATOM     43  N   UNL     1       6.260   9.205  10.103  1.00  0.00    -0.248 NA
ATOM     44  C   UNL     1       7.433   7.188  10.050  1.00  0.00     0.031 C 
ATOM     45  C   UNL     1       6.477   9.410   5.636  1.00  0.00     0.029 A 
ATOM     46  N   UNL     1       5.758  10.446   7.482  1.00  0.00    -0.354 N 
ATOM     47  C   UNL     1       6.383   8.707  11.395  1.00  0.00     0.074 A 
ATOM     48  C   UNL     1       7.045   7.426  11.293  1.00  0.00     0.031 C 
ATOM     49  C   UNL     1       5.856  10.535   5.249  1.00  0.00     0.029 A 
ATOM     50  C   UNL     1       5.353  11.232   6.430  1.00  0.00     0.049 A 
ATOM     51  H   UNL     1       5.568  10.667   8.423  1.00  0.00     0.167 HD
ATOM     52  C   UNL     1       6.006   9.276  12.564  1.00  0.00     0.031 A 
ATOM     53  C   UNL     1       4.651  12.381   6.415  1.00  0.00     0.031 A 
ATOM     54  C   UNL     1       5.341  10.549  12.655  1.00  0.00     0.049 A 
ATOM     55  C   UNL     1       4.234  12.995   7.722  1.00  0.00     0.074 A 
ATOM     56  C   UNL     1       4.952  11.238  13.789  1.00  0.00     0.029 A 
ATOM     57  N   UNL     1       4.960  11.321  11.566  1.00  0.00    -0.354 N 
ATOM     58  N   UNL     1       4.423  12.546   8.940  1.00  0.00    -0.248 NA
ATOM     59  C   UNL     1       3.526  14.280   7.654  1.00  0.00     0.031 C 
ATOM     60  C   UNL     1       4.282  12.398  13.385  1.00  0.00     0.029 A 
ATOM     61  C   UNL     1       4.318  12.468  12.000  1.00  0.00     0.049 A 
ATOM     62  H   UNL     1       5.123  11.088  10.624  1.00  0.00     0.167 HD
ATOM     63  C   UNL     1       3.878  13.505   9.787  1.00  0.00     0.074 A 
ATOM     64  C   UNL     1       3.371  14.566   8.939  1.00  0.00     0.031 C 
ATOM     65  C   UNL     1       3.807  13.509  11.142  1.00  0.00     0.031 A 
BRANCH  52  66
ATOM     66  C   UNL     1       6.298   8.511  13.830  1.00  0.00    -0.014 A 
ATOM     67  C   UNL     1       7.621   8.284  14.256  1.00  0.00     0.010 A 
ATOM     68  C   UNL     1       5.238   8.009  14.606  1.00  0.00     0.010 A 
ATOM     69  C   UNL     1       7.879   7.519  15.396  1.00  0.00     0.020 A 
ATOM     70  C   UNL     1       5.491   7.274  15.768  1.00  0.00     0.020 A 
ATOM     71  C   UNL     1       6.811   7.013  16.142  1.00  0.00     0.054 A 
BRANCH  71  72
ATOM     72  S   UNL     1       7.175   6.019  17.615  1.00  0.00     0.124 S 
ATOM     73  O   UNL     1       7.674   4.779  17.024  1.00  0.00    -0.237 OA
ATOM     74  O   UNL     1       8.172   6.830  18.309  1.00  0.00    -0.237 OA
ATOM     75  O   UNL     1       5.884   5.911  18.289  1.00  0.00    -0.744 OA
ENDBRANCH  71  72
ENDBRANCH  52  66
BRANCH  53  76
ATOM     76  C   UNL     1       4.315  13.018   5.112  1.00  0.00    -0.014 A 
ATOM     77  C   UNL     1       4.937  14.212   4.709  1.00  0.00     0.010 A 
ATOM     78  C   UNL     1       3.398  12.398   4.243  1.00  0.00     0.010 A 
ATOM     79  C   UNL     1       4.642  14.778   3.465  1.00  0.00     0.020 A 
ATOM     80  C   UNL     1       3.123  12.944   2.987  1.00  0.00     0.020 A 
ATOM     81  C   UNL     1       3.743  14.136   2.608  1.00  0.00     0.054 A 
BRANCH  81  82
ATOM     82  S   UNL     1       3.435  14.848   0.968  1.00  0.00     0.124 S 
ATOM     83  O   UNL     1       2.648  16.033   1.293  1.00  0.00    -0.237 OA
ATOM     84  O   UNL     1       4.787  15.100   0.476  1.00  0.00    -0.237 OA
ATOM     85  O   UNL     1       2.712  13.789   0.266  1.00  0.00    -0.744 OA
ENDBRANCH  81  82
ENDBRANCH  53  76
BRANCH  65  86
ATOM     86  C   UNL     1       3.183  14.714  11.798  1.00  0.00    -0.014 A 
ATOM     87  C   UNL     1       1.803  14.968  11.705  1.00  0.00     0.010 A 
ATOM     88  C   UNL     1       3.989  15.579  12.561  1.00  0.00     0.010 A 
ATOM     89  C   UNL     1       1.248  16.087  12.330  1.00  0.00     0.020 A 
ATOM     90  C   UNL     1       3.432  16.681  13.215  1.00  0.00     0.020 A 
ATOM     91  C   UNL     1       2.066  16.937  13.081  1.00  0.00     0.054 A 
BRANCH  91  92
ATOM     92  S   UNL     1       1.315  18.365  13.908  1.00  0.00     0.124 S 
ATOM     93  O   UNL     1       1.024  19.249  12.783  1.00  0.00    -0.237 OA
ATOM     94  O   UNL     1       0.149  17.777  14.564  1.00  0.00    -0.237 OA
ATOM     95  O   UNL     1       2.362  18.833  14.813  1.00  0.00    -0.744 OA
ENDBRANCH  91  92
ENDBRANCH  65  86
ENDBRANCH  39  40
ENDBRANCH  31  34
ENDBRANCH  29  30
ENDBRANCH  28  29
ENDBRANCH   1  28
TORSDOF 19
