REMARK SMILES CCCC1(CCC)C[NH+]([C@H](C(=O)NCCCCCCNC(=O)c2ccc(-c3c4nc(c(-c5ccc(S(=O)(=O)[O-])cc5)c5ccc([nH]5)c(-c5ccc(S(=O)(=O)[O-])cc5)c5nc(c(-c6ccc(S(=O)(=O)[O-])cc6)c6ccc3[nH]6)C=C5)C=C4)cc2)C2CCCCC2)C1
REMARK SMILES IDX 16 1 15 2 14 3 13 4 11 5 12 6 10 8 9 9 4 10 8 11 89 12 3 14
REMARK SMILES IDX 2 15 1 16 5 17 6 18 7 19 83 20 84 21 88 22 85 23 87 24 86 25
REMARK SMILES IDX 17 26 18 27 19 28 20 29 21 30 22 32 23 33 24 34 82 35 25 36
REMARK SMILES IDX 81 37 26 38 27 39 28 40 75 41 29 42 80 43 74 44 76 45 30 46
REMARK SMILES IDX 79 47 73 48 72 49 31 51 61 52 42 53 60 54 43 55 46 56 59 57
REMARK SMILES IDX 77 58 44 59 45 60 58 62 78 63 47 64 32 65 33 66 41 67 34 68
REMARK SMILES IDX 40 69 35 70 36 71 37 72 38 73 39 74 62 75 63 76 71 77 64 78
REMARK SMILES IDX 70 79 65 80 66 81 67 82 68 83 69 84 48 85 49 86 57 87 50 88
REMARK SMILES IDX 56 89 51 90 52 91 53 92 54 93 55 94
REMARK H PARENT 13 7 9 13 20 31 76 50 46 61
REMARK Flexibility Score: inf
ROOT
ATOM      1  C   UNL     1      -1.666   4.319   6.534  1.00  0.00     0.002 C 
ENDROOT
BRANCH   1   2
ATOM      2  C   UNL     1      -2.016   4.853   5.141  1.00  0.00     0.021 C 
BRANCH   2   3
ATOM      3  C   UNL     1      -0.807   5.372   4.346  1.00  0.00     0.116 C 
BRANCH   3   4
ATOM      4  N   UNL     1      -0.232   4.281   3.591  1.00  0.00    -0.351 N 
ATOM      5  C   UNL     1      -0.654   3.680   2.442  1.00  0.00     0.278 C 
ATOM      6  O   UNL     1      -0.397   2.469   2.388  1.00  0.00    -0.268 OA
ATOM      7  H   UNL     1       0.600   3.912   3.968  1.00  0.00     0.163 HD
BRANCH   5   8
ATOM      8  C   UNL     1      -1.324   4.455   1.226  1.00  0.00     0.277 C 
BRANCH   8   9
ATOM      9  N   UNL     1      -0.692   3.810   0.035  1.00  0.00    -0.323 N 
ATOM     10  C   UNL     1      -1.224   3.003  -1.881  1.00  0.00     0.068 C 
ATOM     11  C   UNL     1      -0.785   4.410  -1.283  1.00  0.00     0.275 C 
ATOM     12  C   UNL     1      -1.343   2.585  -0.393  1.00  0.00     0.275 C 
ATOM     13  H   UNL     1       0.243   3.808   0.442  1.00  0.00     0.348 HD
BRANCH  10  14
ATOM     14  C   UNL     1      -2.528   3.228  -2.687  1.00  0.00     0.018 C 
BRANCH  14  15
ATOM     15  C   UNL     1      -2.337   3.795  -4.105  1.00  0.00    -0.002 C 
ATOM     16  C   UNL     1      -1.915   2.803  -5.185  1.00  0.00     0.004 C 
ENDBRANCH  14  15
ENDBRANCH  10  14
BRANCH  10  17
ATOM     17  C   UNL     1      -0.243   1.988  -2.500  1.00  0.00     0.018 C 
BRANCH  17  18
ATOM     18  C   UNL     1      -0.642   0.490  -2.378  1.00  0.00    -0.002 C 
ATOM     19  C   UNL     1      -2.108   0.081  -2.457  1.00  0.00     0.004 C 
ENDBRANCH  17  18
ENDBRANCH  10  17
ENDBRANCH   8   9
BRANCH   8  20
ATOM     20  C   UNL     1      -2.913   4.561   1.284  1.00  0.00     0.057 C 
ATOM     21  C   UNL     1      -3.642   3.307   1.835  1.00  0.00     0.010 C 
ATOM     22  C   UNL     1      -3.365   5.839   2.035  1.00  0.00     0.010 C 
ATOM     23  C   UNL     1      -5.132   3.502   2.092  1.00  0.00     0.001 C 
ATOM     24  C   UNL     1      -4.853   5.944   2.362  1.00  0.00     0.001 C 
ATOM     25  C   UNL     1      -5.377   4.676   3.016  1.00  0.00     0.000 C 
ENDBRANCH   8  20
ENDBRANCH   5   8
ENDBRANCH   3   4
ENDBRANCH   2   3
ENDBRANCH   1   2
BRANCH   1  26
ATOM     26  C   UNL     1      -1.382   5.411   7.570  1.00  0.00     0.002 C 
BRANCH  26  27
ATOM     27  C   UNL     1      -2.505   6.438   7.765  1.00  0.00     0.021 C 
BRANCH  27  28
ATOM     28  C   UNL     1      -3.862   5.845   8.140  1.00  0.00     0.116 C 
BRANCH  28  29
ATOM     29  N   UNL     1      -3.814   5.179   9.431  1.00  0.00    -0.352 N 
ATOM     30  C   UNL     1      -4.456   5.498  10.602  1.00  0.00     0.251 C 
ATOM     31  H   UNL     1      -3.236   4.383   9.472  1.00  0.00     0.163 HD
ATOM     32  O   UNL     1      -4.083   4.994  11.656  1.00  0.00    -0.269 OA
BRANCH  30  33
ATOM     33  C   UNL     1      -5.596   6.443  10.595  1.00  0.00     0.039 A 
ATOM     34  C   UNL     1      -5.707   7.379  11.627  1.00  0.00     0.014 A 
ATOM     35  C   UNL     1      -6.586   6.368   9.611  1.00  0.00     0.014 A 
ATOM     36  C   UNL     1      -6.792   8.259  11.654  1.00  0.00     0.010 A 
ATOM     37  C   UNL     1      -7.629   7.292   9.600  1.00  0.00     0.010 A 
ATOM     38  C   UNL     1      -7.755   8.233  10.633  1.00  0.00    -0.014 A 
BRANCH  38  39
ATOM     39  C   UNL     1      -8.919   9.155  10.650  1.00  0.00     0.031 A 
ATOM     40  C   UNL     1     -10.314   8.608  10.807  1.00  0.00     0.074 A 
ATOM     41  C   UNL     1      -8.729  10.478  10.479  1.00  0.00     0.049 A 
ATOM     42  N   UNL     1     -11.456   9.248  10.823  1.00  0.00    -0.248 NA
ATOM     43  C   UNL     1     -10.445   7.148  10.938  1.00  0.00     0.031 C 
ATOM     44  C   UNL     1      -7.431  11.130  10.286  1.00  0.00     0.029 A 
ATOM     45  N   UNL     1      -9.629  11.514  10.443  1.00  0.00    -0.354 N 
ATOM     46  C   UNL     1     -12.437   8.270  10.939  1.00  0.00     0.074 A 
ATOM     47  C   UNL     1     -11.760   6.992  10.942  1.00  0.00     0.031 C 
ATOM     48  C   UNL     1      -7.616  12.456  10.191  1.00  0.00     0.029 A 
ATOM     49  C   UNL     1      -9.044  12.747  10.278  1.00  0.00     0.049 A 
ATOM     50  H   UNL     1     -10.601  11.386  10.527  1.00  0.00     0.167 HD
ATOM     51  C   UNL     1     -13.780   8.420  11.052  1.00  0.00     0.031 A 
ATOM     52  C   UNL     1      -9.595  13.975  10.211  1.00  0.00     0.031 A 
ATOM     53  C   UNL     1     -14.448   9.694  11.066  1.00  0.00     0.049 A 
ATOM     54  C   UNL     1     -11.087  14.118  10.337  1.00  0.00     0.074 A 
ATOM     55  C   UNL     1     -15.795   9.958  11.241  1.00  0.00     0.029 A 
ATOM     56  N   UNL     1     -13.819  10.919  10.895  1.00  0.00    -0.354 N 
ATOM     57  N   UNL     1     -11.992  13.185  10.514  1.00  0.00    -0.248 NA
ATOM     58  C   UNL     1     -11.628  15.482  10.267  1.00  0.00     0.031 C 
ATOM     59  C   UNL     1     -15.988  11.339  11.125  1.00  0.00     0.029 A 
ATOM     60  C   UNL     1     -14.753  11.940  10.935  1.00  0.00     0.049 A 
ATOM     61  H   UNL     1     -12.852  11.043  10.763  1.00  0.00     0.167 HD
ATOM     62  C   UNL     1     -13.208  13.854  10.613  1.00  0.00     0.074 A 
ATOM     63  C   UNL     1     -12.919  15.268  10.482  1.00  0.00     0.031 C 
ATOM     64  C   UNL     1     -14.450  13.343  10.802  1.00  0.00     0.031 A 
BRANCH  51  65
ATOM     65  C   UNL     1     -14.611   7.167  11.148  1.00  0.00    -0.014 A 
ATOM     66  C   UNL     1     -14.560   6.339  12.285  1.00  0.00     0.010 A 
ATOM     67  C   UNL     1     -15.467   6.815  10.088  1.00  0.00     0.010 A 
ATOM     68  C   UNL     1     -15.299   5.154  12.334  1.00  0.00     0.020 A 
ATOM     69  C   UNL     1     -16.232   5.647  10.146  1.00  0.00     0.020 A 
ATOM     70  C   UNL     1     -16.124   4.811  11.258  1.00  0.00     0.054 A 
BRANCH  70  71
ATOM     71  S   UNL     1     -17.067   3.263  11.342  1.00  0.00     0.124 S 
ATOM     72  O   UNL     1     -16.025   2.265  11.112  1.00  0.00    -0.237 OA
ATOM     73  O   UNL     1     -17.618   3.295  12.695  1.00  0.00    -0.237 OA
ATOM     74  O   UNL     1     -18.049   3.397  10.269  1.00  0.00    -0.744 OA
ENDBRANCH  70  71
ENDBRANCH  51  65
BRANCH  52  75
ATOM     75  C   UNL     1      -8.723  15.171  10.062  1.00  0.00    -0.014 A 
ATOM     76  C   UNL     1      -8.541  16.052  11.143  1.00  0.00     0.010 A 
ATOM     77  C   UNL     1      -8.053  15.427   8.851  1.00  0.00     0.010 A 
ATOM     78  C   UNL     1      -7.717  17.174  11.013  1.00  0.00     0.020 A 
ATOM     79  C   UNL     1      -7.208  16.533   8.726  1.00  0.00     0.020 A 
ATOM     80  C   UNL     1      -7.052  17.405   9.805  1.00  0.00     0.054 A 
BRANCH  80  81
ATOM     81  S   UNL     1      -5.941  18.834   9.680  1.00  0.00     0.124 S 
ATOM     82  O   UNL     1      -6.883  19.946   9.608  1.00  0.00    -0.237 OA
ATOM     83  O   UNL     1      -5.165  18.739  10.913  1.00  0.00    -0.237 OA
ATOM     84  O   UNL     1      -5.186  18.572   8.456  1.00  0.00    -0.744 OA
ENDBRANCH  80  81
ENDBRANCH  52  75
BRANCH  64  85
ATOM     85  C   UNL     1     -15.588  14.322  10.921  1.00  0.00    -0.014 A 
ATOM     86  C   UNL     1     -16.064  15.033   9.805  1.00  0.00     0.010 A 
ATOM     87  C   UNL     1     -16.218  14.499  12.167  1.00  0.00     0.010 A 
ATOM     88  C   UNL     1     -17.125  15.931   9.941  1.00  0.00     0.020 A 
ATOM     89  C   UNL     1     -17.298  15.375  12.301  1.00  0.00     0.020 A 
ATOM     90  C   UNL     1     -17.734  16.098  11.190  1.00  0.00     0.054 A 
BRANCH  90  91
ATOM     91  S   UNL     1     -19.132  17.245  11.334  1.00  0.00     0.124 S 
ATOM     92  O   UNL     1     -18.465  18.543  11.290  1.00  0.00    -0.237 OA
ATOM     93  O   UNL     1     -19.942  16.914  10.165  1.00  0.00    -0.237 OA
ATOM     94  O   UNL     1     -19.734  16.897  12.620  1.00  0.00    -0.744 OA
ENDBRANCH  90  91
ENDBRANCH  64  85
ENDBRANCH  38  39
ENDBRANCH  30  33
ENDBRANCH  28  29
ENDBRANCH  27  28
ENDBRANCH  26  27
ENDBRANCH   1  26
TORSDOF 22
