REMARK SMILES O=C(NCCCCCCNC(=O)[C@@H]1[C@@H](C(=O)Nc2cccc(C(F)(F)F)c2)[C@@H]2C=C[C@H]1O2)c1ccc(-c2c3nc(c(-c4ccc(S(=O)(=O)[O-])cc4)c4ccc([nH]4)c(-c4ccc(S(=O)(=O)[O-])cc4)c4nc(c(-c5ccc(S(=O)(=O)[O-])cc5)c5ccc2[nH]5)C=C4)C=C3)cc1
REMARK SMILES IDX 6 1 5 2 4 3 3 4 1 5 2 6 33 8 34 9 92 10 35 11 91 12 36 13
REMARK SMILES IDX 37 14 38 15 85 16 39 17 90 18 84 19 86 20 40 21 89 22 83 23
REMARK SMILES IDX 82 24 41 26 71 27 52 28 70 29 53 30 56 31 69 32 87 33 54 34
REMARK SMILES IDX 55 35 68 37 88 38 57 39 42 40 43 41 51 42 44 43 50 44 45 45
REMARK SMILES IDX 46 46 47 47 48 48 49 49 72 50 73 51 81 52 74 53 80 54 75 55
REMARK SMILES IDX 76 56 77 57 78 58 79 59 58 60 59 61 67 62 60 63 66 64 61 65
REMARK SMILES IDX 62 66 63 67 64 68 65 69 7 70 8 71 9 72 10 73 11 74 12 76
REMARK SMILES IDX 13 77 14 78 31 79 28 80 30 81 32 82 29 83 15 84 16 85 17 86
REMARK SMILES IDX 18 88 19 89 27 90 20 91 22 92 21 93 23 94 24 95 25 96 26 97
REMARK H PARENT 3 7 86 25 56 36 10 75 17 87
REMARK Flexibility Score: inf
ROOT
ATOM      1  C   UNL     1       3.925   3.409   1.489  1.00  0.00     0.002 C 
ENDROOT
BRANCH   1   2
ATOM      2  C   UNL     1       4.561   2.508   0.428  1.00  0.00     0.021 C 
BRANCH   2   3
ATOM      3  C   UNL     1       4.351   1.019   0.649  1.00  0.00     0.116 C 
BRANCH   3   4
ATOM      4  N   UNL     1       2.943   0.671   0.669  1.00  0.00    -0.352 N 
ATOM      5  O   UNL     1       1.046  -0.227  -0.155  1.00  0.00    -0.269 OA
ATOM      6  C   UNL     1       2.275  -0.204  -0.145  1.00  0.00     0.251 C 
ATOM      7  H   UNL     1       2.399   1.122   1.355  1.00  0.00     0.163 HD
BRANCH   6   8
ATOM      8  C   UNL     1       3.053  -1.112  -1.010  1.00  0.00     0.039 A 
ATOM      9  C   UNL     1       4.148  -1.808  -0.488  1.00  0.00     0.014 A 
ATOM     10  C   UNL     1       2.676  -1.278  -2.343  1.00  0.00     0.014 A 
ATOM     11  C   UNL     1       4.923  -2.602  -1.322  1.00  0.00     0.010 A 
ATOM     12  C   UNL     1       3.402  -2.147  -3.159  1.00  0.00     0.010 A 
ATOM     13  C   UNL     1       4.526  -2.819  -2.651  1.00  0.00    -0.014 A 
BRANCH  13  14
ATOM     14  C   UNL     1       5.197  -3.880  -3.437  1.00  0.00     0.031 A 
ATOM     15  C   UNL     1       5.978  -3.566  -4.678  1.00  0.00     0.074 A 
ATOM     16  C   UNL     1       5.058  -5.152  -3.011  1.00  0.00     0.049 A 
ATOM     17  N   UNL     1       6.584  -4.394  -5.489  1.00  0.00    -0.248 NA
ATOM     18  C   UNL     1       6.093  -2.151  -5.068  1.00  0.00     0.031 C 
ATOM     19  C   UNL     1       4.301  -5.565  -1.822  1.00  0.00     0.029 A 
ATOM     20  N   UNL     1       5.540  -6.331  -3.516  1.00  0.00    -0.354 N 
ATOM     21  C   UNL     1       7.130  -3.610  -6.498  1.00  0.00     0.074 A 
ATOM     22  C   UNL     1       6.779  -2.237  -6.202  1.00  0.00     0.031 C 
ATOM     23  C   UNL     1       4.393  -6.893  -1.677  1.00  0.00     0.029 A 
ATOM     24  C   UNL     1       5.143  -7.436  -2.800  1.00  0.00     0.049 A 
ATOM     25  H   UNL     1       6.114  -6.382  -4.314  1.00  0.00     0.167 HD
ATOM     26  C   UNL     1       7.849  -4.010  -7.573  1.00  0.00     0.031 A 
ATOM     27  C   UNL     1       5.320  -8.748  -3.041  1.00  0.00     0.031 A 
ATOM     28  C   UNL     1       8.190  -5.383  -7.847  1.00  0.00     0.049 A 
ATOM     29  C   UNL     1       6.084  -9.155  -4.267  1.00  0.00     0.074 A 
ATOM     30  C   UNL     1       8.975  -5.882  -8.872  1.00  0.00     0.029 A 
ATOM     31  N   UNL     1       7.754  -6.475  -7.112  1.00  0.00    -0.354 N 
ATOM     32  N   UNL     1       6.668  -8.393  -5.160  1.00  0.00    -0.248 NA
ATOM     33  C   UNL     1       6.210 -10.595  -4.522  1.00  0.00     0.031 C 
ATOM     34  C   UNL     1       8.950  -7.277  -8.803  1.00  0.00     0.029 A 
ATOM     35  C   UNL     1       8.208  -7.648  -7.693  1.00  0.00     0.049 A 
ATOM     36  H   UNL     1       7.203  -6.425  -6.297  1.00  0.00     0.167 HD
ATOM     37  C   UNL     1       7.238  -9.263  -6.081  1.00  0.00     0.074 A 
ATOM     38  C   UNL     1       6.960 -10.606  -5.615  1.00  0.00     0.031 C 
ATOM     39  C   UNL     1       7.918  -8.976  -7.216  1.00  0.00     0.031 A 
BRANCH  26  40
ATOM     40  C   UNL     1       8.301  -2.972  -8.566  1.00  0.00    -0.014 A 
ATOM     41  C   UNL     1       9.355  -2.089  -8.275  1.00  0.00     0.010 A 
ATOM     42  C   UNL     1       7.743  -2.970  -9.859  1.00  0.00     0.010 A 
ATOM     43  C   UNL     1       9.840  -1.221  -9.259  1.00  0.00     0.020 A 
ATOM     44  C   UNL     1       8.240  -2.120 -10.851  1.00  0.00     0.020 A 
ATOM     45  C   UNL     1       9.285  -1.248 -10.544  1.00  0.00     0.054 A 
BRANCH  45  46
ATOM     46  S   UNL     1       9.991  -0.169 -11.820  1.00  0.00     0.124 S 
ATOM     47  O   UNL     1       9.569   1.153 -11.364  1.00  0.00    -0.237 OA
ATOM     48  O   UNL     1      11.422  -0.442 -11.712  1.00  0.00    -0.237 OA
ATOM     49  O   UNL     1       9.363  -0.631 -13.055  1.00  0.00    -0.744 OA
ENDBRANCH  45  46
ENDBRANCH  26  40
BRANCH  27  50
ATOM     50  C   UNL     1       4.702  -9.763  -2.146  1.00  0.00    -0.014 A 
ATOM     51  C   UNL     1       5.497 -10.637  -1.386  1.00  0.00     0.010 A 
ATOM     52  C   UNL     1       3.300  -9.869  -2.065  1.00  0.00     0.010 A 
ATOM     53  C   UNL     1       4.902 -11.625  -0.595  1.00  0.00     0.020 A 
ATOM     54  C   UNL     1       2.702 -10.828  -1.246  1.00  0.00     0.020 A 
ATOM     55  C   UNL     1       3.508 -11.716  -0.534  1.00  0.00     0.054 A 
BRANCH  55  56
ATOM     56  S   UNL     1       2.759 -13.004   0.498  1.00  0.00     0.124 S 
ATOM     57  O   UNL     1       3.023 -14.208  -0.283  1.00  0.00    -0.237 OA
ATOM     58  O   UNL     1       3.507 -12.882   1.747  1.00  0.00    -0.237 OA
ATOM     59  O   UNL     1       1.356 -12.605   0.579  1.00  0.00    -0.744 OA
ENDBRANCH  55  56
ENDBRANCH  27  50
BRANCH  39  60
ATOM     60  C   UNL     1       8.418 -10.139  -8.030  1.00  0.00    -0.014 A 
ATOM     61  C   UNL     1       7.527 -10.944  -8.761  1.00  0.00     0.010 A 
ATOM     62  C   UNL     1       9.799 -10.392  -8.110  1.00  0.00     0.010 A 
ATOM     63  C   UNL     1       8.008 -11.997  -9.541  1.00  0.00     0.020 A 
ATOM     64  C   UNL     1      10.286 -11.424  -8.915  1.00  0.00     0.020 A 
ATOM     65  C   UNL     1       9.385 -12.227  -9.618  1.00  0.00     0.054 A 
BRANCH  65  66
ATOM     66  S   UNL     1       9.984 -13.560 -10.690  1.00  0.00     0.124 S 
ATOM     67  O   UNL     1       9.571 -14.752  -9.954  1.00  0.00    -0.237 OA
ATOM     68  O   UNL     1       9.267 -13.312 -11.938  1.00  0.00    -0.237 OA
ATOM     69  O   UNL     1      11.427 -13.335 -10.751  1.00  0.00    -0.744 OA
ENDBRANCH  65  66
ENDBRANCH  39  60
ENDBRANCH  13  14
ENDBRANCH   6   8
ENDBRANCH   3   4
ENDBRANCH   2   3
ENDBRANCH   1   2
BRANCH   1  70
ATOM     70  C   UNL     1       4.282   3.079   2.941  1.00  0.00     0.002 C 
BRANCH  70  71
ATOM     71  C   UNL     1       5.769   2.894   3.218  1.00  0.00     0.021 C 
BRANCH  71  72
ATOM     72  C   UNL     1       6.663   4.000   2.679  1.00  0.00     0.116 C 
BRANCH  72  73
ATOM     73  N   UNL     1       6.604   5.220   3.456  1.00  0.00    -0.356 N 
ATOM     74  C   UNL     1       7.554   6.021   3.994  1.00  0.00     0.227 C 
ATOM     75  H   UNL     1       5.686   5.529   3.630  1.00  0.00     0.163 HD
ATOM     76  O   UNL     1       7.138   7.067   4.513  1.00  0.00    -0.275 OA
BRANCH  74  77
ATOM     77  C   UNL     1       9.034   5.696   4.119  1.00  0.00     0.127 C 
ATOM     78  C   UNL     1       9.800   4.889   3.045  1.00  0.00     0.127 C 
ATOM     79  C   UNL     1       9.266   4.849   5.386  1.00  0.00     0.155 C 
ATOM     80  C   UNL     1      10.346   3.711   3.869  1.00  0.00     0.155 C 
ATOM     81  C   UNL     1       8.602   3.511   5.332  1.00  0.00     0.004 C 
ATOM     82  O   UNL     1      10.608   4.373   5.134  1.00  0.00    -0.365 OA
ATOM     83  C   UNL     1       9.257   2.812   4.391  1.00  0.00     0.004 C 
BRANCH  78  84
ATOM     84  C   UNL     1      10.816   5.626   2.156  1.00  0.00     0.231 C 
ATOM     85  O   UNL     1      10.803   5.379   0.940  1.00  0.00    -0.274 OA
ATOM     86  N   UNL     1      11.659   6.620   2.550  1.00  0.00    -0.326 N 
ATOM     87  H   UNL     1      11.978   7.201   1.822  1.00  0.00     0.169 HD
BRANCH  86  88
ATOM     88  C   UNL     1      12.144   6.950   3.812  1.00  0.00     0.041 A 
ATOM     89  C   UNL     1      12.150   8.284   4.210  1.00  0.00     0.026 A 
ATOM     90  C   UNL     1      12.611   5.972   4.677  1.00  0.00     0.039 A 
ATOM     91  C   UNL     1      12.442   8.603   5.537  1.00  0.00     0.003 A 
ATOM     92  C   UNL     1      12.829   6.260   6.029  1.00  0.00     0.058 A 
ATOM     93  C   UNL     1      12.739   7.591   6.453  1.00  0.00     0.013 A 
BRANCH  92  94
ATOM     94  C   UNL     1      13.025   5.136   7.019  1.00  0.00     0.416 C 
ATOM     95  F   UNL     1      14.113   5.333   7.817  1.00  0.00    -0.166 F 
ATOM     96  F   UNL     1      11.966   5.008   7.870  1.00  0.00    -0.166 F 
ATOM     97  F   UNL     1      13.205   3.912   6.451  1.00  0.00    -0.166 F 
ENDBRANCH  92  94
ENDBRANCH  86  88
ENDBRANCH  78  84
ENDBRANCH  74  77
ENDBRANCH  72  73
ENDBRANCH  71  72
ENDBRANCH  70  71
ENDBRANCH   1  70
TORSDOF 19
