REMARK SMILES Cc1nc(-c2ccc3c(c2)CCN3S(=O)(=O)c2ccc(F)c(C(=O)NCCCCCCNC(=O)c3ccc(-c4c5nc(c(-c6ccc(S(=O)(=O)[O-])cc6)c6ccc([nH]6)c(-c6ccc(S(=O)(=O)[O-])cc6)c6nc(c(-c7ccc(S(=O)(=O)[O-])cc7)c7ccc4[nH]7)C=C6)C=C5)cc3)c2)cs1
REMARK SMILES IDX 28 1 27 2 26 3 25 4 23 5 24 6 22 8 17 9 18 10 95 11 19 12
REMARK SMILES IDX 20 13 21 14 14 15 15 16 16 17 13 18 5 19 6 20 10 21 7 22
REMARK SMILES IDX 9 23 8 24 11 25 12 26 4 27 1 28 2 29 3 30 97 31 96 32 29 33
REMARK SMILES IDX 30 34 31 35 32 36 33 37 34 39 35 40 36 41 94 42 37 43 93 44
REMARK SMILES IDX 38 45 39 46 40 47 87 48 41 49 92 50 86 51 88 52 42 53 91 54
REMARK SMILES IDX 85 55 84 56 43 58 73 59 54 60 72 61 55 62 58 63 71 64 89 65
REMARK SMILES IDX 56 66 57 67 70 69 90 70 59 71 44 72 45 73 53 74 46 75 52 76
REMARK SMILES IDX 47 77 48 78 49 79 50 80 51 81 74 82 75 83 83 84 76 85 82 86
REMARK SMILES IDX 77 87 78 88 79 89 80 90 81 91 60 92 61 93 69 94 62 95 68 96
REMARK SMILES IDX 63 97 64 98 65 99 66 100 67 101
REMARK H PARENT 25 7 32 38 88 57 58 68
REMARK Flexibility Score: inf
ROOT
ATOM      1  C   UNL     1      -1.416  -9.721  -7.322  1.00  0.00     0.002 C 
ENDROOT
BRANCH   1   2
ATOM      2  C   UNL     1      -0.125  -8.920  -7.177  1.00  0.00     0.021 C 
BRANCH   2   3
ATOM      3  C   UNL     1       0.022  -8.072  -5.923  1.00  0.00     0.116 C 
BRANCH   3   4
ATOM      4  N   UNL     1       0.126  -8.822  -4.686  1.00  0.00    -0.352 N 
ATOM      5  C   UNL     1       0.904  -8.622  -3.568  1.00  0.00     0.254 C 
ATOM      6  O   UNL     1       0.755  -9.399  -2.623  1.00  0.00    -0.269 OA
ATOM      7  H   UNL     1      -0.462  -9.609  -4.636  1.00  0.00     0.163 HD
BRANCH   5   8
ATOM      8  C   UNL     1       1.962  -7.576  -3.462  1.00  0.00     0.076 A 
ATOM      9  C   UNL     1       4.015  -6.825  -2.403  1.00  0.00     0.089 A 
ATOM     10  C   UNL     1       4.110  -5.756  -3.301  1.00  0.00     0.025 A 
ATOM     11  C   UNL     1       3.003  -7.787  -2.534  1.00  0.00     0.039 A 
ATOM     12  C   UNL     1       3.048  -5.507  -4.158  1.00  0.00     0.041 A 
ATOM     13  C   UNL     1       1.949  -6.364  -4.158  1.00  0.00     0.136 A 
ATOM     14  F   UNL     1       0.844  -5.910  -4.762  1.00  0.00    -0.206 F 
BRANCH   9  15
ATOM     15  S   UNL     1       5.140  -6.839  -1.033  1.00  0.00     0.264 S 
ATOM     16  O   UNL     1       6.338  -6.157  -1.482  1.00  0.00    -0.201 OA
ATOM     17  O   UNL     1       5.234  -8.203  -0.545  1.00  0.00    -0.201 OA
BRANCH  15  18
ATOM     18  N   UNL     1       4.425  -5.905   0.220  1.00  0.00    -0.266 N 
ATOM     19  C   UNL     1       2.082  -2.384   0.084  1.00  0.00     0.001 A 
ATOM     20  C   UNL     1       1.757  -3.426  -0.797  1.00  0.00     0.012 A 
ATOM     21  C   UNL     1       3.150  -2.556   0.975  1.00  0.00     0.016 A 
ATOM     22  C   UNL     1       2.492  -4.615  -0.810  1.00  0.00     0.028 A 
ATOM     23  C   UNL     1       3.885  -3.743   0.923  1.00  0.00    -0.021 A 
ATOM     24  C   UNL     1       3.614  -4.741  -0.013  1.00  0.00     0.055 A 
ATOM     25  C   UNL     1       4.887  -4.219   1.925  1.00  0.00     0.060 C 
ATOM     26  C   UNL     1       5.443  -5.486   1.257  1.00  0.00     0.140 C 
BRANCH  19  27
ATOM     27  C   UNL     1       1.219  -1.215   0.116  1.00  0.00     0.081 A 
ATOM     28  C   UNL     1      -2.211   0.032  -0.021  1.00  0.00     0.079 C 
ATOM     29  C   UNL     1      -0.739  -0.179   0.048  1.00  0.00     0.090 A 
ATOM     30  N   UNL     1      -0.158  -1.359   0.038  1.00  0.00    -0.242 NA
ATOM     31  S   UNL     1       0.329   1.165   0.149  1.00  0.00    -0.127 S 
ATOM     32  C   UNL     1       1.667   0.088   0.176  1.00  0.00     0.095 A 
ENDBRANCH  19  27
ENDBRANCH  15  18
ENDBRANCH   9  15
ENDBRANCH   5   8
ENDBRANCH   3   4
ENDBRANCH   2   3
ENDBRANCH   1   2
BRANCH   1  33
ATOM     33  C   UNL     1      -2.726  -8.941  -7.190  1.00  0.00     0.002 C 
BRANCH  33  34
ATOM     34  C   UNL     1      -2.854  -7.673  -8.037  1.00  0.00     0.021 C 
BRANCH  34  35
ATOM     35  C   UNL     1      -2.607  -7.848  -9.531  1.00  0.00     0.116 C 
BRANCH  35  36
ATOM     36  N   UNL     1      -3.555  -8.756 -10.155  1.00  0.00    -0.352 N 
ATOM     37  C   UNL     1      -4.351  -8.553 -11.256  1.00  0.00     0.251 C 
ATOM     38  H   UNL     1      -3.638  -9.639  -9.729  1.00  0.00     0.163 HD
ATOM     39  O   UNL     1      -5.219  -9.370 -11.549  1.00  0.00    -0.269 OA
BRANCH  37  40
ATOM     40  C   UNL     1      -4.173  -7.332 -12.073  1.00  0.00     0.039 A 
ATOM     41  C   UNL     1      -5.296  -6.587 -12.441  1.00  0.00     0.014 A 
ATOM     42  C   UNL     1      -2.897  -6.919 -12.464  1.00  0.00     0.014 A 
ATOM     43  C   UNL     1      -5.134  -5.390 -13.144  1.00  0.00     0.010 A 
ATOM     44  C   UNL     1      -2.732  -5.693 -13.100  1.00  0.00     0.010 A 
ATOM     45  C   UNL     1      -3.848  -4.914 -13.447  1.00  0.00    -0.014 A 
BRANCH  45  46
ATOM     46  C   UNL     1      -3.631  -3.618 -14.140  1.00  0.00     0.031 A 
ATOM     47  C   UNL     1      -2.965  -3.601 -15.491  1.00  0.00     0.074 A 
ATOM     48  C   UNL     1      -3.952  -2.460 -13.528  1.00  0.00     0.049 A 
ATOM     49  N   UNL     1      -2.541  -2.580 -16.189  1.00  0.00    -0.248 NA
ATOM     50  C   UNL     1      -2.723  -4.907 -16.129  1.00  0.00     0.031 C 
ATOM     51  C   UNL     1      -4.594  -2.340 -12.217  1.00  0.00     0.029 A 
ATOM     52  N   UNL     1      -3.765  -1.157 -13.922  1.00  0.00    -0.354 N 
ATOM     53  C   UNL     1      -1.973  -3.119 -17.339  1.00  0.00     0.074 A 
ATOM     54  C   UNL     1      -2.059  -4.557 -17.221  1.00  0.00     0.031 C 
ATOM     55  C   UNL     1      -4.758  -1.040 -11.922  1.00  0.00     0.029 A 
ATOM     56  C   UNL     1      -4.184  -0.231 -12.994  1.00  0.00     0.049 A 
ATOM     57  H   UNL     1      -3.368  -0.908 -14.788  1.00  0.00     0.167 HD
ATOM     58  C   UNL     1      -1.448  -2.473 -18.406  1.00  0.00     0.031 A 
ATOM     59  C   UNL     1      -4.095   1.114 -12.993  1.00  0.00     0.031 A 
ATOM     60  C   UNL     1      -1.374  -1.041 -18.523  1.00  0.00     0.049 A 
ATOM     61  C   UNL     1      -3.451   1.805 -14.169  1.00  0.00     0.074 A 
ATOM     62  C   UNL     1      -0.876  -0.291 -19.574  1.00  0.00     0.029 A 
ATOM     63  N   UNL     1      -1.819  -0.144 -17.565  1.00  0.00    -0.354 N 
ATOM     64  N   UNL     1      -2.944   1.278 -15.258  1.00  0.00    -0.248 NA
ATOM     65  C   UNL     1      -3.376   3.273 -14.122  1.00  0.00     0.031 C 
ATOM     66  C   UNL     1      -0.975   1.059 -19.230  1.00  0.00     0.029 A 
ATOM     67  C   UNL     1      -1.599   1.151 -17.997  1.00  0.00     0.049 A 
ATOM     68  H   UNL     1      -2.231  -0.392 -16.706  1.00  0.00     0.167 HD
ATOM     69  C   UNL     1      -2.540   2.352 -16.045  1.00  0.00     0.074 A 
ATOM     70  C   UNL     1      -2.860   3.557 -15.310  1.00  0.00     0.031 C 
ATOM     71  C   UNL     1      -1.962   2.341 -17.270  1.00  0.00     0.031 A 
BRANCH  58  72
ATOM     72  C   UNL     1      -0.919  -3.305 -19.544  1.00  0.00    -0.014 A 
ATOM     73  C   UNL     1      -1.796  -4.016 -20.384  1.00  0.00     0.010 A 
ATOM     74  C   UNL     1       0.458  -3.309 -19.832  1.00  0.00     0.010 A 
ATOM     75  C   UNL     1      -1.304  -4.733 -21.476  1.00  0.00     0.020 A 
ATOM     76  C   UNL     1       0.951  -4.001 -20.942  1.00  0.00     0.020 A 
ATOM     77  C   UNL     1       0.067  -4.715 -21.752  1.00  0.00     0.054 A 
BRANCH  77  78
ATOM     78  S   UNL     1       0.666  -5.606 -23.214  1.00  0.00     0.124 S 
ATOM     79  O   UNL     1       0.478  -6.999 -22.816  1.00  0.00    -0.237 OA
ATOM     80  O   UNL     1      -0.227  -5.128 -24.266  1.00  0.00    -0.237 OA
ATOM     81  O   UNL     1       2.057  -5.177 -23.337  1.00  0.00    -0.744 OA
ENDBRANCH  77  78
ENDBRANCH  58  72
BRANCH  59  82
ATOM     82  C   UNL     1      -4.610   1.910 -11.842  1.00  0.00    -0.014 A 
ATOM     83  C   UNL     1      -5.699   2.785 -12.006  1.00  0.00     0.010 A 
ATOM     84  C   UNL     1      -3.984   1.832 -10.584  1.00  0.00     0.010 A 
ATOM     85  C   UNL     1      -6.119   3.602 -10.952  1.00  0.00     0.020 A 
ATOM     86  C   UNL     1      -4.424   2.621  -9.517  1.00  0.00     0.020 A 
ATOM     87  C   UNL     1      -5.474   3.519  -9.715  1.00  0.00     0.054 A 
BRANCH  87  88
ATOM     88  S   UNL     1      -6.027   4.596  -8.364  1.00  0.00     0.124 S 
ATOM     89  O   UNL     1      -5.533   5.900  -8.794  1.00  0.00    -0.237 OA
ATOM     90  O   UNL     1      -7.478   4.424  -8.398  1.00  0.00    -0.237 OA
ATOM     91  O   UNL     1      -5.368   4.033  -7.187  1.00  0.00    -0.744 OA
ENDBRANCH  87  88
ENDBRANCH  59  82
BRANCH  71  92
ATOM     92  C   UNL     1      -1.714   3.662 -17.949  1.00  0.00    -0.014 A 
ATOM     93  C   UNL     1      -0.686   4.524 -17.533  1.00  0.00     0.010 A 
ATOM     94  C   UNL     1      -2.465   3.989 -19.094  1.00  0.00     0.010 A 
ATOM     95  C   UNL     1      -0.420   5.697 -18.247  1.00  0.00     0.020 A 
ATOM     96  C   UNL     1      -2.183   5.144 -19.826  1.00  0.00     0.020 A 
ATOM     97  C   UNL     1      -1.164   5.994 -19.394  1.00  0.00     0.054 A 
BRANCH  97  98
ATOM     98  S   UNL     1      -0.738   7.475 -20.350  1.00  0.00     0.124 S 
ATOM     99  O   UNL     1      -1.202   8.547 -19.475  1.00  0.00    -0.237 OA
ATOM    100  O   UNL     1       0.712   7.359 -20.488  1.00  0.00    -0.237 OA
ATOM    101  O   UNL     1      -1.490   7.316 -21.593  1.00  0.00    -0.744 OA
ENDBRANCH  97  98
ENDBRANCH  71  92
ENDBRANCH  45  46
ENDBRANCH  37  40
ENDBRANCH  35  36
ENDBRANCH  34  35
ENDBRANCH  33  34
ENDBRANCH   1  33
TORSDOF 19
