REMARK SMILES Nc1c(N2CCCC2)ncnc1N1CCC(C(=O)NCCCCCCNC(=O)c2ccc(-c3c4nc(c(-c5ccc(S(=O)(=O)[O-])cc5)c5ccc([nH]5)c(-c5ccc(S(=O)(=O)[O-])cc5)c5nc(c(-c6ccc(S(=O)(=O)[O-])cc6)c6ccc3[nH]6)C=C5)C=C4)cc2)CC1
REMARK SMILES IDX 23 1 22 2 21 3 20 4 19 5 17 6 18 7 16 9 13 10 14 11 90 12
REMARK SMILES IDX 15 13 89 14 12 15 2 16 3 17 9 18 11 19 10 20 1 21 4 24 5 25
REMARK SMILES IDX 8 26 6 27 7 28 24 29 25 30 26 31 27 32 28 34 29 35 30 36
REMARK SMILES IDX 88 37 31 38 87 39 32 40 33 41 34 42 81 43 35 44 86 45 80 46
REMARK SMILES IDX 82 47 36 48 85 49 79 50 78 51 37 53 67 54 48 55 66 56 49 57
REMARK SMILES IDX 52 58 65 59 83 60 50 61 51 62 64 64 84 65 53 66 38 67 39 68
REMARK SMILES IDX 47 69 40 70 46 71 41 72 42 73 43 74 44 75 45 76 68 77 69 78
REMARK SMILES IDX 77 79 70 80 76 81 71 82 72 83 73 84 74 85 75 86 54 87 55 88
REMARK SMILES IDX 63 89 56 90 62 91 57 92 58 93 59 94 60 95 61 96
REMARK H PARENT 19 8 1 22 1 23 26 33 82 52 52 63
REMARK Flexibility Score: inf
ROOT
ATOM      1  C   UNL     1      -0.300  -8.665  -3.580  1.00  0.00     0.002 C 
ENDROOT
BRANCH   1   2
ATOM      2  C   UNL     1       0.953  -8.043  -4.206  1.00  0.00     0.002 C 
BRANCH   2   3
ATOM      3  C   UNL     1       1.147  -6.551  -3.916  1.00  0.00     0.021 C 
BRANCH   3   4
ATOM      4  C   UNL     1       1.209  -6.212  -2.429  1.00  0.00     0.116 C 
BRANCH   4   5
ATOM      5  N   UNL     1       2.434  -6.722  -1.827  1.00  0.00    -0.356 N 
ATOM      6  C   UNL     1       3.468  -6.068  -1.232  1.00  0.00     0.223 C 
ATOM      7  O   UNL     1       4.429  -6.733  -0.838  1.00  0.00    -0.275 OA
ATOM      8  H   UNL     1       2.529  -7.702  -1.857  1.00  0.00     0.163 HD
BRANCH   6   9
ATOM      9  C   UNL     1       3.435  -4.563  -1.020  1.00  0.00     0.082 C 
ATOM     10  N   UNL     1       1.857  -2.259  -1.375  1.00  0.00    -0.355 N 
ATOM     11  C   UNL     1       3.001  -2.352  -2.252  1.00  0.00     0.119 C 
ATOM     12  C   UNL     1       1.989  -2.729  -0.010  1.00  0.00     0.119 C 
ATOM     13  C   UNL     1       3.451  -3.802  -2.359  1.00  0.00     0.035 C 
ATOM     14  C   UNL     1       2.308  -4.212  -0.036  1.00  0.00     0.035 C 
BRANCH  10  15
ATOM     15  C   UNL     1       0.797  -1.452  -1.748  1.00  0.00     0.157 A 
ATOM     16  C   UNL     1       0.444  -0.316  -1.006  1.00  0.00     0.118 A 
ATOM     17  C   UNL     1      -0.734   0.346  -1.393  1.00  0.00     0.157 A 
ATOM     18  N   UNL     1      -1.483  -0.072  -2.423  1.00  0.00    -0.217 NA
ATOM     19  N   UNL     1       0.098  -1.833  -2.833  1.00  0.00    -0.217 NA
ATOM     20  C   UNL     1      -1.016  -1.131  -3.099  1.00  0.00     0.226 A 
BRANCH  16  21
ATOM     21  N   UNL     1       1.150   0.081   0.147  1.00  0.00    -0.393 N 
ATOM     22  H   UNL     1       0.872   0.885   0.642  1.00  0.00     0.156 HD
ATOM     23  H   UNL     1       1.922  -0.445   0.457  1.00  0.00     0.156 HD
ENDBRANCH  16  21
BRANCH  17  24
ATOM     24  N   UNL     1      -1.137   1.450  -0.681  1.00  0.00    -0.355 N 
ATOM     25  C   UNL     1      -0.438   2.714  -0.716  1.00  0.00     0.118 C 
ATOM     26  C   UNL     1      -2.486   1.589  -0.172  1.00  0.00     0.118 C 
ATOM     27  C   UNL     1      -0.970   3.354   0.559  1.00  0.00     0.023 C 
ATOM     28  C   UNL     1      -2.443   2.938   0.565  1.00  0.00     0.023 C 
ENDBRANCH  17  24
ENDBRANCH  10  15
ENDBRANCH   6   9
ENDBRANCH   4   5
ENDBRANCH   3   4
ENDBRANCH   2   3
ENDBRANCH   1   2
BRANCH   1  29
ATOM     29  C   UNL     1      -1.610  -7.940  -3.895  1.00  0.00     0.021 C 
BRANCH  29  30
ATOM     30  C   UNL     1      -1.909  -7.787  -5.382  1.00  0.00     0.116 C 
BRANCH  30  31
ATOM     31  N   UNL     1      -2.065  -9.074  -6.042  1.00  0.00    -0.352 N 
ATOM     32  C   UNL     1      -3.117  -9.538  -6.791  1.00  0.00     0.251 C 
ATOM     33  H   UNL     1      -1.311  -9.698  -5.937  1.00  0.00     0.163 HD
ATOM     34  O   UNL     1      -3.171 -10.722  -7.113  1.00  0.00    -0.269 OA
BRANCH  32  35
ATOM     35  C   UNL     1      -4.193  -8.607  -7.189  1.00  0.00     0.039 A 
ATOM     36  C   UNL     1      -5.523  -8.992  -7.008  1.00  0.00     0.014 A 
ATOM     37  C   UNL     1      -3.886  -7.355  -7.730  1.00  0.00     0.014 A 
ATOM     38  C   UNL     1      -6.547  -8.096  -7.318  1.00  0.00     0.010 A 
ATOM     39  C   UNL     1      -4.905  -6.439  -7.974  1.00  0.00     0.010 A 
ATOM     40  C   UNL     1      -6.245  -6.802  -7.775  1.00  0.00    -0.014 A 
BRANCH  40  41
ATOM     41  C   UNL     1      -7.321  -5.820  -8.058  1.00  0.00     0.031 A 
ATOM     42  C   UNL     1      -7.552  -5.341  -9.465  1.00  0.00     0.074 A 
ATOM     43  C   UNL     1      -8.062  -5.330  -7.044  1.00  0.00     0.049 A 
ATOM     44  N   UNL     1      -8.418  -4.464  -9.903  1.00  0.00    -0.248 NA
ATOM     45  C   UNL     1      -6.688  -5.908 -10.513  1.00  0.00     0.031 C 
ATOM     46  C   UNL     1      -7.916  -5.700  -5.634  1.00  0.00     0.029 A 
ATOM     47  N   UNL     1      -9.088  -4.419  -7.043  1.00  0.00    -0.354 N 
ATOM     48  C   UNL     1      -8.201  -4.372 -11.273  1.00  0.00     0.074 A 
ATOM     49  C   UNL     1      -7.087  -5.239 -11.585  1.00  0.00     0.031 C 
ATOM     50  C   UNL     1      -8.843  -5.051  -4.911  1.00  0.00     0.029 A 
ATOM     51  C   UNL     1      -9.620  -4.188  -5.796  1.00  0.00     0.049 A 
ATOM     52  H   UNL     1      -9.412  -3.972  -7.858  1.00  0.00     0.167 HD
ATOM     53  C   UNL     1      -8.885  -3.651 -12.193  1.00  0.00     0.031 A 
ATOM     54  C   UNL     1     -10.621  -3.374  -5.408  1.00  0.00     0.031 A 
ATOM     55  C   UNL     1      -9.995  -2.791 -11.879  1.00  0.00     0.049 A 
ATOM     56  C   UNL     1     -11.340  -2.552  -6.442  1.00  0.00     0.074 A 
ATOM     57  C   UNL     1     -10.772  -2.042 -12.744  1.00  0.00     0.029 A 
ATOM     58  N   UNL     1     -10.487  -2.567 -10.602  1.00  0.00    -0.354 N 
ATOM     59  N   UNL     1     -11.146  -2.510  -7.739  1.00  0.00    -0.248 NA
ATOM     60  C   UNL     1     -12.415  -1.673  -5.963  1.00  0.00     0.031 C 
ATOM     61  C   UNL     1     -11.702  -1.325 -11.985  1.00  0.00     0.029 A 
ATOM     62  C   UNL     1     -11.543  -1.675 -10.653  1.00  0.00     0.049 A 
ATOM     63  H   UNL     1     -10.136  -2.982  -9.780  1.00  0.00     0.167 HD
ATOM     64  C   UNL     1     -12.091  -1.618  -8.234  1.00  0.00     0.074 A 
ATOM     65  C   UNL     1     -12.864  -1.156  -7.099  1.00  0.00     0.031 C 
ATOM     66  C   UNL     1     -12.301  -1.221  -9.513  1.00  0.00     0.031 A 
BRANCH  53  67
ATOM     67  C   UNL     1      -8.452  -3.765 -13.630  1.00  0.00    -0.014 A 
ATOM     68  C   UNL     1      -8.675  -4.949 -14.358  1.00  0.00     0.010 A 
ATOM     69  C   UNL     1      -7.864  -2.664 -14.279  1.00  0.00     0.010 A 
ATOM     70  C   UNL     1      -8.287  -5.040 -15.697  1.00  0.00     0.020 A 
ATOM     71  C   UNL     1      -7.501  -2.742 -15.627  1.00  0.00     0.020 A 
ATOM     72  C   UNL     1      -7.703  -3.936 -16.323  1.00  0.00     0.054 A 
BRANCH  72  73
ATOM     73  S   UNL     1      -7.241  -4.076 -18.071  1.00  0.00     0.124 S 
ATOM     74  O   UNL     1      -6.109  -4.997 -18.011  1.00  0.00    -0.237 OA
ATOM     75  O   UNL     1      -8.455  -4.613 -18.680  1.00  0.00    -0.237 OA
ATOM     76  O   UNL     1      -6.908  -2.706 -18.455  1.00  0.00    -0.744 OA
ENDBRANCH  72  73
ENDBRANCH  53  67
BRANCH  54  77
ATOM     77  C   UNL     1     -11.020  -3.322  -3.974  1.00  0.00    -0.014 A 
ATOM     78  C   UNL     1     -12.240  -3.881  -3.555  1.00  0.00     0.010 A 
ATOM     79  C   UNL     1     -10.170  -2.741  -3.015  1.00  0.00     0.010 A 
ATOM     80  C   UNL     1     -12.607  -3.853  -2.207  1.00  0.00     0.020 A 
ATOM     81  C   UNL     1     -10.521  -2.735  -1.662  1.00  0.00     0.020 A 
ATOM     82  C   UNL     1     -11.742  -3.286  -1.267  1.00  0.00     0.054 A 
BRANCH  82  83
ATOM     83  S   UNL     1     -12.214  -3.319   0.485  1.00  0.00     0.124 S 
ATOM     84  O   UNL     1     -13.314  -2.361   0.522  1.00  0.00    -0.237 OA
ATOM     85  O   UNL     1     -12.585  -4.718   0.683  1.00  0.00    -0.237 OA
ATOM     86  O   UNL     1     -10.996  -2.901   1.176  1.00  0.00    -0.744 OA
ENDBRANCH  82  83
ENDBRANCH  54  77
BRANCH  66  87
ATOM     87  C   UNL     1     -13.423  -0.250  -9.768  1.00  0.00    -0.014 A 
ATOM     88  C   UNL     1     -13.312   1.101  -9.399  1.00  0.00     0.010 A 
ATOM     89  C   UNL     1     -14.571  -0.682 -10.458  1.00  0.00     0.010 A 
ATOM     90  C   UNL     1     -14.338   2.001  -9.699  1.00  0.00     0.020 A 
ATOM     91  C   UNL     1     -15.587   0.220 -10.783  1.00  0.00     0.020 A 
ATOM     92  C   UNL     1     -15.468   1.555 -10.393  1.00  0.00     0.054 A 
BRANCH  92  93
ATOM     93  S   UNL     1     -16.757   2.757 -10.820  1.00  0.00     0.124 S 
ATOM     94  O   UNL     1     -17.352   3.042  -9.517  1.00  0.00    -0.237 OA
ATOM     95  O   UNL     1     -15.990   3.850 -11.412  1.00  0.00    -0.237 OA
ATOM     96  O   UNL     1     -17.617   2.030 -11.751  1.00  0.00    -0.744 OA
ENDBRANCH  92  93
ENDBRANCH  66  87
ENDBRANCH  40  41
ENDBRANCH  32  35
ENDBRANCH  30  31
ENDBRANCH  29  30
ENDBRANCH   1  29
TORSDOF 19
