REMARK SMILES O=C(NCCCCCCNC(=O)c1ccccc1Nc1cccc(C(F)(F)F)c1)c1ccc(-c2c3nc(c(-c4ccc(S(=O)(=O)[O-])cc4)c4ccc([nH]4)c(-c4ccc(S(=O)(=O)[O-])cc4)c4nc(c(-c5ccc(S(=O)(=O)[O-])cc5)c5ccc2[nH]5)C=C4)C=C3)cc1
REMARK SMILES IDX 6 1 5 2 4 3 3 4 1 5 2 6 30 8 31 9 89 10 32 11 88 12 33 13
REMARK SMILES IDX 34 14 35 15 82 16 36 17 87 18 81 19 83 20 37 21 86 22 80 23
REMARK SMILES IDX 79 24 38 26 68 27 49 28 67 29 50 30 53 31 66 32 84 33 51 34
REMARK SMILES IDX 52 35 65 37 85 38 54 39 39 40 40 41 48 42 41 43 47 44 42 45
REMARK SMILES IDX 43 46 44 47 45 48 46 49 69 50 70 51 78 52 71 53 77 54 72 55
REMARK SMILES IDX 73 56 74 57 75 58 76 59 55 60 56 61 64 62 57 63 63 64 58 65
REMARK SMILES IDX 59 66 60 67 61 68 62 69 7 70 8 71 9 72 10 73 11 74 12 76
REMARK SMILES IDX 13 77 14 78 18 79 15 80 17 81 16 82 19 83 20 85 21 86 29 87
REMARK SMILES IDX 22 88 24 89 23 90 25 91 26 92 27 93 28 94
REMARK H PARENT 3 7 83 25 53 36 10 75 19 84
REMARK Flexibility Score: inf
ROOT
ATOM      1  C   UNL     1       4.153  -3.587  -1.548  1.00  0.00     0.002 C 
ENDROOT
BRANCH   1   2
ATOM      2  C   UNL     1       4.614  -2.661  -0.423  1.00  0.00     0.021 C 
BRANCH   2   3
ATOM      3  C   UNL     1       4.380  -1.173  -0.651  1.00  0.00     0.116 C 
BRANCH   3   4
ATOM      4  N   UNL     1       2.974  -0.820  -0.761  1.00  0.00    -0.352 N 
ATOM      5  O   UNL     1       1.057   0.261  -0.265  1.00  0.00    -0.269 OA
ATOM      6  C   UNL     1       2.274   0.179  -0.123  1.00  0.00     0.251 C 
ATOM      7  H   UNL     1       2.447  -1.374  -1.381  1.00  0.00     0.163 HD
BRANCH   6   8
ATOM      8  C   UNL     1       2.982   1.128   0.768  1.00  0.00     0.039 A 
ATOM      9  C   UNL     1       4.190   1.712   0.381  1.00  0.00     0.014 A 
ATOM     10  C   UNL     1       2.435   1.422   2.020  1.00  0.00     0.014 A 
ATOM     11  C   UNL     1       4.926   2.451   1.302  1.00  0.00     0.010 A 
ATOM     12  C   UNL     1       3.138   2.235   2.916  1.00  0.00     0.010 A 
ATOM     13  C   UNL     1       4.413   2.718   2.583  1.00  0.00    -0.014 A 
BRANCH  13  14
ATOM     14  C   UNL     1       5.225   3.513   3.542  1.00  0.00     0.031 A 
ATOM     15  C   UNL     1       5.747   2.899   4.816  1.00  0.00     0.074 A 
ATOM     16  C   UNL     1       5.536   4.788   3.236  1.00  0.00     0.049 A 
ATOM     17  N   UNL     1       6.525   3.431   5.726  1.00  0.00    -0.248 NA
ATOM     18  C   UNL     1       5.339   1.517   5.114  1.00  0.00     0.031 C 
ATOM     19  C   UNL     1       5.085   5.501   2.038  1.00  0.00     0.029 A 
ATOM     20  N   UNL     1       6.327   5.701   3.887  1.00  0.00    -0.354 N 
ATOM     21  C   UNL     1       6.679   2.463   6.712  1.00  0.00     0.074 A 
ATOM     22  C   UNL     1       5.897   1.317   6.301  1.00  0.00     0.031 C 
ATOM     23  C   UNL     1       5.653   6.716   2.009  1.00  0.00     0.029 A 
ATOM     24  C   UNL     1       6.466   6.888   3.209  1.00  0.00     0.049 A 
ATOM     25  H   UNL     1       6.753   5.522   4.756  1.00  0.00     0.167 HD
ATOM     26  C   UNL     1       7.409   2.519   7.854  1.00  0.00     0.031 A 
ATOM     27  C   UNL     1       7.169   7.995   3.512  1.00  0.00     0.031 A 
ATOM     28  C   UNL     1       8.200   3.653   8.257  1.00  0.00     0.049 A 
ATOM     29  C   UNL     1       7.976   8.029   4.777  1.00  0.00     0.074 A 
ATOM     30  C   UNL     1       9.000   3.790   9.379  1.00  0.00     0.029 A 
ATOM     31  N   UNL     1       8.295   4.844   7.553  1.00  0.00    -0.354 N 
ATOM     32  N   UNL     1       8.130   7.090   5.680  1.00  0.00    -0.248 NA
ATOM     33  C   UNL     1       8.710   9.269   5.060  1.00  0.00     0.031 C 
ATOM     34  C   UNL     1       9.548   5.078   9.373  1.00  0.00     0.029 A 
ATOM     35  C   UNL     1       9.127   5.726   8.223  1.00  0.00     0.049 A 
ATOM     36  H   UNL     1       7.839   5.034   6.701  1.00  0.00     0.167 HD
ATOM     37  C   UNL     1       8.996   7.620   6.629  1.00  0.00     0.074 A 
ATOM     38  C   UNL     1       9.343   8.954   6.182  1.00  0.00     0.031 C 
ATOM     39  C   UNL     1       9.461   7.051   7.768  1.00  0.00     0.031 A 
BRANCH  26  40
ATOM     40  C   UNL     1       7.365   1.323   8.768  1.00  0.00    -0.014 A 
ATOM     41  C   UNL     1       8.031   0.128   8.441  1.00  0.00     0.010 A 
ATOM     42  C   UNL     1       6.678   1.410   9.994  1.00  0.00     0.010 A 
ATOM     43  C   UNL     1       7.975  -0.971   9.303  1.00  0.00     0.020 A 
ATOM     44  C   UNL     1       6.639   0.320  10.869  1.00  0.00     0.020 A 
ATOM     45  C   UNL     1       7.272  -0.871  10.508  1.00  0.00     0.054 A 
BRANCH  45  46
ATOM     46  S   UNL     1       7.221  -2.310  11.612  1.00  0.00     0.124 S 
ATOM     47  O   UNL     1       6.255  -3.172  10.936  1.00  0.00    -0.237 OA
ATOM     48  O   UNL     1       8.603  -2.782  11.593  1.00  0.00    -0.237 OA
ATOM     49  O   UNL     1       6.774  -1.753  12.887  1.00  0.00    -0.744 OA
ENDBRANCH  45  46
ENDBRANCH  26  40
BRANCH  27  50
ATOM     50  C   UNL     1       7.148   9.158   2.585  1.00  0.00    -0.014 A 
ATOM     51  C   UNL     1       8.280   9.477   1.816  1.00  0.00     0.010 A 
ATOM     52  C   UNL     1       5.981   9.931   2.444  1.00  0.00     0.010 A 
ATOM     53  C   UNL     1       8.250  10.558   0.930  1.00  0.00     0.020 A 
ATOM     54  C   UNL     1       5.940  10.995   1.540  1.00  0.00     0.020 A 
ATOM     55  C   UNL     1       7.079  11.309   0.796  1.00  0.00     0.054 A 
BRANCH  55  56
ATOM     56  S   UNL     1       7.039  12.667  -0.405  1.00  0.00     0.124 S 
ATOM     57  O   UNL     1       7.766  13.717   0.301  1.00  0.00    -0.237 OA
ATOM     58  O   UNL     1       7.721  12.091  -1.561  1.00  0.00    -0.237 OA
ATOM     59  O   UNL     1       5.610  12.911  -0.594  1.00  0.00    -0.744 OA
ENDBRANCH  55  56
ENDBRANCH  27  50
BRANCH  39  60
ATOM     60  C   UNL     1      10.425   7.860   8.592  1.00  0.00    -0.014 A 
ATOM     61  C   UNL     1       9.989   8.957   9.356  1.00  0.00     0.010 A 
ATOM     62  C   UNL     1      11.785   7.501   8.619  1.00  0.00     0.010 A 
ATOM     63  C   UNL     1      10.904   9.707  10.100  1.00  0.00     0.020 A 
ATOM     64  C   UNL     1      12.698   8.233   9.380  1.00  0.00     0.020 A 
ATOM     65  C   UNL     1      12.255   9.344  10.102  1.00  0.00     0.054 A 
BRANCH  65  66
ATOM     66  S   UNL     1      13.424  10.316  11.091  1.00  0.00     0.124 S 
ATOM     67  O   UNL     1      13.626  11.493  10.251  1.00  0.00    -0.237 OA
ATOM     68  O   UNL     1      12.685  10.547  12.331  1.00  0.00    -0.237 OA
ATOM     69  O   UNL     1      14.582   9.434  11.220  1.00  0.00    -0.744 OA
ENDBRANCH  65  66
ENDBRANCH  39  60
ENDBRANCH  13  14
ENDBRANCH   6   8
ENDBRANCH   3   4
ENDBRANCH   2   3
ENDBRANCH   1   2
BRANCH   1  70
ATOM     70  C   UNL     1       4.684  -3.261  -2.947  1.00  0.00     0.002 C 
BRANCH  70  71
ATOM     71  C   UNL     1       6.205  -3.125  -3.084  1.00  0.00     0.021 C 
BRANCH  71  72
ATOM     72  C   UNL     1       7.029  -4.303  -2.567  1.00  0.00     0.116 C 
BRANCH  72  73
ATOM     73  N   UNL     1       6.713  -5.546  -3.249  1.00  0.00    -0.352 N 
ATOM     74  C   UNL     1       7.567  -6.498  -3.742  1.00  0.00     0.253 C 
ATOM     75  H   UNL     1       5.754  -5.730  -3.375  1.00  0.00     0.163 HD
ATOM     76  O   UNL     1       7.123  -7.470  -4.348  1.00  0.00    -0.269 OA
BRANCH  74  77
ATOM     77  C   UNL     1       9.029  -6.354  -3.576  1.00  0.00     0.063 A 
ATOM     78  C   UNL     1       9.782  -6.283  -4.760  1.00  0.00     0.016 A 
ATOM     79  C   UNL     1       9.654  -6.334  -2.312  1.00  0.00     0.051 A 
ATOM     80  C   UNL     1      11.166  -6.148  -4.702  1.00  0.00     0.001 A 
ATOM     81  C   UNL     1      11.050  -6.182  -2.286  1.00  0.00     0.027 A 
ATOM     82  C   UNL     1      11.799  -6.091  -3.464  1.00  0.00     0.002 A 
BRANCH  79  83
ATOM     83  N   UNL     1       8.914  -6.429  -1.116  1.00  0.00    -0.355 N 
ATOM     84  H   UNL     1       8.088  -6.960  -1.191  1.00  0.00     0.167 HD
BRANCH  83  85
ATOM     85  C   UNL     1       9.148  -5.899   0.165  1.00  0.00     0.039 A 
ATOM     86  C   UNL     1       8.658  -6.581   1.285  1.00  0.00     0.026 A 
ATOM     87  C   UNL     1       9.901  -4.736   0.373  1.00  0.00     0.039 A 
ATOM     88  C   UNL     1       8.909  -6.115   2.578  1.00  0.00     0.003 A 
ATOM     89  C   UNL     1      10.154  -4.246   1.667  1.00  0.00     0.058 A 
ATOM     90  C   UNL     1       9.655  -4.953   2.769  1.00  0.00     0.013 A 
BRANCH  89  91
ATOM     91  C   UNL     1      10.965  -2.991   1.876  1.00  0.00     0.416 C 
ATOM     92  F   UNL     1      10.356  -2.105   2.708  1.00  0.00    -0.166 F 
ATOM     93  F   UNL     1      12.187  -3.249   2.418  1.00  0.00    -0.166 F 
ATOM     94  F   UNL     1      11.208  -2.310   0.720  1.00  0.00    -0.166 F 
ENDBRANCH  89  91
ENDBRANCH  83  85
ENDBRANCH  79  83
ENDBRANCH  74  77
ENDBRANCH  72  73
ENDBRANCH  71  72
ENDBRANCH  70  71
ENDBRANCH   1  70
TORSDOF 19
