REMARK SMILES CCOc1cc2c(cc1OCC)[C@H](C(=O)NCCCCCCNC(=O)c1ccc(-c3c4nc(c(-c5ccc(S(=O)(=O)[O-])cc5)c5ccc([nH]5)c(-c5ccc(S(=O)(=O)[O-])cc5)c5nc(c(-c6ccc(S(=O)(=O)[O-])cc6)c6ccc3[nH]6)C=C5)C=C4)cc1)[C@H](c1ccc(OC)c(O)c1)N(C)C2=O
REMARK SMILES IDX 20 1 19 2 18 3 17 4 16 5 14 6 15 7 13 9 4 10 5 11 9 12 6 13
REMARK SMILES IDX 8 14 7 15 98 16 96 17 99 18 86 19 97 20 3 21 2 22 1 23 10 24
REMARK SMILES IDX 11 25 12 26 87 27 88 28 95 29 89 30 93 31 90 32 94 33 91 35
REMARK SMILES IDX 92 36 21 37 22 38 23 39 24 40 25 42 26 43 27 44 85 45 28 46
REMARK SMILES IDX 84 47 29 48 30 49 31 50 78 51 32 52 83 53 77 54 79 55 33 56
REMARK SMILES IDX 82 57 76 58 75 59 34 61 64 62 45 63 63 64 46 65 49 66 62 67
REMARK SMILES IDX 80 68 47 69 48 70 61 72 81 73 50 74 35 75 36 76 44 77 37 78
REMARK SMILES IDX 43 79 38 80 39 81 40 82 41 83 42 84 65 85 66 86 74 87 67 88
REMARK SMILES IDX 73 89 68 90 69 91 70 92 71 93 72 94 51 95 52 96 60 97 53 98
REMARK SMILES IDX 59 99 54 100 55 101 56 102 57 103 58 104
REMARK H PARENT 16 8 94 34 23 41 79 60 49 71
REMARK Flexibility Score: inf
ROOT
ATOM      1  C   UNL     1      11.055  -1.519  -6.978  1.00  0.00     0.002 C 
ENDROOT
BRANCH   1   2
ATOM      2  C   UNL     1      10.729  -2.604  -5.947  1.00  0.00     0.002 C 
BRANCH   2   3
ATOM      3  C   UNL     1      10.377  -2.089  -4.544  1.00  0.00     0.021 C 
BRANCH   3   4
ATOM      4  C   UNL     1       9.258  -1.046  -4.514  1.00  0.00     0.116 C 
BRANCH   4   5
ATOM      5  N   UNL     1       8.059  -1.571  -5.137  1.00  0.00    -0.355 N 
ATOM      6  C   UNL     1       6.820  -1.808  -4.627  1.00  0.00     0.230 C 
ATOM      7  O   UNL     1       6.034  -2.401  -5.366  1.00  0.00    -0.274 OA
ATOM      8  H   UNL     1       8.157  -1.793  -6.091  1.00  0.00     0.163 HD
BRANCH   6   9
ATOM      9  C   UNL     1       6.482  -1.341  -3.216  1.00  0.00     0.136 C 
ATOM     10  C   UNL     1       2.314  -0.579  -2.276  1.00  0.00     0.161 A 
ATOM     11  C   UNL     1       3.283  -0.718  -1.275  1.00  0.00     0.064 A 
ATOM     12  C   UNL     1       2.700  -0.616  -3.620  1.00  0.00     0.161 A 
ATOM     13  C   UNL     1       4.628  -0.904  -1.599  1.00  0.00     0.048 A 
ATOM     14  C   UNL     1       4.058  -0.801  -3.930  1.00  0.00     0.056 A 
ATOM     15  C   UNL     1       5.024  -1.010  -2.937  1.00  0.00    -0.016 A 
ATOM     16  C   UNL     1       5.624  -1.036  -0.495  1.00  0.00     0.254 C 
ATOM     17  N   UNL     1       6.831  -1.656  -0.814  1.00  0.00    -0.333 N 
ATOM     18  O   UNL     1       5.341  -0.645   0.635  1.00  0.00    -0.269 OA
ATOM     19  C   UNL     1       6.997  -2.328  -2.122  1.00  0.00     0.132 C 
ATOM     20  C   UNL     1       7.810  -1.869   0.237  1.00  0.00     0.147 C 
BRANCH  10  21
ATOM     21  O   UNL     1       0.997  -0.556  -1.907  1.00  0.00    -0.490 OA
BRANCH  21  22
ATOM     22  C   UNL     1       0.619   0.584  -1.128  1.00  0.00     0.226 C 
ATOM     23  C   UNL     1       0.596   0.266   0.358  1.00  0.00     0.049 C 
ENDBRANCH  21  22
ENDBRANCH  10  21
BRANCH  12  24
ATOM     24  O   UNL     1       1.937  -0.519  -4.750  1.00  0.00    -0.490 OA
BRANCH  24  25
ATOM     25  C   UNL     1       0.525  -0.384  -4.676  1.00  0.00     0.226 C 
ATOM     26  C   UNL     1      -0.154  -1.733  -4.514  1.00  0.00     0.049 C 
ENDBRANCH  24  25
ENDBRANCH  12  24
BRANCH  19  27
ATOM     27  C   UNL     1       6.366  -3.732  -2.140  1.00  0.00    -0.020 A 
ATOM     28  C   UNL     1       6.603  -4.598  -3.215  1.00  0.00     0.010 A 
ATOM     29  C   UNL     1       5.527  -4.206  -1.114  1.00  0.00     0.056 A 
ATOM     30  C   UNL     1       5.951  -5.833  -3.305  1.00  0.00     0.051 A 
ATOM     31  C   UNL     1       4.886  -5.452  -1.195  1.00  0.00     0.157 A 
ATOM     32  C   UNL     1       5.077  -6.271  -2.307  1.00  0.00     0.160 A 
BRANCH  31  33
ATOM     33  O   UNL     1       4.071  -5.820  -0.159  1.00  0.00    -0.504 OA
ATOM     34  H   UNL     1       3.628  -6.645  -0.182  1.00  0.00     0.293 HD
ENDBRANCH  31  33
BRANCH  32  35
ATOM     35  O   UNL     1       4.513  -7.486  -2.580  1.00  0.00    -0.493 OA
ATOM     36  C   UNL     1       3.660  -8.059  -1.602  1.00  0.00     0.278 C 
ENDBRANCH  32  35
ENDBRANCH  19  27
ENDBRANCH   6   9
ENDBRANCH   4   5
ENDBRANCH   3   4
ENDBRANCH   2   3
ENDBRANCH   1   2
BRANCH   1  37
ATOM     37  C   UNL     1      12.186  -0.572  -6.579  1.00  0.00     0.021 C 
BRANCH  37  38
ATOM     38  C   UNL     1      13.512  -1.260  -6.282  1.00  0.00     0.116 C 
BRANCH  38  39
ATOM     39  N   UNL     1      14.054  -1.935  -7.449  1.00  0.00    -0.352 N 
ATOM     40  C   UNL     1      15.318  -1.864  -7.977  1.00  0.00     0.251 C 
ATOM     41  H   UNL     1      13.427  -2.525  -7.927  1.00  0.00     0.163 HD
ATOM     42  O   UNL     1      15.548  -2.355  -9.080  1.00  0.00    -0.269 OA
BRANCH  40  43
ATOM     43  C   UNL     1      16.395  -1.181  -7.227  1.00  0.00     0.039 A 
ATOM     44  C   UNL     1      17.277  -0.349  -7.919  1.00  0.00     0.014 A 
ATOM     45  C   UNL     1      16.544  -1.370  -5.850  1.00  0.00     0.014 A 
ATOM     46  C   UNL     1      18.286   0.321  -7.223  1.00  0.00     0.010 A 
ATOM     47  C   UNL     1      17.493  -0.635  -5.146  1.00  0.00     0.010 A 
ATOM     48  C   UNL     1      18.390   0.200  -5.827  1.00  0.00    -0.014 A 
BRANCH  48  49
ATOM     49  C   UNL     1      19.457   0.908  -5.074  1.00  0.00     0.031 A 
ATOM     50  C   UNL     1      20.505   0.120  -4.331  1.00  0.00     0.074 A 
ATOM     51  C   UNL     1      19.467   2.255  -5.028  1.00  0.00     0.049 A 
ATOM     52  N   UNL     1      21.507   0.554  -3.609  1.00  0.00    -0.248 NA
ATOM     53  C   UNL     1      20.400  -1.348  -4.384  1.00  0.00     0.031 C 
ATOM     54  C   UNL     1      18.486   3.132  -5.672  1.00  0.00     0.029 A 
ATOM     55  N   UNL     1      20.336   3.123  -4.416  1.00  0.00    -0.354 N 
ATOM     56  C   UNL     1      22.139  -0.581  -3.115  1.00  0.00     0.074 A 
ATOM     57  C   UNL     1      21.371  -1.721  -3.564  1.00  0.00     0.031 C 
ATOM     58  C   UNL     1      18.831   4.412  -5.453  1.00  0.00     0.029 A 
ATOM     59  C   UNL     1      20.031   4.448  -4.623  1.00  0.00     0.049 A 
ATOM     60  H   UNL     1      21.106   2.825  -3.880  1.00  0.00     0.167 HD
ATOM     61  C   UNL     1      23.271  -0.673  -2.376  1.00  0.00     0.031 A 
ATOM     62  C   UNL     1      20.649   5.566  -4.196  1.00  0.00     0.031 A 
ATOM     63  C   UNL     1      24.038   0.463  -1.937  1.00  0.00     0.049 A 
ATOM     64  C   UNL     1      21.900   5.441  -3.369  1.00  0.00     0.074 A 
ATOM     65  C   UNL     1      25.223   0.477  -1.224  1.00  0.00     0.029 A 
ATOM     66  N   UNL     1      23.696   1.786  -2.170  1.00  0.00    -0.354 N 
ATOM     67  N   UNL     1      22.515   4.356  -2.962  1.00  0.00    -0.248 NA
ATOM     68  C   UNL     1      22.552   6.693  -2.963  1.00  0.00     0.031 C 
ATOM     69  C   UNL     1      25.568   1.810  -0.977  1.00  0.00     0.029 A 
ATOM     70  C   UNL     1      24.636   2.626  -1.597  1.00  0.00     0.049 A 
ATOM     71  H   UNL     1      22.901   2.085  -2.669  1.00  0.00     0.167 HD
ATOM     72  C   UNL     1      23.648   4.795  -2.283  1.00  0.00     0.074 A 
ATOM     73  C   UNL     1      23.637   6.242  -2.348  1.00  0.00     0.031 C 
ATOM     74  C   UNL     1      24.612   4.066  -1.668  1.00  0.00     0.031 A 
BRANCH  61  75
ATOM     75  C   UNL     1      23.741  -2.054  -1.992  1.00  0.00    -0.014 A 
ATOM     76  C   UNL     1      24.220  -2.957  -2.960  1.00  0.00     0.010 A 
ATOM     77  C   UNL     1      23.729  -2.446  -0.641  1.00  0.00     0.010 A 
ATOM     78  C   UNL     1      24.629  -4.241  -2.592  1.00  0.00     0.020 A 
ATOM     79  C   UNL     1      24.170  -3.718  -0.264  1.00  0.00     0.020 A 
ATOM     80  C   UNL     1      24.598  -4.615  -1.246  1.00  0.00     0.054 A 
BRANCH  80  81
ATOM     81  S   UNL     1      25.149  -6.283  -0.795  1.00  0.00     0.124 S 
ATOM     82  O   UNL     1      24.056  -7.108  -1.307  1.00  0.00    -0.237 OA
ATOM     83  O   UNL     1      26.416  -6.406  -1.511  1.00  0.00    -0.237 OA
ATOM     84  O   UNL     1      25.260  -6.231   0.660  1.00  0.00    -0.744 OA
ENDBRANCH  80  81
ENDBRANCH  61  75
BRANCH  62  85
ATOM     85  C   UNL     1      20.110   6.903  -4.569  1.00  0.00    -0.014 A 
ATOM     86  C   UNL     1      20.807   7.731  -5.468  1.00  0.00     0.010 A 
ATOM     87  C   UNL     1      18.889   7.353  -4.035  1.00  0.00     0.010 A 
ATOM     88  C   UNL     1      20.305   8.991  -5.807  1.00  0.00     0.020 A 
ATOM     89  C   UNL     1      18.368   8.599  -4.396  1.00  0.00     0.020 A 
ATOM     90  C   UNL     1      19.087   9.416  -5.271  1.00  0.00     0.054 A 
BRANCH  90  91
ATOM     91  S   UNL     1      18.431  11.034  -5.764  1.00  0.00     0.124 S 
ATOM     92  O   UNL     1      19.328  11.951  -5.068  1.00  0.00    -0.237 OA
ATOM     93  O   UNL     1      18.565  10.997  -7.219  1.00  0.00    -0.237 OA
ATOM     94  O   UNL     1      17.055  11.009  -5.273  1.00  0.00    -0.744 OA
ENDBRANCH  90  91
ENDBRANCH  62  85
BRANCH  74  95
ATOM     95  C   UNL     1      25.767   4.819  -1.059  1.00  0.00    -0.014 A 
ATOM     96  C   UNL     1      25.605   5.620   0.085  1.00  0.00     0.010 A 
ATOM     97  C   UNL     1      27.047   4.695  -1.631  1.00  0.00     0.010 A 
ATOM     98  C   UNL     1      26.691   6.322   0.615  1.00  0.00     0.020 A 
ATOM     99  C   UNL     1      28.142   5.367  -1.084  1.00  0.00     0.020 A 
ATOM    100  C   UNL     1      27.952   6.194   0.025  1.00  0.00     0.054 A 
BRANCH 100 101
ATOM    101  S   UNL     1      29.349   7.101   0.741  1.00  0.00     0.124 S 
ATOM    102  O   UNL     1      29.058   8.474   0.338  1.00  0.00    -0.237 OA
ATOM    103  O   UNL     1      29.213   6.823   2.169  1.00  0.00    -0.237 OA
ATOM    104  O   UNL     1      30.518   6.499   0.103  1.00  0.00    -0.744 OA
ENDBRANCH 100 101
ENDBRANCH  74  95
ENDBRANCH  48  49
ENDBRANCH  40  43
ENDBRANCH  38  39
ENDBRANCH  37  38
ENDBRANCH   1  37
TORSDOF 23
