REMARK SMILES O=CN[C@@H](CCS[C@@H]1CCO[C@]2(CCOC2)C1)C(=O)NCCCCCCNC(=O)c1ccc(-c2c3nc(c(-c4ccc(S(=O)(=O)[O-])cc4)c4ccc([nH]4)c(-c4ccc(S(=O)(=O)[O-])cc4)c4nc(c(-c5ccc(S(=O)(=O)[O-])cc5)c5ccc2[nH]5)C=C4)C=C3)cc1
REMARK SMILES IDX 23 1 22 2 21 3 20 4 18 5 19 6 4 8 3 9 1 10 2 11 5 13 6 14
REMARK SMILES IDX 7 15 8 16 9 17 17 18 10 19 12 20 11 21 13 22 16 23 14 24
REMARK SMILES IDX 15 25 24 26 25 27 26 28 27 29 28 30 29 32 30 33 31 34 89 35
REMARK SMILES IDX 32 36 88 37 33 38 34 39 35 40 82 41 36 42 87 43 81 44 83 45
REMARK SMILES IDX 37 46 86 47 80 48 79 49 38 51 68 52 49 53 67 54 50 55 53 56
REMARK SMILES IDX 66 57 84 58 51 59 52 60 65 62 85 63 54 64 39 65 40 66 48 67
REMARK SMILES IDX 41 68 47 69 42 70 43 71 44 72 45 73 46 74 69 75 70 76 78 77
REMARK SMILES IDX 71 78 77 79 72 80 73 81 74 82 75 83 76 84 55 85 56 86 64 87
REMARK SMILES IDX 57 88 63 89 58 90 59 91 60 92 61 93 62 94
REMARK H PARENT 20 7 3 12 27 31 83 50 53 61
REMARK Flexibility Score: inf
ROOT
ATOM      1  C   UNL     1       2.428  -5.222   3.179  1.00  0.00     0.002 C 
ENDROOT
BRANCH   1   2
ATOM      2  C   UNL     1       1.373  -4.110   3.192  1.00  0.00     0.021 C 
BRANCH   2   3
ATOM      3  C   UNL     1       1.873  -2.678   3.287  1.00  0.00     0.116 C 
BRANCH   3   4
ATOM      4  N   UNL     1       2.586  -2.287   2.093  1.00  0.00    -0.354 N 
ATOM      5  C   UNL     1       2.924  -1.012   1.765  1.00  0.00     0.242 C 
ATOM      6  O   UNL     1       2.761  -0.671   0.587  1.00  0.00    -0.273 OA
ATOM      7  H   UNL     1       2.848  -3.001   1.468  1.00  0.00     0.163 HD
BRANCH   5   8
ATOM      8  C   UNL     1       3.292   0.037   2.812  1.00  0.00     0.171 C 
BRANCH   8   9
ATOM      9  N   UNL     1       1.991   0.538   3.249  1.00  0.00    -0.347 N 
ATOM     10  O   UNL     1      -0.071   1.236   2.583  1.00  0.00    -0.279 OA
ATOM     11  C   UNL     1       1.126   1.137   2.365  1.00  0.00     0.337 C 
ATOM     12  H   UNL     1       1.729   0.444   4.194  1.00  0.00     0.164 HD
ENDBRANCH   8   9
BRANCH   8  13
ATOM     13  C   UNL     1       4.243  -0.352   3.954  1.00  0.00     0.046 C 
BRANCH  13  14
ATOM     14  C   UNL     1       5.120  -1.619   3.856  1.00  0.00     0.072 C 
BRANCH  14  15
ATOM     15  S   UNL     1       6.507  -1.637   2.675  1.00  0.00    -0.158 SA
BRANCH  15  16
ATOM     16  C   UNL     1       6.032  -2.872   1.367  1.00  0.00     0.052 C 
ATOM     17  C   UNL     1       7.254  -3.676   0.893  1.00  0.00     0.043 C 
ATOM     18  C   UNL     1       5.449  -2.253   0.098  1.00  0.00     0.052 C 
ATOM     19  C   UNL     1       8.164  -2.878  -0.050  1.00  0.00     0.162 C 
ATOM     20  C   UNL     1       6.412  -1.399  -0.735  1.00  0.00     0.095 C 
ATOM     21  O   UNL     1       7.460  -2.283  -1.151  1.00  0.00    -0.372 OA
ATOM     22  C   UNL     1       6.975  -0.102  -0.164  1.00  0.00     0.066 C 
ATOM     23  C   UNL     1       5.643  -0.808  -1.934  1.00  0.00     0.195 C 
ATOM     24  C   UNL     1       5.890   0.918  -0.390  1.00  0.00     0.163 C 
ATOM     25  O   UNL     1       5.206   0.521  -1.579  1.00  0.00    -0.378 OA
ENDBRANCH  15  16
ENDBRANCH  14  15
ENDBRANCH  13  14
ENDBRANCH   8  13
ENDBRANCH   5   8
ENDBRANCH   3   4
ENDBRANCH   2   3
ENDBRANCH   1   2
BRANCH   1  26
ATOM     26  C   UNL     1       3.450  -5.300   4.316  1.00  0.00     0.002 C 
BRANCH  26  27
ATOM     27  C   UNL     1       2.965  -5.072   5.745  1.00  0.00     0.021 C 
BRANCH  27  28
ATOM     28  C   UNL     1       1.722  -5.835   6.175  1.00  0.00     0.116 C 
BRANCH  28  29
ATOM     29  N   UNL     1       1.852  -7.276   6.127  1.00  0.00    -0.352 N 
ATOM     30  C   UNL     1       1.206  -8.198   6.921  1.00  0.00     0.251 C 
ATOM     31  H   UNL     1       2.470  -7.638   5.451  1.00  0.00     0.163 HD
ATOM     32  O   UNL     1       1.453  -9.393   6.807  1.00  0.00    -0.269 OA
BRANCH  30  33
ATOM     33  C   UNL     1       0.251  -7.724   7.954  1.00  0.00     0.039 A 
ATOM     34  C   UNL     1       0.396  -8.190   9.262  1.00  0.00     0.014 A 
ATOM     35  C   UNL     1      -0.749  -6.795   7.649  1.00  0.00     0.014 A 
ATOM     36  C   UNL     1      -0.421  -7.679  10.274  1.00  0.00     0.010 A 
ATOM     37  C   UNL     1      -1.510  -6.231   8.671  1.00  0.00     0.010 A 
ATOM     38  C   UNL     1      -1.359  -6.671   9.994  1.00  0.00    -0.014 A 
BRANCH  38  39
ATOM     39  C   UNL     1      -2.189  -6.081  11.077  1.00  0.00     0.031 A 
ATOM     40  C   UNL     1      -3.685  -6.263  11.074  1.00  0.00     0.074 A 
ATOM     41  C   UNL     1      -1.603  -5.349  12.046  1.00  0.00     0.049 A 
ATOM     42  N   UNL     1      -4.568  -5.834  11.939  1.00  0.00    -0.248 NA
ATOM     43  C   UNL     1      -4.266  -7.000   9.940  1.00  0.00     0.031 C 
ATOM     44  C   UNL     1      -0.172  -5.045  12.131  1.00  0.00     0.029 A 
ATOM     45  N   UNL     1      -2.138  -4.728  13.148  1.00  0.00    -0.354 N 
ATOM     46  C   UNL     1      -5.806  -6.235  11.448  1.00  0.00     0.074 A 
ATOM     47  C   UNL     1      -5.564  -6.895  10.184  1.00  0.00     0.031 C 
ATOM     48  C   UNL     1       0.061  -4.325  13.241  1.00  0.00     0.029 A 
ATOM     49  C   UNL     1      -1.203  -4.094  13.933  1.00  0.00     0.049 A 
ATOM     50  H   UNL     1      -3.100  -4.735  13.356  1.00  0.00     0.167 HD
ATOM     51  C   UNL     1      -7.031  -6.090  12.008  1.00  0.00     0.031 A 
ATOM     52  C   UNL     1      -1.345  -3.410  15.086  1.00  0.00     0.031 A 
ATOM     53  C   UNL     1      -7.268  -5.453  13.275  1.00  0.00     0.049 A 
ATOM     54  C   UNL     1      -2.711  -3.290  15.705  1.00  0.00     0.074 A 
ATOM     55  C   UNL     1      -8.464  -5.316  13.959  1.00  0.00     0.029 A 
ATOM     56  N   UNL     1      -6.292  -4.846  14.051  1.00  0.00    -0.354 N 
ATOM     57  N   UNL     1      -3.857  -3.749  15.263  1.00  0.00    -0.248 NA
ATOM     58  C   UNL     1      -2.798  -2.576  16.986  1.00  0.00     0.031 C 
ATOM     59  C   UNL     1      -8.218  -4.588  15.129  1.00  0.00     0.029 A 
ATOM     60  C   UNL     1      -6.860  -4.317  15.197  1.00  0.00     0.049 A 
ATOM     61  H   UNL     1      -5.336  -4.799  13.820  1.00  0.00     0.167 HD
ATOM     62  C   UNL     1      -4.799  -3.398  16.224  1.00  0.00     0.074 A 
ATOM     63  C   UNL     1      -4.085  -2.708  17.278  1.00  0.00     0.031 C 
ATOM     64  C   UNL     1      -6.136  -3.627  16.233  1.00  0.00     0.031 A 
BRANCH  51  65
ATOM     65  C   UNL     1      -8.211  -6.639  11.250  1.00  0.00    -0.014 A 
ATOM     66  C   UNL     1      -8.410  -8.026  11.123  1.00  0.00     0.010 A 
ATOM     67  C   UNL     1      -9.155  -5.759  10.690  1.00  0.00     0.010 A 
ATOM     68  C   UNL     1      -9.507  -8.522  10.415  1.00  0.00     0.020 A 
ATOM     69  C   UNL     1     -10.269  -6.252  10.004  1.00  0.00     0.020 A 
ATOM     70  C   UNL     1     -10.428  -7.631   9.857  1.00  0.00     0.054 A 
BRANCH  70  71
ATOM     71  S   UNL     1     -11.857  -8.304   8.963  1.00  0.00     0.124 S 
ATOM     72  O   UNL     1     -11.245  -8.756   7.716  1.00  0.00    -0.237 OA
ATOM     73  O   UNL     1     -12.323  -9.364   9.854  1.00  0.00    -0.237 OA
ATOM     74  O   UNL     1     -12.757  -7.160   8.837  1.00  0.00    -0.744 OA
ENDBRANCH  70  71
ENDBRANCH  51  65
BRANCH  52  75
ATOM     75  C   UNL     1      -0.153  -2.811  15.747  1.00  0.00    -0.014 A 
ATOM     76  C   UNL     1       0.358  -3.361  16.936  1.00  0.00     0.010 A 
ATOM     77  C   UNL     1       0.482  -1.689  15.184  1.00  0.00     0.010 A 
ATOM     78  C   UNL     1       1.471  -2.789  17.560  1.00  0.00     0.020 A 
ATOM     79  C   UNL     1       1.611  -1.131  15.791  1.00  0.00     0.020 A 
ATOM     80  C   UNL     1       2.091  -1.677  16.983  1.00  0.00     0.054 A 
BRANCH  80  81
ATOM     81  S   UNL     1       3.567  -0.983  17.778  1.00  0.00     0.124 S 
ATOM     82  O   UNL     1       2.991  -0.262  18.909  1.00  0.00    -0.237 OA
ATOM     83  O   UNL     1       4.338  -2.177  18.114  1.00  0.00    -0.237 OA
ATOM     84  O   UNL     1       4.154  -0.147  16.733  1.00  0.00    -0.744 OA
ENDBRANCH  80  81
ENDBRANCH  52  75
BRANCH  64  85
ATOM     85  C   UNL     1      -6.908  -3.148  17.433  1.00  0.00    -0.014 A 
ATOM     86  C   UNL     1      -7.155  -1.779  17.639  1.00  0.00     0.010 A 
ATOM     87  C   UNL     1      -7.426  -4.085  18.346  1.00  0.00     0.010 A 
ATOM     88  C   UNL     1      -7.872  -1.353  18.760  1.00  0.00     0.020 A 
ATOM     89  C   UNL     1      -8.165  -3.664  19.453  1.00  0.00     0.020 A 
ATOM     90  C   UNL     1      -8.368  -2.298  19.663  1.00  0.00     0.054 A 
BRANCH  90  91
ATOM     91  S   UNL     1      -9.317  -1.724  21.098  1.00  0.00     0.124 S 
ATOM     92  O   UNL     1      -8.264  -1.216  21.974  1.00  0.00    -0.237 OA
ATOM     93  O   UNL     1     -10.196  -0.710  20.519  1.00  0.00    -0.237 OA
ATOM     94  O   UNL     1      -9.994  -2.929  21.570  1.00  0.00    -0.744 OA
ENDBRANCH  90  91
ENDBRANCH  64  85
ENDBRANCH  38  39
ENDBRANCH  30  33
ENDBRANCH  28  29
ENDBRANCH  27  28
ENDBRANCH  26  27
ENDBRANCH   1  26
TORSDOF 21
