REMARK SMILES CC[C@](C)(NC(=O)CNC(=O)c1cccc(Cl)c1)C(=O)NCCCCCCNC(=O)c1ccc(-c2c3nc(c(-c4ccc(S(=O)(=O)[O-])cc4)c4ccc([nH]4)c(-c4ccc(S(=O)(=O)[O-])cc4)c4nc(c(-c5ccc(S(=O)(=O)[O-])cc5)c5ccc2[nH]5)C=C4)C=C3)cc1
REMARK SMILES IDX 24 1 23 2 22 3 21 4 19 5 20 6 3 8 4 9 2 10 1 11 5 12 6 13
REMARK SMILES IDX 7 15 8 16 9 17 10 18 11 20 12 21 13 22 18 23 14 24 16 25
REMARK SMILES IDX 15 26 17 27 25 28 26 29 27 30 28 31 29 32 30 34 31 35 32 36
REMARK SMILES IDX 90 37 33 38 89 39 34 40 35 41 36 42 83 43 37 44 88 45 82 46
REMARK SMILES IDX 84 47 38 48 87 49 81 50 80 51 39 53 69 54 50 55 68 56 51 57
REMARK SMILES IDX 54 58 67 59 85 60 52 61 53 62 66 64 86 65 55 66 40 67 41 68
REMARK SMILES IDX 49 69 42 70 48 71 43 72 44 73 45 74 46 75 47 76 70 77 71 78
REMARK SMILES IDX 79 79 72 80 78 81 73 82 74 83 75 84 76 85 77 86 56 87 57 88
REMARK SMILES IDX 65 89 58 90 64 91 59 92 60 93 61 94 62 95 63 96
REMARK H PARENT 21 7 5 14 9 19 28 33 84 52 54 63
REMARK Flexibility Score: inf
ROOT
ATOM      1  C   UNL     1       4.182  -5.710   2.744  1.00  0.00     0.002 C 
ENDROOT
BRANCH   1   2
ATOM      2  C   UNL     1       2.664  -5.602   2.608  1.00  0.00     0.021 C 
BRANCH   2   3
ATOM      3  C   UNL     1       2.022  -4.274   3.027  1.00  0.00     0.116 C 
BRANCH   3   4
ATOM      4  N   UNL     1       2.560  -3.061   2.417  1.00  0.00    -0.354 N 
ATOM      5  C   UNL     1       2.008  -2.167   1.532  1.00  0.00     0.245 C 
ATOM      6  O   UNL     1       2.492  -1.037   1.459  1.00  0.00    -0.272 OA
ATOM      7  H   UNL     1       3.482  -2.846   2.688  1.00  0.00     0.163 HD
BRANCH   5   8
ATOM      8  C   UNL     1       0.708  -2.464   0.780  1.00  0.00     0.116 C 
ATOM      9  C   UNL     1       0.473  -1.572  -0.461  1.00  0.00     0.045 C 
BRANCH   8  10
ATOM     10  C   UNL     1      -0.421  -2.176   1.827  1.00  0.00     0.035 C 
ATOM     11  C   UNL     1      -0.341  -0.774   2.468  1.00  0.00     0.007 C 
ENDBRANCH   8  10
BRANCH   8  12
ATOM     12  N   UNL     1       0.749  -3.857   0.300  1.00  0.00    -0.340 N 
ATOM     13  C   UNL     1       1.680  -4.425  -0.541  1.00  0.00     0.240 C 
ATOM     14  H   UNL     1       0.029  -4.449   0.617  1.00  0.00     0.164 HD
ATOM     15  O   UNL     1       1.287  -5.362  -1.245  1.00  0.00    -0.273 OA
BRANCH  13  16
ATOM     16  C   UNL     1       3.198  -4.045  -0.524  1.00  0.00     0.216 C 
BRANCH  16  17
ATOM     17  N   UNL     1       3.720  -2.853  -1.177  1.00  0.00    -0.343 N 
ATOM     18  C   UNL     1       4.772  -2.021  -0.837  1.00  0.00     0.251 C 
ATOM     19  H   UNL     1       3.243  -2.595  -1.999  1.00  0.00     0.164 HD
ATOM     20  O   UNL     1       5.267  -1.306  -1.708  1.00  0.00    -0.269 OA
BRANCH  18  21
ATOM     21  C   UNL     1       5.265  -1.845   0.554  1.00  0.00     0.041 A 
ATOM     22  C   UNL     1       5.916  -2.833   1.293  1.00  0.00     0.014 A 
ATOM     23  C   UNL     1       5.072  -0.581   1.131  1.00  0.00     0.034 A 
ATOM     24  C   UNL     1       6.236  -2.598   2.642  1.00  0.00     0.002 A 
ATOM     25  C   UNL     1       5.331  -0.375   2.486  1.00  0.00     0.041 A 
ATOM     26  C   UNL     1       5.895  -1.389   3.253  1.00  0.00     0.020 A 
ATOM     27  Cl  UNL     1       4.871   1.105   3.235  1.00  0.00    -0.084 Cl
ENDBRANCH  18  21
ENDBRANCH  16  17
ENDBRANCH  13  16
ENDBRANCH   8  12
ENDBRANCH   5   8
ENDBRANCH   3   4
ENDBRANCH   2   3
ENDBRANCH   1   2
BRANCH   1  28
ATOM     28  C   UNL     1       4.744  -5.382   4.123  1.00  0.00     0.002 C 
BRANCH  28  29
ATOM     29  C   UNL     1       4.200  -6.247   5.251  1.00  0.00     0.021 C 
BRANCH  29  30
ATOM     30  C   UNL     1       4.395  -7.740   5.038  1.00  0.00     0.116 C 
BRANCH  30  31
ATOM     31  N   UNL     1       5.799  -8.123   5.043  1.00  0.00    -0.352 N 
ATOM     32  C   UNL     1       6.402  -9.114   5.780  1.00  0.00     0.251 C 
ATOM     33  H   UNL     1       6.389  -7.610   4.445  1.00  0.00     0.163 HD
ATOM     34  O   UNL     1       7.626  -9.204   5.820  1.00  0.00    -0.269 OA
BRANCH  32  35
ATOM     35  C   UNL     1       5.551 -10.049   6.544  1.00  0.00     0.039 A 
ATOM     36  C   UNL     1       5.847 -10.305   7.883  1.00  0.00     0.014 A 
ATOM     37  C   UNL     1       4.429 -10.626   5.942  1.00  0.00     0.014 A 
ATOM     38  C   UNL     1       4.984 -11.106   8.634  1.00  0.00     0.010 A 
ATOM     39  C   UNL     1       3.523 -11.340   6.716  1.00  0.00     0.010 A 
ATOM     40  C   UNL     1       3.801 -11.607   8.064  1.00  0.00    -0.014 A 
BRANCH  40  41
ATOM     41  C   UNL     1       2.869 -12.461   8.843  1.00  0.00     0.031 A 
ATOM     42  C   UNL     1       2.616 -13.879   8.398  1.00  0.00     0.074 A 
ATOM     43  C   UNL     1       2.222 -11.960   9.915  1.00  0.00     0.049 A 
ATOM     44  N   UNL     1       1.794 -14.767   8.896  1.00  0.00    -0.248 NA
ATOM     45  C   UNL     1       3.365 -14.354   7.220  1.00  0.00     0.031 C 
ATOM     46  C   UNL     1       2.347 -10.591  10.421  1.00  0.00     0.029 A 
ATOM     47  N   UNL     1       1.325 -12.547  10.771  1.00  0.00    -0.354 N 
ATOM     48  C   UNL     1       1.925 -15.894   8.093  1.00  0.00     0.074 A 
ATOM     49  C   UNL     1       2.845 -15.556   7.031  1.00  0.00     0.031 C 
ATOM     50  C   UNL     1       1.577 -10.453  11.513  1.00  0.00     0.029 A 
ATOM     51  C   UNL     1       0.875 -11.708  11.764  1.00  0.00     0.049 A 
ATOM     52  H   UNL     1       1.031 -13.483  10.684  1.00  0.00     0.167 HD
ATOM     53  C   UNL     1       1.361 -17.115   8.243  1.00  0.00     0.031 A 
ATOM     54  C   UNL     1      -0.007 -11.924  12.760  1.00  0.00     0.031 A 
ATOM     55  C   UNL     1       0.460 -17.457   9.310  1.00  0.00     0.049 A 
ATOM     56  C   UNL     1      -0.629 -13.290  12.900  1.00  0.00     0.074 A 
ATOM     57  C   UNL     1      -0.150 -18.672   9.565  1.00  0.00     0.029 A 
ATOM     58  N   UNL     1       0.053 -16.586  10.309  1.00  0.00    -0.354 N 
ATOM     59  N   UNL     1      -0.460 -14.354  12.150  1.00  0.00    -0.248 NA
ATOM     60  C   UNL     1      -1.542 -13.490  14.034  1.00  0.00     0.031 C 
ATOM     61  C   UNL     1      -0.958 -18.525  10.697  1.00  0.00     0.029 A 
ATOM     62  C   UNL     1      -0.800 -17.236  11.182  1.00  0.00     0.049 A 
ATOM     63  H   UNL     1       0.331 -15.644  10.386  1.00  0.00     0.167 HD
ATOM     64  C   UNL     1      -1.213 -15.360  12.749  1.00  0.00     0.074 A 
ATOM     65  C   UNL     1      -1.823 -14.781  13.927  1.00  0.00     0.031 C 
ATOM     66  C   UNL     1      -1.382 -16.648  12.361  1.00  0.00     0.031 A 
BRANCH  53  67
ATOM     67  C   UNL     1       1.727 -18.180   7.243  1.00  0.00    -0.014 A 
ATOM     68  C   UNL     1       3.022 -18.729   7.221  1.00  0.00     0.010 A 
ATOM     69  C   UNL     1       0.758 -18.677   6.353  1.00  0.00     0.010 A 
ATOM     70  C   UNL     1       3.351 -19.734   6.309  1.00  0.00     0.020 A 
ATOM     71  C   UNL     1       1.074 -19.704   5.459  1.00  0.00     0.020 A 
ATOM     72  C   UNL     1       2.373 -20.218   5.436  1.00  0.00     0.054 A 
BRANCH  72  73
ATOM     73  S   UNL     1       2.817 -21.559   4.299  1.00  0.00     0.124 S 
ATOM     74  O   UNL     1       3.692 -20.872   3.351  1.00  0.00    -0.237 OA
ATOM     75  O   UNL     1       3.477 -22.519   5.180  1.00  0.00    -0.237 OA
ATOM     76  O   UNL     1       1.532 -21.994   3.757  1.00  0.00    -0.744 OA
ENDBRANCH  72  73
ENDBRANCH  53  67
BRANCH  54  77
ATOM     77  C   UNL     1      -0.358 -10.830  13.709  1.00  0.00    -0.014 A 
ATOM     78  C   UNL     1       0.008 -10.905  15.065  1.00  0.00     0.010 A 
ATOM     79  C   UNL     1      -1.097  -9.718  13.265  1.00  0.00     0.010 A 
ATOM     80  C   UNL     1      -0.399  -9.917  15.967  1.00  0.00     0.020 A 
ATOM     81  C   UNL     1      -1.476  -8.710  14.156  1.00  0.00     0.020 A 
ATOM     82  C   UNL     1      -1.144  -8.828  15.506  1.00  0.00     0.054 A 
BRANCH  82  83
ATOM     83  S   UNL     1      -1.662  -7.555  16.691  1.00  0.00     0.124 S 
ATOM     84  O   UNL     1      -2.727  -8.236  17.420  1.00  0.00    -0.237 OA
ATOM     85  O   UNL     1      -0.436  -7.306  17.443  1.00  0.00    -0.237 OA
ATOM     86  O   UNL     1      -2.095  -6.451  15.836  1.00  0.00    -0.744 OA
ENDBRANCH  82  83
ENDBRANCH  54  77
BRANCH  66  87
ATOM     87  C   UNL     1      -2.202 -17.541  13.254  1.00  0.00    -0.014 A 
ATOM     88  C   UNL     1      -3.595 -17.388  13.372  1.00  0.00     0.010 A 
ATOM     89  C   UNL     1      -1.564 -18.581  13.956  1.00  0.00     0.010 A 
ATOM     90  C   UNL     1      -4.327 -18.232  14.212  1.00  0.00     0.020 A 
ATOM     91  C   UNL     1      -2.297 -19.446  14.770  1.00  0.00     0.020 A 
ATOM     92  C   UNL     1      -3.672 -19.253  14.908  1.00  0.00     0.054 A 
BRANCH  92  93
ATOM     93  S   UNL     1      -4.649 -20.350  15.971  1.00  0.00     0.124 S 
ATOM     94  O   UNL     1      -4.950 -19.483  17.106  1.00  0.00    -0.237 OA
ATOM     95  O   UNL     1      -5.787 -20.691  15.120  1.00  0.00    -0.237 OA
ATOM     96  O   UNL     1      -3.739 -21.457  16.257  1.00  0.00    -0.744 OA
ENDBRANCH  92  93
ENDBRANCH  66  87
ENDBRANCH  40  41
ENDBRANCH  32  35
ENDBRANCH  30  31
ENDBRANCH  29  30
ENDBRANCH  28  29
ENDBRANCH   1  28
TORSDOF 21
