REMARK SMILES NS(=O)(=O)c1ccc(-c2coc(=O)n2-c2ccc(C(=O)NCCCCCCNC(=O)c3ccc(-c4c5nc(c(-c6ccc(S(=O)(=O)[O-])cc6)c6ccc([nH]6)c(-c6ccc(S(=O)(=O)[O-])cc6)c6nc(c(-c7ccc(S(=O)(=O)[O-])cc7)c7ccc4[nH]7)C=C6)C=C5)cc3)cc2)cc1
REMARK SMILES IDX 24 1 23 2 22 3 21 4 19 5 20 6 18 8 15 9 16 10 92 11 17 12
REMARK SMILES IDX 91 13 14 14 9 15 10 16 11 17 12 18 13 19 8 20 5 21 6 22
REMARK SMILES IDX 94 23 7 24 93 25 2 26 3 27 4 28 1 29 25 32 26 33 27 34 28 35
REMARK SMILES IDX 29 36 30 38 31 39 32 40 90 41 33 42 89 43 34 44 35 45 36 46
REMARK SMILES IDX 83 47 37 48 88 49 82 50 84 51 38 52 87 53 81 54 80 55 39 57
REMARK SMILES IDX 69 58 50 59 68 60 51 61 54 62 67 63 85 64 52 65 53 66 66 68
REMARK SMILES IDX 86 69 55 70 40 71 41 72 49 73 42 74 48 75 43 76 44 77 45 78
REMARK SMILES IDX 46 79 47 80 70 81 71 82 79 83 72 84 78 85 73 86 74 87 75 88
REMARK SMILES IDX 76 89 77 90 56 91 57 92 65 93 58 94 64 95 59 96 60 97 61 98
REMARK SMILES IDX 62 99 63 100
REMARK H PARENT 21 7 1 30 1 31 28 37 84 56 54 67
REMARK Flexibility Score: inf
ROOT
ATOM      1  C   UNL     1       5.593   2.617  -8.989  1.00  0.00     0.002 C 
ENDROOT
BRANCH   1   2
ATOM      2  C   UNL     1       4.907   3.466  -7.909  1.00  0.00     0.021 C 
BRANCH   2   3
ATOM      3  C   UNL     1       5.100   2.920  -6.493  1.00  0.00     0.116 C 
BRANCH   3   4
ATOM      4  N   UNL     1       6.411   3.281  -5.987  1.00  0.00    -0.352 N 
ATOM      5  C   UNL     1       6.849   4.205  -5.074  1.00  0.00     0.251 C 
ATOM      6  O   UNL     1       8.061   4.240  -4.851  1.00  0.00    -0.269 OA
ATOM      7  H   UNL     1       7.140   2.751  -6.382  1.00  0.00     0.163 HD
BRANCH   5   8
ATOM      8  C   UNL     1       5.943   5.091  -4.285  1.00  0.00     0.039 A 
ATOM      9  C   UNL     1       4.292   6.552  -2.534  1.00  0.00     0.053 A 
ATOM     10  C   UNL     1       5.633   6.348  -2.211  1.00  0.00     0.028 A 
ATOM     11  C   UNL     1       3.809   6.116  -3.770  1.00  0.00     0.028 A 
ATOM     12  C   UNL     1       6.440   5.591  -3.067  1.00  0.00     0.016 A 
ATOM     13  C   UNL     1       4.650   5.450  -4.665  1.00  0.00     0.016 A 
BRANCH   9  14
ATOM     14  N   UNL     1       3.413   7.156  -1.617  1.00  0.00    -0.242 N 
ATOM     15  C   UNL     1       2.224   6.674  -1.145  1.00  0.00     0.095 A 
ATOM     16  C   UNL     1       1.697   7.654  -0.420  1.00  0.00     0.228 A 
ATOM     17  O   UNL     1       2.482   8.804  -0.351  1.00  0.00    -0.415 OA
ATOM     18  C   UNL     1       3.597   8.438  -1.107  1.00  0.00     0.424 A 
ATOM     19  O   UNL     1       4.556   9.180  -1.268  1.00  0.00    -0.223 OA
BRANCH  15  20
ATOM     20  C   UNL     1       1.761   5.290  -1.250  1.00  0.00     0.002 A 
ATOM     21  C   UNL     1       0.943   2.613  -1.449  1.00  0.00     0.082 A 
ATOM     22  C   UNL     1       2.230   2.907  -1.003  1.00  0.00     0.022 A 
ATOM     23  C   UNL     1       0.050   3.640  -1.768  1.00  0.00     0.022 A 
ATOM     24  C   UNL     1       2.630   4.240  -0.899  1.00  0.00     0.012 A 
ATOM     25  C   UNL     1       0.461   4.976  -1.669  1.00  0.00     0.012 A 
BRANCH  21  26
ATOM     26  S   UNL     1       0.440   0.927  -1.620  1.00  0.00     0.238 S 
ATOM     27  O   UNL     1       1.181   0.341  -2.722  1.00  0.00    -0.207 OA
ATOM     28  O   UNL     1      -0.988   0.838  -1.503  1.00  0.00    -0.207 OA
BRANCH  26  29
ATOM     29  N   UNL     1       1.041   0.195  -0.228  1.00  0.00    -0.225 NA
ATOM     30  H   UNL     1       0.799  -0.796  -0.233  1.00  0.00     0.137 HD
ATOM     31  H   UNL     1       0.633   0.641   0.594  1.00  0.00     0.137 HD
ENDBRANCH  26  29
ENDBRANCH  21  26
ENDBRANCH  15  20
ENDBRANCH   9  14
ENDBRANCH   5   8
ENDBRANCH   3   4
ENDBRANCH   2   3
ENDBRANCH   1   2
BRANCH   1  32
ATOM     32  C   UNL     1       5.158   1.144  -9.050  1.00  0.00     0.002 C 
BRANCH  32  33
ATOM     33  C   UNL     1       3.645   0.890  -9.121  1.00  0.00     0.021 C 
BRANCH  33  34
ATOM     34  C   UNL     1       3.017   1.310 -10.443  1.00  0.00     0.116 C 
BRANCH  34  35
ATOM     35  N   UNL     1       3.479   0.476 -11.551  1.00  0.00    -0.352 N 
ATOM     36  C   UNL     1       3.265   0.638 -12.903  1.00  0.00     0.251 C 
ATOM     37  H   UNL     1       4.018  -0.308 -11.297  1.00  0.00     0.163 HD
ATOM     38  O   UNL     1       3.391  -0.312 -13.669  1.00  0.00    -0.269 OA
BRANCH  36  39
ATOM     39  C   UNL     1       2.879   1.965 -13.411  1.00  0.00     0.039 A 
ATOM     40  C   UNL     1       1.895   2.103 -14.394  1.00  0.00     0.014 A 
ATOM     41  C   UNL     1       3.502   3.084 -12.866  1.00  0.00     0.014 A 
ATOM     42  C   UNL     1       1.479   3.382 -14.758  1.00  0.00     0.010 A 
ATOM     43  C   UNL     1       2.999   4.336 -13.125  1.00  0.00     0.010 A 
ATOM     44  C   UNL     1       2.019   4.498 -14.101  1.00  0.00    -0.014 A 
BRANCH  44  45
ATOM     45  C   UNL     1       1.494   5.841 -14.342  1.00  0.00     0.031 A 
ATOM     46  C   UNL     1       0.034   5.999 -14.107  1.00  0.00     0.074 A 
ATOM     47  C   UNL     1       2.286   6.920 -14.524  1.00  0.00     0.049 A 
ATOM     48  N   UNL     1      -0.895   6.171 -14.987  1.00  0.00    -0.248 NA
ATOM     49  C   UNL     1      -0.473   5.813 -12.737  1.00  0.00     0.031 C 
ATOM     50  C   UNL     1       3.753   6.976 -14.463  1.00  0.00     0.029 A 
ATOM     51  N   UNL     1       1.943   8.229 -14.681  1.00  0.00    -0.354 N 
ATOM     52  C   UNL     1      -2.074   6.356 -14.268  1.00  0.00     0.074 A 
ATOM     53  C   UNL     1      -1.791   5.926 -12.922  1.00  0.00     0.031 C 
ATOM     54  C   UNL     1       4.155   8.259 -14.338  1.00  0.00     0.029 A 
ATOM     55  C   UNL     1       2.999   9.118 -14.514  1.00  0.00     0.049 A 
ATOM     56  H   UNL     1       1.027   8.521 -14.895  1.00  0.00     0.167 HD
ATOM     57  C   UNL     1      -3.096   7.109 -14.766  1.00  0.00     0.031 A 
ATOM     58  C   UNL     1       2.946  10.470 -14.536  1.00  0.00     0.031 A 
ATOM     59  C   UNL     1      -2.860   7.457 -16.144  1.00  0.00     0.049 A 
ATOM     60  C   UNL     1       1.725  10.846 -15.278  1.00  0.00     0.074 A 
ATOM     61  C   UNL     1      -2.846   6.805 -17.356  1.00  0.00     0.029 A 
ATOM     62  N   UNL     1      -2.207   8.654 -16.314  1.00  0.00    -0.354 N 
ATOM     63  N   UNL     1       1.561  10.594 -16.547  1.00  0.00    -0.248 NA
ATOM     64  C   UNL     1       0.512  11.195 -14.552  1.00  0.00     0.031 C 
ATOM     65  C   UNL     1      -1.916   7.521 -18.166  1.00  0.00     0.029 A 
ATOM     66  C   UNL     1      -1.427   8.606 -17.438  1.00  0.00     0.049 A 
ATOM     67  H   UNL     1      -2.289   9.431 -15.716  1.00  0.00     0.167 HD
ATOM     68  C   UNL     1       0.211  10.323 -16.674  1.00  0.00     0.074 A 
ATOM     69  C   UNL     1      -0.401  10.878 -15.474  1.00  0.00     0.031 C 
ATOM     70  C   UNL     1      -0.232   9.414 -17.589  1.00  0.00     0.031 A 
BRANCH  57  71
ATOM     71  C   UNL     1      -4.049   7.944 -13.931  1.00  0.00    -0.014 A 
ATOM     72  C   UNL     1      -5.037   8.701 -14.600  1.00  0.00     0.010 A 
ATOM     73  C   UNL     1      -3.826   8.255 -12.575  1.00  0.00     0.010 A 
ATOM     74  C   UNL     1      -5.692   9.771 -13.975  1.00  0.00     0.020 A 
ATOM     75  C   UNL     1      -4.503   9.294 -11.930  1.00  0.00     0.020 A 
ATOM     76  C   UNL     1      -5.402  10.072 -12.646  1.00  0.00     0.054 A 
BRANCH  76  77
ATOM     77  S   UNL     1      -6.146  11.536 -11.883  1.00  0.00     0.124 S 
ATOM     78  O   UNL     1      -5.524  12.617 -12.640  1.00  0.00    -0.237 OA
ATOM     79  O   UNL     1      -7.569  11.324 -12.129  1.00  0.00    -0.237 OA
ATOM     80  O   UNL     1      -5.738  11.434 -10.484  1.00  0.00    -0.744 OA
ENDBRANCH  76  77
ENDBRANCH  57  71
BRANCH  58  81
ATOM     81  C   UNL     1       3.796  11.462 -13.846  1.00  0.00    -0.014 A 
ATOM     82  C   UNL     1       3.898  12.781 -14.321  1.00  0.00     0.010 A 
ATOM     83  C   UNL     1       4.277  11.183 -12.551  1.00  0.00     0.010 A 
ATOM     84  C   UNL     1       4.394  13.805 -13.499  1.00  0.00     0.020 A 
ATOM     85  C   UNL     1       4.774  12.200 -11.726  1.00  0.00     0.020 A 
ATOM     86  C   UNL     1       4.804  13.512 -12.196  1.00  0.00     0.054 A 
BRANCH  86  87
ATOM     87  S   UNL     1       5.248  14.876 -11.079  1.00  0.00     0.124 S 
ATOM     88  O   UNL     1       6.520  15.330 -11.633  1.00  0.00    -0.237 OA
ATOM     89  O   UNL     1       4.125  15.796 -11.238  1.00  0.00    -0.237 OA
ATOM     90  O   UNL     1       5.336  14.233  -9.769  1.00  0.00    -0.744 OA
ENDBRANCH  86  87
ENDBRANCH  58  81
BRANCH  70  91
ATOM     91  C   UNL     1       0.677   9.089 -18.746  1.00  0.00    -0.014 A 
ATOM     92  C   UNL     1       1.917   8.435 -18.617  1.00  0.00     0.010 A 
ATOM     93  C   UNL     1       0.198   9.382 -20.034  1.00  0.00     0.010 A 
ATOM     94  C   UNL     1       2.669   8.106 -19.755  1.00  0.00     0.020 A 
ATOM     95  C   UNL     1       0.933   9.041 -21.169  1.00  0.00     0.020 A 
ATOM     96  C   UNL     1       2.171   8.413 -21.025  1.00  0.00     0.054 A 
BRANCH  96  97
ATOM     97  S   UNL     1       3.125   7.952 -22.497  1.00  0.00     0.124 S 
ATOM     98  O   UNL     1       4.260   8.868 -22.440  1.00  0.00    -0.237 OA
ATOM     99  O   UNL     1       3.438   6.545 -22.254  1.00  0.00    -0.237 OA
ATOM    100  O   UNL     1       2.196   8.187 -23.602  1.00  0.00    -0.744 OA
ENDBRANCH  96  97
ENDBRANCH  70  91
ENDBRANCH  44  45
ENDBRANCH  36  39
ENDBRANCH  34  35
ENDBRANCH  33  34
ENDBRANCH  32  33
ENDBRANCH   1  32
TORSDOF 20
