REMARK SMILES C=CCN(CC(=O)NCCCCCCNC(=O)c1ccc(-c2c3nc(c(-c4ccc(S(=O)(=O)[O-])cc4)c4ccc([nH]4)c(-c4ccc(S(=O)(=O)[O-])cc4)c4nc(c(-c5ccc(S(=O)(=O)[O-])cc5)c5ccc2[nH]5)C=C4)C=C3)cc1)C(=O)N1CC[N@H+](C)C(C)(C)C1
REMARK SMILES IDX 11 1 10 2 9 3 8 4 6 5 7 6 5 8 4 9 3 10 2 11 1 12 78 13 79 14
REMARK SMILES IDX 80 15 81 16 88 17 82 18 85 19 83 20 86 21 87 22 84 23 12 25
REMARK SMILES IDX 13 26 14 27 15 28 16 29 17 31 18 32 19 33 77 34 20 35 76 36
REMARK SMILES IDX 21 37 22 38 23 39 70 40 24 41 75 42 69 43 71 44 25 45 74 46
REMARK SMILES IDX 68 47 67 48 26 50 56 51 37 52 55 53 38 54 41 55 54 56 72 57
REMARK SMILES IDX 39 58 40 59 53 61 73 62 42 63 27 64 28 65 36 66 29 67 35 68
REMARK SMILES IDX 30 69 31 70 32 71 33 72 34 73 57 74 58 75 66 76 59 77 65 78
REMARK SMILES IDX 60 79 61 80 62 81 63 82 64 83 43 84 44 85 52 86 45 87 51 88
REMARK SMILES IDX 46 89 47 90 48 91 49 92 50 93
REMARK H PARENT 8 7 83 24 15 30 71 49 41 60
REMARK Flexibility Score: inf
ROOT
ATOM      1  C   UNL     1      -5.801   1.443  -0.087  1.00  0.00     0.002 C 
ENDROOT
BRANCH   1   2
ATOM      2  C   UNL     1      -4.425   0.768  -0.062  1.00  0.00     0.021 C 
BRANCH   2   3
ATOM      3  C   UNL     1      -4.427  -0.702  -0.469  1.00  0.00     0.116 C 
BRANCH   3   4
ATOM      4  N   UNL     1      -4.765  -0.917  -1.851  1.00  0.00    -0.355 N 
ATOM      5  C   UNL     1      -3.984  -1.379  -2.863  1.00  0.00     0.239 C 
ATOM      6  O   UNL     1      -4.577  -1.904  -3.813  1.00  0.00    -0.273 OA
ATOM      7  H   UNL     1      -5.693  -0.700  -2.099  1.00  0.00     0.163 HD
BRANCH   5   8
ATOM      8  C   UNL     1      -2.441  -1.367  -2.813  1.00  0.00     0.221 C 
BRANCH   8   9
ATOM      9  N   UNL     1      -1.766  -0.209  -2.211  1.00  0.00    -0.312 N 
BRANCH   9  10
ATOM     10  C   UNL     1      -1.129  -0.433  -0.912  1.00  0.00     0.149 C 
BRANCH  10  11
ATOM     11  C   UNL     1       0.350  -0.645  -1.058  1.00  0.00    -0.013 C 
ATOM     12  C   UNL     1       1.250  -0.068  -0.251  1.00  0.00     0.006 C 
ENDBRANCH  10  11
ENDBRANCH   9  10
BRANCH   9  13
ATOM     13  C   UNL     1      -1.491   1.005  -2.833  1.00  0.00     0.321 C 
ATOM     14  O   UNL     1      -0.870   1.897  -2.248  1.00  0.00    -0.248 OA
BRANCH  13  15
ATOM     15  N   UNL     1      -1.792   1.151  -4.174  1.00  0.00    -0.313 N 
ATOM     16  C   UNL     1      -0.908   2.017  -4.955  1.00  0.00     0.183 C 
ATOM     17  C   UNL     1      -3.150   1.137  -4.706  1.00  0.00     0.189 C 
ATOM     18  C   UNL     1      -0.952   1.682  -6.459  1.00  0.00     0.284 C 
ATOM     19  C   UNL     1      -3.205   0.721  -6.210  1.00  0.00     0.110 C 
ATOM     20  N   UNL     1      -2.308   1.571  -7.061  1.00  0.00    -0.330 N 
ATOM     21  C   UNL     1      -2.744  -0.743  -6.407  1.00  0.00     0.080 C 
ATOM     22  C   UNL     1      -4.684   0.766  -6.658  1.00  0.00     0.080 C 
ATOM     23  C   UNL     1      -2.840   2.898  -7.364  1.00  0.00     0.333 C 
ATOM     24  H   UNL     1      -2.248   1.084  -7.955  1.00  0.00     0.348 HD
ENDBRANCH  13  15
ENDBRANCH   9  13
ENDBRANCH   8   9
ENDBRANCH   5   8
ENDBRANCH   3   4
ENDBRANCH   2   3
ENDBRANCH   1   2
BRANCH   1  25
ATOM     25  C   UNL     1      -6.932   0.669   0.598  1.00  0.00     0.002 C 
BRANCH  25  26
ATOM     26  C   UNL     1      -6.642   0.197   2.025  1.00  0.00     0.021 C 
BRANCH  26  27
ATOM     27  C   UNL     1      -6.310   1.308   3.011  1.00  0.00     0.116 C 
BRANCH  27  28
ATOM     28  N   UNL     1      -7.436   2.201   3.215  1.00  0.00    -0.352 N 
ATOM     29  C   UNL     1      -8.058   2.553   4.384  1.00  0.00     0.251 C 
ATOM     30  H   UNL     1      -7.804   2.612   2.400  1.00  0.00     0.163 HD
ATOM     31  O   UNL     1      -9.137   3.147   4.346  1.00  0.00    -0.269 OA
BRANCH  29  32
ATOM     32  C   UNL     1      -7.447   2.209   5.686  1.00  0.00     0.039 A 
ATOM     33  C   UNL     1      -8.267   1.736   6.713  1.00  0.00     0.014 A 
ATOM     34  C   UNL     1      -6.074   2.369   5.904  1.00  0.00     0.014 A 
ATOM     35  C   UNL     1      -7.705   1.384   7.941  1.00  0.00     0.010 A 
ATOM     36  C   UNL     1      -5.505   1.944   7.102  1.00  0.00     0.010 A 
ATOM     37  C   UNL     1      -6.316   1.460   8.139  1.00  0.00    -0.014 A 
BRANCH  37  38
ATOM     38  C   UNL     1      -5.705   1.045   9.428  1.00  0.00     0.031 A 
ATOM     39  C   UNL     1      -4.992   2.051  10.292  1.00  0.00     0.074 A 
ATOM     40  C   UNL     1      -5.760  -0.249   9.803  1.00  0.00     0.049 A 
ATOM     41  N   UNL     1      -4.399   1.873  11.444  1.00  0.00    -0.248 NA
ATOM     42  C   UNL     1      -4.916   3.432   9.786  1.00  0.00     0.031 C 
ATOM     43  C   UNL     1      -6.378  -1.329   9.029  1.00  0.00     0.029 A 
ATOM     44  N   UNL     1      -5.288  -0.876  10.928  1.00  0.00    -0.354 N 
ATOM     45  C   UNL     1      -3.869   3.111  11.794  1.00  0.00     0.074 A 
ATOM     46  C   UNL     1      -4.164   4.018  10.706  1.00  0.00     0.031 C 
ATOM     47  C   UNL     1      -6.278  -2.476   9.719  1.00  0.00     0.029 A 
ATOM     48  C   UNL     1      -5.556  -2.224  10.962  1.00  0.00     0.049 A 
ATOM     49  H   UNL     1      -4.803  -0.405  11.644  1.00  0.00     0.167 HD
ATOM     50  C   UNL     1      -3.214   3.466  12.925  1.00  0.00     0.031 A 
ATOM     51  C   UNL     1      -5.256  -3.155  11.888  1.00  0.00     0.031 A 
ATOM     52  C   UNL     1      -2.928   2.562  14.008  1.00  0.00     0.049 A 
ATOM     53  C   UNL     1      -4.529  -2.736  13.137  1.00  0.00     0.074 A 
ATOM     54  C   UNL     1      -2.322   2.837  15.222  1.00  0.00     0.029 A 
ATOM     55  N   UNL     1      -3.223   1.206  14.007  1.00  0.00    -0.354 N 
ATOM     56  N   UNL     1      -4.103  -1.545  13.482  1.00  0.00    -0.248 NA
ATOM     57  C   UNL     1      -4.259  -3.786  14.129  1.00  0.00     0.031 C 
ATOM     58  C   UNL     1      -2.200   1.637  15.931  1.00  0.00     0.029 A 
ATOM     59  C   UNL     1      -2.788   0.626  15.187  1.00  0.00     0.049 A 
ATOM     60  H   UNL     1      -3.675   0.727  13.275  1.00  0.00     0.167 HD
ATOM     61  C   UNL     1      -3.537  -1.696  14.743  1.00  0.00     0.074 A 
ATOM     62  C   UNL     1      -3.694  -3.090  15.106  1.00  0.00     0.031 C 
ATOM     63  C   UNL     1      -2.942  -0.765  15.530  1.00  0.00     0.031 A 
BRANCH  50  64
ATOM     64  C   UNL     1      -2.752   4.897  13.044  1.00  0.00    -0.014 A 
ATOM     65  C   UNL     1      -3.674   5.950  13.191  1.00  0.00     0.010 A 
ATOM     66  C   UNL     1      -1.376   5.189  13.046  1.00  0.00     0.010 A 
ATOM     67  C   UNL     1      -3.230   7.272  13.292  1.00  0.00     0.020 A 
ATOM     68  C   UNL     1      -0.927   6.507  13.178  1.00  0.00     0.020 A 
ATOM     69  C   UNL     1      -1.859   7.542  13.282  1.00  0.00     0.054 A 
BRANCH  69  70
ATOM     70  S   UNL     1      -1.311   9.264  13.435  1.00  0.00     0.124 S 
ATOM     71  O   UNL     1      -1.670   9.811  12.128  1.00  0.00    -0.237 OA
ATOM     72  O   UNL     1      -2.105   9.754  14.559  1.00  0.00    -0.237 OA
ATOM     73  O   UNL     1       0.123   9.152  13.690  1.00  0.00    -0.744 OA
ENDBRANCH  69  70
ENDBRANCH  50  64
BRANCH  51  74
ATOM     74  C   UNL     1      -5.659  -4.572  11.673  1.00  0.00    -0.014 A 
ATOM     75  C   UNL     1      -6.673  -5.156  12.454  1.00  0.00     0.010 A 
ATOM     76  C   UNL     1      -5.040  -5.342  10.672  1.00  0.00     0.010 A 
ATOM     77  C   UNL     1      -7.046  -6.488  12.249  1.00  0.00     0.020 A 
ATOM     78  C   UNL     1      -5.431  -6.664  10.444  1.00  0.00     0.020 A 
ATOM     79  C   UNL     1      -6.425  -7.232  11.243  1.00  0.00     0.054 A 
BRANCH  79  80
ATOM     80  S   UNL     1      -6.963  -8.941  10.959  1.00  0.00     0.124 S 
ATOM     81  O   UNL     1      -6.398  -9.634  12.112  1.00  0.00    -0.237 OA
ATOM     82  O   UNL     1      -8.418  -8.815  10.945  1.00  0.00    -0.237 OA
ATOM     83  O   UNL     1      -6.363  -9.278   9.669  1.00  0.00    -0.744 OA
ENDBRANCH  79  80
ENDBRANCH  51  74
BRANCH  63  84
ATOM     84  C   UNL     1      -2.443  -1.219  16.878  1.00  0.00    -0.014 A 
ATOM     85  C   UNL     1      -1.325  -2.063  16.998  1.00  0.00     0.010 A 
ATOM     86  C   UNL     1      -3.087  -0.765  18.044  1.00  0.00     0.010 A 
ATOM     87  C   UNL     1      -0.887  -2.481  18.258  1.00  0.00     0.020 A 
ATOM     88  C   UNL     1      -2.633  -1.154  19.306  1.00  0.00     0.020 A 
ATOM     89  C   UNL     1      -1.547  -2.026  19.404  1.00  0.00     0.054 A 
BRANCH  89  90
ATOM     90  S   UNL     1      -0.947  -2.564  21.028  1.00  0.00     0.124 S 
ATOM     91  O   UNL     1      -1.395  -3.954  21.072  1.00  0.00    -0.237 OA
ATOM     92  O   UNL     1       0.497  -2.373  20.917  1.00  0.00    -0.237 OA
ATOM     93  O   UNL     1      -1.619  -1.664  21.962  1.00  0.00    -0.744 OA
ENDBRANCH  89  90
ENDBRANCH  63  84
ENDBRANCH  37  38
ENDBRANCH  29  32
ENDBRANCH  27  28
ENDBRANCH  26  27
ENDBRANCH  25  26
ENDBRANCH   1  25
TORSDOF 21
