REMARK SMILES C[C@@H](C(=O)NCCCCCCNC(=O)c1ccc(-c2c3nc(c(-c4ccc(S(=O)(=O)[O-])cc4)c4ccc([nH]4)c(-c4ccc(S(=O)(=O)[O-])cc4)c4nc(c(-c5ccc(S(=O)(=O)[O-])cc5)c5ccc2[nH]5)C=C4)C=C3)cc1)c1ccc(-c2cccc(OC(=O)Nc3ccccc3)c2)c(F)c1
REMARK SMILES IDX 7 1 6 2 5 3 3 4 4 5 2 7 1 8 75 9 76 10 97 11 77 12 95 13
REMARK SMILES IDX 78 14 96 15 79 16 80 17 94 18 81 19 83 20 82 21 84 22 85 23
REMARK SMILES IDX 86 24 87 25 88 27 89 28 93 29 90 30 92 31 91 32 8 33 9 34
REMARK SMILES IDX 10 35 11 36 12 37 13 38 14 40 15 41 16 42 74 43 17 44 73 45
REMARK SMILES IDX 18 46 19 47 20 48 67 49 21 50 72 51 66 52 68 53 22 54 71 55
REMARK SMILES IDX 65 56 64 57 23 59 53 60 34 61 52 62 35 63 38 64 51 65 69 66
REMARK SMILES IDX 36 67 37 68 50 70 70 71 39 72 24 73 25 74 33 75 26 76 32 77
REMARK SMILES IDX 27 78 28 79 29 80 30 81 31 82 54 83 55 84 63 85 56 86 62 87
REMARK SMILES IDX 57 88 58 89 59 90 60 91 61 92 40 93 41 94 49 95 42 96 48 97
REMARK SMILES IDX 43 98 44 99 45 100 46 101 47 102
REMARK H PARENT 5 6 87 26 12 39 68 58 38 69
REMARK Flexibility Score: inf
ROOT
ATOM      1  C   UNL     1       4.412   1.437  -0.061  1.00  0.00     0.021 C 
ENDROOT
BRANCH   1   2
ATOM      2  C   UNL     1       3.541   1.511   1.199  1.00  0.00     0.116 C 
BRANCH   2   3
ATOM      3  N   UNL     1       2.495   2.498   1.021  1.00  0.00    -0.356 N 
ATOM      4  C   UNL     1       1.222   2.314   0.562  1.00  0.00     0.227 C 
ATOM      5  O   UNL     1       0.695   3.279   0.004  1.00  0.00    -0.274 OA
ATOM      6  H   UNL     1       2.733   3.423   1.262  1.00  0.00     0.163 HD
BRANCH   4   7
ATOM      7  C   UNL     1       0.541   0.949   0.758  1.00  0.00     0.105 C 
ATOM      8  C   UNL     1       0.925   0.039  -0.418  1.00  0.00     0.023 C 
BRANCH   7   9
ATOM      9  C   UNL     1      -0.981   0.975   0.944  1.00  0.00    -0.033 A 
ATOM     10  C   UNL     1      -1.727   2.152   1.100  1.00  0.00     0.005 A 
ATOM     11  C   UNL     1      -1.686  -0.240   0.988  1.00  0.00     0.044 A 
ATOM     12  C   UNL     1      -3.123   2.126   1.199  1.00  0.00     0.012 A 
ATOM     13  C   UNL     1      -3.075  -0.262   1.090  1.00  0.00     0.131 A 
ATOM     14  C   UNL     1      -3.824   0.915   1.181  1.00  0.00     0.018 A 
ATOM     15  F   UNL     1      -3.687  -1.457   1.096  1.00  0.00    -0.206 F 
BRANCH  14  16
ATOM     16  C   UNL     1      -5.282   0.888   1.327  1.00  0.00    -0.012 A 
ATOM     17  C   UNL     1      -6.128   1.580   0.446  1.00  0.00     0.009 A 
ATOM     18  C   UNL     1      -5.855   0.178   2.392  1.00  0.00     0.056 A 
ATOM     19  C   UNL     1      -7.513   1.560   0.625  1.00  0.00     0.004 A 
ATOM     20  C   UNL     1      -7.231   0.180   2.584  1.00  0.00     0.133 A 
ATOM     21  C   UNL     1      -8.066   0.861   1.697  1.00  0.00     0.047 A 
BRANCH  20  22
ATOM     22  O   UNL     1      -7.879  -0.462   3.665  1.00  0.00    -0.410 OA
BRANCH  22  23
ATOM     23  C   UNL     1      -7.257  -0.973   4.803  1.00  0.00     0.417 C 
ATOM     24  O   UNL     1      -6.046  -1.037   4.997  1.00  0.00    -0.224 OA
ATOM     25  N   UNL     1      -8.111  -1.325   5.815  1.00  0.00    -0.291 N 
ATOM     26  H   UNL     1      -7.668  -1.569   6.660  1.00  0.00     0.173 HD
BRANCH  25  27
ATOM     27  C   UNL     1      -9.509  -1.395   5.846  1.00  0.00     0.044 A 
ATOM     28  C   UNL     1     -10.115  -1.354   7.107  1.00  0.00     0.026 A 
ATOM     29  C   UNL     1     -10.311  -1.529   4.711  1.00  0.00     0.026 A 
ATOM     30  C   UNL     1     -11.504  -1.394   7.229  1.00  0.00     0.002 A 
ATOM     31  C   UNL     1     -11.702  -1.586   4.834  1.00  0.00     0.002 A 
ATOM     32  C   UNL     1     -12.298  -1.508   6.091  1.00  0.00     0.000 A 
ENDBRANCH  25  27
ENDBRANCH  22  23
ENDBRANCH  20  22
ENDBRANCH  14  16
ENDBRANCH   7   9
ENDBRANCH   4   7
ENDBRANCH   2   3
ENDBRANCH   1   2
BRANCH   1  33
ATOM     33  C   UNL     1       5.133   2.746  -0.410  1.00  0.00     0.002 C 
BRANCH  33  34
ATOM     34  C   UNL     1       6.070   3.276   0.677  1.00  0.00     0.002 C 
BRANCH  34  35
ATOM     35  C   UNL     1       7.136   2.282   1.143  1.00  0.00     0.021 C 
BRANCH  35  36
ATOM     36  C   UNL     1       8.037   1.745   0.035  1.00  0.00     0.116 C 
BRANCH  36  37
ATOM     37  N   UNL     1       8.832   2.794  -0.581  1.00  0.00    -0.352 N 
ATOM     38  C   UNL     1      10.186   2.832  -0.805  1.00  0.00     0.251 C 
ATOM     39  H   UNL     1       8.331   3.587  -0.880  1.00  0.00     0.163 HD
ATOM     40  O   UNL     1      10.721   3.874  -1.169  1.00  0.00    -0.269 OA
BRANCH  38  41
ATOM     41  C   UNL     1      11.000   1.617  -0.582  1.00  0.00     0.039 A 
ATOM     42  C   UNL     1      12.191   1.726   0.139  1.00  0.00     0.014 A 
ATOM     43  C   UNL     1      10.589   0.377  -1.081  1.00  0.00     0.014 A 
ATOM     44  C   UNL     1      12.942   0.580   0.410  1.00  0.00     0.010 A 
ATOM     45  C   UNL     1      11.306  -0.773  -0.757  1.00  0.00     0.010 A 
ATOM     46  C   UNL     1      12.490  -0.683  -0.009  1.00  0.00    -0.014 A 
BRANCH  46  47
ATOM     47  C   UNL     1      13.239  -1.918   0.338  1.00  0.00     0.031 A 
ATOM     48  C   UNL     1      13.878  -2.747  -0.743  1.00  0.00     0.074 A 
ATOM     49  C   UNL     1      13.295  -2.322   1.622  1.00  0.00     0.049 A 
ATOM     50  N   UNL     1      14.530  -3.876  -0.636  1.00  0.00    -0.248 NA
ATOM     51  C   UNL     1      13.748  -2.256  -2.125  1.00  0.00     0.031 C 
ATOM     52  C   UNL     1      12.679  -1.630   2.757  1.00  0.00     0.029 A 
ATOM     53  N   UNL     1      13.893  -3.419   2.189  1.00  0.00    -0.354 N 
ATOM     54  C   UNL     1      14.877  -4.237  -1.933  1.00  0.00     0.074 A 
ATOM     55  C   UNL     1      14.324  -3.231  -2.814  1.00  0.00     0.031 C 
ATOM     56  C   UNL     1      12.953  -2.305   3.885  1.00  0.00     0.029 A 
ATOM     57  C   UNL     1      13.730  -3.494   3.553  1.00  0.00     0.049 A 
ATOM     58  H   UNL     1      14.393  -4.090   1.669  1.00  0.00     0.167 HD
ATOM     59  C   UNL     1      15.606  -5.300  -2.352  1.00  0.00     0.031 A 
ATOM     60  C   UNL     1      14.154  -4.418   4.437  1.00  0.00     0.031 A 
ATOM     61  C   UNL     1      16.167  -6.293  -1.475  1.00  0.00     0.049 A 
ATOM     62  C   UNL     1      14.962  -5.588   3.946  1.00  0.00     0.074 A 
ATOM     63  C   UNL     1      16.965  -7.376  -1.800  1.00  0.00     0.029 A 
ATOM     64  N   UNL     1      15.991  -6.324  -0.100  1.00  0.00    -0.354 N 
ATOM     65  N   UNL     1      15.331  -5.878   2.721  1.00  0.00    -0.248 NA
ATOM     66  C   UNL     1      15.419  -6.550   4.959  1.00  0.00     0.031 C 
ATOM     67  C   UNL     1      17.236  -8.088  -0.626  1.00  0.00     0.029 A 
ATOM     68  C   UNL     1      16.648  -7.419   0.436  1.00  0.00     0.049 A 
ATOM     69  H   UNL     1      15.474  -5.666   0.419  1.00  0.00     0.167 HD
ATOM     70  C   UNL     1      16.084  -7.042   2.820  1.00  0.00     0.074 A 
ATOM     71  C   UNL     1      16.131  -7.394   4.225  1.00  0.00     0.031 C 
ATOM     72  C   UNL     1      16.683  -7.757   1.836  1.00  0.00     0.031 A 
BRANCH  59  73
ATOM     73  C   UNL     1      15.839  -5.443  -3.833  1.00  0.00    -0.014 A 
ATOM     74  C   UNL     1      16.708  -4.572  -4.515  1.00  0.00     0.010 A 
ATOM     75  C   UNL     1      15.221  -6.488  -4.543  1.00  0.00     0.010 A 
ATOM     76  C   UNL     1      16.924  -4.720  -5.888  1.00  0.00     0.020 A 
ATOM     77  C   UNL     1      15.455  -6.655  -5.911  1.00  0.00     0.020 A 
ATOM     78  C   UNL     1      16.294  -5.759  -6.578  1.00  0.00     0.054 A 
BRANCH  78  79
ATOM     79  S   UNL     1      16.614  -5.945  -8.353  1.00  0.00     0.124 S 
ATOM     80  O   UNL     1      15.837  -4.843  -8.915  1.00  0.00    -0.237 OA
ATOM     81  O   UNL     1      18.064  -5.796  -8.436  1.00  0.00    -0.237 OA
ATOM     82  O   UNL     1      16.109  -7.282  -8.659  1.00  0.00    -0.744 OA
ENDBRANCH  78  79
ENDBRANCH  59  73
BRANCH  60  83
ATOM     83  C   UNL     1      13.834  -4.267   5.882  1.00  0.00    -0.014 A 
ATOM     84  C   UNL     1      14.840  -3.928   6.804  1.00  0.00     0.010 A 
ATOM     85  C   UNL     1      12.519  -4.458   6.343  1.00  0.00     0.010 A 
ATOM     86  C   UNL     1      14.541  -3.804   8.164  1.00  0.00     0.020 A 
ATOM     87  C   UNL     1      12.211  -4.310   7.698  1.00  0.00     0.020 A 
ATOM     88  C   UNL     1      13.228  -3.997   8.602  1.00  0.00     0.054 A 
BRANCH  88  89
ATOM     89  S   UNL     1      12.852  -3.787  10.365  1.00  0.00     0.124 S 
ATOM     90  O   UNL     1      13.375  -5.024  10.935  1.00  0.00    -0.237 OA
ATOM     91  O   UNL     1      13.587  -2.572  10.704  1.00  0.00    -0.237 OA
ATOM     92  O   UNL     1      11.397  -3.651  10.387  1.00  0.00    -0.744 OA
ENDBRANCH  88  89
ENDBRANCH  60  83
BRANCH  72  93
ATOM     93  C   UNL     1      17.463  -8.976   2.246  1.00  0.00    -0.014 A 
ATOM     94  C   UNL     1      16.812 -10.150   2.662  1.00  0.00     0.010 A 
ATOM     95  C   UNL     1      18.868  -8.959   2.172  1.00  0.00     0.010 A 
ATOM     96  C   UNL     1      17.553 -11.276   3.030  1.00  0.00     0.020 A 
ATOM     97  C   UNL     1      19.612 -10.091   2.514  1.00  0.00     0.020 A 
ATOM     98  C   UNL     1      18.949 -11.238   2.956  1.00  0.00     0.054 A 
BRANCH  98  99
ATOM     99  S   UNL     1      19.890 -12.723   3.402  1.00  0.00     0.124 S 
ATOM    100  O   UNL     1      19.812 -12.704   4.860  1.00  0.00    -0.237 OA
ATOM    101  O   UNL     1      19.137 -13.790   2.747  1.00  0.00    -0.237 OA
ATOM    102  O   UNL     1      21.217 -12.473   2.844  1.00  0.00    -0.744 OA
ENDBRANCH  98  99
ENDBRANCH  72  93
ENDBRANCH  46  47
ENDBRANCH  38  41
ENDBRANCH  36  37
ENDBRANCH  35  36
ENDBRANCH  34  35
ENDBRANCH  33  34
ENDBRANCH   1  33
TORSDOF 21
