REMARK SMILES O=C(NCCCCCCNC(=O)[C@H]1Cc2ccc(Cl)cc2C[N@@H+]1Cc1ccccc1Cl)c1ccc(-c2c3nc(c(-c4ccc(S(=O)(=O)[O-])cc4)c4ccc([nH]4)c(-c4ccc(S(=O)(=O)[O-])cc4)c4nc(c(-c5ccc(S(=O)(=O)[O-])cc5)c5ccc2[nH]5)C=C4)C=C3)cc1
REMARK SMILES IDX 6 1 5 2 4 3 3 4 1 5 2 6 32 8 33 9 91 10 34 11 90 12 35 13
REMARK SMILES IDX 36 14 37 15 84 16 38 17 89 18 83 19 85 20 39 21 88 22 82 23
REMARK SMILES IDX 81 24 40 26 70 27 51 28 69 29 52 30 55 31 68 32 86 33 53 34
REMARK SMILES IDX 54 35 67 37 87 38 56 39 41 40 42 41 50 42 43 43 49 44 44 45
REMARK SMILES IDX 45 46 46 47 47 48 48 49 71 50 72 51 80 52 73 53 79 54 74 55
REMARK SMILES IDX 75 56 76 57 77 58 78 59 57 60 58 61 66 62 59 63 65 64 60 65
REMARK SMILES IDX 61 66 62 67 63 68 64 69 7 70 8 71 9 72 10 73 11 74 12 76
REMARK SMILES IDX 13 77 14 78 23 79 15 80 22 81 16 83 21 84 17 85 20 86 18 87
REMARK SMILES IDX 19 88 24 89 25 90 26 91 30 92 27 93 29 94 31 95 28 96
REMARK H PARENT 3 7 85 25 55 36 10 75 23 82
REMARK Flexibility Score: inf
ROOT
ATOM      1  C   UNL     1       4.260   1.960  -3.342  1.00  0.00     0.002 C 
ENDROOT
BRANCH   1   2
ATOM      2  C   UNL     1       4.791   0.739  -2.590  1.00  0.00     0.021 C 
BRANCH   2   3
ATOM      3  C   UNL     1       4.464   0.685  -1.105  1.00  0.00     0.116 C 
BRANCH   3   4
ATOM      4  N   UNL     1       3.039   0.694  -0.831  1.00  0.00    -0.352 N 
ATOM      5  O   UNL     1       1.100  -0.004   0.071  1.00  0.00    -0.269 OA
ATOM      6  C   UNL     1       2.323  -0.068   0.061  1.00  0.00     0.251 C 
ATOM      7  H   UNL     1       2.511   1.336  -1.359  1.00  0.00     0.163 HD
BRANCH   6   8
ATOM      8  C   UNL     1       3.029  -0.983   0.989  1.00  0.00     0.039 A 
ATOM      9  C   UNL     1       2.490  -2.250   1.220  1.00  0.00     0.014 A 
ATOM     10  C   UNL     1       4.206  -0.597   1.638  1.00  0.00     0.014 A 
ATOM     11  C   UNL     1       3.146  -3.134   2.079  1.00  0.00     0.010 A 
ATOM     12  C   UNL     1       4.912  -1.516   2.409  1.00  0.00     0.010 A 
ATOM     13  C   UNL     1       4.373  -2.782   2.668  1.00  0.00    -0.014 A 
BRANCH  13  14
ATOM     14  C   UNL     1       5.067  -3.712   3.597  1.00  0.00     0.031 A 
ATOM     15  C   UNL     1       5.289  -3.319   5.034  1.00  0.00     0.074 A 
ATOM     16  C   UNL     1       5.497  -4.908   3.151  1.00  0.00     0.049 A 
ATOM     17  N   UNL     1       5.840  -4.009   6.000  1.00  0.00    -0.248 NA
ATOM     18  C   UNL     1       4.863  -1.967   5.436  1.00  0.00     0.031 C 
ATOM     19  C   UNL     1       5.381  -5.382   1.771  1.00  0.00     0.029 A 
ATOM     20  N   UNL     1       6.099  -5.950   3.811  1.00  0.00    -0.354 N 
ATOM     21  C   UNL     1       5.816  -3.182   7.116  1.00  0.00     0.074 A 
ATOM     22  C   UNL     1       5.287  -1.907   6.689  1.00  0.00     0.031 C 
ATOM     23  C   UNL     1       5.841  -6.641   1.700  1.00  0.00     0.029 A 
ATOM     24  C   UNL     1       6.324  -7.050   3.017  1.00  0.00     0.049 A 
ATOM     25  H   UNL     1       6.347  -5.913   4.763  1.00  0.00     0.167 HD
ATOM     26  C   UNL     1       6.156  -3.470   8.394  1.00  0.00     0.031 A 
ATOM     27  C   UNL     1       6.845  -8.259   3.312  1.00  0.00     0.031 A 
ATOM     28  C   UNL     1       6.670  -4.747   8.816  1.00  0.00     0.049 A 
ATOM     29  C   UNL     1       7.231  -8.558   4.733  1.00  0.00     0.074 A 
ATOM     30  C   UNL     1       7.016  -5.153  10.092  1.00  0.00     0.029 A 
ATOM     31  N   UNL     1       6.903  -5.827   7.976  1.00  0.00    -0.354 N 
ATOM     32  N   UNL     1       7.146  -7.782   5.788  1.00  0.00    -0.248 NA
ATOM     33  C   UNL     1       7.763  -9.898   5.011  1.00  0.00     0.031 C 
ATOM     34  C   UNL     1       7.524  -6.452  10.013  1.00  0.00     0.029 A 
ATOM     35  C   UNL     1       7.419  -6.889   8.701  1.00  0.00     0.049 A 
ATOM     36  H   UNL     1       6.728  -5.838   7.007  1.00  0.00     0.167 HD
ATOM     37  C   UNL     1       7.612  -8.540   6.857  1.00  0.00     0.074 A 
ATOM     38  C   UNL     1       7.937  -9.849   6.326  1.00  0.00     0.031 C 
ATOM     39  C   UNL     1       7.767  -8.180   8.156  1.00  0.00     0.031 A 
BRANCH  26  40
ATOM     40  C   UNL     1       5.947  -2.400   9.439  1.00  0.00    -0.014 A 
ATOM     41  C   UNL     1       7.043  -1.875  10.146  1.00  0.00     0.010 A 
ATOM     42  C   UNL     1       4.649  -1.973   9.781  1.00  0.00     0.010 A 
ATOM     43  C   UNL     1       6.846  -0.966  11.191  1.00  0.00     0.020 A 
ATOM     44  C   UNL     1       4.450  -1.036  10.799  1.00  0.00     0.020 A 
ATOM     45  C   UNL     1       5.549  -0.558  11.514  1.00  0.00     0.054 A 
BRANCH  45  46
ATOM     46  S   UNL     1       5.312   0.606  12.885  1.00  0.00     0.124 S 
ATOM     47  O   UNL     1       5.568  -0.235  14.050  1.00  0.00    -0.237 OA
ATOM     48  O   UNL     1       6.317   1.630  12.611  1.00  0.00    -0.237 OA
ATOM     49  O   UNL     1       3.928   1.047  12.725  1.00  0.00    -0.744 OA
ENDBRANCH  45  46
ENDBRANCH  26  40
BRANCH  27  50
ATOM     50  C   UNL     1       6.955  -9.277   2.228  1.00  0.00    -0.014 A 
ATOM     51  C   UNL     1       7.827  -9.067   1.143  1.00  0.00     0.010 A 
ATOM     52  C   UNL     1       6.100 -10.393   2.208  1.00  0.00     0.010 A 
ATOM     53  C   UNL     1       7.783  -9.903   0.024  1.00  0.00     0.020 A 
ATOM     54  C   UNL     1       6.079 -11.254   1.105  1.00  0.00     0.020 A 
ATOM     55  C   UNL     1       6.892 -10.979   0.004  1.00  0.00     0.054 A 
BRANCH  55  56
ATOM     56  S   UNL     1       6.775 -11.979  -1.505  1.00  0.00     0.124 S 
ATOM     57  O   UNL     1       6.088 -11.065  -2.415  1.00  0.00    -0.237 OA
ATOM     58  O   UNL     1       8.175 -12.245  -1.820  1.00  0.00    -0.237 OA
ATOM     59  O   UNL     1       5.999 -13.143  -1.087  1.00  0.00    -0.744 OA
ENDBRANCH  55  56
ENDBRANCH  27  50
BRANCH  39  60
ATOM     60  C   UNL     1       8.351  -9.199   9.104  1.00  0.00    -0.014 A 
ATOM     61  C   UNL     1       7.584  -9.686  10.179  1.00  0.00     0.010 A 
ATOM     62  C   UNL     1       9.695  -9.598   8.990  1.00  0.00     0.010 A 
ATOM     63  C   UNL     1       8.155 -10.531  11.134  1.00  0.00     0.020 A 
ATOM     64  C   UNL     1      10.259 -10.475   9.921  1.00  0.00     0.020 A 
ATOM     65  C   UNL     1       9.491 -10.918  11.001  1.00  0.00     0.054 A 
BRANCH  65  66
ATOM     66  S   UNL     1      10.215 -12.016  12.249  1.00  0.00     0.124 S 
ATOM     67  O   UNL     1      10.408 -11.111  13.379  1.00  0.00    -0.237 OA
ATOM     68  O   UNL     1       9.178 -13.030  12.424  1.00  0.00    -0.237 OA
ATOM     69  O   UNL     1      11.442 -12.494  11.616  1.00  0.00    -0.744 OA
ENDBRANCH  65  66
ENDBRANCH  39  60
ENDBRANCH  13  14
ENDBRANCH   6   8
ENDBRANCH   3   4
ENDBRANCH   2   3
ENDBRANCH   1   2
BRANCH   1  70
ATOM     70  C   UNL     1       4.555   3.327  -2.719  1.00  0.00     0.002 C 
BRANCH  70  71
ATOM     71  C   UNL     1       6.018   3.638  -2.383  1.00  0.00     0.021 C 
BRANCH  71  72
ATOM     72  C   UNL     1       7.025   3.397  -3.501  1.00  0.00     0.116 C 
BRANCH  72  73
ATOM     73  N   UNL     1       6.752   4.164  -4.699  1.00  0.00    -0.351 N 
ATOM     74  C   UNL     1       7.597   4.508  -5.715  1.00  0.00     0.278 C 
ATOM     75  H   UNL     1       5.826   4.483  -4.795  1.00  0.00     0.163 HD
ATOM     76  O   UNL     1       7.111   5.143  -6.660  1.00  0.00    -0.268 OA
BRANCH  74  77
ATOM     77  C   UNL     1       9.120   4.278  -5.651  1.00  0.00     0.279 C 
ATOM     78  C   UNL     1       9.660   5.506  -4.884  1.00  0.00     0.111 C 
ATOM     79  N   UNL     1       9.534   2.982  -5.056  1.00  0.00    -0.317 N 
ATOM     80  C   UNL     1      11.106   5.396  -4.494  1.00  0.00    -0.033 A 
ATOM     81  C   UNL     1      10.991   2.890  -4.879  1.00  0.00     0.300 C 
ATOM     82  H   UNL     1       9.096   2.986  -4.135  1.00  0.00     0.349 HD
ATOM     83  C   UNL     1      11.845   6.545  -4.175  1.00  0.00     0.006 A 
ATOM     84  C   UNL     1      11.700   4.133  -4.398  1.00  0.00     0.011 A 
ATOM     85  C   UNL     1      13.179   6.440  -3.782  1.00  0.00     0.021 A 
ATOM     86  C   UNL     1      13.041   4.037  -3.988  1.00  0.00     0.030 A 
ATOM     87  C   UNL     1      13.771   5.184  -3.686  1.00  0.00     0.041 A 
ATOM     88  Cl  UNL     1      15.422   5.049  -3.220  1.00  0.00    -0.084 Cl
BRANCH  79  89
ATOM     89  C   UNL     1       8.991   1.771  -5.729  1.00  0.00     0.301 C 
BRANCH  89  90
ATOM     90  C   UNL     1       9.259   1.593  -7.212  1.00  0.00     0.025 A 
ATOM     91  C   UNL     1      10.529   1.159  -7.638  1.00  0.00     0.011 A 
ATOM     92  C   UNL     1       8.285   1.817  -8.201  1.00  0.00     0.049 A 
ATOM     93  C   UNL     1      10.857   1.080  -8.992  1.00  0.00     0.001 A 
ATOM     94  C   UNL     1       8.614   1.734  -9.559  1.00  0.00     0.021 A 
ATOM     95  Cl  UNL     1       6.624   2.119  -7.830  1.00  0.00    -0.084 Cl
ATOM     96  C   UNL     1       9.904   1.390  -9.954  1.00  0.00     0.002 A 
ENDBRANCH  89  90
ENDBRANCH  79  89
ENDBRANCH  74  77
ENDBRANCH  72  73
ENDBRANCH  71  72
ENDBRANCH  70  71
ENDBRANCH   1  70
TORSDOF 18
