REMARK SMILES Cc1csc(C[NH2+]C[C@H]2CCC[C@H]2C(=O)NCCCCCCNC(=O)c2ccc(-c3c4nc(c(-c5ccc(S(=O)(=O)[O-])cc5)c5ccc([nH]5)c(-c5ccc(S(=O)(=O)[O-])cc5)c5nc(c(-c6ccc(S(=O)(=O)[O-])cc6)c6ccc3[nH]6)C=C5)C=C4)cc2)n1
REMARK SMILES IDX 19 1 18 2 17 3 16 4 14 5 15 6 13 8 9 9 10 10 11 11 12 12
REMARK SMILES IDX 8 13 7 14 6 17 5 18 1 19 2 20 3 21 86 22 4 23 20 24 21 25
REMARK SMILES IDX 22 26 23 27 24 28 25 30 26 31 27 32 85 33 28 34 84 35 29 36
REMARK SMILES IDX 30 37 31 38 78 39 32 40 83 41 77 42 79 43 33 44 82 45 76 46
REMARK SMILES IDX 75 47 34 49 64 50 45 51 63 52 46 53 49 54 62 55 80 56 47 57
REMARK SMILES IDX 48 58 61 60 81 61 50 62 35 63 36 64 44 65 37 66 43 67 38 68
REMARK SMILES IDX 39 69 40 70 41 71 42 72 65 73 66 74 74 75 67 76 73 77 68 78
REMARK SMILES IDX 69 79 70 80 71 81 72 82 51 83 52 84 60 85 53 86 59 87 54 88
REMARK SMILES IDX 55 89 56 90 57 91 58 92
REMARK H PARENT 16 7 7 15 7 16 23 29 79 48 49 59
REMARK Flexibility Score: inf
ROOT
ATOM      1  C   UNL     1       4.457   1.319   3.118  1.00  0.00     0.002 C 
ENDROOT
BRANCH   1   2
ATOM      2  C   UNL     1       4.534   2.417   2.056  1.00  0.00     0.021 C 
BRANCH   2   3
ATOM      3  C   UNL     1       5.015   1.933   0.684  1.00  0.00     0.116 C 
BRANCH   3   4
ATOM      4  N   UNL     1       3.898   1.425  -0.093  1.00  0.00    -0.356 N 
ATOM      5  C   UNL     1       3.233   1.882  -1.181  1.00  0.00     0.223 C 
ATOM      6  O   UNL     1       2.212   1.256  -1.492  1.00  0.00    -0.275 OA
ATOM      7  H   UNL     1       3.551   0.567   0.242  1.00  0.00     0.163 HD
BRANCH   5   8
ATOM      8  C   UNL     1       3.651   3.080  -2.031  1.00  0.00     0.087 C 
ATOM      9  C   UNL     1       3.271   4.514  -1.581  1.00  0.00     0.057 C 
ATOM     10  C   UNL     1       4.154   5.354  -2.514  1.00  0.00     0.010 C 
ATOM     11  C   UNL     1       5.484   4.614  -2.535  1.00  0.00     0.001 C 
ATOM     12  C   UNL     1       5.111   3.133  -2.504  1.00  0.00     0.014 C 
BRANCH   9  13
ATOM     13  C   UNL     1       3.504   4.791  -0.093  1.00  0.00     0.265 C 
BRANCH  13  14
ATOM     14  N   UNL     1       3.489   6.167   0.357  1.00  0.00    -0.340 N 
ATOM     15  H   UNL     1       3.926   6.198   1.278  1.00  0.00     0.346 HD
ATOM     16  H   UNL     1       3.985   6.695  -0.361  1.00  0.00     0.346 HD
BRANCH  14  17
ATOM     17  C   UNL     1       2.176   6.793   0.466  1.00  0.00     0.329 C 
BRANCH  17  18
ATOM     18  C   UNL     1       2.336   8.159   1.089  1.00  0.00     0.147 A 
ATOM     19  C   UNL     1       3.377  10.129   3.915  1.00  0.00     0.067 C 
ATOM     20  C   UNL     1       2.906   9.710   2.571  1.00  0.00     0.049 A 
ATOM     21  C   UNL     1       2.706  10.519   1.470  1.00  0.00     0.090 A 
ATOM     22  N   UNL     1       2.655   8.367   2.351  1.00  0.00    -0.241 NA
ATOM     23  S   UNL     1       2.222   9.578   0.122  1.00  0.00    -0.121 S 
ENDBRANCH  17  18
ENDBRANCH  14  17
ENDBRANCH  13  14
ENDBRANCH   9  13
ENDBRANCH   5   8
ENDBRANCH   3   4
ENDBRANCH   2   3
ENDBRANCH   1   2
BRANCH   1  24
ATOM     24  C   UNL     1       5.811   0.752   3.554  1.00  0.00     0.002 C 
BRANCH  24  25
ATOM     25  C   UNL     1       6.835   1.792   4.016  1.00  0.00     0.021 C 
BRANCH  25  26
ATOM     26  C   UNL     1       6.355   2.708   5.139  1.00  0.00     0.116 C 
BRANCH  26  27
ATOM     27  N   UNL     1       6.042   1.961   6.346  1.00  0.00    -0.352 N 
ATOM     28  C   UNL     1       6.608   2.050   7.594  1.00  0.00     0.251 C 
ATOM     29  H   UNL     1       5.321   1.297   6.256  1.00  0.00     0.163 HD
ATOM     30  O   UNL     1       6.389   1.182   8.432  1.00  0.00    -0.269 OA
BRANCH  28  31
ATOM     31  C   UNL     1       7.488   3.193   7.918  1.00  0.00     0.039 A 
ATOM     32  C   UNL     1       8.692   2.956   8.585  1.00  0.00     0.014 A 
ATOM     33  C   UNL     1       7.115   4.497   7.579  1.00  0.00     0.014 A 
ATOM     34  C   UNL     1       9.545   4.024   8.872  1.00  0.00     0.010 A 
ATOM     35  C   UNL     1       7.997   5.550   7.803  1.00  0.00     0.010 A 
ATOM     36  C   UNL     1       9.215   5.326   8.462  1.00  0.00    -0.014 A 
BRANCH  36  37
ATOM     37  C   UNL     1      10.120   6.472   8.730  1.00  0.00     0.031 A 
ATOM     38  C   UNL     1       9.679   7.581   9.647  1.00  0.00     0.074 A 
ATOM     39  C   UNL     1      11.312   6.543   8.107  1.00  0.00     0.049 A 
ATOM     40  N   UNL     1      10.302   8.687   9.963  1.00  0.00    -0.248 NA
ATOM     41  C   UNL     1       8.353   7.439  10.270  1.00  0.00     0.031 C 
ATOM     42  C   UNL     1      11.840   5.547   7.171  1.00  0.00     0.029 A 
ATOM     43  N   UNL     1      12.296   7.498   8.164  1.00  0.00    -0.354 N 
ATOM     44  C   UNL     1       9.440   9.378  10.807  1.00  0.00     0.074 A 
ATOM     45  C   UNL     1       8.230   8.592  10.909  1.00  0.00     0.031 C 
ATOM     46  C   UNL     1      13.062   5.929   6.766  1.00  0.00     0.029 A 
ATOM     47  C   UNL     1      13.388   7.213   7.380  1.00  0.00     0.049 A 
ATOM     48  H   UNL     1      12.226   8.311   8.716  1.00  0.00     0.167 HD
ATOM     49  C   UNL     1       9.643  10.551  11.454  1.00  0.00     0.031 A 
ATOM     50  C   UNL     1      14.524   7.908   7.175  1.00  0.00     0.031 A 
ATOM     51  C   UNL     1      10.850  11.327  11.352  1.00  0.00     0.049 A 
ATOM     52  C   UNL     1      14.723   9.216   7.891  1.00  0.00     0.074 A 
ATOM     53  C   UNL     1      11.173  12.506  12.001  1.00  0.00     0.029 A 
ATOM     54  N   UNL     1      11.933  11.002  10.549  1.00  0.00    -0.354 N 
ATOM     55  N   UNL     1      13.917   9.828   8.727  1.00  0.00    -0.248 NA
ATOM     56  C   UNL     1      15.989   9.919   7.647  1.00  0.00     0.031 C 
ATOM     57  C   UNL     1      12.433  12.919  11.553  1.00  0.00     0.029 A 
ATOM     58  C   UNL     1      12.918  11.968  10.670  1.00  0.00     0.049 A 
ATOM     59  H   UNL     1      11.993  10.203   9.978  1.00  0.00     0.167 HD
ATOM     60  C   UNL     1      14.593  10.974   9.132  1.00  0.00     0.074 A 
ATOM     61  C   UNL     1      15.875  10.963   8.457  1.00  0.00     0.031 C 
ATOM     62  C   UNL     1      14.189  11.944   9.990  1.00  0.00     0.031 A 
BRANCH  49  63
ATOM     63  C   UNL     1       8.522  11.065  12.320  1.00  0.00    -0.014 A 
ATOM     64  C   UNL     1       8.163  10.408  13.512  1.00  0.00     0.010 A 
ATOM     65  C   UNL     1       7.823  12.228  11.946  1.00  0.00     0.010 A 
ATOM     66  C   UNL     1       7.093  10.870  14.282  1.00  0.00     0.020 A 
ATOM     67  C   UNL     1       6.771  12.711  12.730  1.00  0.00     0.020 A 
ATOM     68  C   UNL     1       6.398  12.014  13.881  1.00  0.00     0.054 A 
BRANCH  68  69
ATOM     69  S   UNL     1       5.011  12.591  14.898  1.00  0.00     0.124 S 
ATOM     70  O   UNL     1       3.979  11.606  14.583  1.00  0.00    -0.237 OA
ATOM     71  O   UNL     1       5.553  12.521  16.252  1.00  0.00    -0.237 OA
ATOM     72  O   UNL     1       4.755  13.941  14.402  1.00  0.00    -0.744 OA
ENDBRANCH  68  69
ENDBRANCH  49  63
BRANCH  50  73
ATOM     73  C   UNL     1      15.573   7.361   6.272  1.00  0.00    -0.014 A 
ATOM     74  C   UNL     1      16.776   6.863   6.802  1.00  0.00     0.010 A 
ATOM     75  C   UNL     1      15.364   7.308   4.882  1.00  0.00     0.010 A 
ATOM     76  C   UNL     1      17.756   6.332   5.958  1.00  0.00     0.020 A 
ATOM     77  C   UNL     1      16.331   6.754   4.037  1.00  0.00     0.020 A 
ATOM     78  C   UNL     1      17.525   6.277   4.581  1.00  0.00     0.054 A 
BRANCH  78  79
ATOM     79  S   UNL     1      18.785   5.526   3.512  1.00  0.00     0.124 S 
ATOM     80  O   UNL     1      19.825   6.549   3.502  1.00  0.00    -0.237 OA
ATOM     81  O   UNL     1      19.112   4.295   4.228  1.00  0.00    -0.237 OA
ATOM     82  O   UNL     1      18.084   5.331   2.244  1.00  0.00    -0.744 OA
ENDBRANCH  78  79
ENDBRANCH  50  73
BRANCH  62  83
ATOM     83  C   UNL     1      15.159  13.059  10.279  1.00  0.00    -0.014 A 
ATOM     84  C   UNL     1      15.439  14.051   9.324  1.00  0.00     0.010 A 
ATOM     85  C   UNL     1      15.755  13.142  11.551  1.00  0.00     0.010 A 
ATOM     86  C   UNL     1      16.323  15.090   9.625  1.00  0.00     0.020 A 
ATOM     87  C   UNL     1      16.618  14.195  11.865  1.00  0.00     0.020 A 
ATOM     88  C   UNL     1      16.907  15.155  10.894  1.00  0.00     0.054 A 
BRANCH  88  89
ATOM     89  S   UNL     1      18.016  16.539  11.276  1.00  0.00     0.124 S 
ATOM     90  O   UNL     1      19.219  16.179  10.531  1.00  0.00    -0.237 OA
ATOM     91  O   UNL     1      17.280  17.692  10.761  1.00  0.00    -0.237 OA
ATOM     92  O   UNL     1      18.144  16.490  12.730  1.00  0.00    -0.744 OA
ENDBRANCH  88  89
ENDBRANCH  62  83
ENDBRANCH  36  37
ENDBRANCH  28  31
ENDBRANCH  26  27
ENDBRANCH  25  26
ENDBRANCH  24  25
ENDBRANCH   1  24
TORSDOF 20
