REMARK SMILES O=C1C[C@@H](C(=O)NCCCCCCNC(=O)c2ccc(-c3c4nc(c(-c5ccc(S(=O)(=O)[O-])cc5)c5ccc([nH]5)c(-c5ccc(S(=O)(=O)[O-])cc5)c5nc(c(-c6ccc(S(=O)(=O)[O-])cc6)c6ccc3[nH]6)C=C5)C=C4)cc2)C2(CC[NH+](Cc3c[nH]nc3-c3ccc(Cl)cc3)CC2)N1
REMARK SMILES IDX 10 1 9 2 8 3 7 4 5 5 6 6 4 8 1 9 2 10 3 11 96 12 77 13 78 15
REMARK SMILES IDX 95 16 79 17 94 18 80 19 81 21 82 22 83 23 86 24 84 25 85 26
REMARK SMILES IDX 87 28 88 29 93 30 89 31 92 32 90 33 91 34 11 35 12 36 13 37
REMARK SMILES IDX 14 38 15 39 16 41 17 42 18 43 76 44 19 45 75 46 20 47 21 48
REMARK SMILES IDX 22 49 69 50 23 51 74 52 68 53 70 54 24 55 73 56 67 57 66 58
REMARK SMILES IDX 25 60 55 61 36 62 54 63 37 64 40 65 53 66 71 67 38 68 39 69
REMARK SMILES IDX 52 71 72 72 41 73 26 74 27 75 35 76 28 77 34 78 29 79 30 80
REMARK SMILES IDX 31 81 32 82 33 83 56 84 57 85 65 86 58 87 64 88 59 89 60 90
REMARK SMILES IDX 61 91 62 92 63 93 42 94 43 95 51 96 44 97 50 98 45 99 46 100
REMARK SMILES IDX 47 101 48 102 49 103
REMARK H PARENT 7 7 96 14 80 20 84 27 14 40 70 59 40 70
REMARK Flexibility Score: inf
ROOT
ATOM      1  C   UNL     1       1.254   4.461  -2.142  1.00  0.00     0.002 C 
ENDROOT
BRANCH   1   2
ATOM      2  C   UNL     1       1.741   3.428  -1.127  1.00  0.00     0.021 C 
BRANCH   2   3
ATOM      3  C   UNL     1       1.711   1.984  -1.636  1.00  0.00     0.116 C 
BRANCH   3   4
ATOM      4  N   UNL     1       2.716   1.709  -2.649  1.00  0.00    -0.356 N 
ATOM      5  C   UNL     1       3.799   0.889  -2.685  1.00  0.00     0.226 C 
ATOM      6  O   UNL     1       4.482   0.928  -3.716  1.00  0.00    -0.275 OA
ATOM      7  H   UNL     1       2.586   2.221  -3.480  1.00  0.00     0.163 HD
BRANCH   5   8
ATOM      8  C   UNL     1       4.238  -0.041  -1.548  1.00  0.00     0.114 C 
ATOM      9  O   UNL     1       1.680  -1.152   0.688  1.00  0.00    -0.275 OA
ATOM     10  C   UNL     1       2.644  -0.684   0.116  1.00  0.00     0.221 C 
ATOM     11  C   UNL     1       3.179  -1.104  -1.225  1.00  0.00     0.116 C 
ATOM     12  N   UNL     1       3.421   0.349   0.591  1.00  0.00    -0.349 N 
ATOM     13  C   UNL     1       4.626   0.589  -0.191  1.00  0.00     0.063 C 
ATOM     14  H   UNL     1       3.183   0.877   1.387  1.00  0.00     0.164 HD
ATOM     15  C   UNL     1       4.943   2.090  -0.274  1.00  0.00     0.091 C 
ATOM     16  C   UNL     1       5.746  -0.224   0.524  1.00  0.00     0.091 C 
ATOM     17  C   UNL     1       6.411   2.411  -0.489  1.00  0.00     0.264 C 
ATOM     18  C   UNL     1       7.160   0.351   0.457  1.00  0.00     0.264 C 
ATOM     19  N   UNL     1       7.259   1.800   0.510  1.00  0.00    -0.331 N 
ATOM     20  H   UNL     1       8.226   1.990   0.251  1.00  0.00     0.348 HD
BRANCH  19  21
ATOM     21  C   UNL     1       7.342   2.471   1.818  1.00  0.00     0.303 C 
BRANCH  21  22
ATOM     22  C   UNL     1       6.095   2.475   2.648  1.00  0.00     0.052 A 
ATOM     23  C   UNL     1       5.612   1.431   3.419  1.00  0.00     0.115 A 
ATOM     24  C   UNL     1       5.200   3.561   2.962  1.00  0.00     0.101 A 
ATOM     25  N   UNL     1       4.447   1.853   3.974  1.00  0.00    -0.285 N 
ATOM     26  N   UNL     1       4.172   3.131   3.712  1.00  0.00    -0.175 NA
ATOM     27  H   UNL     1       3.863   1.273   4.516  1.00  0.00     0.189 HD
BRANCH  24  28
ATOM     28  C   UNL     1       5.284   4.987   2.640  1.00  0.00     0.003 A 
ATOM     29  C   UNL     1       5.279   5.915   3.694  1.00  0.00     0.012 A 
ATOM     30  C   UNL     1       5.323   5.467   1.328  1.00  0.00     0.012 A 
ATOM     31  C   UNL     1       5.356   7.288   3.443  1.00  0.00     0.021 A 
ATOM     32  C   UNL     1       5.409   6.841   1.071  1.00  0.00     0.021 A 
ATOM     33  C   UNL     1       5.434   7.744   2.131  1.00  0.00     0.041 A 
ATOM     34  Cl  UNL     1       5.554   9.430   1.813  1.00  0.00    -0.084 Cl
ENDBRANCH  24  28
ENDBRANCH  21  22
ENDBRANCH  19  21
ENDBRANCH   5   8
ENDBRANCH   3   4
ENDBRANCH   2   3
ENDBRANCH   1   2
BRANCH   1  35
ATOM     35  C   UNL     1      -0.155   4.197  -2.677  1.00  0.00     0.002 C 
BRANCH  35  36
ATOM     36  C   UNL     1      -1.219   3.989  -1.595  1.00  0.00     0.021 C 
BRANCH  36  37
ATOM     37  C   UNL     1      -1.343   5.143  -0.607  1.00  0.00     0.116 C 
BRANCH  37  38
ATOM     38  N   UNL     1      -1.697   6.381  -1.281  1.00  0.00    -0.352 N 
ATOM     39  C   UNL     1      -2.798   7.177  -1.100  1.00  0.00     0.251 C 
ATOM     40  H   UNL     1      -1.057   6.691  -1.962  1.00  0.00     0.163 HD
ATOM     41  O   UNL     1      -3.079   8.037  -1.930  1.00  0.00    -0.269 OA
BRANCH  39  42
ATOM     42  C   UNL     1      -3.645   6.986   0.095  1.00  0.00     0.039 A 
ATOM     43  C   UNL     1      -5.033   7.003  -0.049  1.00  0.00     0.014 A 
ATOM     44  C   UNL     1      -3.066   6.801   1.354  1.00  0.00     0.014 A 
ATOM     45  C   UNL     1      -5.842   6.795   1.069  1.00  0.00     0.010 A 
ATOM     46  C   UNL     1      -3.871   6.513   2.450  1.00  0.00     0.010 A 
ATOM     47  C   UNL     1      -5.268   6.523   2.323  1.00  0.00    -0.014 A 
BRANCH  47  48
ATOM     48  C   UNL     1      -6.118   6.256   3.510  1.00  0.00     0.031 A 
ATOM     49  C   UNL     1      -6.075   7.178   4.697  1.00  0.00     0.074 A 
ATOM     50  C   UNL     1      -6.885   5.149   3.540  1.00  0.00     0.049 A 
ATOM     51  N   UNL     1      -6.726   7.095   5.829  1.00  0.00    -0.248 NA
ATOM     52  C   UNL     1      -5.160   8.328   4.615  1.00  0.00     0.031 C 
ATOM     53  C   UNL     1      -6.967   4.148   2.474  1.00  0.00     0.029 A 
ATOM     54  N   UNL     1      -7.735   4.675   4.507  1.00  0.00    -0.354 N 
ATOM     55  C   UNL     1      -6.285   8.165   6.599  1.00  0.00     0.074 A 
ATOM     56  C   UNL     1      -5.273   8.851   5.827  1.00  0.00     0.031 C 
ATOM     57  C   UNL     1      -7.836   3.191   2.835  1.00  0.00     0.029 A 
ATOM     58  C   UNL     1      -8.339   3.486   4.173  1.00  0.00     0.049 A 
ATOM     59  H   UNL     1      -7.897   5.141   5.358  1.00  0.00     0.167 HD
ATOM     60  C   UNL     1      -6.697   8.552   7.831  1.00  0.00     0.031 A 
ATOM     61  C   UNL     1      -9.193   2.710   4.869  1.00  0.00     0.031 A 
ATOM     62  C   UNL     1      -7.704   7.860   8.593  1.00  0.00     0.049 A 
ATOM     63  C   UNL     1      -9.644   3.158   6.231  1.00  0.00     0.074 A 
ATOM     64  C   UNL     1      -8.245   8.208   9.818  1.00  0.00     0.029 A 
ATOM     65  N   UNL     1      -8.309   6.671   8.211  1.00  0.00    -0.354 N 
ATOM     66  N   UNL     1      -9.288   4.226   6.905  1.00  0.00    -0.248 NA
ATOM     67  C   UNL     1     -10.624   2.308   6.918  1.00  0.00     0.031 C 
ATOM     68  C   UNL     1      -9.124   7.193  10.210  1.00  0.00     0.029 A 
ATOM     69  C   UNL     1      -9.191   6.251   9.194  1.00  0.00     0.049 A 
ATOM     70  H   UNL     1      -8.138   6.196   7.366  1.00  0.00     0.167 HD
ATOM     71  C   UNL     1     -10.016   4.188   8.089  1.00  0.00     0.074 A 
ATOM     72  C   UNL     1     -10.846   3.001   8.028  1.00  0.00     0.031 C 
ATOM     73  C   UNL     1     -10.000   5.058   9.129  1.00  0.00     0.031 A 
BRANCH  60  74
ATOM     74  C   UNL     1      -6.030   9.760   8.439  1.00  0.00    -0.014 A 
ATOM     75  C   UNL     1      -6.193  11.046   7.891  1.00  0.00     0.010 A 
ATOM     76  C   UNL     1      -5.232   9.608   9.588  1.00  0.00     0.010 A 
ATOM     77  C   UNL     1      -5.521  12.143   8.440  1.00  0.00     0.020 A 
ATOM     78  C   UNL     1      -4.587  10.708  10.162  1.00  0.00     0.020 A 
ATOM     79  C   UNL     1      -4.716  11.964   9.569  1.00  0.00     0.054 A 
BRANCH  79  80
ATOM     80  S   UNL     1      -3.850  13.402  10.255  1.00  0.00     0.124 S 
ATOM     81  O   UNL     1      -2.821  13.643   9.246  1.00  0.00    -0.237 OA
ATOM     82  O   UNL     1      -4.906  14.408  10.326  1.00  0.00    -0.237 OA
ATOM     83  O   UNL     1      -3.357  12.928  11.546  1.00  0.00    -0.744 OA
ENDBRANCH  79  80
ENDBRANCH  60  74
BRANCH  61  84
ATOM     84  C   UNL     1      -9.671   1.433   4.271  1.00  0.00    -0.014 A 
ATOM     85  C   UNL     1     -10.996   1.295   3.824  1.00  0.00     0.010 A 
ATOM     86  C   UNL     1      -8.775   0.362   4.093  1.00  0.00     0.010 A 
ATOM     87  C   UNL     1     -11.416   0.110   3.211  1.00  0.00     0.020 A 
ATOM     88  C   UNL     1      -9.183  -0.812   3.454  1.00  0.00     0.020 A 
ATOM     89  C   UNL     1     -10.504  -0.932   3.021  1.00  0.00     0.054 A 
BRANCH  89  90
ATOM     90  S   UNL     1     -11.050  -2.424   2.145  1.00  0.00     0.124 S 
ATOM     91  O   UNL     1     -11.933  -3.047   3.126  1.00  0.00    -0.237 OA
ATOM     92  O   UNL     1     -11.706  -1.871   0.963  1.00  0.00    -0.237 OA
ATOM     93  O   UNL     1      -9.804  -3.141   1.879  1.00  0.00    -0.744 OA
ENDBRANCH  89  90
ENDBRANCH  61  84
BRANCH  73  94
ATOM     94  C   UNL     1     -10.928   4.777  10.284  1.00  0.00    -0.014 A 
ATOM     95  C   UNL     1     -10.706   3.699  11.158  1.00  0.00     0.010 A 
ATOM     96  C   UNL     1     -12.011   5.643  10.527  1.00  0.00     0.010 A 
ATOM     97  C   UNL     1     -11.571   3.471  12.232  1.00  0.00     0.020 A 
ATOM     98  C   UNL     1     -12.857   5.439  11.619  1.00  0.00     0.020 A 
ATOM     99  C   UNL     1     -12.641   4.343  12.456  1.00  0.00     0.054 A 
BRANCH  99 100
ATOM    100  S   UNL     1     -13.725   4.048  13.880  1.00  0.00     0.124 S 
ATOM    101  O   UNL     1     -14.462   2.860  13.459  1.00  0.00    -0.237 OA
ATOM    102  O   UNL     1     -12.773   3.845  14.970  1.00  0.00    -0.237 OA
ATOM    103  O   UNL     1     -14.517   5.272  13.973  1.00  0.00    -0.744 OA
ENDBRANCH  99 100
ENDBRANCH  73  94
ENDBRANCH  47  48
ENDBRANCH  39  42
ENDBRANCH  37  38
ENDBRANCH  36  37
ENDBRANCH  35  36
ENDBRANCH   1  35
TORSDOF 19
