REMARK SMILES O=C(NCCCCCCNC(=O)c1sccc1S(=O)(=O)Nc1ccc(Cn2cncn2)cc1)c1ccc(-c2c3nc(c(-c4ccc(S(=O)(=O)[O-])cc4)c4ccc([nH]4)c(-c4ccc(S(=O)(=O)[O-])cc4)c4nc(c(-c5ccc(S(=O)(=O)[O-])cc5)c5ccc2[nH]5)C=C4)C=C3)cc1
REMARK SMILES IDX 7 1 6 2 5 3 4 4 3 5 1 6 2 7 34 9 35 10 93 11 36 12 92 13
REMARK SMILES IDX 37 14 38 15 39 16 86 17 40 18 91 19 85 20 87 21 41 22 90 23
REMARK SMILES IDX 84 24 83 25 42 27 72 28 53 29 71 30 54 31 57 32 70 33 88 34
REMARK SMILES IDX 55 35 56 36 69 38 89 39 58 40 43 41 44 42 52 43 45 44 51 45
REMARK SMILES IDX 46 46 47 47 48 48 49 49 50 50 73 51 74 52 82 53 75 54 81 55
REMARK SMILES IDX 76 56 77 57 78 58 79 59 80 60 59 61 60 62 68 63 61 64 67 65
REMARK SMILES IDX 62 66 63 67 64 68 65 69 66 70 8 71 9 72 10 73 11 74 12 76
REMARK SMILES IDX 13 77 14 78 17 79 15 80 16 81 18 82 19 83 20 84 21 85 22 87
REMARK SMILES IDX 23 88 33 89 24 90 32 91 25 92 26 93 27 94 28 95 31 96 29 97
REMARK SMILES IDX 30 98
REMARK H PARENT 3 8 87 26 57 37 10 75 21 86
REMARK Flexibility Score: inf
ROOT
ATOM      1  C   UNL     1       4.985   2.130   3.265  1.00  0.00     0.002 C 
ENDROOT
BRANCH   1   2
ATOM      2  C   UNL     1       4.544   2.693   1.908  1.00  0.00     0.002 C 
BRANCH   2   3
ATOM      3  C   UNL     1       4.958   1.872   0.683  1.00  0.00     0.021 C 
BRANCH   3   4
ATOM      4  C   UNL     1       4.697   0.373   0.808  1.00  0.00     0.116 C 
BRANCH   4   5
ATOM      5  N   UNL     1       3.299   0.032   0.930  1.00  0.00    -0.352 N 
ATOM      6  O   UNL     1       1.211  -0.539   0.500  1.00  0.00    -0.269 OA
ATOM      7  C   UNL     1       2.282  -0.141   0.034  1.00  0.00     0.251 C 
ATOM      8  H   UNL     1       3.016  -0.106   1.863  1.00  0.00     0.163 HD
BRANCH   7   9
ATOM      9  C   UNL     1       2.369   0.173  -1.417  1.00  0.00     0.039 A 
ATOM     10  C   UNL     1       3.545   0.341  -2.150  1.00  0.00     0.014 A 
ATOM     11  C   UNL     1       1.137   0.304  -2.084  1.00  0.00     0.014 A 
ATOM     12  C   UNL     1       3.497   0.702  -3.493  1.00  0.00     0.010 A 
ATOM     13  C   UNL     1       1.082   0.644  -3.430  1.00  0.00     0.010 A 
ATOM     14  C   UNL     1       2.266   0.867  -4.127  1.00  0.00    -0.014 A 
BRANCH  14  15
ATOM     15  C   UNL     1       2.264   1.080  -5.572  1.00  0.00     0.031 A 
ATOM     16  C   UNL     1       2.806  -0.064  -6.366  1.00  0.00     0.074 A 
ATOM     17  C   UNL     1       1.670   2.130  -6.173  1.00  0.00     0.049 A 
ATOM     18  N   UNL     1       3.808  -0.074  -7.184  1.00  0.00    -0.248 NA
ATOM     19  C   UNL     1       2.213  -1.392  -6.131  1.00  0.00     0.031 C 
ATOM     20  C   UNL     1       0.840   3.166  -5.555  1.00  0.00     0.029 A 
ATOM     21  N   UNL     1       1.583   2.418  -7.502  1.00  0.00    -0.354 N 
ATOM     22  C   UNL     1       3.860  -1.363  -7.711  1.00  0.00     0.074 A 
ATOM     23  C   UNL     1       2.953  -2.162  -6.927  1.00  0.00     0.031 C 
ATOM     24  C   UNL     1       0.146   3.812  -6.520  1.00  0.00     0.029 A 
ATOM     25  C   UNL     1       0.583   3.330  -7.820  1.00  0.00     0.049 A 
ATOM     26  H   UNL     1       2.175   2.015  -8.177  1.00  0.00     0.167 HD
ATOM     27  C   UNL     1       4.488  -1.651  -8.886  1.00  0.00     0.031 A 
ATOM     28  C   UNL     1       0.100   3.611  -9.057  1.00  0.00     0.031 A 
ATOM     29  C   UNL     1       5.396  -0.614  -9.287  1.00  0.00     0.049 A 
ATOM     30  C   UNL     1       1.110   3.159 -10.044  1.00  0.00     0.074 A 
ATOM     31  C   UNL     1       6.527  -0.048  -8.736  1.00  0.00     0.029 A 
ATOM     32  N   UNL     1       4.970   0.262 -10.257  1.00  0.00    -0.354 N 
ATOM     33  N   UNL     1       2.288   3.702 -10.168  1.00  0.00    -0.248 NA
ATOM     34  C   UNL     1       0.978   1.823 -10.600  1.00  0.00     0.031 C 
ATOM     35  C   UNL     1       6.430   1.340  -9.046  1.00  0.00     0.029 A 
ATOM     36  C   UNL     1       5.283   1.524  -9.821  1.00  0.00     0.049 A 
ATOM     37  H   UNL     1       4.526   0.028 -11.103  1.00  0.00     0.167 HD
ATOM     38  C   UNL     1       3.144   2.641 -10.419  1.00  0.00     0.074 A 
ATOM     39  C   UNL     1       2.268   1.524 -10.769  1.00  0.00     0.031 C 
ATOM     40  C   UNL     1       4.460   2.692 -10.058  1.00  0.00     0.031 A 
BRANCH  27  41
ATOM     41  C   UNL     1       3.999  -2.711  -9.842  1.00  0.00    -0.014 A 
ATOM     42  C   UNL     1       4.768  -3.029 -10.980  1.00  0.00     0.010 A 
ATOM     43  C   UNL     1       2.680  -3.210  -9.802  1.00  0.00     0.010 A 
ATOM     44  C   UNL     1       4.224  -3.768 -12.041  1.00  0.00     0.020 A 
ATOM     45  C   UNL     1       2.143  -3.983 -10.832  1.00  0.00     0.020 A 
ATOM     46  C   UNL     1       2.910  -4.232 -11.962  1.00  0.00     0.054 A 
BRANCH  46  47
ATOM     47  S   UNL     1       2.186  -5.105 -13.373  1.00  0.00     0.124 S 
ATOM     48  O   UNL     1       2.135  -4.054 -14.384  1.00  0.00    -0.237 OA
ATOM     49  O   UNL     1       3.158  -6.169 -13.610  1.00  0.00    -0.237 OA
ATOM     50  O   UNL     1       0.890  -5.555 -12.868  1.00  0.00    -0.744 OA
ENDBRANCH  46  47
ENDBRANCH  27  41
BRANCH  28  51
ATOM     51  C   UNL     1      -1.301   3.925  -9.442  1.00  0.00    -0.014 A 
ATOM     52  C   UNL     1      -1.611   4.432 -10.719  1.00  0.00     0.010 A 
ATOM     53  C   UNL     1      -2.368   3.454  -8.649  1.00  0.00     0.010 A 
ATOM     54  C   UNL     1      -2.931   4.410 -11.206  1.00  0.00     0.020 A 
ATOM     55  C   UNL     1      -3.684   3.436  -9.124  1.00  0.00     0.020 A 
ATOM     56  C   UNL     1      -3.957   3.892 -10.412  1.00  0.00     0.054 A 
BRANCH  56  57
ATOM     57  S   UNL     1      -5.623   3.695 -11.112  1.00  0.00     0.124 S 
ATOM     58  O   UNL     1      -6.084   5.077 -11.212  1.00  0.00    -0.237 OA
ATOM     59  O   UNL     1      -5.358   3.023 -12.381  1.00  0.00    -0.237 OA
ATOM     60  O   UNL     1      -6.320   2.880 -10.118  1.00  0.00    -0.744 OA
ENDBRANCH  56  57
ENDBRANCH  28  51
BRANCH  40  61
ATOM     61  C   UNL     1       5.043   4.022  -9.637  1.00  0.00    -0.014 A 
ATOM     62  C   UNL     1       4.573   4.773  -8.541  1.00  0.00     0.010 A 
ATOM     63  C   UNL     1       6.212   4.452 -10.289  1.00  0.00     0.010 A 
ATOM     64  C   UNL     1       5.240   5.937  -8.129  1.00  0.00     0.020 A 
ATOM     65  C   UNL     1       6.892   5.599  -9.872  1.00  0.00     0.020 A 
ATOM     66  C   UNL     1       6.398   6.342  -8.800  1.00  0.00     0.054 A 
BRANCH  66  67
ATOM     67  S   UNL     1       7.288   7.821  -8.236  1.00  0.00     0.124 S 
ATOM     68  O   UNL     1       6.366   8.898  -8.585  1.00  0.00    -0.237 OA
ATOM     69  O   UNL     1       7.453   7.573  -6.805  1.00  0.00    -0.237 OA
ATOM     70  O   UNL     1       8.530   7.795  -9.007  1.00  0.00    -0.744 OA
ENDBRANCH  66  67
ENDBRANCH  40  61
ENDBRANCH  14  15
ENDBRANCH   7   9
ENDBRANCH   4   5
ENDBRANCH   3   4
ENDBRANCH   2   3
ENDBRANCH   1   2
BRANCH   1  71
ATOM     71  C   UNL     1       6.481   1.801   3.385  1.00  0.00     0.021 C 
BRANCH  71  72
ATOM     72  C   UNL     1       7.381   3.028   3.433  1.00  0.00     0.116 C 
BRANCH  72  73
ATOM     73  N   UNL     1       7.236   3.697   4.706  1.00  0.00    -0.351 N 
ATOM     74  C   UNL     1       8.135   4.445   5.410  1.00  0.00     0.262 C 
ATOM     75  H   UNL     1       6.353   3.598   5.130  1.00  0.00     0.163 HD
ATOM     76  O   UNL     1       7.840   4.688   6.583  1.00  0.00    -0.268 OA
BRANCH  74  77
ATOM     77  C   UNL     1       9.388   4.829   4.806  1.00  0.00     0.112 A 
ATOM     78  S   UNL     1      10.777   4.455   5.775  1.00  0.00    -0.137 S 
ATOM     79  C   UNL     1       9.759   5.473   3.638  1.00  0.00     0.111 A 
ATOM     80  C   UNL     1      11.860   5.010   4.592  1.00  0.00     0.067 A 
ATOM     81  C   UNL     1      11.196   5.517   3.503  1.00  0.00     0.035 A 
BRANCH  79  82
ATOM     82  S   UNL     1       8.818   6.186   2.359  1.00  0.00     0.263 S 
ATOM     83  O   UNL     1       9.418   7.499   2.234  1.00  0.00    -0.201 OA
ATOM     84  O   UNL     1       8.960   5.201   1.307  1.00  0.00    -0.201 OA
BRANCH  82  85
ATOM     85  N   UNL     1       7.188   6.404   2.526  1.00  0.00    -0.280 N 
ATOM     86  H   UNL     1       6.649   6.332   1.705  1.00  0.00     0.180 HD
BRANCH  85  87
ATOM     87  C   UNL     1       6.486   6.681   3.713  1.00  0.00     0.049 A 
ATOM     88  C   UNL     1       5.232   6.078   3.824  1.00  0.00     0.027 A 
ATOM     89  C   UNL     1       7.017   7.385   4.784  1.00  0.00     0.027 A 
ATOM     90  C   UNL     1       4.625   5.956   5.067  1.00  0.00     0.008 A 
ATOM     91  C   UNL     1       6.390   7.293   6.031  1.00  0.00     0.008 A 
ATOM     92  C   UNL     1       5.241   6.501   6.199  1.00  0.00    -0.026 A 
BRANCH  92  93
ATOM     93  C   UNL     1       4.778   6.117   7.583  1.00  0.00     0.181 C 
BRANCH  93  94
ATOM     94  N   UNL     1       3.450   6.607   7.882  1.00  0.00    -0.249 N 
ATOM     95  C   UNL     1       2.259   6.017   7.586  1.00  0.00     0.220 A 
ATOM     96  N   UNL     1       3.265   7.718   8.622  1.00  0.00    -0.160 NA
ATOM     97  N   UNL     1       1.277   6.739   8.073  1.00  0.00    -0.224 NA
ATOM     98  C   UNL     1       1.933   7.769   8.685  1.00  0.00     0.246 A 
ENDBRANCH  93  94
ENDBRANCH  92  93
ENDBRANCH  85  87
ENDBRANCH  82  85
ENDBRANCH  79  82
ENDBRANCH  74  77
ENDBRANCH  72  73
ENDBRANCH  71  72
ENDBRANCH   1  71
TORSDOF 21
