REMARK SMILES CC1(C)C(C(=O)Nc2ccc(CC(=O)NCCCCCCNC(=O)c3ccc(-c4c5nc(c(-c6ccc(S(=O)(=O)[O-])cc6)c6ccc([nH]6)c(-c6ccc(S(=O)(=O)[O-])cc6)c6nc(c(-c7ccc(S(=O)(=O)[O-])cc7)c7ccc4[nH]7)C=C6)C=C5)cc3)cc2)C1(C)C
REMARK SMILES IDX 18 1 17 2 16 3 15 4 13 5 14 6 12 8 11 9 8 10 9 11 86 12
REMARK SMILES IDX 10 13 85 14 7 15 5 16 6 17 4 19 1 20 2 21 3 22 87 23 88 24
REMARK SMILES IDX 89 25 19 26 20 27 21 28 22 29 23 30 24 32 25 33 26 34 84 35
REMARK SMILES IDX 27 36 83 37 28 38 29 39 30 40 77 41 31 42 82 43 76 44 78 45
REMARK SMILES IDX 32 46 81 47 75 48 74 49 33 51 63 52 44 53 62 54 45 55 48 56
REMARK SMILES IDX 61 57 79 58 46 59 47 60 60 62 80 63 49 64 34 65 35 66 43 67
REMARK SMILES IDX 36 68 42 69 37 70 38 71 39 72 40 73 41 74 64 75 65 76 73 77
REMARK SMILES IDX 66 78 72 79 67 80 68 81 69 82 70 83 71 84 50 85 51 86 59 87
REMARK SMILES IDX 52 88 58 89 53 90 54 91 55 92 56 93 57 94
REMARK H PARENT 15 7 7 18 22 31 78 50 48 61
REMARK Flexibility Score: inf
ROOT
ATOM      1  C   UNL     1      -1.862  -0.536   8.479  1.00  0.00     0.002 C 
ENDROOT
BRANCH   1   2
ATOM      2  C   UNL     1      -0.979  -0.815   7.261  1.00  0.00     0.021 C 
BRANCH   2   3
ATOM      3  C   UNL     1       0.498  -1.010   7.616  1.00  0.00     0.116 C 
BRANCH   3   4
ATOM      4  N   UNL     1       0.721  -2.313   8.207  1.00  0.00    -0.356 N 
ATOM      5  C   UNL     1       1.063  -3.482   7.590  1.00  0.00     0.224 C 
ATOM      6  O   UNL     1       1.081  -4.519   8.257  1.00  0.00    -0.275 OA
ATOM      7  H   UNL     1       0.611  -2.363   9.184  1.00  0.00     0.163 HD
BRANCH   5   8
ATOM      8  C   UNL     1       1.482  -3.478   6.136  1.00  0.00     0.135 C 
BRANCH   8   9
ATOM      9  C   UNL     1       0.367  -3.308   5.135  1.00  0.00    -0.039 A 
ATOM     10  C   UNL     1      -1.368  -3.048   2.965  1.00  0.00     0.041 A 
ATOM     11  C   UNL     1      -1.342  -4.243   3.682  1.00  0.00     0.026 A 
ATOM     12  C   UNL     1      -0.731  -1.933   3.475  1.00  0.00     0.026 A 
ATOM     13  C   UNL     1      -0.471  -4.372   4.773  1.00  0.00     0.006 A 
ATOM     14  C   UNL     1       0.191  -2.077   4.499  1.00  0.00     0.006 A 
BRANCH  10  15
ATOM     15  N   UNL     1      -1.967  -2.993   1.702  1.00  0.00    -0.326 N 
ATOM     16  C   UNL     1      -1.730  -2.022   0.751  1.00  0.00     0.228 C 
ATOM     17  O   UNL     1      -2.685  -1.377   0.320  1.00  0.00    -0.274 OA
ATOM     18  H   UNL     1      -2.609  -3.704   1.474  1.00  0.00     0.169 HD
BRANCH  16  19
ATOM     19  C   UNL     1      -0.449  -1.960  -0.038  1.00  0.00     0.091 C 
ATOM     20  C   UNL     1       1.116  -0.111  -0.859  1.00  0.00     0.012 C 
ATOM     21  C   UNL     1       0.791  -1.099   0.252  1.00  0.00    -0.017 C 
ATOM     22  C   UNL     1       1.256  -0.520   1.564  1.00  0.00     0.012 C 
ATOM     23  C   UNL     1       0.903  -2.639   0.046  1.00  0.00    -0.017 C 
ATOM     24  C   UNL     1       1.561  -3.103  -1.240  1.00  0.00     0.012 C 
ATOM     25  C   UNL     1       1.172  -3.640   1.146  1.00  0.00     0.012 C 
ENDBRANCH  16  19
ENDBRANCH  10  15
ENDBRANCH   8   9
ENDBRANCH   5   8
ENDBRANCH   3   4
ENDBRANCH   2   3
ENDBRANCH   1   2
BRANCH   1  26
ATOM     26  C   UNL     1      -1.499   0.742   9.241  1.00  0.00     0.002 C 
BRANCH  26  27
ATOM     27  C   UNL     1      -1.537   2.020   8.398  1.00  0.00     0.021 C 
BRANCH  27  28
ATOM     28  C   UNL     1      -2.911   2.345   7.818  1.00  0.00     0.116 C 
BRANCH  28  29
ATOM     29  N   UNL     1      -3.896   2.552   8.869  1.00  0.00    -0.352 N 
ATOM     30  C   UNL     1      -4.638   3.669   9.159  1.00  0.00     0.251 C 
ATOM     31  H   UNL     1      -4.052   1.778   9.457  1.00  0.00     0.163 HD
ATOM     32  O   UNL     1      -5.221   3.755  10.234  1.00  0.00    -0.269 OA
BRANCH  30  33
ATOM     33  C   UNL     1      -4.726   4.766   8.173  1.00  0.00     0.039 A 
ATOM     34  C   UNL     1      -4.616   6.086   8.616  1.00  0.00     0.014 A 
ATOM     35  C   UNL     1      -4.935   4.491   6.819  1.00  0.00     0.014 A 
ATOM     36  C   UNL     1      -4.662   7.130   7.689  1.00  0.00     0.010 A 
ATOM     37  C   UNL     1      -4.909   5.527   5.890  1.00  0.00     0.010 A 
ATOM     38  C   UNL     1      -4.777   6.857   6.316  1.00  0.00    -0.014 A 
BRANCH  38  39
ATOM     39  C   UNL     1      -4.755   7.949   5.310  1.00  0.00     0.031 A 
ATOM     40  C   UNL     1      -5.963   8.213   4.452  1.00  0.00     0.074 A 
ATOM     41  C   UNL     1      -3.626   8.660   5.128  1.00  0.00     0.049 A 
ATOM     42  N   UNL     1      -6.112   9.082   3.486  1.00  0.00    -0.248 NA
ATOM     43  C   UNL     1      -7.150   7.376   4.695  1.00  0.00     0.031 C 
ATOM     44  C   UNL     1      -2.377   8.473   5.871  1.00  0.00     0.029 A 
ATOM     45  N   UNL     1      -3.341   9.680   4.255  1.00  0.00    -0.354 N 
ATOM     46  C   UNL     1      -7.399   8.888   2.997  1.00  0.00     0.074 A 
ATOM     47  C   UNL     1      -7.971   7.786   3.740  1.00  0.00     0.031 C 
ATOM     48  C   UNL     1      -1.470   9.365   5.440  1.00  0.00     0.029 A 
ATOM     49  C   UNL     1      -2.055  10.156   4.363  1.00  0.00     0.049 A 
ATOM     50  H   UNL     1      -3.995  10.037   3.612  1.00  0.00     0.167 HD
ATOM     51  C   UNL     1      -8.051   9.575   2.029  1.00  0.00     0.031 A 
ATOM     52  C   UNL     1      -1.415  11.116   3.667  1.00  0.00     0.031 A 
ATOM     53  C   UNL     1      -7.479  10.674   1.296  1.00  0.00     0.049 A 
ATOM     54  C   UNL     1      -2.155  11.854   2.586  1.00  0.00     0.074 A 
ATOM     55  C   UNL     1      -8.076  11.470   0.335  1.00  0.00     0.029 A 
ATOM     56  N   UNL     1      -6.176  11.129   1.439  1.00  0.00    -0.354 N 
ATOM     57  N   UNL     1      -3.395  11.700   2.184  1.00  0.00    -0.248 NA
ATOM     58  C   UNL     1      -1.414  12.902   1.871  1.00  0.00     0.031 C 
ATOM     59  C   UNL     1      -7.118  12.370  -0.144  1.00  0.00     0.029 A 
ATOM     60  C   UNL     1      -5.943  12.177   0.564  1.00  0.00     0.049 A 
ATOM     61  H   UNL     1      -5.515  10.761   2.069  1.00  0.00     0.167 HD
ATOM     62  C   UNL     1      -3.590  12.651   1.188  1.00  0.00     0.074 A 
ATOM     63  C   UNL     1      -2.347  13.384   1.061  1.00  0.00     0.031 C 
ATOM     64  C   UNL     1      -4.699  12.895   0.447  1.00  0.00     0.031 A 
BRANCH  51  65
ATOM     65  C   UNL     1      -9.460   9.151   1.700  1.00  0.00    -0.014 A 
ATOM     66  C   UNL     1     -10.513   9.361   2.609  1.00  0.00     0.010 A 
ATOM     67  C   UNL     1      -9.743   8.575   0.448  1.00  0.00     0.010 A 
ATOM     68  C   UNL     1     -11.814   8.964   2.290  1.00  0.00     0.020 A 
ATOM     69  C   UNL     1     -11.048   8.204   0.113  1.00  0.00     0.020 A 
ATOM     70  C   UNL     1     -12.073   8.386   1.043  1.00  0.00     0.054 A 
BRANCH  70  71
ATOM     71  S   UNL     1     -13.776   7.904   0.647  1.00  0.00     0.124 S 
ATOM     72  O   UNL     1     -13.962   6.730   1.495  1.00  0.00    -0.237 OA
ATOM     73  O   UNL     1     -14.542   9.086   1.035  1.00  0.00    -0.237 OA
ATOM     74  O   UNL     1     -13.737   7.635  -0.788  1.00  0.00    -0.744 OA
ENDBRANCH  70  71
ENDBRANCH  51  65
BRANCH  52  75
ATOM     75  C   UNL     1       0.005  11.438   3.980  1.00  0.00    -0.014 A 
ATOM     76  C   UNL     1       0.344  12.658   4.590  1.00  0.00     0.010 A 
ATOM     77  C   UNL     1       1.026  10.516   3.681  1.00  0.00     0.010 A 
ATOM     78  C   UNL     1       1.678  12.960   4.878  1.00  0.00     0.020 A 
ATOM     79  C   UNL     1       2.357  10.802   3.994  1.00  0.00     0.020 A 
ATOM     80  C   UNL     1       2.677  12.028   4.580  1.00  0.00     0.054 A 
BRANCH  80  81
ATOM     81  S   UNL     1       4.396  12.419   5.009  1.00  0.00     0.124 S 
ATOM     82  O   UNL     1       4.739  13.421   4.006  1.00  0.00    -0.237 OA
ATOM     83  O   UNL     1       4.274  12.909   6.380  1.00  0.00    -0.237 OA
ATOM     84  O   UNL     1       5.082  11.136   4.874  1.00  0.00    -0.744 OA
ENDBRANCH  80  81
ENDBRANCH  52  75
BRANCH  64  85
ATOM     85  C   UNL     1      -4.632  14.024  -0.549  1.00  0.00    -0.014 A 
ATOM     86  C   UNL     1      -3.874  13.914  -1.728  1.00  0.00     0.010 A 
ATOM     87  C   UNL     1      -5.384  15.191  -0.323  1.00  0.00     0.010 A 
ATOM     88  C   UNL     1      -3.844  14.965  -2.648  1.00  0.00     0.020 A 
ATOM     89  C   UNL     1      -5.380  16.232  -1.255  1.00  0.00     0.020 A 
ATOM     90  C   UNL     1      -4.598  16.118  -2.405  1.00  0.00     0.054 A 
BRANCH  90  91
ATOM     91  S   UNL     1      -4.576  17.450  -3.636  1.00  0.00     0.124 S 
ATOM     92  O   UNL     1      -3.246  18.022  -3.441  1.00  0.00    -0.237 OA
ATOM     93  O   UNL     1      -4.772  16.730  -4.892  1.00  0.00    -0.237 OA
ATOM     94  O   UNL     1      -5.688  18.310  -3.237  1.00  0.00    -0.744 OA
ENDBRANCH  90  91
ENDBRANCH  64  85
ENDBRANCH  38  39
ENDBRANCH  30  33
ENDBRANCH  28  29
ENDBRANCH  27  28
ENDBRANCH  26  27
ENDBRANCH   1  26
TORSDOF 19
