REMARK SMILES O=C(Cc1ccc(S(=O)(=O)CC(=O)NCC2CC2)cc1)NCCCCCCNC(=O)c1ccc(-c2c3nc(c(-c4ccc(S(=O)(=O)[O-])cc4)c4ccc([nH]4)c(-c4ccc(S(=O)(=O)[O-])cc4)c4nc(c(-c5ccc(S(=O)(=O)[O-])cc5)c5ccc2[nH]5)C=C4)C=C3)cc1
REMARK SMILES IDX 23 1 22 2 21 3 1 4 2 5 3 7 4 8 5 9 20 10 6 11 19 12 7 13
REMARK SMILES IDX 8 14 9 15 10 16 11 17 12 18 13 19 14 20 15 22 16 23 17 24
REMARK SMILES IDX 18 25 24 26 25 27 26 28 27 29 28 30 29 31 30 33 31 34 32 35
REMARK SMILES IDX 90 36 33 37 89 38 34 39 35 40 36 41 83 42 37 43 88 44 82 45
REMARK SMILES IDX 84 46 38 47 87 48 81 49 80 50 39 52 69 53 50 54 68 55 51 56
REMARK SMILES IDX 54 57 67 58 85 59 52 60 53 61 66 63 86 64 55 65 40 66 41 67
REMARK SMILES IDX 49 68 42 69 48 70 43 71 44 72 45 73 46 74 47 75 70 76 71 77
REMARK SMILES IDX 79 78 72 79 78 80 73 81 74 82 75 83 76 84 77 85 56 86 57 87
REMARK SMILES IDX 65 88 58 89 64 90 59 91 60 92 61 93 62 94 63 95
REMARK H PARENT 21 6 14 21 28 32 84 51 54 62
REMARK Flexibility Score: inf
ROOT
ATOM      1  C   UNL     1       2.560  -3.498  -0.344  1.00  0.00     0.021 C 
ENDROOT
BRANCH   1   2
ATOM      2  C   UNL     1       2.006  -2.273   0.382  1.00  0.00     0.116 C 
BRANCH   2   3
ATOM      3  N   UNL     1       2.682  -1.067  -0.045  1.00  0.00    -0.356 N 
ATOM      4  O   UNL     1       0.886   0.362   0.118  1.00  0.00    -0.275 OA
ATOM      5  C   UNL     1       2.078   0.170  -0.093  1.00  0.00     0.224 C 
ATOM      6  H   UNL     1       3.626  -1.134  -0.316  1.00  0.00     0.163 HD
BRANCH   5   7
ATOM      7  C   UNL     1       3.054   1.293  -0.413  1.00  0.00     0.135 C 
BRANCH   7   8
ATOM      8  C   UNL     1       3.708   1.863   0.827  1.00  0.00    -0.039 A 
ATOM      9  C   UNL     1       4.485   1.057   1.673  1.00  0.00     0.005 A 
ATOM     10  C   UNL     1       3.529   3.213   1.159  1.00  0.00     0.005 A 
ATOM     11  C   UNL     1       5.038   1.579   2.840  1.00  0.00     0.020 A 
ATOM     12  C   UNL     1       4.076   3.740   2.332  1.00  0.00     0.020 A 
ATOM     13  C   UNL     1       4.836   2.921   3.166  1.00  0.00     0.067 A 
BRANCH  13  14
ATOM     14  S   UNL     1       5.523   3.528   4.683  1.00  0.00     0.187 S 
ATOM     15  O   UNL     1       4.413   3.613   5.615  1.00  0.00    -0.223 OA
ATOM     16  O   UNL     1       6.655   2.673   5.001  1.00  0.00    -0.223 OA
BRANCH  14  17
ATOM     17  C   UNL     1       6.151   5.154   4.471  1.00  0.00     0.241 C 
BRANCH  17  18
ATOM     18  C   UNL     1       6.747   5.415   3.127  1.00  0.00     0.235 C 
ATOM     19  O   UNL     1       6.101   6.015   2.263  1.00  0.00    -0.274 OA
ATOM     20  N   UNL     1       8.030   5.089   2.834  1.00  0.00    -0.355 N 
ATOM     21  H   UNL     1       8.324   5.331   1.926  1.00  0.00     0.163 HD
BRANCH  20  22
ATOM     22  C   UNL     1       9.034   4.439   3.648  1.00  0.00     0.119 C 
BRANCH  22  23
ATOM     23  C   UNL     1       9.674   3.345   2.854  1.00  0.00     0.008 C 
ATOM     24  C   UNL     1       9.820   1.966   3.446  1.00  0.00     0.006 C 
ATOM     25  C   UNL     1       8.866   2.191   2.310  1.00  0.00     0.006 C 
ENDBRANCH  22  23
ENDBRANCH  20  22
ENDBRANCH  17  18
ENDBRANCH  14  17
ENDBRANCH  13  14
ENDBRANCH   7   8
ENDBRANCH   5   7
ENDBRANCH   2   3
ENDBRANCH   1   2
BRANCH   1  26
ATOM     26  C   UNL     1       4.066  -3.738  -0.151  1.00  0.00     0.002 C 
BRANCH  26  27
ATOM     27  C   UNL     1       4.512  -3.987   1.293  1.00  0.00     0.002 C 
BRANCH  27  28
ATOM     28  C   UNL     1       3.862  -5.194   1.970  1.00  0.00     0.021 C 
BRANCH  28  29
ATOM     29  C   UNL     1       4.014  -6.512   1.218  1.00  0.00     0.116 C 
BRANCH  29  30
ATOM     30  N   UNL     1       5.402  -6.930   1.093  1.00  0.00    -0.352 N 
ATOM     31  C   UNL     1       5.953  -8.168   1.323  1.00  0.00     0.251 C 
ATOM     32  H   UNL     1       6.032  -6.231   0.805  1.00  0.00     0.163 HD
ATOM     33  O   UNL     1       7.172  -8.309   1.321  1.00  0.00    -0.269 OA
BRANCH  31  34
ATOM     34  C   UNL     1       5.069  -9.322   1.599  1.00  0.00     0.039 A 
ATOM     35  C   UNL     1       5.376 -10.170   2.666  1.00  0.00     0.014 A 
ATOM     36  C   UNL     1       3.935  -9.559   0.817  1.00  0.00     0.014 A 
ATOM     37  C   UNL     1       4.512 -11.221   2.985  1.00  0.00     0.010 A 
ATOM     38  C   UNL     1       3.039 -10.560   1.181  1.00  0.00     0.010 A 
ATOM     39  C   UNL     1       3.319 -11.405   2.266  1.00  0.00    -0.014 A 
BRANCH  39  40
ATOM     40  C   UNL     1       2.358 -12.482   2.625  1.00  0.00     0.031 A 
ATOM     41  C   UNL     1       2.064 -13.587   1.645  1.00  0.00     0.074 A 
ATOM     42  C   UNL     1       1.710 -12.438   3.808  1.00  0.00     0.049 A 
ATOM     43  N   UNL     1       1.205 -14.569   1.744  1.00  0.00    -0.248 NA
ATOM     44  C   UNL     1       2.817 -13.575   0.379  1.00  0.00     0.031 C 
ATOM     45  C   UNL     1       1.879 -11.402   4.831  1.00  0.00     0.029 A 
ATOM     46  N   UNL     1       0.771 -13.282   4.347  1.00  0.00    -0.354 N 
ATOM     47  C   UNL     1       1.309 -15.284   0.556  1.00  0.00     0.074 A 
ATOM     48  C   UNL     1       2.272 -14.592  -0.272  1.00  0.00     0.031 C 
ATOM     49  C   UNL     1       1.087 -11.684   5.878  1.00  0.00     0.029 A 
ATOM     50  C   UNL     1       0.323 -12.893   5.588  1.00  0.00     0.049 A 
ATOM     51  H   UNL     1       0.449 -14.091   3.888  1.00  0.00     0.167 HD
ATOM     52  C   UNL     1       0.680 -16.428   0.195  1.00  0.00     0.031 A 
ATOM     53  C   UNL     1      -0.607 -13.439   6.396  1.00  0.00     0.031 A 
ATOM     54  C   UNL     1      -0.269 -17.123   1.024  1.00  0.00     0.049 A 
ATOM     55  C   UNL     1      -1.310 -14.698   5.960  1.00  0.00     0.074 A 
ATOM     56  C   UNL     1      -0.935 -18.307   0.759  1.00  0.00     0.029 A 
ATOM     57  N   UNL     1      -0.683 -16.703   2.278  1.00  0.00    -0.354 N 
ATOM     58  N   UNL     1      -1.159 -15.385   4.852  1.00  0.00    -0.248 NA
ATOM     59  C   UNL     1      -2.299 -15.263   6.889  1.00  0.00     0.031 C 
ATOM     60  C   UNL     1      -1.787 -18.579   1.833  1.00  0.00     0.029 A 
ATOM     61  C   UNL     1      -1.605 -17.598   2.795  1.00  0.00     0.049 A 
ATOM     62  H   UNL     1      -0.368 -15.890   2.735  1.00  0.00     0.167 HD
ATOM     63  C   UNL     1      -2.006 -16.482   4.970  1.00  0.00     0.074 A 
ATOM     64  C   UNL     1      -2.654 -16.375   6.260  1.00  0.00     0.031 C 
ATOM     65  C   UNL     1      -2.229 -17.487   4.088  1.00  0.00     0.031 A 
BRANCH  52  66
ATOM     66  C   UNL     1       1.008 -17.014  -1.153  1.00  0.00    -0.014 A 
ATOM     67  C   UNL     1       2.263 -17.603  -1.396  1.00  0.00     0.010 A 
ATOM     68  C   UNL     1       0.031 -17.044  -2.165  1.00  0.00     0.010 A 
ATOM     69  C   UNL     1       2.543 -18.189  -2.633  1.00  0.00     0.020 A 
ATOM     70  C   UNL     1       0.298 -17.654  -3.394  1.00  0.00     0.020 A 
ATOM     71  C   UNL     1       1.557 -18.214  -3.623  1.00  0.00     0.054 A 
BRANCH  71  72
ATOM     72  S   UNL     1       1.933 -19.029  -5.199  1.00  0.00     0.124 S 
ATOM     73  O   UNL     1       2.882 -18.096  -5.802  1.00  0.00    -0.237 OA
ATOM     74  O   UNL     1       2.495 -20.307  -4.770  1.00  0.00    -0.237 OA
ATOM     75  O   UNL     1       0.636 -19.114  -5.866  1.00  0.00    -0.744 OA
ENDBRANCH  71  72
ENDBRANCH  52  66
BRANCH  53  76
ATOM     76  C   UNL     1      -0.940 -12.800   7.701  1.00  0.00    -0.014 A 
ATOM     77  C   UNL     1      -0.630 -13.440   8.915  1.00  0.00     0.010 A 
ATOM     78  C   UNL     1      -1.602 -11.559   7.736  1.00  0.00     0.010 A 
ATOM     79  C   UNL     1      -1.013 -12.873  10.134  1.00  0.00     0.020 A 
ATOM     80  C   UNL     1      -1.956 -10.972   8.954  1.00  0.00     0.020 A 
ATOM     81  C   UNL     1      -1.678 -11.644  10.145  1.00  0.00     0.054 A 
BRANCH  81  82
ATOM     82  S   UNL     1      -2.160 -10.923  11.739  1.00  0.00     0.124 S 
ATOM     83  O   UNL     1      -3.283 -11.770  12.127  1.00  0.00    -0.237 OA
ATOM     84  O   UNL     1      -0.945 -11.076  12.535  1.00  0.00    -0.237 OA
ATOM     85  O   UNL     1      -2.503  -9.543  11.398  1.00  0.00    -0.744 OA
ENDBRANCH  81  82
ENDBRANCH  53  76
BRANCH  65  86
ATOM     86  C   UNL     1      -3.170 -18.586   4.506  1.00  0.00    -0.014 A 
ATOM     87  C   UNL     1      -4.556 -18.369   4.599  1.00  0.00     0.010 A 
ATOM     88  C   UNL     1      -2.660 -19.873   4.756  1.00  0.00     0.010 A 
ATOM     89  C   UNL     1      -5.410 -19.413   4.967  1.00  0.00     0.020 A 
ATOM     90  C   UNL     1      -3.513 -20.926   5.093  1.00  0.00     0.020 A 
ATOM     91  C   UNL     1      -4.883 -20.685   5.211  1.00  0.00     0.054 A 
BRANCH  91  92
ATOM     92  S   UNL     1      -6.018 -22.032   5.642  1.00  0.00     0.124 S 
ATOM     93  O   UNL     1      -6.394 -21.686   7.010  1.00  0.00    -0.237 OA
ATOM     94  O   UNL     1      -7.076 -21.892   4.644  1.00  0.00    -0.237 OA
ATOM     95  O   UNL     1      -5.198 -23.234   5.507  1.00  0.00    -0.744 OA
ENDBRANCH  91  92
ENDBRANCH  65  86
ENDBRANCH  39  40
ENDBRANCH  31  34
ENDBRANCH  29  30
ENDBRANCH  28  29
ENDBRANCH  27  28
ENDBRANCH  26  27
ENDBRANCH   1  26
TORSDOF 22
