REMARK SMILES C[C@@H](CC(=O)NCCCCCCNC(=O)c1ccc(-c2c3nc(c(-c4ccc(S(=O)(=O)[O-])cc4)c4ccc([nH]4)c(-c4ccc(S(=O)(=O)[O-])cc4)c4nc(c(-c5ccc(S(=O)(=O)[O-])cc5)c5ccc2[nH]5)C=C4)C=C3)cc1)NC(=O)CCCN1C(=O)CN(C)C1=O
REMARK SMILES IDX 8 1 7 2 6 3 4 4 5 5 3 7 2 8 1 9 76 10 77 11 78 13 79 14
REMARK SMILES IDX 80 15 81 16 82 17 83 18 88 19 84 20 85 21 86 22 89 23 87 24
REMARK SMILES IDX 9 25 10 26 11 27 12 28 13 29 14 30 15 32 16 33 17 34 75 35
REMARK SMILES IDX 18 36 74 37 19 38 20 39 21 40 68 41 22 42 73 43 67 44 69 45
REMARK SMILES IDX 23 46 72 47 66 48 65 49 24 51 54 52 35 53 53 54 36 55 39 56
REMARK SMILES IDX 52 57 70 58 37 59 38 60 51 62 71 63 40 64 25 65 26 66 34 67
REMARK SMILES IDX 27 68 33 69 28 70 29 71 30 72 31 73 32 74 55 75 56 76 64 77
REMARK SMILES IDX 57 78 63 79 58 80 59 81 60 82 61 83 62 84 41 85 42 86 50 87
REMARK SMILES IDX 43 88 49 89 44 90 45 91 46 92 47 93 48 94
REMARK H PARENT 6 6 76 12 13 31 69 50 39 61
REMARK Flexibility Score: inf
ROOT
ATOM      1  C   UNL     1       1.042  -1.540  -2.325  1.00  0.00     0.021 C 
ENDROOT
BRANCH   1   2
ATOM      2  C   UNL     1       1.647  -0.150  -2.532  1.00  0.00     0.116 C 
BRANCH   2   3
ATOM      3  N   UNL     1       0.628   0.769  -3.015  1.00  0.00    -0.356 N 
ATOM      4  C   UNL     1      -0.028   1.772  -2.369  1.00  0.00     0.222 C 
ATOM      5  O   UNL     1      -0.983   2.312  -2.928  1.00  0.00    -0.275 OA
ATOM      6  H   UNL     1       0.372   0.646  -3.958  1.00  0.00     0.163 HD
BRANCH   4   7
ATOM      7  C   UNL     1       0.459   2.257  -1.028  1.00  0.00     0.124 C 
BRANCH   7   8
ATOM      8  C   UNL     1      -0.112   1.589   0.221  1.00  0.00     0.088 C 
ATOM      9  C   UNL     1      -0.014   0.077   0.301  1.00  0.00     0.031 C 
BRANCH   8  10
ATOM     10  N   UNL     1      -1.466   1.946   0.582  1.00  0.00    -0.353 N 
ATOM     11  C   UNL     1      -1.928   1.892   1.875  1.00  0.00     0.220 C 
ATOM     12  H   UNL     1      -2.082   2.239  -0.128  1.00  0.00     0.163 HD
ATOM     13  O   UNL     1      -3.106   1.609   2.082  1.00  0.00    -0.275 OA
BRANCH  11  14
ATOM     14  C   UNL     1      -0.983   2.290   3.010  1.00  0.00     0.102 C 
BRANCH  14  15
ATOM     15  C   UNL     1      -0.100   1.227   3.689  1.00  0.00     0.032 C 
BRANCH  15  16
ATOM     16  C   UNL     1       1.393   1.043   3.305  1.00  0.00     0.131 C 
BRANCH  16  17
ATOM     17  N   UNL     1       2.096   2.172   2.719  1.00  0.00    -0.263 N 
ATOM     18  C   UNL     1       2.059   3.467   3.155  1.00  0.00     0.250 C 
ATOM     19  C   UNL     1       2.926   2.068   1.630  1.00  0.00     0.326 C 
ATOM     20  O   UNL     1       1.506   3.886   4.162  1.00  0.00    -0.272 OA
ATOM     21  C   UNL     1       2.726   4.345   2.109  1.00  0.00     0.221 C 
ATOM     22  N   UNL     1       3.315   3.342   1.261  1.00  0.00    -0.318 N 
ATOM     23  O   UNL     1       3.215   1.042   1.028  1.00  0.00    -0.248 OA
ATOM     24  C   UNL     1       4.082   3.676   0.084  1.00  0.00     0.149 C 
ENDBRANCH  16  17
ENDBRANCH  15  16
ENDBRANCH  14  15
ENDBRANCH  11  14
ENDBRANCH   8  10
ENDBRANCH   7   8
ENDBRANCH   4   7
ENDBRANCH   2   3
ENDBRANCH   1   2
BRANCH   1  25
ATOM     25  C   UNL     1       0.769  -2.294  -3.623  1.00  0.00     0.002 C 
BRANCH  25  26
ATOM     26  C   UNL     1       2.032  -2.772  -4.332  1.00  0.00     0.002 C 
BRANCH  26  27
ATOM     27  C   UNL     1       2.940  -3.663  -3.478  1.00  0.00     0.021 C 
BRANCH  27  28
ATOM     28  C   UNL     1       2.231  -4.844  -2.820  1.00  0.00     0.116 C 
BRANCH  28  29
ATOM     29  N   UNL     1       1.570  -5.682  -3.807  1.00  0.00    -0.352 N 
ATOM     30  C   UNL     1       1.828  -6.983  -4.151  1.00  0.00     0.251 C 
ATOM     31  H   UNL     1       0.833  -5.254  -4.298  1.00  0.00     0.163 HD
ATOM     32  O   UNL     1       1.383  -7.439  -5.199  1.00  0.00    -0.269 OA
BRANCH  30  33
ATOM     33  C   UNL     1       2.645  -7.827  -3.255  1.00  0.00     0.039 A 
ATOM     34  C   UNL     1       3.610  -8.665  -3.814  1.00  0.00     0.014 A 
ATOM     35  C   UNL     1       2.442  -7.807  -1.871  1.00  0.00     0.014 A 
ATOM     36  C   UNL     1       4.398  -9.455  -2.979  1.00  0.00     0.010 A 
ATOM     37  C   UNL     1       3.284  -8.534  -1.035  1.00  0.00     0.010 A 
ATOM     38  C   UNL     1       4.262  -9.376  -1.581  1.00  0.00    -0.014 A 
BRANCH  38  39
ATOM     39  C   UNL     1       5.157 -10.163  -0.697  1.00  0.00     0.031 A 
ATOM     40  C   UNL     1       4.604 -11.239   0.198  1.00  0.00     0.074 A 
ATOM     41  C   UNL     1       6.477  -9.888  -0.691  1.00  0.00     0.049 A 
ATOM     42  N   UNL     1       5.248 -12.062   0.986  1.00  0.00    -0.248 NA
ATOM     43  C   UNL     1       3.142 -11.399   0.231  1.00  0.00     0.031 C 
ATOM     44  C   UNL     1       7.121  -8.826  -1.468  1.00  0.00     0.029 A 
ATOM     45  N   UNL     1       7.514 -10.483  -0.019  1.00  0.00    -0.354 N 
ATOM     46  C   UNL     1       4.272 -12.830   1.611  1.00  0.00     0.074 A 
ATOM     47  C   UNL     1       2.992 -12.338   1.154  1.00  0.00     0.031 C 
ATOM     48  C   UNL     1       8.447  -8.877  -1.266  1.00  0.00     0.029 A 
ATOM     49  C   UNL     1       8.743  -9.945  -0.318  1.00  0.00     0.049 A 
ATOM     50  H   UNL     1       7.390 -11.226   0.615  1.00  0.00     0.167 HD
ATOM     51  C   UNL     1       4.429 -13.865   2.472  1.00  0.00     0.031 A 
ATOM     52  C   UNL     1       9.974 -10.274   0.119  1.00  0.00     0.031 A 
ATOM     53  C   UNL     1       5.709 -14.347   2.924  1.00  0.00     0.049 A 
ATOM     54  C   UNL     1      10.123 -11.430   1.069  1.00  0.00     0.074 A 
ATOM     55  C   UNL     1       5.981 -15.428   3.744  1.00  0.00     0.029 A 
ATOM     56  N   UNL     1       6.931 -13.773   2.605  1.00  0.00    -0.354 N 
ATOM     57  N   UNL     1       9.194 -12.205   1.576  1.00  0.00    -0.248 NA
ATOM     58  C   UNL     1      11.489 -11.765   1.490  1.00  0.00     0.031 C 
ATOM     59  C   UNL     1       7.360 -15.466   3.976  1.00  0.00     0.029 A 
ATOM     60  C   UNL     1       7.957 -14.454   3.241  1.00  0.00     0.049 A 
ATOM     61  H   UNL     1       7.052 -12.995   2.013  1.00  0.00     0.167 HD
ATOM     62  C   UNL     1       9.865 -13.132   2.366  1.00  0.00     0.074 A 
ATOM     63  C   UNL     1      11.279 -12.838   2.240  1.00  0.00     0.031 C 
ATOM     64  C   UNL     1       9.358 -14.134   3.127  1.00  0.00     0.031 A 
BRANCH  51  65
ATOM     65  C   UNL     1       3.184 -14.537   2.993  1.00  0.00    -0.014 A 
ATOM     66  C   UNL     1       2.351 -15.293   2.146  1.00  0.00     0.010 A 
ATOM     67  C   UNL     1       2.861 -14.447   4.359  1.00  0.00     0.010 A 
ATOM     68  C   UNL     1       1.200 -15.908   2.647  1.00  0.00     0.020 A 
ATOM     69  C   UNL     1       1.728 -15.086   4.871  1.00  0.00     0.020 A 
ATOM     70  C   UNL     1       0.895 -15.799   4.007  1.00  0.00     0.054 A 
BRANCH  70  71
ATOM     71  S   UNL     1      -0.593 -16.627   4.632  1.00  0.00     0.124 S 
ATOM     72  O   UNL     1      -1.657 -15.808   4.058  1.00  0.00    -0.237 OA
ATOM     73  O   UNL     1      -0.467 -17.972   4.077  1.00  0.00    -0.237 OA
ATOM     74  O   UNL     1      -0.456 -16.540   6.084  1.00  0.00    -0.744 OA
ENDBRANCH  70  71
ENDBRANCH  51  65
BRANCH  52  75
ATOM     75  C   UNL     1      11.157  -9.506  -0.355  1.00  0.00    -0.014 A 
ATOM     76  C   UNL     1      12.102 -10.093  -1.215  1.00  0.00     0.010 A 
ATOM     77  C   UNL     1      11.330  -8.164   0.034  1.00  0.00     0.010 A 
ATOM     78  C   UNL     1      13.205  -9.359  -1.663  1.00  0.00     0.020 A 
ATOM     79  C   UNL     1      12.412  -7.418  -0.438  1.00  0.00     0.020 A 
ATOM     80  C   UNL     1      13.350  -8.024  -1.276  1.00  0.00     0.054 A 
BRANCH  80  81
ATOM     81  S   UNL     1      14.754  -7.072  -1.919  1.00  0.00     0.124 S 
ATOM     82  O   UNL     1      15.875  -7.652  -1.187  1.00  0.00    -0.237 OA
ATOM     83  O   UNL     1      14.707  -7.371  -3.349  1.00  0.00    -0.237 OA
ATOM     84  O   UNL     1      14.422  -5.693  -1.568  1.00  0.00    -0.744 OA
ENDBRANCH  80  81
ENDBRANCH  52  75
BRANCH  64  85
ATOM     85  C   UNL     1      10.346 -14.992   3.875  1.00  0.00    -0.014 A 
ATOM     86  C   UNL     1      11.095 -14.477   4.949  1.00  0.00     0.010 A 
ATOM     87  C   UNL     1      10.517 -16.339   3.506  1.00  0.00     0.010 A 
ATOM     88  C   UNL     1      12.036 -15.277   5.603  1.00  0.00     0.020 A 
ATOM     89  C   UNL     1      11.431 -17.152   4.181  1.00  0.00     0.020 A 
ATOM     90  C   UNL     1      12.201 -16.609   5.211  1.00  0.00     0.054 A 
BRANCH  90  91
ATOM     91  S   UNL     1      13.425 -17.627   6.078  1.00  0.00     0.124 S 
ATOM     92  O   UNL     1      14.684 -17.083   5.575  1.00  0.00    -0.237 OA
ATOM     93  O   UNL     1      13.136 -17.348   7.483  1.00  0.00    -0.237 OA
ATOM     94  O   UNL     1      13.117 -18.987   5.643  1.00  0.00    -0.744 OA
ENDBRANCH  90  91
ENDBRANCH  64  85
ENDBRANCH  38  39
ENDBRANCH  30  33
ENDBRANCH  28  29
ENDBRANCH  27  28
ENDBRANCH  26  27
ENDBRANCH  25  26
ENDBRANCH   1  25
TORSDOF 22
