REMARK SMILES O=C(NCCCCCCNC(=O)c1ccc(Cl)nc1NC[C@@H]1C[N@H+]2CCC[C@@H]2CO1)c1ccc(-c2c3nc(c(-c4ccc(S(=O)(=O)[O-])cc4)c4ccc([nH]4)c(-c4ccc(S(=O)(=O)[O-])cc4)c4nc(c(-c5ccc(S(=O)(=O)[O-])cc5)c5ccc2[nH]5)C=C4)C=C3)cc1
REMARK SMILES IDX 6 1 5 2 4 3 3 4 1 5 2 6 31 8 32 9 90 10 33 11 89 12 34 13
REMARK SMILES IDX 35 14 36 15 83 16 37 17 88 18 82 19 84 20 38 21 87 22 81 23
REMARK SMILES IDX 80 24 39 26 69 27 50 28 68 29 51 30 54 31 67 32 85 33 52 34
REMARK SMILES IDX 53 35 66 37 86 38 55 39 40 40 41 41 49 42 42 43 48 44 43 45
REMARK SMILES IDX 44 46 45 47 46 48 47 49 70 50 71 51 79 52 72 53 78 54 73 55
REMARK SMILES IDX 74 56 75 57 76 58 77 59 56 60 57 61 65 62 58 63 64 64 59 65
REMARK SMILES IDX 60 66 61 67 62 68 63 69 7 70 8 71 9 72 10 73 11 74 12 76
REMARK SMILES IDX 13 77 14 78 19 79 15 80 18 81 16 82 17 83 20 84 21 86 22 87
REMARK SMILES IDX 23 88 30 89 24 90 29 91 25 92 28 93 26 95 27 96
REMARK H PARENT 3 7 84 25 54 36 10 75 20 85 24 94
REMARK Flexibility Score: inf
ROOT
ATOM      1  C   UNL     1      16.324  -1.150  18.332  1.00  0.00     0.002 C 
ENDROOT
BRANCH   1   2
ATOM      2  C   UNL     1      16.060  -1.739  19.717  1.00  0.00     0.021 C 
BRANCH   2   3
ATOM      3  C   UNL     1      16.529  -3.175  19.910  1.00  0.00     0.116 C 
BRANCH   3   4
ATOM      4  N   UNL     1      17.975  -3.301  19.853  1.00  0.00    -0.352 N 
ATOM      5  O   UNL     1      20.038  -3.780  20.629  1.00  0.00    -0.269 OA
ATOM      6  C   UNL     1      18.820  -3.902  20.753  1.00  0.00     0.251 C 
ATOM      7  H   UNL     1      18.407  -2.903  19.063  1.00  0.00     0.163 HD
BRANCH   6   8
ATOM      8  C   UNL     1      18.261  -4.673  21.885  1.00  0.00     0.039 A 
ATOM      9  C   UNL     1      17.225  -5.589  21.683  1.00  0.00     0.014 A 
ATOM     10  C   UNL     1      18.788  -4.482  23.166  1.00  0.00     0.014 A 
ATOM     11  C   UNL     1      16.638  -6.222  22.775  1.00  0.00     0.010 A 
ATOM     12  C   UNL     1      18.246  -5.175  24.252  1.00  0.00     0.010 A 
ATOM     13  C   UNL     1      17.152  -6.035  24.068  1.00  0.00    -0.014 A 
BRANCH  13  14
ATOM     14  C   UNL     1      16.579  -6.806  25.200  1.00  0.00     0.031 A 
ATOM     15  C   UNL     1      15.842  -6.123  26.318  1.00  0.00     0.074 A 
ATOM     16  C   UNL     1      16.712  -8.147  25.197  1.00  0.00     0.049 A 
ATOM     17  N   UNL     1      15.267  -6.655  27.367  1.00  0.00    -0.248 NA
ATOM     18  C   UNL     1      15.736  -4.656  26.256  1.00  0.00     0.031 C 
ATOM     19  C   UNL     1      17.409  -8.922  24.166  1.00  0.00     0.029 A 
ATOM     20  N   UNL     1      16.254  -9.097  26.072  1.00  0.00    -0.354 N 
ATOM     21  C   UNL     1      14.746  -5.594  28.098  1.00  0.00     0.074 A 
ATOM     22  C   UNL     1      15.091  -4.383  27.383  1.00  0.00     0.031 C 
ATOM     23  C   UNL     1      17.289 -10.228  24.441  1.00  0.00     0.029 A 
ATOM     24  C   UNL     1      16.562 -10.383  25.696  1.00  0.00     0.049 A 
ATOM     25  H   UNL     1      15.753  -8.880  26.891  1.00  0.00     0.167 HD
ATOM     26  C   UNL     1      14.042  -5.627  29.256  1.00  0.00     0.031 A 
ATOM     27  C   UNL     1      16.302 -11.559  26.296  1.00  0.00     0.031 A 
ATOM     28  C   UNL     1      13.706  -6.835  29.966  1.00  0.00     0.049 A 
ATOM     29  C   UNL     1      15.549 -11.565  27.594  1.00  0.00     0.074 A 
ATOM     30  C   UNL     1      12.983  -6.971  31.139  1.00  0.00     0.029 A 
ATOM     31  N   UNL     1      14.073  -8.114  29.574  1.00  0.00    -0.354 N 
ATOM     32  N   UNL     1      15.052 -10.550  28.259  1.00  0.00    -0.248 NA
ATOM     33  C   UNL     1      15.325 -12.872  28.222  1.00  0.00     0.031 C 
ATOM     34  C   UNL     1      12.948  -8.329  31.477  1.00  0.00     0.029 A 
ATOM     35  C   UNL     1      13.607  -9.043  30.490  1.00  0.00     0.049 A 
ATOM     36  H   UNL     1      14.588  -8.330  28.763  1.00  0.00     0.167 HD
ATOM     37  C   UNL     1      14.444 -11.098  29.381  1.00  0.00     0.074 A 
ATOM     38  C   UNL     1      14.620 -12.534  29.294  1.00  0.00     0.031 C 
ATOM     39  C   UNL     1      13.800 -10.467  30.394  1.00  0.00     0.031 A 
BRANCH  26  40
ATOM     40  C   UNL     1      13.602  -4.312  29.843  1.00  0.00    -0.014 A 
ATOM     41  C   UNL     1      12.550  -3.576  29.269  1.00  0.00     0.010 A 
ATOM     42  C   UNL     1      14.217  -3.828  31.013  1.00  0.00     0.010 A 
ATOM     43  C   UNL     1      12.145  -2.363  29.833  1.00  0.00     0.020 A 
ATOM     44  C   UNL     1      13.800  -2.626  31.593  1.00  0.00     0.020 A 
ATOM     45  C   UNL     1      12.777  -1.892  30.988  1.00  0.00     0.054 A 
BRANCH  45  46
ATOM     46  S   UNL     1      12.222  -0.322  31.708  1.00  0.00     0.124 S 
ATOM     47  O   UNL     1      12.793   0.651  30.780  1.00  0.00    -0.237 OA
ATOM     48  O   UNL     1      10.767  -0.446  31.669  1.00  0.00    -0.237 OA
ATOM     49  O   UNL     1      12.808  -0.327  33.046  1.00  0.00    -0.744 OA
ENDBRANCH  45  46
ENDBRANCH  26  40
BRANCH  27  50
ATOM     50  C   UNL     1      16.767 -12.823  25.668  1.00  0.00    -0.014 A 
ATOM     51  C   UNL     1      15.849 -13.704  25.072  1.00  0.00     0.010 A 
ATOM     52  C   UNL     1      18.140 -13.129  25.626  1.00  0.00     0.010 A 
ATOM     53  C   UNL     1      16.295 -14.874  24.451  1.00  0.00     0.020 A 
ATOM     54  C   UNL     1      18.591 -14.284  24.983  1.00  0.00     0.020 A 
ATOM     55  C   UNL     1      17.664 -15.154  24.408  1.00  0.00     0.054 A 
BRANCH  55  56
ATOM     56  S   UNL     1      18.229 -16.642  23.536  1.00  0.00     0.124 S 
ATOM     57  O   UNL     1      17.921 -17.693  24.501  1.00  0.00    -0.237 OA
ATOM     58  O   UNL     1      17.409 -16.633  22.327  1.00  0.00    -0.237 OA
ATOM     59  O   UNL     1      19.651 -16.388  23.316  1.00  0.00    -0.744 OA
ENDBRANCH  55  56
ENDBRANCH  27  50
BRANCH  39  60
ATOM     60  C   UNL     1      13.222 -11.332  31.479  1.00  0.00    -0.014 A 
ATOM     61  C   UNL     1      14.050 -11.938  32.441  1.00  0.00     0.010 A 
ATOM     62  C   UNL     1      11.829 -11.512  31.557  1.00  0.00     0.010 A 
ATOM     63  C   UNL     1      13.496 -12.735  33.446  1.00  0.00     0.020 A 
ATOM     64  C   UNL     1      11.271 -12.289  32.574  1.00  0.00     0.020 A 
ATOM     65  C   UNL     1      12.109 -12.908  33.504  1.00  0.00     0.054 A 
BRANCH  65  66
ATOM     66  S   UNL     1      11.408 -13.916  34.839  1.00  0.00     0.124 S 
ATOM     67  O   UNL     1      11.695 -15.271  34.379  1.00  0.00    -0.237 OA
ATOM     68  O   UNL     1      12.166 -13.476  36.008  1.00  0.00    -0.237 OA
ATOM     69  O   UNL     1       9.995 -13.545  34.846  1.00  0.00    -0.744 OA
ENDBRANCH  65  66
ENDBRANCH  39  60
ENDBRANCH  13  14
ENDBRANCH   6   8
ENDBRANCH   3   4
ENDBRANCH   2   3
ENDBRANCH   1   2
BRANCH   1  70
ATOM     70  C   UNL     1      15.774  -1.956  17.151  1.00  0.00     0.002 C 
BRANCH  70  71
ATOM     71  C   UNL     1      14.293  -2.345  17.234  1.00  0.00     0.021 C 
BRANCH  71  72
ATOM     72  C   UNL     1      13.326  -1.193  17.503  1.00  0.00     0.116 C 
BRANCH  72  73
ATOM     73  N   UNL     1      13.408  -0.174  16.474  1.00  0.00    -0.352 N 
ATOM     74  C   UNL     1      12.453   0.240  15.584  1.00  0.00     0.255 C 
ATOM     75  H   UNL     1      14.276   0.286  16.405  1.00  0.00     0.163 HD
ATOM     76  O   UNL     1      12.783   0.965  14.647  1.00  0.00    -0.269 OA
BRANCH  74  77
ATOM     77  C   UNL     1      11.040  -0.153  15.766  1.00  0.00     0.082 A 
ATOM     78  C   UNL     1      10.415   0.093  16.994  1.00  0.00     0.021 A 
ATOM     79  C   UNL     1      10.295  -0.686  14.701  1.00  0.00     0.140 A 
ATOM     80  C   UNL     1       9.086  -0.268  17.162  1.00  0.00     0.042 A 
ATOM     81  N   UNL     1       9.012  -1.076  14.883  1.00  0.00    -0.219 NA
ATOM     82  C   UNL     1       8.447  -0.856  16.087  1.00  0.00     0.131 A 
ATOM     83  Cl  UNL     1       6.804  -1.335  16.201  1.00  0.00    -0.062 Cl
BRANCH  79  84
ATOM     84  N   UNL     1      10.875  -0.852  13.452  1.00  0.00    -0.367 N 
ATOM     85  H   UNL     1      11.829  -0.633  13.341  1.00  0.00     0.162 HD
BRANCH  84  86
ATOM     86  C   UNL     1      10.130  -1.337  12.295  1.00  0.00     0.152 C 
BRANCH  86  87
ATOM     87  C   UNL     1       9.898  -0.279  11.178  1.00  0.00     0.192 C 
ATOM     88  C   UNL     1      11.041   0.760  10.990  1.00  0.00     0.296 C 
ATOM     89  O   UNL     1       8.599   0.362  11.274  1.00  0.00    -0.364 OA
ATOM     90  N   UNL     1      10.975   1.766  12.047  1.00  0.00    -0.328 N 
ATOM     91  C   UNL     1       8.553   1.388  12.281  1.00  0.00     0.225 C 
ATOM     92  C   UNL     1      11.954   2.839  12.020  1.00  0.00     0.262 C 
ATOM     93  C   UNL     1       9.657   2.412  12.039  1.00  0.00     0.210 C 
ATOM     94  H   UNL     1      11.174   1.218  12.883  1.00  0.00     0.348 HD
ATOM     95  C   UNL     1      11.282   3.952  12.836  1.00  0.00     0.068 C 
ATOM     96  C   UNL     1       9.858   3.460  13.113  1.00  0.00     0.073 C 
ENDBRANCH  86  87
ENDBRANCH  84  86
ENDBRANCH  79  84
ENDBRANCH  74  77
ENDBRANCH  72  73
ENDBRANCH  71  72
ENDBRANCH  70  71
ENDBRANCH   1  70
TORSDOF 19
