REMARK SMILES Cc1ccc(-c2nn(-c3ccccc3)cc2[C@@H]2[NH2+][C@H](C(=O)NCCCCCCNC(=O)c3ccc(-c4c5nc(c(-c6ccc(S(=O)(=O)[O-])cc6)c6ccc([nH]6)c(-c6ccc(S(=O)(=O)[O-])cc6)c6nc(c(-c7ccc(S(=O)(=O)[O-])cc7)c7ccc4[nH]7)C=C6)C=C5)cc3)CS2)cc1
REMARK SMILES IDX 26 1 25 2 24 3 23 4 22 5 20 6 21 7 19 9 17 10 18 11 93 12
REMARK SMILES IDX 92 15 16 16 6 17 7 18 8 19 15 20 5 21 1 22 2 23 3 24 95 25
REMARK SMILES IDX 4 26 94 27 9 28 10 29 14 30 11 31 13 32 12 33 27 34 28 35
REMARK SMILES IDX 29 36 30 37 31 39 32 40 33 41 91 42 34 43 90 44 35 45 36 46
REMARK SMILES IDX 37 47 84 48 38 49 89 50 83 51 85 52 39 53 88 54 82 55 81 56
REMARK SMILES IDX 40 58 70 59 51 60 69 61 52 62 55 63 68 64 86 65 53 66 54 67
REMARK SMILES IDX 67 69 87 70 56 71 41 72 42 73 50 74 43 75 49 76 44 77 45 78
REMARK SMILES IDX 46 79 47 80 48 81 71 82 72 83 80 84 73 85 79 86 74 87 75 88
REMARK SMILES IDX 76 89 77 90 78 91 57 92 58 93 66 94 59 95 65 96 60 97 61 98
REMARK SMILES IDX 62 99 63 100 64 101
REMARK H PARENT 22 8 18 13 18 14 29 38 85 57 55 68
REMARK Flexibility Score: inf
ROOT
ATOM      1  C   UNL     1      -5.798  -0.240  -3.639  1.00  0.00     0.002 C 
ENDROOT
BRANCH   1   2
ATOM      2  C   UNL     1      -4.682  -1.290  -3.517  1.00  0.00     0.002 C 
BRANCH   2   3
ATOM      3  C   UNL     1      -4.307  -2.067  -2.221  1.00  0.00     0.021 C 
BRANCH   3   4
ATOM      4  C   UNL     1      -4.922  -1.796  -0.846  1.00  0.00     0.116 C 
BRANCH   4   5
ATOM      5  N   UNL     1      -5.841  -2.807  -0.325  1.00  0.00    -0.351 N 
ATOM      6  C   UNL     1      -6.137  -3.227   0.942  1.00  0.00     0.279 C 
ATOM      7  O   UNL     1      -7.150  -3.942   1.038  1.00  0.00    -0.268 OA
ATOM      8  H   UNL     1      -6.347  -3.278  -1.026  1.00  0.00     0.163 HD
BRANCH   6   9
ATOM      9  C   UNL     1      -5.348  -2.956   2.255  1.00  0.00     0.283 C 
ATOM     10  C   UNL     1      -4.062  -0.995   2.871  1.00  0.00     0.278 C 
ATOM     11  N   UNL     1      -4.045  -2.264   2.139  1.00  0.00    -0.320 N 
ATOM     12  S   UNL     1      -5.146  -1.261   4.290  1.00  0.00    -0.087 SA
ATOM     13  H   UNL     1      -3.314  -2.862   2.522  1.00  0.00     0.348 HD
ATOM     14  H   UNL     1      -3.866  -2.071   1.153  1.00  0.00     0.348 HD
ATOM     15  C   UNL     1      -6.245  -2.333   3.333  1.00  0.00     0.151 C 
BRANCH  10  16
ATOM     16  C   UNL     1      -4.522   0.078   1.940  1.00  0.00     0.067 A 
ATOM     17  C   UNL     1      -3.748   0.810   0.963  1.00  0.00     0.103 A 
ATOM     18  N   UNL     1      -4.535   1.708   0.324  1.00  0.00    -0.167 NA
ATOM     19  N   UNL     1      -5.799   1.398   0.708  1.00  0.00    -0.240 N 
ATOM     20  C   UNL     1      -5.808   0.550   1.772  1.00  0.00     0.126 A 
BRANCH  17  21
ATOM     21  C   UNL     1      -2.311   0.642   0.622  1.00  0.00     0.003 A 
ATOM     22  C   UNL     1       1.936   0.136  -0.198  1.00  0.00     0.044 C 
ATOM     23  C   UNL     1       0.469   0.326   0.060  1.00  0.00    -0.051 A 
ATOM     24  C   UNL     1      -0.335  -0.785   0.294  1.00  0.00     0.004 A 
ATOM     25  C   UNL     1      -0.131   1.591   0.058  1.00  0.00     0.004 A 
ATOM     26  C   UNL     1      -1.697  -0.623   0.571  1.00  0.00     0.011 A 
ATOM     27  C   UNL     1      -1.505   1.747   0.327  1.00  0.00     0.011 A 
ENDBRANCH  17  21
BRANCH  19  28
ATOM     28  C   UNL     1      -6.956   1.730  -0.036  1.00  0.00     0.065 A 
ATOM     29  C   UNL     1      -7.729   0.699  -0.603  1.00  0.00     0.028 A 
ATOM     30  C   UNL     1      -7.339   3.058  -0.191  1.00  0.00     0.028 A 
ATOM     31  C   UNL     1      -8.823   1.006  -1.411  1.00  0.00     0.002 A 
ATOM     32  C   UNL     1      -8.492   3.351  -0.928  1.00  0.00     0.002 A 
ATOM     33  C   UNL     1      -9.211   2.333  -1.563  1.00  0.00     0.000 A 
ENDBRANCH  19  28
ENDBRANCH  10  16
ENDBRANCH   6   9
ENDBRANCH   4   5
ENDBRANCH   3   4
ENDBRANCH   2   3
ENDBRANCH   1   2
BRANCH   1  34
ATOM     34  C   UNL     1      -5.527   1.180  -3.128  1.00  0.00     0.021 C 
BRANCH  34  35
ATOM     35  C   UNL     1      -4.617   2.079  -3.970  1.00  0.00     0.116 C 
BRANCH  35  36
ATOM     36  N   UNL     1      -5.287   3.274  -4.519  1.00  0.00    -0.352 N 
ATOM     37  C   UNL     1      -4.698   4.417  -5.063  1.00  0.00     0.251 C 
ATOM     38  H   UNL     1      -6.271   3.263  -4.501  1.00  0.00     0.163 HD
ATOM     39  O   UNL     1      -5.301   5.413  -5.377  1.00  0.00    -0.269 OA
BRANCH  37  40
ATOM     40  C   UNL     1      -3.245   4.308  -5.317  1.00  0.00     0.039 A 
ATOM     41  C   UNL     1      -2.883   3.850  -6.591  1.00  0.00     0.014 A 
ATOM     42  C   UNL     1      -2.411   4.168  -4.214  1.00  0.00     0.014 A 
ATOM     43  C   UNL     1      -1.785   3.011  -6.712  1.00  0.00     0.010 A 
ATOM     44  C   UNL     1      -1.371   3.267  -4.323  1.00  0.00     0.010 A 
ATOM     45  C   UNL     1      -1.114   2.632  -5.552  1.00  0.00    -0.014 A 
BRANCH  45  46
ATOM     46  C   UNL     1      -0.173   1.523  -5.497  1.00  0.00     0.031 A 
ATOM     47  C   UNL     1       1.268   1.822  -5.384  1.00  0.00     0.074 A 
ATOM     48  C   UNL     1      -0.588   0.236  -5.481  1.00  0.00     0.049 A 
ATOM     49  N   UNL     1       2.207   0.987  -5.678  1.00  0.00    -0.248 NA
ATOM     50  C   UNL     1       1.767   3.145  -5.023  1.00  0.00     0.031 C 
ATOM     51  C   UNL     1       0.206  -0.927  -5.088  1.00  0.00     0.029 A 
ATOM     52  N   UNL     1      -1.743  -0.322  -6.032  1.00  0.00    -0.354 N 
ATOM     53  C   UNL     1       3.385   1.530  -5.227  1.00  0.00     0.074 A 
ATOM     54  C   UNL     1       3.082   2.918  -4.979  1.00  0.00     0.031 C 
ATOM     55  C   UNL     1      -0.315  -2.018  -5.666  1.00  0.00     0.029 A 
ATOM     56  C   UNL     1      -1.367  -1.571  -6.561  1.00  0.00     0.049 A 
ATOM     57  H   UNL     1      -2.643   0.078  -6.047  1.00  0.00     0.167 HD
ATOM     58  C   UNL     1       4.437   0.704  -4.970  1.00  0.00     0.031 A 
ATOM     59  C   UNL     1      -1.492  -1.923  -7.875  1.00  0.00     0.031 A 
ATOM     60  C   UNL     1       4.205  -0.654  -5.472  1.00  0.00     0.049 A 
ATOM     61  C   UNL     1      -0.182  -2.326  -8.532  1.00  0.00     0.074 A 
ATOM     62  C   UNL     1       3.979  -1.891  -4.891  1.00  0.00     0.029 A 
ATOM     63  N   UNL     1       3.939  -0.818  -6.822  1.00  0.00    -0.354 N 
ATOM     64  N   UNL     1       0.971  -2.353  -7.922  1.00  0.00    -0.248 NA
ATOM     65  C   UNL     1      -0.051  -2.616  -9.962  1.00  0.00     0.031 C 
ATOM     66  C   UNL     1       3.584  -2.800  -5.918  1.00  0.00     0.029 A 
ATOM     67  C   UNL     1       3.590  -2.119  -7.120  1.00  0.00     0.049 A 
ATOM     68  H   UNL     1       3.993  -0.094  -7.487  1.00  0.00     0.167 HD
ATOM     69  C   UNL     1       1.973  -2.543  -8.838  1.00  0.00     0.074 A 
ATOM     70  C   UNL     1       1.283  -2.732 -10.100  1.00  0.00     0.031 C 
ATOM     71  C   UNL     1       3.294  -2.458  -8.504  1.00  0.00     0.031 A 
BRANCH  58  72
ATOM     72  C   UNL     1       5.599   1.068  -4.066  1.00  0.00    -0.014 A 
ATOM     73  C   UNL     1       6.476   0.058  -3.621  1.00  0.00     0.010 A 
ATOM     74  C   UNL     1       5.833   2.353  -3.540  1.00  0.00     0.010 A 
ATOM     75  C   UNL     1       7.466   0.302  -2.654  1.00  0.00     0.020 A 
ATOM     76  C   UNL     1       6.816   2.615  -2.577  1.00  0.00     0.020 A 
ATOM     77  C   UNL     1       7.615   1.579  -2.121  1.00  0.00     0.054 A 
BRANCH  77  78
ATOM     78  S   UNL     1       8.831   1.874  -0.815  1.00  0.00     0.124 S 
ATOM     79  O   UNL     1       8.350   1.006   0.258  1.00  0.00    -0.237 OA
ATOM     80  O   UNL     1      10.080   1.466  -1.448  1.00  0.00    -0.237 OA
ATOM     81  O   UNL     1       8.711   3.307  -0.546  1.00  0.00    -0.744 OA
ENDBRANCH  77  78
ENDBRANCH  58  72
BRANCH  59  82
ATOM     82  C   UNL     1      -2.619  -1.243  -8.571  1.00  0.00    -0.014 A 
ATOM     83  C   UNL     1      -3.929  -1.622  -8.207  1.00  0.00     0.010 A 
ATOM     84  C   UNL     1      -2.414  -0.000  -9.194  1.00  0.00     0.010 A 
ATOM     85  C   UNL     1      -4.980  -0.708  -8.298  1.00  0.00     0.020 A 
ATOM     86  C   UNL     1      -3.469   0.916  -9.290  1.00  0.00     0.020 A 
ATOM     87  C   UNL     1      -4.727   0.576  -8.782  1.00  0.00     0.054 A 
BRANCH  87  88
ATOM     88  S   UNL     1      -6.005   1.846  -8.536  1.00  0.00     0.124 S 
ATOM     89  O   UNL     1      -7.090   1.360  -9.380  1.00  0.00    -0.237 OA
ATOM     90  O   UNL     1      -6.240   1.763  -7.096  1.00  0.00    -0.237 OA
ATOM     91  O   UNL     1      -5.349   3.069  -8.991  1.00  0.00    -0.744 OA
ENDBRANCH  87  88
ENDBRANCH  59  82
BRANCH  71  92
ATOM     92  C   UNL     1       4.438  -2.624  -9.473  1.00  0.00    -0.014 A 
ATOM     93  C   UNL     1       4.454  -3.605 -10.477  1.00  0.00     0.010 A 
ATOM     94  C   UNL     1       5.614  -1.856  -9.306  1.00  0.00     0.010 A 
ATOM     95  C   UNL     1       5.576  -3.775 -11.305  1.00  0.00     0.020 A 
ATOM     96  C   UNL     1       6.742  -2.029 -10.111  1.00  0.00     0.020 A 
ATOM     97  C   UNL     1       6.711  -2.981 -11.120  1.00  0.00     0.054 A 
BRANCH  97  98
ATOM     98  S   UNL     1       8.166  -3.245 -12.166  1.00  0.00     0.124 S 
ATOM     99  O   UNL     1       8.311  -4.699 -12.149  1.00  0.00    -0.237 OA
ATOM    100  O   UNL     1       7.732  -2.673 -13.437  1.00  0.00    -0.237 OA
ATOM    101  O   UNL     1       9.227  -2.511 -11.482  1.00  0.00    -0.744 OA
ENDBRANCH  97  98
ENDBRANCH  71  92
ENDBRANCH  45  46
ENDBRANCH  37  40
ENDBRANCH  35  36
ENDBRANCH  34  35
ENDBRANCH   1  34
TORSDOF 19
