REMARK SMILES O=C(CSc1nnc(-c2ccncc2)s1)Nc1cccc(C(=O)NCCCCCCNC(=O)c2ccc(-c3c4nc(c(-c5ccc(S(=O)(=O)[O-])cc5)c5ccc([nH]5)c(-c5ccc(S(=O)(=O)[O-])cc5)c5nc(c(-c6ccc(S(=O)(=O)[O-])cc6)c6ccc3[nH]6)C=C5)C=C4)cc2)c1
REMARK SMILES IDX 26 1 25 2 24 3 22 4 23 5 21 7 17 8 18 9 94 10 19 11 20 12
REMARK SMILES IDX 16 13 1 14 2 15 3 17 4 18 5 19 6 20 15 21 7 22 8 23 9 24
REMARK SMILES IDX 10 25 14 26 11 27 13 28 12 29 27 30 28 31 29 32 30 33 31 34
REMARK SMILES IDX 32 35 33 37 34 38 35 39 93 40 36 41 92 42 37 43 38 44 39 45
REMARK SMILES IDX 86 46 40 47 91 48 85 49 87 50 41 51 90 52 84 53 83 54 42 56
REMARK SMILES IDX 72 57 53 58 71 59 54 60 57 61 70 62 88 63 55 64 56 65 69 67
REMARK SMILES IDX 89 68 58 69 43 70 44 71 52 72 45 73 51 74 46 75 47 76 48 77
REMARK SMILES IDX 49 78 50 79 73 80 74 81 82 82 75 83 81 84 76 85 77 86 78 87
REMARK SMILES IDX 79 88 80 89 59 90 60 91 68 92 61 93 67 94 62 95 63 96 64 97
REMARK SMILES IDX 65 98 66 99
REMARK H PARENT 24 6 16 16 31 36 87 55 57 66
REMARK Flexibility Score: inf
ROOT
ATOM      1  C   UNL     1       0.140   4.051   2.789  1.00  0.00     0.021 C 
ENDROOT
BRANCH   1   2
ATOM      2  C   UNL     1      -0.064   3.342   1.455  1.00  0.00     0.116 C 
BRANCH   2   3
ATOM      3  N   UNL     1      -0.749   4.145   0.451  1.00  0.00    -0.352 N 
ATOM      4  C   UNL     1      -0.503   4.290  -0.898  1.00  0.00     0.251 C 
ATOM      5  O   UNL     1      -1.198   5.062  -1.556  1.00  0.00    -0.269 OA
ATOM      6  H   UNL     1      -1.511   4.668   0.790  1.00  0.00     0.163 HD
BRANCH   4   7
ATOM      7  C   UNL     1       0.630   3.590  -1.562  1.00  0.00     0.041 A 
ATOM      8  C   UNL     1       2.244   1.783  -1.617  1.00  0.00     0.041 A 
ATOM      9  C   UNL     1       2.966   2.474  -2.595  1.00  0.00     0.026 A 
ATOM     10  C   UNL     1       1.024   2.303  -1.189  1.00  0.00     0.040 A 
ATOM     11  C   UNL     1       2.496   3.693  -3.095  1.00  0.00     0.003 A 
ATOM     12  C   UNL     1       1.343   4.265  -2.558  1.00  0.00     0.014 A 
BRANCH   8  13
ATOM     13  N   UNL     1       2.828   0.628  -1.055  1.00  0.00    -0.325 N 
ATOM     14  O   UNL     1       1.204  -0.047   0.466  1.00  0.00    -0.274 OA
ATOM     15  C   UNL     1       2.302  -0.194  -0.068  1.00  0.00     0.234 C 
ATOM     16  H   UNL     1       3.712   0.375  -1.405  1.00  0.00     0.169 HD
BRANCH  15  17
ATOM     17  C   UNL     1       3.242  -1.285   0.433  1.00  0.00     0.177 C 
BRANCH  17  18
ATOM     18  S   UNL     1       4.382  -1.919  -0.829  1.00  0.00    -0.084 SA
BRANCH  18  19
ATOM     19  C   UNL     1       3.244  -2.670  -1.921  1.00  0.00     0.175 A 
ATOM     20  N   UNL     1       2.801  -3.892  -1.752  1.00  0.00    -0.131 NA
ATOM     21  S   UNL     1       2.661  -1.889  -3.323  1.00  0.00    -0.086 S 
ATOM     22  N   UNL     1       1.927  -4.264  -2.760  1.00  0.00    -0.137 NA
ATOM     23  C   UNL     1       1.761  -3.316  -3.662  1.00  0.00     0.148 A 
BRANCH  23  24
ATOM     24  C   UNL     1       0.880  -3.397  -4.833  1.00  0.00     0.015 A 
ATOM     25  C   UNL     1       1.142  -2.691  -6.014  1.00  0.00     0.031 A 
ATOM     26  C   UNL     1      -0.259  -4.205  -4.786  1.00  0.00     0.031 A 
ATOM     27  C   UNL     1       0.257  -2.808  -7.072  1.00  0.00     0.111 A 
ATOM     28  C   UNL     1      -1.086  -4.254  -5.897  1.00  0.00     0.111 A 
ATOM     29  N   UNL     1      -0.853  -3.571  -7.038  1.00  0.00    -0.265 NA
ENDBRANCH  23  24
ENDBRANCH  18  19
ENDBRANCH  17  18
ENDBRANCH  15  17
ENDBRANCH   8  13
ENDBRANCH   4   7
ENDBRANCH   2   3
ENDBRANCH   1   2
BRANCH   1  30
ATOM     30  C   UNL     1      -1.123   4.392   3.577  1.00  0.00     0.002 C 
BRANCH  30  31
ATOM     31  C   UNL     1      -2.075   3.229   3.870  1.00  0.00     0.002 C 
BRANCH  31  32
ATOM     32  C   UNL     1      -1.460   1.991   4.527  1.00  0.00     0.021 C 
BRANCH  32  33
ATOM     33  C   UNL     1      -0.675   2.233   5.814  1.00  0.00     0.116 C 
BRANCH  33  34
ATOM     34  N   UNL     1      -1.477   2.848   6.858  1.00  0.00    -0.352 N 
ATOM     35  C   UNL     1      -1.673   2.468   8.163  1.00  0.00     0.251 C 
ATOM     36  H   UNL     1      -1.955   3.665   6.587  1.00  0.00     0.163 HD
ATOM     37  O   UNL     1      -2.513   3.053   8.841  1.00  0.00    -0.269 OA
BRANCH  35  38
ATOM     38  C   UNL     1      -0.901   1.348   8.752  1.00  0.00     0.039 A 
ATOM     39  C   UNL     1      -1.575   0.429   9.561  1.00  0.00     0.014 A 
ATOM     40  C   UNL     1       0.473   1.211   8.540  1.00  0.00     0.014 A 
ATOM     41  C   UNL     1      -0.885  -0.657  10.106  1.00  0.00     0.010 A 
ATOM     42  C   UNL     1       1.146   0.089   9.027  1.00  0.00     0.010 A 
ATOM     43  C   UNL     1       0.475  -0.858   9.815  1.00  0.00    -0.014 A 
BRANCH  43  44
ATOM     44  C   UNL     1       1.181  -2.074  10.297  1.00  0.00     0.031 A 
ATOM     45  C   UNL     1       2.326  -1.974  11.269  1.00  0.00     0.074 A 
ATOM     46  C   UNL     1       0.817  -3.280   9.815  1.00  0.00     0.049 A 
ATOM     47  N   UNL     1       3.039  -2.933  11.803  1.00  0.00    -0.248 NA
ATOM     48  C   UNL     1       2.741  -0.622  11.674  1.00  0.00     0.031 C 
ATOM     49  C   UNL     1      -0.234  -3.508   8.820  1.00  0.00     0.029 A 
ATOM     50  N   UNL     1       1.289  -4.538  10.093  1.00  0.00    -0.354 N 
ATOM     51  C   UNL     1       3.994  -2.304  12.593  1.00  0.00     0.074 A 
ATOM     52  C   UNL     1       3.798  -0.879  12.431  1.00  0.00     0.031 C 
ATOM     53  C   UNL     1      -0.346  -4.825   8.593  1.00  0.00     0.029 A 
ATOM     54  C   UNL     1       0.645  -5.534   9.397  1.00  0.00     0.049 A 
ATOM     55  H   UNL     1       2.019  -4.712  10.730  1.00  0.00     0.167 HD
ATOM     56  C   UNL     1       4.939  -2.860  13.391  1.00  0.00     0.031 A 
ATOM     57  C   UNL     1       0.827  -6.869   9.400  1.00  0.00     0.031 A 
ATOM     58  C   UNL     1       5.131  -4.279  13.549  1.00  0.00     0.049 A 
ATOM     59  C   UNL     1       1.865  -7.465  10.307  1.00  0.00     0.074 A 
ATOM     60  C   UNL     1       6.007  -4.941  14.392  1.00  0.00     0.029 A 
ATOM     61  N   UNL     1       4.448  -5.257  12.839  1.00  0.00    -0.354 N 
ATOM     62  N   UNL     1       2.693  -6.857  11.122  1.00  0.00    -0.248 NA
ATOM     63  C   UNL     1       1.981  -8.929  10.307  1.00  0.00     0.031 C 
ATOM     64  C   UNL     1       5.899  -6.315  14.146  1.00  0.00     0.029 A 
ATOM     65  C   UNL     1       4.910  -6.514  13.196  1.00  0.00     0.049 A 
ATOM     66  H   UNL     1       3.740  -5.082  12.178  1.00  0.00     0.167 HD
ATOM     67  C   UNL     1       3.422  -7.865  11.743  1.00  0.00     0.074 A 
ATOM     68  C   UNL     1       2.916  -9.122  11.228  1.00  0.00     0.031 C 
ATOM     69  C   UNL     1       4.420  -7.758  12.656  1.00  0.00     0.031 A 
BRANCH  56  70
ATOM     70  C   UNL     1       5.856  -1.924  14.139  1.00  0.00    -0.014 A 
ATOM     71  C   UNL     1       5.380  -1.106  15.180  1.00  0.00     0.010 A 
ATOM     72  C   UNL     1       7.224  -1.879  13.810  1.00  0.00     0.010 A 
ATOM     73  C   UNL     1       6.239  -0.220  15.837  1.00  0.00     0.020 A 
ATOM     74  C   UNL     1       8.093  -1.017  14.485  1.00  0.00     0.020 A 
ATOM     75  C   UNL     1       7.590  -0.176  15.479  1.00  0.00     0.054 A 
BRANCH  75  76
ATOM     76  S   UNL     1       8.683   0.984  16.345  1.00  0.00     0.124 S 
ATOM     77  O   UNL     1       8.260   2.267  15.788  1.00  0.00    -0.237 OA
ATOM     78  O   UNL     1       8.337   0.765  17.747  1.00  0.00    -0.237 OA
ATOM     79  O   UNL     1      10.024   0.551  15.962  1.00  0.00    -0.744 OA
ENDBRANCH  75  76
ENDBRANCH  56  70
BRANCH  57  80
ATOM     80  C   UNL     1      -0.015  -7.723   8.519  1.00  0.00    -0.014 A 
ATOM     81  C   UNL     1      -1.026  -8.536   9.060  1.00  0.00     0.010 A 
ATOM     82  C   UNL     1       0.158  -7.685   7.123  1.00  0.00     0.010 A 
ATOM     83  C   UNL     1      -1.849  -9.295   8.222  1.00  0.00     0.020 A 
ATOM     84  C   UNL     1      -0.680  -8.421   6.280  1.00  0.00     0.020 A 
ATOM     85  C   UNL     1      -1.675  -9.225   6.836  1.00  0.00     0.054 A 
BRANCH  85  86
ATOM     86  S   UNL     1      -2.812 -10.149   5.765  1.00  0.00     0.124 S 
ATOM     87  O   UNL     1      -2.361 -11.524   5.957  1.00  0.00    -0.237 OA
ATOM     88  O   UNL     1      -4.117  -9.825   6.337  1.00  0.00    -0.237 OA
ATOM     89  O   UNL     1      -2.566  -9.587   4.439  1.00  0.00    -0.744 OA
ENDBRANCH  85  86
ENDBRANCH  57  80
BRANCH  69  90
ATOM     90  C   UNL     1       5.030  -9.042  13.158  1.00  0.00    -0.014 A 
ATOM     91  C   UNL     1       5.832  -9.843  12.325  1.00  0.00     0.010 A 
ATOM     92  C   UNL     1       4.814  -9.443  14.489  1.00  0.00     0.010 A 
ATOM     93  C   UNL     1       6.366 -11.044  12.798  1.00  0.00     0.020 A 
ATOM     94  C   UNL     1       5.373 -10.627  14.976  1.00  0.00     0.020 A 
ATOM     95  C   UNL     1       6.128 -11.432  14.121  1.00  0.00     0.054 A 
BRANCH  95  96
ATOM     96  S   UNL     1       6.841 -12.989  14.716  1.00  0.00     0.124 S 
ATOM     97  O   UNL     1       5.992 -13.981  14.062  1.00  0.00    -0.237 OA
ATOM     98  O   UNL     1       8.217 -12.920  14.229  1.00  0.00    -0.237 OA
ATOM     99  O   UNL     1       6.696 -12.904  16.168  1.00  0.00    -0.744 OA
ENDBRANCH  95  96
ENDBRANCH  69  90
ENDBRANCH  43  44
ENDBRANCH  35  38
ENDBRANCH  33  34
ENDBRANCH  32  33
ENDBRANCH  31  32
ENDBRANCH  30  31
ENDBRANCH   1  30
TORSDOF 21
