REMARK SMILES C[C@@H](C(=O)NCCCCCCNC(=O)c1ccc(-c2c3nc(c(-c4ccc(S(=O)(=O)[O-])cc4)c4ccc([nH]4)c(-c4ccc(S(=O)(=O)[O-])cc4)c4nc(c(-c5ccc(S(=O)(=O)[O-])cc5)c5ccc2[nH]5)C=C4)C=C3)cc1)[C@H]1CCOC2(CCCCC2)C1
REMARK SMILES IDX 9 1 8 2 7 3 6 4 5 5 3 6 4 7 2 9 1 10 75 11 76 12 85 13 77 14
REMARK SMILES IDX 79 15 78 16 80 17 84 18 81 19 83 20 82 21 10 22 11 23 12 24
REMARK SMILES IDX 13 25 14 27 15 28 16 29 74 30 17 31 73 32 18 33 19 34 20 35
REMARK SMILES IDX 67 36 21 37 72 38 66 39 68 40 22 41 71 42 65 43 64 44 23 46
REMARK SMILES IDX 53 47 34 48 52 49 35 50 38 51 51 52 69 53 36 54 37 55 50 57
REMARK SMILES IDX 70 58 39 59 24 60 25 61 33 62 26 63 32 64 27 65 28 66 29 67
REMARK SMILES IDX 30 68 31 69 54 70 55 71 63 72 56 73 62 74 57 75 58 76 59 77
REMARK SMILES IDX 60 78 61 79 40 80 41 81 49 82 42 83 48 84 43 85 44 86 45 87
REMARK SMILES IDX 46 88 47 89
REMARK H PARENT 5 8 12 26 68 45 38 56
REMARK Flexibility Score: inf
ROOT
ATOM      1  C   UNL     1      -4.301   0.118  -5.194  1.00  0.00     0.002 C 
ENDROOT
BRANCH   1   2
ATOM      2  C   UNL     1      -3.024  -0.573  -4.713  1.00  0.00     0.002 C 
BRANCH   2   3
ATOM      3  C   UNL     1      -2.046   0.333  -3.952  1.00  0.00     0.021 C 
BRANCH   3   4
ATOM      4  C   UNL     1      -2.658   1.044  -2.739  1.00  0.00     0.116 C 
BRANCH   4   5
ATOM      5  N   UNL     1      -3.122   0.069  -1.779  1.00  0.00    -0.356 N 
ATOM      6  C   UNL     1      -2.531  -0.410  -0.653  1.00  0.00     0.223 C 
ATOM      7  O   UNL     1      -3.007  -1.458  -0.219  1.00  0.00    -0.275 OA
ATOM      8  H   UNL     1      -4.010  -0.309  -1.972  1.00  0.00     0.163 HD
BRANCH   6   9
ATOM      9  C   UNL     1      -1.357   0.350  -0.009  1.00  0.00     0.078 C 
ATOM     10  C   UNL     1      -0.071   0.178  -0.832  1.00  0.00     0.018 C 
BRANCH   9  11
ATOM     11  C   UNL     1      -1.016  -0.008   1.474  1.00  0.00     0.006 C 
ATOM     12  C   UNL     1      -1.634   0.960   2.489  1.00  0.00     0.033 C 
ATOM     13  C   UNL     1      -1.357  -1.434   1.921  1.00  0.00     0.040 C 
ATOM     14  C   UNL     1      -1.143   0.614   3.895  1.00  0.00     0.161 C 
ATOM     15  C   UNL     1      -0.885  -1.738   3.352  1.00  0.00     0.069 C 
ATOM     16  O   UNL     1      -1.402  -0.743   4.252  1.00  0.00    -0.375 OA
ATOM     17  C   UNL     1       0.653  -1.841   3.428  1.00  0.00     0.035 C 
ATOM     18  C   UNL     1      -1.508  -3.088   3.780  1.00  0.00     0.035 C 
ATOM     19  C   UNL     1       1.139  -2.304   4.798  1.00  0.00     0.003 C 
ATOM     20  C   UNL     1      -1.012  -3.566   5.143  1.00  0.00     0.003 C 
ATOM     21  C   UNL     1       0.509  -3.635   5.191  1.00  0.00     0.000 C 
ENDBRANCH   9  11
ENDBRANCH   6   9
ENDBRANCH   4   5
ENDBRANCH   3   4
ENDBRANCH   2   3
ENDBRANCH   1   2
BRANCH   1  22
ATOM     22  C   UNL     1      -4.066   1.375  -6.035  1.00  0.00     0.021 C 
BRANCH  22  23
ATOM     23  C   UNL     1      -3.232   1.144  -7.290  1.00  0.00     0.116 C 
BRANCH  23  24
ATOM     24  N   UNL     1      -3.901   0.258  -8.230  1.00  0.00    -0.352 N 
ATOM     25  C   UNL     1      -4.254   0.491  -9.535  1.00  0.00     0.251 C 
ATOM     26  H   UNL     1      -4.132  -0.633  -7.881  1.00  0.00     0.163 HD
ATOM     27  O   UNL     1      -5.009  -0.286 -10.116  1.00  0.00    -0.269 OA
BRANCH  25  28
ATOM     28  C   UNL     1      -3.743   1.691 -10.229  1.00  0.00     0.039 A 
ATOM     29  C   UNL     1      -4.632   2.476 -10.966  1.00  0.00     0.014 A 
ATOM     30  C   UNL     1      -2.394   2.049 -10.139  1.00  0.00     0.014 A 
ATOM     31  C   UNL     1      -4.182   3.660 -11.552  1.00  0.00     0.010 A 
ATOM     32  C   UNL     1      -1.964   3.265 -10.664  1.00  0.00     0.010 A 
ATOM     33  C   UNL     1      -2.855   4.088 -11.369  1.00  0.00    -0.014 A 
BRANCH  33  34
ATOM     34  C   UNL     1      -2.403   5.413 -11.867  1.00  0.00     0.031 A 
ATOM     35  C   UNL     1      -1.328   5.511 -12.915  1.00  0.00     0.074 A 
ATOM     36  C   UNL     1      -2.924   6.533 -11.324  1.00  0.00     0.049 A 
ATOM     37  N   UNL     1      -0.782   6.582 -13.432  1.00  0.00    -0.248 NA
ATOM     38  C   UNL     1      -0.780   4.248 -13.438  1.00  0.00     0.031 C 
ATOM     39  C   UNL     1      -3.941   6.569 -10.268  1.00  0.00     0.029 A 
ATOM     40  N   UNL     1      -2.668   7.858 -11.577  1.00  0.00    -0.354 N 
ATOM     41  C   UNL     1       0.179   6.125 -14.327  1.00  0.00     0.074 A 
ATOM     42  C   UNL     1       0.170   4.681 -14.256  1.00  0.00     0.031 C 
ATOM     43  C   UNL     1      -4.236   7.847  -9.983  1.00  0.00     0.029 A 
ATOM     44  C   UNL     1      -3.401   8.723 -10.796  1.00  0.00     0.049 A 
ATOM     45  H   UNL     1      -2.020   8.161 -12.254  1.00  0.00     0.167 HD
ATOM     46  C   UNL     1       0.986   6.845 -15.142  1.00  0.00     0.031 A 
ATOM     47  C   UNL     1      -3.391  10.069 -10.729  1.00  0.00     0.031 A 
ATOM     48  C   UNL     1       0.981   8.283 -15.219  1.00  0.00     0.049 A 
ATOM     49  C   UNL     1      -2.468  10.839 -11.635  1.00  0.00     0.074 A 
ATOM     50  C   UNL     1       1.710   9.097 -16.069  1.00  0.00     0.029 A 
ATOM     51  N   UNL     1       0.222   9.121 -14.418  1.00  0.00    -0.354 N 
ATOM     52  N   UNL     1      -1.635  10.385 -12.540  1.00  0.00    -0.248 NA
ATOM     53  C   UNL     1      -2.490  12.304 -11.516  1.00  0.00     0.031 C 
ATOM     54  C   UNL     1       1.445  10.428 -15.735  1.00  0.00     0.029 A 
ATOM     55  C   UNL     1       0.496  10.443 -14.725  1.00  0.00     0.049 A 
ATOM     56  H   UNL     1      -0.418   8.821 -13.732  1.00  0.00     0.167 HD
ATOM     57  C   UNL     1      -1.053  11.511 -13.114  1.00  0.00     0.074 A 
ATOM     58  C   UNL     1      -1.649  12.664 -12.474  1.00  0.00     0.031 C 
ATOM     59  C   UNL     1      -0.105  11.583 -14.081  1.00  0.00     0.031 A 
BRANCH  46  60
ATOM     60  C   UNL     1       1.956   6.102 -16.023  1.00  0.00    -0.014 A 
ATOM     61  C   UNL     1       1.513   5.372 -17.140  1.00  0.00     0.010 A 
ATOM     62  C   UNL     1       3.339   6.228 -15.792  1.00  0.00     0.010 A 
ATOM     63  C   UNL     1       2.435   4.773 -18.003  1.00  0.00     0.020 A 
ATOM     64  C   UNL     1       4.264   5.653 -16.668  1.00  0.00     0.020 A 
ATOM     65  C   UNL     1       3.805   4.924 -17.766  1.00  0.00     0.054 A 
BRANCH  65  66
ATOM     66  S   UNL     1       4.975   4.200 -18.947  1.00  0.00     0.124 S 
ATOM     67  O   UNL     1       4.811   2.770 -18.697  1.00  0.00    -0.237 OA
ATOM     68  O   UNL     1       4.466   4.675 -20.231  1.00  0.00    -0.237 OA
ATOM     69  O   UNL     1       6.265   4.757 -18.546  1.00  0.00    -0.744 OA
ENDBRANCH  65  66
ENDBRANCH  46  60
BRANCH  47  70
ATOM     70  C   UNL     1      -4.262  10.781  -9.752  1.00  0.00    -0.014 A 
ATOM     71  C   UNL     1      -5.309  11.612 -10.191  1.00  0.00     0.010 A 
ATOM     72  C   UNL     1      -4.023  10.660  -8.370  1.00  0.00     0.010 A 
ATOM     73  C   UNL     1      -6.070  12.340  -9.271  1.00  0.00     0.020 A 
ATOM     74  C   UNL     1      -4.804  11.357  -7.446  1.00  0.00     0.020 A 
ATOM     75  C   UNL     1      -5.809  12.211  -7.904  1.00  0.00     0.054 A 
BRANCH  75  76
ATOM     76  S   UNL     1      -6.810  13.160  -6.726  1.00  0.00     0.124 S 
ATOM     77  O   UNL     1      -6.301  14.514  -6.919  1.00  0.00    -0.237 OA
ATOM     78  O   UNL     1      -8.170  12.920  -7.202  1.00  0.00    -0.237 OA
ATOM     79  O   UNL     1      -6.492  12.548  -5.438  1.00  0.00    -0.744 OA
ENDBRANCH  75  76
ENDBRANCH  47  70
BRANCH  59  80
ATOM     80  C   UNL     1       0.328  12.954 -14.529  1.00  0.00    -0.014 A 
ATOM     81  C   UNL     1       1.094  13.786 -13.693  1.00  0.00     0.010 A 
ATOM     82  C   UNL     1       0.005  13.396 -15.825  1.00  0.00     0.010 A 
ATOM     83  C   UNL     1       1.500  15.048 -14.132  1.00  0.00     0.020 A 
ATOM     84  C   UNL     1       0.438  14.644 -16.280  1.00  0.00     0.020 A 
ATOM     85  C   UNL     1       1.170  15.469 -15.425  1.00  0.00     0.054 A 
BRANCH  85  86
ATOM     86  S   UNL     1       1.747  17.094 -15.985  1.00  0.00     0.124 S 
ATOM     87  O   UNL     1       0.900  18.000 -15.214  1.00  0.00    -0.237 OA
ATOM     88  O   UNL     1       3.158  17.080 -15.607  1.00  0.00    -0.237 OA
ATOM     89  O   UNL     1       1.493  17.076 -17.424  1.00  0.00    -0.744 OA
ENDBRANCH  85  86
ENDBRANCH  59  80
ENDBRANCH  33  34
ENDBRANCH  25  28
ENDBRANCH  23  24
ENDBRANCH  22  23
ENDBRANCH   1  22
TORSDOF 17
