REMARK SMILES CCCCCCOC(=O)Nc1cccc(-c2ccc([C@@H](C)C(=O)NCCCCCCNC(=O)c3ccc(-c4c5nc(c(-c6ccc(S(=O)(=O)[O-])cc6)c6ccc([nH]6)c(-c6ccc(S(=O)(=O)[O-])cc6)c6nc(c(-c7ccc(S(=O)(=O)[O-])cc7)c7ccc4[nH]7)C=C6)C=C5)cc3)cc2F)c1
REMARK SMILES IDX 22 1 23 2 24 3 20 5 21 6 19 7 16 8 17 9 95 10 18 11 94 12
REMARK SMILES IDX 96 13 15 14 11 15 12 16 97 17 13 18 14 19 10 20 8 21 9 22
REMARK SMILES IDX 7 24 6 25 5 26 4 27 3 28 2 29 1 30 25 31 26 32 27 33 28 34
REMARK SMILES IDX 29 35 30 36 31 37 32 38 33 40 34 41 35 42 93 43 36 44 92 45
REMARK SMILES IDX 37 46 38 47 39 48 86 49 40 50 91 51 85 52 87 53 41 54 90 55
REMARK SMILES IDX 84 56 83 57 42 59 72 60 53 61 71 62 54 63 57 64 70 65 88 66
REMARK SMILES IDX 55 67 56 68 69 70 89 71 58 72 43 73 44 74 52 75 45 76 51 77
REMARK SMILES IDX 46 78 47 79 48 80 49 81 50 82 73 83 74 84 82 85 75 86 81 87
REMARK SMILES IDX 76 88 77 89 78 90 79 91 80 92 59 93 60 94 68 95 61 96 67 97
REMARK SMILES IDX 62 98 63 99 64 100 65 101 66 102
REMARK H PARENT 24 4 10 23 31 39 87 58 57 69
REMARK Flexibility Score: inf
ROOT
ATOM      1  C   UNL     1      -7.261  10.071   0.185  1.00  0.00     0.227 C 
ATOM      2  O   UNL     1      -7.271   9.777   1.387  1.00  0.00    -0.274 OA
ATOM      3  N   UNL     1      -8.157   9.421  -0.606  1.00  0.00    -0.356 N 
ATOM      4  H   UNL     1      -8.779   8.835  -0.117  1.00  0.00     0.163 HD
ENDROOT
BRANCH   1   5
ATOM      5  C   UNL     1      -6.283  11.135  -0.336  1.00  0.00     0.105 C 
ATOM      6  C   UNL     1      -6.967  12.364  -0.935  1.00  0.00     0.023 C 
BRANCH   5   7
ATOM      7  C   UNL     1      -5.122  10.562  -1.133  1.00  0.00    -0.033 A 
ATOM      8  C   UNL     1      -2.928   9.364  -2.534  1.00  0.00     0.018 A 
ATOM      9  C   UNL     1      -4.074   9.815  -3.207  1.00  0.00     0.012 A 
ATOM     10  C   UNL     1      -2.902   9.562  -1.143  1.00  0.00     0.131 A 
ATOM     11  C   UNL     1      -5.133  10.429  -2.525  1.00  0.00     0.005 A 
ATOM     12  C   UNL     1      -3.978  10.126  -0.452  1.00  0.00     0.044 A 
ATOM     13  F   UNL     1      -1.821   9.222  -0.423  1.00  0.00    -0.206 F 
BRANCH   8  14
ATOM     14  C   UNL     1      -1.813   8.725  -3.268  1.00  0.00    -0.013 A 
ATOM     15  C   UNL     1       0.029   7.111  -3.348  1.00  0.00     0.045 A 
ATOM     16  C   UNL     1       0.416   7.596  -4.595  1.00  0.00     0.026 A 
ATOM     17  C   UNL     1      -1.086   7.661  -2.705  1.00  0.00     0.035 A 
ATOM     18  C   UNL     1      -0.327   8.601  -5.207  1.00  0.00     0.003 A 
ATOM     19  C   UNL     1      -1.420   9.167  -4.544  1.00  0.00     0.009 A 
BRANCH  15  20
ATOM     20  N   UNL     1       0.848   6.162  -2.721  1.00  0.00    -0.291 N 
ATOM     21  C   UNL     1       0.510   5.290  -1.721  1.00  0.00     0.411 C 
ATOM     22  O   UNL     1       1.352   4.835  -0.966  1.00  0.00    -0.224 OA
ATOM     23  H   UNL     1       1.779   6.117  -3.038  1.00  0.00     0.173 HD
BRANCH  21  24
ATOM     24  O   UNL     1      -0.794   4.908  -1.770  1.00  0.00    -0.449 OA
BRANCH  24  25
ATOM     25  C   UNL     1      -1.213   3.838  -0.909  1.00  0.00     0.235 C 
BRANCH  25  26
ATOM     26  C   UNL     1      -0.977   2.462  -1.541  1.00  0.00     0.042 C 
BRANCH  26  27
ATOM     27  C   UNL     1       0.478   1.977  -1.566  1.00  0.00     0.003 C 
BRANCH  27  28
ATOM     28  C   UNL     1       1.144   1.845  -0.189  1.00  0.00    -0.000 C 
BRANCH  28  29
ATOM     29  C   UNL     1       0.601   0.716   0.686  1.00  0.00    -0.003 C 
ATOM     30  C   UNL     1       0.969  -0.662   0.163  1.00  0.00     0.004 C 
ENDBRANCH  28  29
ENDBRANCH  27  28
ENDBRANCH  26  27
ENDBRANCH  25  26
ENDBRANCH  24  25
ENDBRANCH  21  24
ENDBRANCH  15  20
ENDBRANCH   8  14
ENDBRANCH   5   7
ENDBRANCH   1   5
BRANCH   3  31
ATOM     31  C   UNL     1      -8.356   9.439  -2.040  1.00  0.00     0.116 C 
BRANCH  31  32
ATOM     32  C   UNL     1      -7.747   8.206  -2.710  1.00  0.00     0.021 C 
BRANCH  32  33
ATOM     33  C   UNL     1      -8.707   7.015  -2.800  1.00  0.00     0.002 C 
BRANCH  33  34
ATOM     34  C   UNL     1      -9.951   7.245  -3.669  1.00  0.00     0.002 C 
BRANCH  34  35
ATOM     35  C   UNL     1      -9.677   7.704  -5.105  1.00  0.00     0.021 C 
BRANCH  35  36
ATOM     36  C   UNL     1      -8.856   6.724  -5.939  1.00  0.00     0.116 C 
BRANCH  36  37
ATOM     37  N   UNL     1      -9.569   5.473  -6.156  1.00  0.00    -0.352 N 
ATOM     38  C   UNL     1      -9.967   4.897  -7.337  1.00  0.00     0.251 C 
ATOM     39  H   UNL     1      -9.799   4.970  -5.341  1.00  0.00     0.163 HD
ATOM     40  O   UNL     1     -10.761   3.961  -7.332  1.00  0.00    -0.269 OA
BRANCH  38  41
ATOM     41  C   UNL     1      -9.439   5.417  -8.616  1.00  0.00     0.039 A 
ATOM     42  C   UNL     1     -10.320   5.670  -9.670  1.00  0.00     0.014 A 
ATOM     43  C   UNL     1      -8.069   5.648  -8.769  1.00  0.00     0.014 A 
ATOM     44  C   UNL     1      -9.835   6.218 -10.861  1.00  0.00     0.010 A 
ATOM     45  C   UNL     1      -7.598   6.248  -9.931  1.00  0.00     0.010 A 
ATOM     46  C   UNL     1      -8.475   6.539 -10.988  1.00  0.00    -0.014 A 
BRANCH  46  47
ATOM     47  C   UNL     1      -7.928   7.172 -12.215  1.00  0.00     0.031 A 
ATOM     48  C   UNL     1      -6.920   6.429 -13.049  1.00  0.00     0.074 A 
ATOM     49  C   UNL     1      -8.258   8.442 -12.521  1.00  0.00     0.049 A 
ATOM     50  N   UNL     1      -6.204   6.859 -14.055  1.00  0.00    -0.248 NA
ATOM     51  C   UNL     1      -6.667   5.026 -12.684  1.00  0.00     0.031 C 
ATOM     52  C   UNL     1      -9.209   9.275 -11.782  1.00  0.00     0.029 A 
ATOM     53  N   UNL     1      -7.810   9.264 -13.526  1.00  0.00    -0.354 N 
ATOM     54  C   UNL     1      -5.396   5.790 -14.425  1.00  0.00     0.074 A 
ATOM     55  C   UNL     1      -5.684   4.705 -13.513  1.00  0.00     0.031 C 
ATOM     56  C   UNL     1      -9.280  10.484 -12.363  1.00  0.00     0.029 A 
ATOM     57  C   UNL     1      -8.347  10.529 -13.485  1.00  0.00     0.049 A 
ATOM     58  H   UNL     1      -7.166   8.974 -14.211  1.00  0.00     0.167 HD
ATOM     59  C   UNL     1      -4.503   5.716 -15.441  1.00  0.00     0.031 A 
ATOM     60  C   UNL     1      -8.100  11.611 -14.249  1.00  0.00     0.031 A 
ATOM     61  C   UNL     1      -4.232   6.793 -16.354  1.00  0.00     0.049 A 
ATOM     62  C   UNL     1      -7.090  11.511 -15.360  1.00  0.00     0.074 A 
ATOM     63  C   UNL     1      -3.376   6.803 -17.442  1.00  0.00     0.029 A 
ATOM     64  N   UNL     1      -4.815   8.049 -16.291  1.00  0.00    -0.354 N 
ATOM     65  N   UNL     1      -6.361  10.481 -15.717  1.00  0.00    -0.248 NA
ATOM     66  C   UNL     1      -6.874  12.716 -16.174  1.00  0.00     0.031 C 
ATOM     67  C   UNL     1      -3.411   8.079 -18.012  1.00  0.00     0.029 A 
ATOM     68  C   UNL     1      -4.328   8.847 -17.311  1.00  0.00     0.049 A 
ATOM     69  H   UNL     1      -5.478   8.331 -15.620  1.00  0.00     0.167 HD
ATOM     70  C   UNL     1      -5.623  10.904 -16.818  1.00  0.00     0.074 A 
ATOM     71  C   UNL     1      -5.996  12.281 -17.069  1.00  0.00     0.031 C 
ATOM     72  C   UNL     1      -4.723  10.211 -17.556  1.00  0.00     0.031 A 
BRANCH  59  73
ATOM     73  C   UNL     1      -3.747   4.425 -15.609  1.00  0.00    -0.014 A 
ATOM     74  C   UNL     1      -4.392   3.261 -16.067  1.00  0.00     0.010 A 
ATOM     75  C   UNL     1      -2.368   4.381 -15.336  1.00  0.00     0.010 A 
ATOM     76  C   UNL     1      -3.681   2.067 -16.205  1.00  0.00     0.020 A 
ATOM     77  C   UNL     1      -1.647   3.195 -15.499  1.00  0.00     0.020 A 
ATOM     78  C   UNL     1      -2.313   2.040 -15.914  1.00  0.00     0.054 A 
BRANCH  78  79
ATOM     79  S   UNL     1      -1.412   0.479 -16.114  1.00  0.00     0.124 S 
ATOM     80  O   UNL     1      -1.869  -0.281 -14.953  1.00  0.00    -0.237 OA
ATOM     81  O   UNL     1      -1.888  -0.004 -17.407  1.00  0.00    -0.237 OA
ATOM     82  O   UNL     1      -0.008   0.882 -16.081  1.00  0.00    -0.744 OA
ENDBRANCH  78  79
ENDBRANCH  59  73
BRANCH  60  83
ATOM     83  C   UNL     1      -8.827  12.884 -13.992  1.00  0.00    -0.014 A 
ATOM     84  C   UNL     1      -9.816  13.330 -14.886  1.00  0.00     0.010 A 
ATOM     85  C   UNL     1      -8.545  13.649 -12.845  1.00  0.00     0.010 A 
ATOM     86  C   UNL     1     -10.499  14.526 -14.647  1.00  0.00     0.020 A 
ATOM     87  C   UNL     1      -9.244  14.832 -12.590  1.00  0.00     0.020 A 
ATOM     88  C   UNL     1     -10.209  15.269 -13.499  1.00  0.00     0.054 A 
BRANCH  88  89
ATOM     89  S   UNL     1     -11.144  16.792 -13.181  1.00  0.00     0.124 S 
ATOM     90  O   UNL     1     -10.547  17.719 -14.137  1.00  0.00    -0.237 OA
ATOM     91  O   UNL     1     -12.518  16.385 -13.465  1.00  0.00    -0.237 OA
ATOM     92  O   UNL     1     -10.866  17.074 -11.774  1.00  0.00    -0.744 OA
ENDBRANCH  88  89
ENDBRANCH  60  83
BRANCH  72  93
ATOM     93  C   UNL     1      -4.107  10.904 -18.740  1.00  0.00    -0.014 A 
ATOM     94  C   UNL     1      -3.100  11.871 -18.576  1.00  0.00     0.010 A 
ATOM     95  C   UNL     1      -4.476  10.507 -20.039  1.00  0.00     0.010 A 
ATOM     96  C   UNL     1      -2.479  12.436 -19.694  1.00  0.00     0.020 A 
ATOM     97  C   UNL     1      -3.841  11.052 -21.157  1.00  0.00     0.020 A 
ATOM     98  C   UNL     1      -2.849  12.018 -20.977  1.00  0.00     0.054 A 
BRANCH  98  99
ATOM     99  S   UNL     1      -1.969  12.704 -22.407  1.00  0.00     0.124 S 
ATOM    100  O   UNL     1      -2.528  14.051 -22.490  1.00  0.00    -0.237 OA
ATOM    101  O   UNL     1      -0.571  12.628 -21.990  1.00  0.00    -0.237 OA
ATOM    102  O   UNL     1      -2.336  11.809 -23.502  1.00  0.00    -0.744 OA
ENDBRANCH  98  99
ENDBRANCH  72  93
ENDBRANCH  46  47
ENDBRANCH  38  41
ENDBRANCH  36  37
ENDBRANCH  35  36
ENDBRANCH  34  35
ENDBRANCH  33  34
ENDBRANCH  32  33
ENDBRANCH  31  32
ENDBRANCH   3  31
TORSDOF 25
