REMARK SMILES COc1cc2nc(SCC(=O)NCCCCCCNC(=O)c3ccc(-c4c5nc(c(-c6ccc(S(=O)(=O)[O-])cc6)c6ccc([nH]6)c(-c6ccc(S(=O)(=O)[O-])cc6)c6nc(c(-c7ccc(S(=O)(=O)[O-])cc7)c7ccc4[nH]7)C=C6)C=C5)cc3)nc(O)c2cc1OC
REMARK SMILES IDX 15 1 14 2 13 3 12 4 10 5 11 6 9 8 8 9 7 10 3 11 4 12 87 13
REMARK SMILES IDX 5 14 86 15 6 16 85 17 83 18 82 19 2 20 1 21 88 22 89 23
REMARK SMILES IDX 84 24 16 26 17 27 18 28 19 29 20 30 21 32 22 33 23 34 81 35
REMARK SMILES IDX 24 36 80 37 25 38 26 39 27 40 74 41 28 42 79 43 73 44 75 45
REMARK SMILES IDX 29 46 78 47 72 48 71 49 30 51 60 52 41 53 59 54 42 55 45 56
REMARK SMILES IDX 58 57 76 58 43 59 44 60 57 62 77 63 46 64 31 65 32 66 40 67
REMARK SMILES IDX 33 68 39 69 34 70 35 71 36 72 37 73 38 74 61 75 62 76 70 77
REMARK SMILES IDX 63 78 69 79 64 80 65 81 66 82 67 83 68 84 47 85 48 86 56 87
REMARK SMILES IDX 49 88 55 89 50 90 51 91 52 92 53 93 54 94
REMARK H PARENT 12 7 84 25 19 31 75 50 45 61
REMARK Flexibility Score: inf
ROOT
ATOM      1  C   UNL     1      -2.354   4.485  -7.166  1.00  0.00     0.002 C 
ENDROOT
BRANCH   1   2
ATOM      2  C   UNL     1      -2.835   3.052  -7.436  1.00  0.00     0.021 C 
BRANCH   2   3
ATOM      3  C   UNL     1      -2.620   2.573  -8.874  1.00  0.00     0.116 C 
BRANCH   3   4
ATOM      4  N   UNL     1      -1.204   2.466  -9.180  1.00  0.00    -0.355 N 
ATOM      5  C   UNL     1      -0.427   1.359  -9.361  1.00  0.00     0.230 C 
ATOM      6  O   UNL     1       0.778   1.535  -9.568  1.00  0.00    -0.274 OA
ATOM      7  H   UNL     1      -0.732   3.325  -9.272  1.00  0.00     0.163 HD
BRANCH   5   8
ATOM      8  C   UNL     1      -1.045  -0.028  -9.424  1.00  0.00     0.178 C 
BRANCH   8   9
ATOM      9  S   UNL     1      -1.784  -0.608  -7.870  1.00  0.00    -0.076 SA
BRANCH   9  10
ATOM     10  C   UNL     1      -0.408  -0.547  -6.759  1.00  0.00     0.192 A 
ATOM     11  C   UNL     1       1.092  -0.905  -2.288  1.00  0.00     0.162 A 
ATOM     12  C   UNL     1       0.075  -0.981  -3.247  1.00  0.00     0.079 A 
ATOM     13  C   UNL     1       2.409  -0.605  -2.662  1.00  0.00     0.161 A 
ATOM     14  C   UNL     1       0.321  -0.731  -4.587  1.00  0.00     0.083 A 
ATOM     15  C   UNL     1       2.669  -0.356  -4.010  1.00  0.00     0.066 A 
ATOM     16  N   UNL     1      -0.686  -0.788  -5.468  1.00  0.00    -0.222 NA
ATOM     17  C   UNL     1       1.625  -0.419  -4.965  1.00  0.00     0.066 A 
ATOM     18  C   UNL     1       1.774  -0.193  -6.325  1.00  0.00     0.223 A 
ATOM     19  N   UNL     1       0.803  -0.264  -7.237  1.00  0.00    -0.187 NA
BRANCH  11  20
ATOM     20  O   UNL     1       0.717  -1.216  -1.004  1.00  0.00    -0.493 OA
ATOM     21  C   UNL     1       0.934  -0.137  -0.096  1.00  0.00     0.278 C 
ENDBRANCH  11  20
BRANCH  13  22
ATOM     22  O   UNL     1       3.354  -0.607  -1.674  1.00  0.00    -0.493 OA
ATOM     23  C   UNL     1       4.675  -0.220  -2.026  1.00  0.00     0.278 C 
ENDBRANCH  13  22
BRANCH  18  24
ATOM     24  O   UNL     1       2.973   0.161  -6.862  1.00  0.00    -0.493 OA
ATOM     25  H   UNL     1       3.048   0.309  -7.785  1.00  0.00     0.295 HD
ENDBRANCH  18  24
ENDBRANCH   9  10
ENDBRANCH   8   9
ENDBRANCH   5   8
ENDBRANCH   3   4
ENDBRANCH   2   3
ENDBRANCH   1   2
BRANCH   1  26
ATOM     26  C   UNL     1      -3.016   5.578  -8.012  1.00  0.00     0.002 C 
BRANCH  26  27
ATOM     27  C   UNL     1      -4.544   5.612  -7.962  1.00  0.00     0.021 C 
BRANCH  27  28
ATOM     28  C   UNL     1      -5.142   5.792  -6.570  1.00  0.00     0.116 C 
BRANCH  28  29
ATOM     29  N   UNL     1      -4.855   7.097  -5.993  1.00  0.00    -0.352 N 
ATOM     30  C   UNL     1      -5.717   7.979  -5.381  1.00  0.00     0.251 C 
ATOM     31  H   UNL     1      -3.917   7.389  -6.048  1.00  0.00     0.163 HD
ATOM     32  O   UNL     1      -5.332   9.101  -5.064  1.00  0.00    -0.269 OA
BRANCH  30  33
ATOM     33  C   UNL     1      -7.123   7.579  -5.145  1.00  0.00     0.039 A 
ATOM     34  C   UNL     1      -7.424   6.332  -4.593  1.00  0.00     0.014 A 
ATOM     35  C   UNL     1      -8.151   8.448  -5.521  1.00  0.00     0.014 A 
ATOM     36  C   UNL     1      -8.743   5.888  -4.575  1.00  0.00     0.010 A 
ATOM     37  C   UNL     1      -9.482   8.028  -5.429  1.00  0.00     0.010 A 
ATOM     38  C   UNL     1      -9.787   6.725  -5.005  1.00  0.00    -0.014 A 
BRANCH  38  39
ATOM     39  C   UNL     1     -11.181   6.209  -5.017  1.00  0.00     0.031 A 
ATOM     40  C   UNL     1     -11.916   6.010  -6.318  1.00  0.00     0.074 A 
ATOM     41  C   UNL     1     -11.763   5.851  -3.855  1.00  0.00     0.049 A 
ATOM     42  N   UNL     1     -13.118   5.531  -6.515  1.00  0.00    -0.248 NA
ATOM     43  C   UNL     1     -11.217   6.393  -7.556  1.00  0.00     0.031 C 
ATOM     44  C   UNL     1     -11.142   5.970  -2.534  1.00  0.00     0.029 A 
ATOM     45  N   UNL     1     -12.986   5.285  -3.598  1.00  0.00    -0.354 N 
ATOM     46  C   UNL     1     -13.324   5.564  -7.889  1.00  0.00     0.074 A 
ATOM     47  C   UNL     1     -12.135   6.138  -8.480  1.00  0.00     0.031 C 
ATOM     48  C   UNL     1     -11.958   5.433  -1.617  1.00  0.00     0.029 A 
ATOM     49  C   UNL     1     -13.188   4.991  -2.269  1.00  0.00     0.049 A 
ATOM     50  H   UNL     1     -13.656   5.106  -4.297  1.00  0.00     0.167 HD
ATOM     51  C   UNL     1     -14.399   5.141  -8.595  1.00  0.00     0.031 A 
ATOM     52  C   UNL     1     -14.240   4.433  -1.639  1.00  0.00     0.031 A 
ATOM     53  C   UNL     1     -15.574   4.554  -8.005  1.00  0.00     0.049 A 
ATOM     54  C   UNL     1     -15.442   4.019  -2.438  1.00  0.00     0.074 A 
ATOM     55  C   UNL     1     -16.708   4.086  -8.646  1.00  0.00     0.029 A 
ATOM     56  N   UNL     1     -15.767   4.347  -6.649  1.00  0.00    -0.354 N 
ATOM     57  N   UNL     1     -15.617   4.068  -3.737  1.00  0.00    -0.248 NA
ATOM     58  C   UNL     1     -16.589   3.483  -1.693  1.00  0.00     0.031 C 
ATOM     59  C   UNL     1     -17.609   3.646  -7.674  1.00  0.00     0.029 A 
ATOM     60  C   UNL     1     -17.012   3.781  -6.431  1.00  0.00     0.049 A 
ATOM     61  H   UNL     1     -15.116   4.569  -5.944  1.00  0.00     0.167 HD
ATOM     62  C   UNL     1     -16.892   3.564  -3.965  1.00  0.00     0.074 A 
ATOM     63  C   UNL     1     -17.436   3.197  -2.674  1.00  0.00     0.031 C 
ATOM     64  C   UNL     1     -17.549   3.426  -5.142  1.00  0.00     0.031 A 
BRANCH  51  65
ATOM     65  C   UNL     1     -14.375   5.287 -10.094  1.00  0.00    -0.014 A 
ATOM     66  C   UNL     1     -15.237   6.206 -10.720  1.00  0.00     0.010 A 
ATOM     67  C   UNL     1     -13.597   4.427 -10.889  1.00  0.00     0.010 A 
ATOM     68  C   UNL     1     -15.344   6.245 -12.113  1.00  0.00     0.020 A 
ATOM     69  C   UNL     1     -13.683   4.479 -12.284  1.00  0.00     0.020 A 
ATOM     70  C   UNL     1     -14.573   5.373 -12.886  1.00  0.00     0.054 A 
BRANCH  70  71
ATOM     71  S   UNL     1     -14.740   5.419 -14.692  1.00  0.00     0.124 S 
ATOM     72  O   UNL     1     -15.993   4.702 -14.905  1.00  0.00    -0.237 OA
ATOM     73  O   UNL     1     -14.776   6.852 -14.975  1.00  0.00    -0.237 OA
ATOM     74  O   UNL     1     -13.538   4.733 -15.162  1.00  0.00    -0.744 OA
ENDBRANCH  70  71
ENDBRANCH  51  65
BRANCH  52  75
ATOM     75  C   UNL     1     -14.175   4.227  -0.166  1.00  0.00    -0.014 A 
ATOM     76  C   UNL     1     -14.166   5.332   0.706  1.00  0.00     0.010 A 
ATOM     77  C   UNL     1     -14.030   2.934   0.366  1.00  0.00     0.010 A 
ATOM     78  C   UNL     1     -13.954   5.154   2.075  1.00  0.00     0.020 A 
ATOM     79  C   UNL     1     -13.847   2.750   1.740  1.00  0.00     0.020 A 
ATOM     80  C   UNL     1     -13.778   3.864   2.580  1.00  0.00     0.054 A 
BRANCH  80  81
ATOM     81  S   UNL     1     -13.449   3.657   4.353  1.00  0.00     0.124 S 
ATOM     82  O   UNL     1     -12.028   3.985   4.432  1.00  0.00    -0.237 OA
ATOM     83  O   UNL     1     -14.354   4.628   4.963  1.00  0.00    -0.237 OA
ATOM     84  O   UNL     1     -13.784   2.257   4.599  1.00  0.00    -0.744 OA
ENDBRANCH  80  81
ENDBRANCH  52  75
BRANCH  64  85
ATOM     85  C   UNL     1     -18.943   2.860  -5.114  1.00  0.00    -0.014 A 
ATOM     86  C   UNL     1     -19.190   1.583  -5.653  1.00  0.00     0.010 A 
ATOM     87  C   UNL     1     -20.027   3.645  -4.683  1.00  0.00     0.010 A 
ATOM     88  C   UNL     1     -20.498   1.116  -5.796  1.00  0.00     0.020 A 
ATOM     89  C   UNL     1     -21.336   3.170  -4.802  1.00  0.00     0.020 A 
ATOM     90  C   UNL     1     -21.564   1.919  -5.382  1.00  0.00     0.054 A 
BRANCH  90  91
ATOM     91  S   UNL     1     -23.259   1.314  -5.611  1.00  0.00     0.124 S 
ATOM     92  O   UNL     1     -23.483   1.560  -7.032  1.00  0.00    -0.237 OA
ATOM     93  O   UNL     1     -23.156  -0.091  -5.224  1.00  0.00    -0.237 OA
ATOM     94  O   UNL     1     -24.044   2.145  -4.701  1.00  0.00    -0.744 OA
ENDBRANCH  90  91
ENDBRANCH  64  85
ENDBRANCH  38  39
ENDBRANCH  30  33
ENDBRANCH  28  29
ENDBRANCH  27  28
ENDBRANCH  26  27
ENDBRANCH   1  26
TORSDOF 21
