REMARK SMILES O=C(NCCCCCCNC(=O)[C@H]1CC2=c3ccccc3=N[C@H]2[C@H](c2ccccc2F)[NH2+]1)c1ccc(-c2c3nc(c(-c4ccc(S(=O)(=O)[O-])cc4)c4ccc([nH]4)c(-c4ccc(S(=O)(=O)[O-])cc4)c4nc(c(-c5ccc(S(=O)(=O)[O-])cc5)c5ccc2[nH]5)C=C4)C=C3)cc1
REMARK SMILES IDX 5 1 4 2 3 3 1 4 2 5 33 7 34 8 92 9 35 10 91 11 36 12 37 13
REMARK SMILES IDX 38 14 85 15 39 16 90 17 84 18 86 19 40 20 89 21 83 22 82 23
REMARK SMILES IDX 41 25 71 26 52 27 70 28 53 29 56 30 69 31 87 32 54 33 55 34
REMARK SMILES IDX 68 36 88 37 57 38 42 39 43 40 51 41 44 42 50 43 45 44 46 45
REMARK SMILES IDX 47 46 48 47 49 48 72 49 73 50 81 51 74 52 80 53 75 54 76 55
REMARK SMILES IDX 77 56 78 57 79 58 58 59 59 60 67 61 60 62 66 63 61 64 62 65
REMARK SMILES IDX 63 66 64 67 65 68 6 69 7 70 8 71 9 72 10 73 11 74 12 76
REMARK SMILES IDX 13 77 14 78 32 79 15 80 24 81 16 84 23 85 17 86 21 87 22 88
REMARK SMILES IDX 18 89 20 90 19 91 25 92 26 93 30 94 27 95 29 96 31 97 28 98
REMARK H PARENT 3 6 86 24 56 35 10 75 32 82 32 83
REMARK Flexibility Score: inf
ROOT
ATOM      1  C   UNL     1       4.452   2.620  -0.017  1.00  0.00     0.021 C 
ENDROOT
BRANCH   1   2
ATOM      2  C   UNL     1       4.240   1.148   0.326  1.00  0.00     0.116 C 
BRANCH   2   3
ATOM      3  N   UNL     1       2.834   0.841   0.517  1.00  0.00    -0.352 N 
ATOM      4  O   UNL     1       0.861  -0.136   0.062  1.00  0.00    -0.269 OA
ATOM      5  C   UNL     1       2.088  -0.163  -0.036  1.00  0.00     0.251 C 
ATOM      6  H   UNL     1       2.350   1.440   1.131  1.00  0.00     0.163 HD
BRANCH   5   7
ATOM      7  C   UNL     1       2.748  -1.279  -0.745  1.00  0.00     0.039 A 
ATOM      8  C   UNL     1       2.187  -1.744  -1.938  1.00  0.00     0.014 A 
ATOM      9  C   UNL     1       3.870  -1.911  -0.200  1.00  0.00     0.014 A 
ATOM     10  C   UNL     1       2.756  -2.839  -2.590  1.00  0.00     0.010 A 
ATOM     11  C   UNL     1       4.468  -2.970  -0.879  1.00  0.00     0.010 A 
ATOM     12  C   UNL     1       3.899  -3.459  -2.064  1.00  0.00    -0.014 A 
BRANCH  12  13
ATOM     13  C   UNL     1       4.478  -4.665  -2.704  1.00  0.00     0.031 A 
ATOM     14  C   UNL     1       4.391  -5.992  -2.005  1.00  0.00     0.074 A 
ATOM     15  C   UNL     1       5.110  -4.561  -3.888  1.00  0.00     0.049 A 
ATOM     16  N   UNL     1       4.882  -7.147  -2.371  1.00  0.00    -0.248 NA
ATOM     17  C   UNL     1       3.676  -6.023  -0.719  1.00  0.00     0.031 C 
ATOM     18  C   UNL     1       5.259  -3.326  -4.657  1.00  0.00     0.029 A 
ATOM     19  N   UNL     1       5.746  -5.511  -4.649  1.00  0.00    -0.354 N 
ATOM     20  C   UNL     1       4.553  -8.035  -1.355  1.00  0.00     0.074 A 
ATOM     21  C   UNL     1       3.858  -7.279  -0.337  1.00  0.00     0.031 C 
ATOM     22  C   UNL     1       5.917  -3.598  -5.794  1.00  0.00     0.029 A 
ATOM     23  C   UNL     1       6.276  -5.016  -5.816  1.00  0.00     0.049 A 
ATOM     24  H   UNL     1       5.815  -6.456  -4.384  1.00  0.00     0.167 HD
ATOM     25  C   UNL     1       4.792  -9.365  -1.287  1.00  0.00     0.031 A 
ATOM     26  C   UNL     1       6.975  -5.627  -6.793  1.00  0.00     0.031 A 
ATOM     27  C   UNL     1       5.457 -10.114  -2.319  1.00  0.00     0.049 A 
ATOM     28  C   UNL     1       7.261  -7.097  -6.686  1.00  0.00     0.074 A 
ATOM     29  C   UNL     1       5.674 -11.479  -2.378  1.00  0.00     0.029 A 
ATOM     30  N   UNL     1       6.013  -9.567  -3.465  1.00  0.00    -0.354 N 
ATOM     31  N   UNL     1       6.898  -7.933  -5.742  1.00  0.00    -0.248 NA
ATOM     32  C   UNL     1       8.048  -7.710  -7.765  1.00  0.00     0.031 C 
ATOM     33  C   UNL     1       6.420 -11.749  -3.527  1.00  0.00     0.029 A 
ATOM     34  C   UNL     1       6.613 -10.562  -4.218  1.00  0.00     0.049 A 
ATOM     35  H   UNL     1       5.985  -8.614  -3.708  1.00  0.00     0.167 HD
ATOM     36  C   UNL     1       7.408  -9.171  -6.114  1.00  0.00     0.074 A 
ATOM     37  C   UNL     1       8.094  -8.979  -7.376  1.00  0.00     0.031 C 
ATOM     38  C   UNL     1       7.313 -10.357  -5.463  1.00  0.00     0.031 A 
BRANCH  25  39
ATOM     39  C   UNL     1       4.337 -10.105  -0.057  1.00  0.00    -0.014 A 
ATOM     40  C   UNL     1       5.292 -10.643   0.825  1.00  0.00     0.010 A 
ATOM     41  C   UNL     1       2.971 -10.334   0.191  1.00  0.00     0.010 A 
ATOM     42  C   UNL     1       4.893 -11.402   1.927  1.00  0.00     0.020 A 
ATOM     43  C   UNL     1       2.567 -11.070   1.308  1.00  0.00     0.020 A 
ATOM     44  C   UNL     1       3.532 -11.614   2.160  1.00  0.00     0.054 A 
BRANCH  44  45
ATOM     45  S   UNL     1       3.028 -12.585   3.607  1.00  0.00     0.124 S 
ATOM     46  O   UNL     1       3.242 -13.954   3.149  1.00  0.00    -0.237 OA
ATOM     47  O   UNL     1       3.942 -12.115   4.645  1.00  0.00    -0.237 OA
ATOM     48  O   UNL     1       1.631 -12.201   3.803  1.00  0.00    -0.744 OA
ENDBRANCH  44  45
ENDBRANCH  25  39
BRANCH  26  49
ATOM     49  C   UNL     1       7.405  -4.820  -7.966  1.00  0.00    -0.014 A 
ATOM     50  C   UNL     1       8.412  -3.847  -7.830  1.00  0.00     0.010 A 
ATOM     51  C   UNL     1       6.700  -4.914  -9.178  1.00  0.00     0.010 A 
ATOM     52  C   UNL     1       8.651  -2.928  -8.855  1.00  0.00     0.020 A 
ATOM     53  C   UNL     1       6.952  -4.010 -10.215  1.00  0.00     0.020 A 
ATOM     54  C   UNL     1       7.898  -2.999 -10.030  1.00  0.00     0.054 A 
BRANCH  54  55
ATOM     55  S   UNL     1       8.132  -1.717 -11.293  1.00  0.00     0.124 S 
ATOM     56  O   UNL     1       7.450  -0.576 -10.687  1.00  0.00    -0.237 OA
ATOM     57  O   UNL     1       9.586  -1.610 -11.374  1.00  0.00    -0.237 OA
ATOM     58  O   UNL     1       7.483  -2.277 -12.475  1.00  0.00    -0.744 OA
ENDBRANCH  54  55
ENDBRANCH  26  49
BRANCH  38  59
ATOM     59  C   UNL     1       7.987 -11.560  -6.065  1.00  0.00    -0.014 A 
ATOM     60  C   UNL     1       7.209 -12.614  -6.580  1.00  0.00     0.010 A 
ATOM     61  C   UNL     1       9.379 -11.721  -5.960  1.00  0.00     0.010 A 
ATOM     62  C   UNL     1       7.805 -13.828  -6.929  1.00  0.00     0.020 A 
ATOM     63  C   UNL     1       9.982 -12.926  -6.332  1.00  0.00     0.020 A 
ATOM     64  C   UNL     1       9.186 -13.982  -6.785  1.00  0.00     0.054 A 
BRANCH  64  65
ATOM     65  S   UNL     1       9.933 -15.589  -7.173  1.00  0.00     0.124 S 
ATOM     66  O   UNL     1       9.558 -16.390  -6.011  1.00  0.00    -0.237 OA
ATOM     67  O   UNL     1       9.277 -15.953  -8.427  1.00  0.00    -0.237 OA
ATOM     68  O   UNL     1      11.357 -15.286  -7.290  1.00  0.00    -0.744 OA
ENDBRANCH  64  65
ENDBRANCH  38  59
ENDBRANCH  12  13
ENDBRANCH   5   7
ENDBRANCH   2   3
ENDBRANCH   1   2
BRANCH   1  69
ATOM     69  C   UNL     1       3.983   3.603   1.062  1.00  0.00     0.002 C 
BRANCH  69  70
ATOM     70  C   UNL     1       4.605   3.393   2.446  1.00  0.00     0.002 C 
BRANCH  70  71
ATOM     71  C   UNL     1       6.136   3.336   2.460  1.00  0.00     0.021 C 
BRANCH  71  72
ATOM     72  C   UNL     1       6.806   4.591   1.904  1.00  0.00     0.116 C 
BRANCH  72  73
ATOM     73  N   UNL     1       6.633   5.703   2.814  1.00  0.00    -0.351 N 
ATOM     74  C   UNL     1       7.527   6.325   3.633  1.00  0.00     0.278 C 
ATOM     75  H   UNL     1       5.720   6.070   2.847  1.00  0.00     0.163 HD
ATOM     76  O   UNL     1       7.073   7.114   4.468  1.00  0.00    -0.268 OA
BRANCH  74  77
ATOM     77  C   UNL     1       9.046   6.069   3.517  1.00  0.00     0.277 C 
ATOM     78  C   UNL     1       9.456   4.629   3.906  1.00  0.00     0.109 C 
ATOM     79  N   UNL     1       9.521   6.564   2.191  1.00  0.00    -0.327 N 
ATOM     80  C   UNL     1      10.322   4.028   2.851  1.00  0.00    -0.024 C 
ATOM     81  C   UNL     1      10.978   6.373   1.992  1.00  0.00     0.246 C 
ATOM     82  H   UNL     1       9.311   7.560   2.120  1.00  0.00     0.347 HD
ATOM     83  H   UNL     1       9.040   6.024   1.472  1.00  0.00     0.347 HD
ATOM     84  C   UNL     1      10.254   2.861   2.222  1.00  0.00     0.002 A 
ATOM     85  C   UNL     1      11.418   4.888   2.290  1.00  0.00     0.196 C 
ATOM     86  C   UNL     1       9.461   1.684   2.349  1.00  0.00     0.010 A 
ATOM     87  C   UNL     1      11.220   3.042   1.122  1.00  0.00     0.066 A 
ATOM     88  N   UNL     1      11.866   4.169   1.060  1.00  0.00    -0.270 NA
ATOM     89  C   UNL     1       9.623   0.700   1.449  1.00  0.00     0.001 A 
ATOM     90  C   UNL     1      11.324   1.923   0.159  1.00  0.00     0.028 A 
ATOM     91  C   UNL     1      10.560   0.831   0.344  1.00  0.00     0.002 A 
BRANCH  81  92
ATOM     92  C   UNL     1      11.860   7.383   2.742  1.00  0.00     0.048 A 
ATOM     93  C   UNL     1      13.260   7.204   2.734  1.00  0.00     0.013 A 
ATOM     94  C   UNL     1      11.374   8.502   3.436  1.00  0.00     0.132 A 
ATOM     95  C   UNL     1      14.107   8.019   3.492  1.00  0.00     0.001 A 
ATOM     96  C   UNL     1      12.214   9.315   4.198  1.00  0.00     0.040 A 
ATOM     97  F   UNL     1      10.078   8.838   3.413  1.00  0.00    -0.206 F 
ATOM     98  C   UNL     1      13.580   9.061   4.246  1.00  0.00     0.003 A 
ENDBRANCH  81  92
ENDBRANCH  74  77
ENDBRANCH  72  73
ENDBRANCH  71  72
ENDBRANCH  70  71
ENDBRANCH  69  70
ENDBRANCH   1  69
TORSDOF 17
