REMARK SMILES CC(C)(C)OC(=O)N1CCC[C@](Cc2ccccc2)(C(=O)NCCCCCCNC(=O)c2ccc(-c3c4nc(c(-c5ccc(S(=O)(=O)[O-])cc5)c5ccc([nH]5)c(-c5ccc(S(=O)(=O)[O-])cc5)c5nc(c(-c6ccc(S(=O)(=O)[O-])cc6)c6ccc3[nH]6)C=C5)C=C4)cc2)C1
REMARK SMILES IDX 25 1 24 2 23 3 22 4 20 5 21 6 12 8 8 9 9 10 92 11 10 12
REMARK SMILES IDX 11 13 6 14 7 15 5 16 2 17 1 18 3 19 4 20 13 21 14 22 15 23
REMARK SMILES IDX 19 24 16 25 18 26 17 27 26 28 27 29 28 30 29 31 30 32 31 34
REMARK SMILES IDX 32 35 33 36 91 37 34 38 90 39 35 40 36 41 37 42 84 43 38 44
REMARK SMILES IDX 89 45 83 46 85 47 39 48 88 49 82 50 81 51 40 53 70 54 51 55
REMARK SMILES IDX 69 56 52 57 55 58 68 59 86 60 53 61 54 62 67 64 87 65 56 66
REMARK SMILES IDX 41 67 42 68 50 69 43 70 49 71 44 72 45 73 46 74 47 75 48 76
REMARK SMILES IDX 71 77 72 78 80 79 73 80 79 81 74 82 75 83 76 84 77 85 78 86
REMARK SMILES IDX 57 87 58 88 66 89 59 90 65 91 60 92 61 93 62 94 63 95 64 96
REMARK H PARENT 22 7 29 33 85 52 55 63
REMARK Flexibility Score: inf
ROOT
ATOM      1  C   UNL     1      -0.423   1.937   7.788  1.00  0.00     0.002 C 
ENDROOT
BRANCH   1   2
ATOM      2  C   UNL     1       0.116   0.509   7.748  1.00  0.00     0.021 C 
BRANCH   2   3
ATOM      3  C   UNL     1       0.886   0.190   6.474  1.00  0.00     0.116 C 
BRANCH   3   4
ATOM      4  N   UNL     1       2.314   0.147   6.654  1.00  0.00    -0.356 N 
ATOM      5  C   UNL     1       3.251  -0.753   6.264  1.00  0.00     0.228 C 
ATOM      6  O   UNL     1       4.407  -0.307   6.301  1.00  0.00    -0.274 OA
ATOM      7  H   UNL     1       2.678   0.913   7.152  1.00  0.00     0.163 HD
BRANCH   5   8
ATOM      8  C   UNL     1       2.970  -2.227   5.812  1.00  0.00     0.071 C 
ATOM      9  N   UNL     1       0.855  -2.198   4.427  1.00  0.00    -0.307 N 
ATOM     10  C   UNL     1       0.171  -3.160   5.283  1.00  0.00     0.123 C 
ATOM     11  C   UNL     1       2.308  -2.252   4.415  1.00  0.00     0.140 C 
ATOM     12  C   UNL     1       0.666  -3.146   6.725  1.00  0.00     0.023 C 
ATOM     13  C   UNL     1       2.182  -3.022   6.889  1.00  0.00     0.021 C 
BRANCH   9  14
ATOM     14  C   UNL     1       0.118  -1.357   3.601  1.00  0.00     0.410 C 
ATOM     15  O   UNL     1      -1.060  -1.107   3.797  1.00  0.00    -0.224 OA
BRANCH  14  16
ATOM     16  O   UNL     1       0.866  -0.849   2.588  1.00  0.00    -0.444 OA
BRANCH  16  17
ATOM     17  C   UNL     1       0.388   0.154   1.645  1.00  0.00     0.106 C 
ATOM     18  C   UNL     1       1.082  -0.175   0.314  1.00  0.00     0.056 C 
ATOM     19  C   UNL     1       0.879   1.515   2.148  1.00  0.00     0.056 C 
ATOM     20  C   UNL     1      -1.125   0.186   1.399  1.00  0.00     0.056 C 
ENDBRANCH  16  17
ENDBRANCH  14  16
ENDBRANCH   9  14
BRANCH   8  21
ATOM     21  C   UNL     1       4.434  -2.846   5.682  1.00  0.00     0.054 C 
BRANCH  21  22
ATOM     22  C   UNL     1       4.580  -4.341   5.471  1.00  0.00    -0.047 A 
ATOM     23  C   UNL     1       4.936  -5.167   6.549  1.00  0.00     0.004 A 
ATOM     24  C   UNL     1       4.357  -4.933   4.223  1.00  0.00     0.004 A 
ATOM     25  C   UNL     1       4.986  -6.553   6.399  1.00  0.00     0.000 A 
ATOM     26  C   UNL     1       4.378  -6.320   4.079  1.00  0.00     0.000 A 
ATOM     27  C   UNL     1       4.682  -7.131   5.169  1.00  0.00     0.000 A 
ENDBRANCH  21  22
ENDBRANCH   8  21
ENDBRANCH   5   8
ENDBRANCH   3   4
ENDBRANCH   2   3
ENDBRANCH   1   2
BRANCH   1  28
ATOM     28  C   UNL     1      -1.311   2.330   6.598  1.00  0.00     0.002 C 
BRANCH  28  29
ATOM     29  C   UNL     1      -2.508   1.410   6.330  1.00  0.00     0.021 C 
BRANCH  29  30
ATOM     30  C   UNL     1      -3.459   1.237   7.511  1.00  0.00     0.116 C 
BRANCH  30  31
ATOM     31  N   UNL     1      -3.869   2.518   8.063  1.00  0.00    -0.352 N 
ATOM     32  C   UNL     1      -5.114   3.064   8.210  1.00  0.00     0.251 C 
ATOM     33  H   UNL     1      -3.130   3.085   8.384  1.00  0.00     0.163 HD
ATOM     34  O   UNL     1      -5.222   4.264   8.451  1.00  0.00    -0.269 OA
BRANCH  32  35
ATOM     35  C   UNL     1      -6.322   2.223   8.087  1.00  0.00     0.039 A 
ATOM     36  C   UNL     1      -7.456   2.767   7.482  1.00  0.00     0.014 A 
ATOM     37  C   UNL     1      -6.363   0.929   8.617  1.00  0.00     0.014 A 
ATOM     38  C   UNL     1      -8.619   2.005   7.382  1.00  0.00     0.010 A 
ATOM     39  C   UNL     1      -7.497   0.140   8.443  1.00  0.00     0.010 A 
ATOM     40  C   UNL     1      -8.643   0.676   7.840  1.00  0.00    -0.014 A 
BRANCH  40  41
ATOM     41  C   UNL     1      -9.865  -0.149   7.677  1.00  0.00     0.031 A 
ATOM     42  C   UNL     1     -10.617  -0.661   8.875  1.00  0.00     0.074 A 
ATOM     43  C   UNL     1     -10.282  -0.457   6.434  1.00  0.00     0.049 A 
ATOM     44  N   UNL     1     -11.733  -1.344   8.915  1.00  0.00    -0.248 NA
ATOM     45  C   UNL     1     -10.030  -0.395  10.197  1.00  0.00     0.031 C 
ATOM     46  C   UNL     1      -9.596  -0.079   5.196  1.00  0.00     0.029 A 
ATOM     47  N   UNL     1     -11.383  -1.152   6.005  1.00  0.00    -0.354 N 
ATOM     48  C   UNL     1     -11.976  -1.597  10.261  1.00  0.00     0.074 A 
ATOM     49  C   UNL     1     -10.860  -1.046  10.998  1.00  0.00     0.031 C 
ATOM     50  C   UNL     1     -10.311  -0.512   4.148  1.00  0.00     0.029 A 
ATOM     51  C   UNL     1     -11.483  -1.231   4.636  1.00  0.00     0.049 A 
ATOM     52  H   UNL     1     -12.040  -1.556   6.617  1.00  0.00     0.167 HD
ATOM     53  C   UNL     1     -13.038  -2.216  10.831  1.00  0.00     0.031 A 
ATOM     54  C   UNL     1     -12.412  -1.817   3.857  1.00  0.00     0.031 A 
ATOM     55  C   UNL     1     -14.137  -2.773  10.085  1.00  0.00     0.049 A 
ATOM     56  C   UNL     1     -13.592  -2.479   4.508  1.00  0.00     0.074 A 
ATOM     57  C   UNL     1     -15.293  -3.364  10.564  1.00  0.00     0.029 A 
ATOM     58  N   UNL     1     -14.210  -2.823   8.699  1.00  0.00    -0.354 N 
ATOM     59  N   UNL     1     -13.855  -2.625   5.785  1.00  0.00    -0.248 NA
ATOM     60  C   UNL     1     -14.613  -3.034   3.612  1.00  0.00     0.031 C 
ATOM     61  C   UNL     1     -16.030  -3.833   9.471  1.00  0.00     0.029 A 
ATOM     62  C   UNL     1     -15.374  -3.466   8.306  1.00  0.00     0.049 A 
ATOM     63  H   UNL     1     -13.534  -2.455   8.085  1.00  0.00     0.167 HD
ATOM     64  C   UNL     1     -15.081  -3.276   5.848  1.00  0.00     0.074 A 
ATOM     65  C   UNL     1     -15.519  -3.467   4.478  1.00  0.00     0.031 C 
ATOM     66  C   UNL     1     -15.782  -3.680   6.939  1.00  0.00     0.031 A 
BRANCH  53  67
ATOM     67  C   UNL     1     -13.041  -2.344  12.335  1.00  0.00    -0.014 A 
ATOM     68  C   UNL     1     -13.133  -1.214  13.171  1.00  0.00     0.010 A 
ATOM     69  C   UNL     1     -12.956  -3.618  12.926  1.00  0.00     0.010 A 
ATOM     70  C   UNL     1     -13.073  -1.350  14.561  1.00  0.00     0.020 A 
ATOM     71  C   UNL     1     -12.933  -3.762  14.317  1.00  0.00     0.020 A 
ATOM     72  C   UNL     1     -12.966  -2.624  15.125  1.00  0.00     0.054 A 
BRANCH  72  73
ATOM     73  S   UNL     1     -12.879  -2.771  16.931  1.00  0.00     0.124 S 
ATOM     74  O   UNL     1     -11.541  -2.256  17.211  1.00  0.00    -0.237 OA
ATOM     75  O   UNL     1     -13.983  -1.924  17.375  1.00  0.00    -0.237 OA
ATOM     76  O   UNL     1     -13.058  -4.201  17.172  1.00  0.00    -0.744 OA
ENDBRANCH  72  73
ENDBRANCH  53  67
BRANCH  54  77
ATOM     77  C   UNL     1     -12.252  -1.780   2.378  1.00  0.00    -0.014 A 
ATOM     78  C   UNL     1     -13.088  -0.983   1.578  1.00  0.00     0.010 A 
ATOM     79  C   UNL     1     -11.211  -2.505   1.768  1.00  0.00     0.010 A 
ATOM     80  C   UNL     1     -12.889  -0.915   0.195  1.00  0.00     0.020 A 
ATOM     81  C   UNL     1     -10.989  -2.415   0.392  1.00  0.00     0.020 A 
ATOM     82  C   UNL     1     -11.834  -1.624  -0.387  1.00  0.00     0.054 A 
BRANCH  82  83
ATOM     83  S   UNL     1     -11.541  -1.452  -2.170  1.00  0.00     0.124 S 
ATOM     84  O   UNL     1     -12.664  -2.191  -2.736  1.00  0.00    -0.237 OA
ATOM     85  O   UNL     1     -11.577  -0.004  -2.356  1.00  0.00    -0.237 OA
ATOM     86  O   UNL     1     -10.228  -2.064  -2.362  1.00  0.00    -0.744 OA
ENDBRANCH  82  83
ENDBRANCH  54  77
BRANCH  66  87
ATOM     87  C   UNL     1     -17.107  -4.356   6.687  1.00  0.00    -0.014 A 
ATOM     88  C   UNL     1     -17.181  -5.625   6.084  1.00  0.00     0.010 A 
ATOM     89  C   UNL     1     -18.298  -3.709   7.065  1.00  0.00     0.010 A 
ATOM     90  C   UNL     1     -18.422  -6.204   5.804  1.00  0.00     0.020 A 
ATOM     91  C   UNL     1     -19.539  -4.302   6.822  1.00  0.00     0.020 A 
ATOM     92  C   UNL     1     -19.593  -5.534   6.169  1.00  0.00     0.054 A 
BRANCH  92  93
ATOM     93  S   UNL     1     -21.192  -6.301   5.787  1.00  0.00     0.124 S 
ATOM     94  O   UNL     1     -21.273  -6.127   4.340  1.00  0.00    -0.237 OA
ATOM     95  O   UNL     1     -21.006  -7.675   6.246  1.00  0.00    -0.237 OA
ATOM     96  O   UNL     1     -22.148  -5.514   6.564  1.00  0.00    -0.744 OA
ENDBRANCH  92  93
ENDBRANCH  66  87
ENDBRANCH  40  41
ENDBRANCH  32  35
ENDBRANCH  30  31
ENDBRANCH  29  30
ENDBRANCH  28  29
ENDBRANCH   1  28
TORSDOF 21
