REMARK SMILES O=C(NCCCCCCNC(=O)[C@H]1[C@H]2C=C[C@H]3C=C[C@@H]1[C@H]32)c1ccc(-c2c3nc(c(-c4ccc(S(=O)(=O)[O-])cc4)c4ccc([nH]4)c(-c4ccc(S(=O)(=O)[O-])cc4)c4nc(c(-c5ccc(S(=O)(=O)[O-])cc5)c5ccc2[nH]5)C=C4)C=C3)cc1
REMARK SMILES IDX 5 1 4 2 3 3 1 4 2 5 22 7 23 8 81 9 24 10 80 11 25 12 26 13
REMARK SMILES IDX 27 14 74 15 28 16 79 17 73 18 75 19 29 20 78 21 72 22 71 23
REMARK SMILES IDX 30 25 60 26 41 27 59 28 42 29 45 30 58 31 76 32 43 33 44 34
REMARK SMILES IDX 57 36 77 37 46 38 31 39 32 40 40 41 33 42 39 43 34 44 35 45
REMARK SMILES IDX 36 46 37 47 38 48 61 49 62 50 70 51 63 52 69 53 64 54 65 55
REMARK SMILES IDX 66 56 67 57 68 58 47 59 48 60 56 61 49 62 55 63 50 64 51 65
REMARK SMILES IDX 52 66 53 67 54 68 6 69 7 70 8 71 9 72 10 73 11 74 12 76
REMARK SMILES IDX 13 77 20 78 14 79 19 80 21 81 15 82 18 83 17 84 16 85
REMARK H PARENT 3 6 75 24 45 35 10 75
REMARK Flexibility Score: inf
ROOT
ATOM      1  C   UNL     1       4.814  -1.309  -2.298  1.00  0.00     0.021 C 
ENDROOT
BRANCH   1   2
ATOM      2  C   UNL     1       4.437  -0.152  -1.391  1.00  0.00     0.116 C 
BRANCH   2   3
ATOM      3  N   UNL     1       3.010  -0.023  -1.166  1.00  0.00    -0.352 N 
ATOM      4  O   UNL     1       1.102   0.166   0.013  1.00  0.00    -0.269 OA
ATOM      5  C   UNL     1       2.325   0.167   0.013  1.00  0.00     0.251 C 
ATOM      6  H   UNL     1       2.450  -0.081  -1.974  1.00  0.00     0.163 HD
BRANCH   5   7
ATOM      7  C   UNL     1       3.070   0.339   1.284  1.00  0.00     0.039 A 
ATOM      8  C   UNL     1       4.212   1.139   1.350  1.00  0.00     0.014 A 
ATOM      9  C   UNL     1       2.608  -0.310   2.434  1.00  0.00     0.014 A 
ATOM     10  C   UNL     1       4.972   1.169   2.514  1.00  0.00     0.010 A 
ATOM     11  C   UNL     1       3.319  -0.197   3.633  1.00  0.00     0.010 A 
ATOM     12  C   UNL     1       4.523   0.522   3.677  1.00  0.00    -0.014 A 
BRANCH  12  13
ATOM     13  C   UNL     1       5.287   0.690   4.940  1.00  0.00     0.031 A 
ATOM     14  C   UNL     1       5.929  -0.481   5.631  1.00  0.00     0.074 A 
ATOM     15  C   UNL     1       5.416   1.932   5.449  1.00  0.00     0.049 A 
ATOM     16  N   UNL     1       6.645  -0.494   6.726  1.00  0.00    -0.248 NA
ATOM     17  C   UNL     1       5.740  -1.808   5.024  1.00  0.00     0.031 C 
ATOM     18  C   UNL     1       4.827   3.144   4.869  1.00  0.00     0.029 A 
ATOM     19  N   UNL     1       6.093   2.389   6.550  1.00  0.00    -0.354 N 
ATOM     20  C   UNL     1       6.976  -1.825   6.954  1.00  0.00     0.074 A 
ATOM     21  C   UNL     1       6.362  -2.596   5.893  1.00  0.00     0.031 C 
ATOM     22  C   UNL     1       5.210   4.208   5.588  1.00  0.00     0.029 A 
ATOM     23  C   UNL     1       6.006   3.751   6.720  1.00  0.00     0.049 A 
ATOM     24  H   UNL     1       6.593   1.800   7.159  1.00  0.00     0.167 HD
ATOM     25  C   UNL     1       7.723  -2.353   7.954  1.00  0.00     0.031 A 
ATOM     26  C   UNL     1       6.490   4.548   7.690  1.00  0.00     0.031 A 
ATOM     27  C   UNL     1       8.325  -1.575   9.008  1.00  0.00     0.049 A 
ATOM     28  C   UNL     1       7.288   3.933   8.802  1.00  0.00     0.074 A 
ATOM     29  C   UNL     1       9.127  -2.013  10.049  1.00  0.00     0.029 A 
ATOM     30  N   UNL     1       8.185  -0.203   9.164  1.00  0.00    -0.354 N 
ATOM     31  N   UNL     1       7.620   2.676   8.976  1.00  0.00    -0.248 NA
ATOM     32  C   UNL     1       7.779   4.841   9.845  1.00  0.00     0.031 C 
ATOM     33  C   UNL     1       9.420  -0.917  10.867  1.00  0.00     0.029 A 
ATOM     34  C   UNL     1       8.861   0.216  10.299  1.00  0.00     0.049 A 
ATOM     35  H   UNL     1       7.680   0.385   8.558  1.00  0.00     0.167 HD
ATOM     36  C   UNL     1       8.376   2.645  10.141  1.00  0.00     0.074 A 
ATOM     37  C   UNL     1       8.470   4.011  10.614  1.00  0.00     0.031 C 
ATOM     38  C   UNL     1       8.939   1.580  10.762  1.00  0.00     0.031 A 
BRANCH  25  39
ATOM     39  C   UNL     1       7.911  -3.849   7.980  1.00  0.00    -0.014 A 
ATOM     40  C   UNL     1       8.716  -4.504   7.031  1.00  0.00     0.010 A 
ATOM     41  C   UNL     1       7.323  -4.606   9.011  1.00  0.00     0.010 A 
ATOM     42  C   UNL     1       8.901  -5.889   7.092  1.00  0.00     0.020 A 
ATOM     43  C   UNL     1       7.527  -5.987   9.092  1.00  0.00     0.020 A 
ATOM     44  C   UNL     1       8.304  -6.622   8.122  1.00  0.00     0.054 A 
BRANCH  44  45
ATOM     45  S   UNL     1       8.585  -8.414   8.192  1.00  0.00     0.124 S 
ATOM     46  O   UNL     1       7.801  -8.886   7.054  1.00  0.00    -0.237 OA
ATOM     47  O   UNL     1      10.035  -8.515   8.040  1.00  0.00    -0.237 OA
ATOM     48  O   UNL     1       8.071  -8.796   9.504  1.00  0.00    -0.744 OA
ENDBRANCH  44  45
ENDBRANCH  25  39
BRANCH  26  49
ATOM     49  C   UNL     1       6.206   6.009   7.653  1.00  0.00    -0.014 A 
ATOM     50  C   UNL     1       7.232   6.937   7.410  1.00  0.00     0.010 A 
ATOM     51  C   UNL     1       4.889   6.475   7.828  1.00  0.00     0.010 A 
ATOM     52  C   UNL     1       6.949   8.305   7.357  1.00  0.00     0.020 A 
ATOM     53  C   UNL     1       4.597   7.838   7.741  1.00  0.00     0.020 A 
ATOM     54  C   UNL     1       5.632   8.746   7.518  1.00  0.00     0.054 A 
BRANCH  54  55
ATOM     55  S   UNL     1       5.281  10.520   7.388  1.00  0.00     0.124 S 
ATOM     56  O   UNL     1       5.837  11.031   8.636  1.00  0.00    -0.237 OA
ATOM     57  O   UNL     1       6.001  10.895   6.173  1.00  0.00    -0.237 OA
ATOM     58  O   UNL     1       3.825  10.574   7.281  1.00  0.00    -0.744 OA
ENDBRANCH  54  55
ENDBRANCH  26  49
BRANCH  38  59
ATOM     59  C   UNL     1       9.738   1.856  12.009  1.00  0.00    -0.014 A 
ATOM     60  C   UNL     1       9.112   2.239  13.209  1.00  0.00     0.010 A 
ATOM     61  C   UNL     1      11.135   1.692  11.986  1.00  0.00     0.010 A 
ATOM     62  C   UNL     1       9.874   2.490  14.353  1.00  0.00     0.020 A 
ATOM     63  C   UNL     1      11.896   1.911  13.136  1.00  0.00     0.020 A 
ATOM     64  C   UNL     1      11.262   2.324  14.309  1.00  0.00     0.054 A 
BRANCH  64  65
ATOM     65  S   UNL     1      12.224   2.620  15.816  1.00  0.00     0.124 S 
ATOM     66  O   UNL     1      12.180   4.076  15.924  1.00  0.00    -0.237 OA
ATOM     67  O   UNL     1      11.465   1.892  16.829  1.00  0.00    -0.237 OA
ATOM     68  O   UNL     1      13.537   2.059  15.506  1.00  0.00    -0.744 OA
ENDBRANCH  64  65
ENDBRANCH  38  59
ENDBRANCH  12  13
ENDBRANCH   5   7
ENDBRANCH   2   3
ENDBRANCH   1   2
BRANCH   1  69
ATOM     69  C   UNL     1       4.197  -1.316  -3.694  1.00  0.00     0.002 C 
BRANCH  69  70
ATOM     70  C   UNL     1       4.380  -0.065  -4.551  1.00  0.00     0.002 C 
BRANCH  70  71
ATOM     71  C   UNL     1       5.776   0.554  -4.676  1.00  0.00     0.021 C 
BRANCH  71  72
ATOM     72  C   UNL     1       6.941  -0.345  -5.083  1.00  0.00     0.116 C 
BRANCH  72  73
ATOM     73  N   UNL     1       6.680  -1.233  -6.194  1.00  0.00    -0.356 N 
ATOM     74  C   UNL     1       7.455  -2.306  -6.601  1.00  0.00     0.224 C 
ATOM     75  H   UNL     1       5.864  -1.056  -6.716  1.00  0.00     0.163 HD
ATOM     76  O   UNL     1       7.130  -2.845  -7.665  1.00  0.00    -0.275 OA
BRANCH  74  77
ATOM     77  C   UNL     1       8.703  -2.678  -5.750  1.00  0.00     0.093 C 
ATOM     78  C   UNL     1       9.514  -3.983  -6.023  1.00  0.00     0.029 C 
ATOM     79  C   UNL     1       8.554  -3.100  -4.262  1.00  0.00     0.029 C 
ATOM     80  C   UNL     1       8.885  -5.160  -6.673  1.00  0.00    -0.026 C 
ATOM     81  C   UNL     1       9.482  -4.300  -4.510  1.00  0.00     0.015 C 
ATOM     82  C   UNL     1       7.275  -3.678  -3.801  1.00  0.00    -0.026 C 
ATOM     83  C   UNL     1       8.434  -6.030  -5.759  1.00  0.00    -0.023 C 
ATOM     84  C   UNL     1       8.603  -5.556  -4.348  1.00  0.00     0.038 C 
ATOM     85  C   UNL     1       7.312  -5.013  -3.816  1.00  0.00    -0.023 C 
ENDBRANCH  74  77
ENDBRANCH  72  73
ENDBRANCH  71  72
ENDBRANCH  70  71
ENDBRANCH  69  70
ENDBRANCH   1  69
TORSDOF 16
