REMARK SMILES C=CCOc1ccccc1/C=C/c1cc(C(=O)NCCCCCCNC(=O)c2ccc(-c3c4nc(c(-c5ccc(S(=O)(=O)[O-])cc5)c5ccc([nH]5)c(-c5ccc(S(=O)(=O)[O-])cc5)c5nc(c(-c6ccc(S(=O)(=O)[O-])cc6)c6ccc3[nH]6)C=C5)C=C4)cc2)ncn1
REMARK SMILES IDX 20 1 19 2 18 3 16 4 17 5 15 7 13 8 14 9 90 10 89 11 88 12
REMARK SMILES IDX 12 13 11 14 10 15 5 16 6 17 7 18 9 19 8 20 4 21 3 22 2 23
REMARK SMILES IDX 1 24 21 25 22 26 23 27 24 28 25 29 26 30 27 32 28 33 29 34
REMARK SMILES IDX 87 35 30 36 86 37 31 38 32 39 33 40 80 41 34 42 85 43 79 44
REMARK SMILES IDX 81 45 35 46 84 47 78 48 77 49 36 51 66 52 47 53 65 54 48 55
REMARK SMILES IDX 51 56 64 57 82 58 49 59 50 60 63 62 83 63 52 64 37 65 38 66
REMARK SMILES IDX 46 67 39 68 45 69 40 70 41 71 42 72 43 73 44 74 67 75 68 76
REMARK SMILES IDX 76 77 69 78 75 79 70 80 71 81 72 82 73 83 74 84 53 85 54 86
REMARK SMILES IDX 62 87 55 88 61 89 56 90 57 91 58 92 59 93 60 94
REMARK H PARENT 18 6 25 31 81 50 51 61
REMARK Flexibility Score: inf
ROOT
ATOM      1  C   UNL     1       2.614   4.673  -1.566  1.00  0.00     0.021 C 
ENDROOT
BRANCH   1   2
ATOM      2  C   UNL     1       2.378   3.277  -2.147  1.00  0.00     0.116 C 
BRANCH   2   3
ATOM      3  N   UNL     1       3.582   2.797  -2.804  1.00  0.00    -0.351 N 
ATOM      4  C   UNL     1       4.537   1.869  -2.452  1.00  0.00     0.270 C 
ATOM      5  O   UNL     1       5.459   1.690  -3.251  1.00  0.00    -0.268 OA
ATOM      6  H   UNL     1       3.749   3.222  -3.676  1.00  0.00     0.163 HD
BRANCH   4   7
ATOM      7  C   UNL     1       4.463   1.042  -1.200  1.00  0.00     0.132 A 
ATOM      8  C   UNL     1       3.623   0.522   0.915  1.00  0.00     0.067 A 
ATOM      9  C   UNL     1       3.865   1.483  -0.043  1.00  0.00     0.062 A 
ATOM     10  N   UNL     1       4.139  -0.719   0.842  1.00  0.00    -0.237 NA
ATOM     11  C   UNL     1       4.825  -1.008  -0.269  1.00  0.00     0.223 A 
ATOM     12  N   UNL     1       4.982  -0.202  -1.320  1.00  0.00    -0.231 NA
BRANCH   8  13
ATOM     13  C   UNL     1       2.653   0.716   2.005  1.00  0.00     0.029 C 
ATOM     14  C   UNL     1       1.581   1.517   1.870  1.00  0.00     0.014 C 
BRANCH  14  15
ATOM     15  C   UNL     1       0.399   1.565   2.748  1.00  0.00     0.017 A 
ATOM     16  C   UNL     1      -0.862   1.877   2.196  1.00  0.00     0.126 A 
ATOM     17  C   UNL     1      -2.000   1.976   3.000  1.00  0.00     0.047 A 
ATOM     18  C   UNL     1      -1.898   1.735   4.368  1.00  0.00     0.004 A 
ATOM     19  C   UNL     1       0.482   1.334   4.126  1.00  0.00     0.012 A 
ATOM     20  C   UNL     1      -0.661   1.414   4.929  1.00  0.00     0.001 A 
BRANCH  16  21
ATOM     21  O   UNL     1      -0.988   2.161   0.855  1.00  0.00    -0.489 OA
BRANCH  21  22
ATOM     22  C   UNL     1      -1.428   1.012   0.117  1.00  0.00     0.257 C 
BRANCH  22  23
ATOM     23  C   UNL     1      -0.360   0.664  -0.882  1.00  0.00     0.006 C 
ATOM     24  C   UNL     1       0.333  -0.482  -0.885  1.00  0.00     0.007 C 
ENDBRANCH  22  23
ENDBRANCH  21  22
ENDBRANCH  16  21
ENDBRANCH  14  15
ENDBRANCH   8  13
ENDBRANCH   4   7
ENDBRANCH   2   3
ENDBRANCH   1   2
BRANCH   1  25
ATOM     25  C   UNL     1       2.490   5.789  -2.612  1.00  0.00     0.002 C 
BRANCH  25  26
ATOM     26  C   UNL     1       1.090   5.948  -3.220  1.00  0.00     0.002 C 
BRANCH  26  27
ATOM     27  C   UNL     1      -0.037   6.159  -2.205  1.00  0.00     0.021 C 
BRANCH  27  28
ATOM     28  C   UNL     1       0.124   7.400  -1.331  1.00  0.00     0.116 C 
BRANCH  28  29
ATOM     29  N   UNL     1       0.092   8.623  -2.120  1.00  0.00    -0.352 N 
ATOM     30  C   UNL     1      -0.728   9.713  -1.995  1.00  0.00     0.251 C 
ATOM     31  H   UNL     1       0.754   8.673  -2.847  1.00  0.00     0.163 HD
ATOM     32  O   UNL     1      -0.766  10.558  -2.892  1.00  0.00    -0.269 OA
BRANCH  30  33
ATOM     33  C   UNL     1      -1.571   9.872  -0.793  1.00  0.00     0.039 A 
ATOM     34  C   UNL     1      -2.900  10.278  -0.943  1.00  0.00     0.014 A 
ATOM     35  C   UNL     1      -1.049   9.634   0.482  1.00  0.00     0.014 A 
ATOM     36  C   UNL     1      -3.718  10.395   0.182  1.00  0.00     0.010 A 
ATOM     37  C   UNL     1      -1.885   9.682   1.593  1.00  0.00     0.010 A 
ATOM     38  C   UNL     1      -3.226  10.070   1.457  1.00  0.00    -0.014 A 
BRANCH  38  39
ATOM     39  C   UNL     1      -4.099  10.128   2.656  1.00  0.00     0.031 A 
ATOM     40  C   UNL     1      -3.799  11.096   3.768  1.00  0.00     0.074 A 
ATOM     41  C   UNL     1      -5.122   9.258   2.776  1.00  0.00     0.049 A 
ATOM     42  N   UNL     1      -4.415  11.254   4.912  1.00  0.00    -0.248 NA
ATOM     43  C   UNL     1      -2.639  11.983   3.584  1.00  0.00     0.031 C 
ATOM     44  C   UNL     1      -5.482   8.236   1.790  1.00  0.00     0.029 A 
ATOM     45  N   UNL     1      -6.038   9.085   3.783  1.00  0.00    -0.354 N 
ATOM     46  C   UNL     1      -3.706  12.238   5.591  1.00  0.00     0.074 A 
ATOM     47  C   UNL     1      -2.588  12.609   4.751  1.00  0.00     0.031 C 
ATOM     48  C   UNL     1      -6.553   7.557   2.233  1.00  0.00     0.029 A 
ATOM     49  C   UNL     1      -6.930   8.066   3.548  1.00  0.00     0.049 A 
ATOM     50  H   UNL     1      -6.055   9.639   4.596  1.00  0.00     0.167 HD
ATOM     51  C   UNL     1      -3.969  12.794   6.798  1.00  0.00     0.031 A 
ATOM     52  C   UNL     1      -7.933   7.584   4.308  1.00  0.00     0.031 A 
ATOM     53  C   UNL     1      -5.089  12.428   7.625  1.00  0.00     0.049 A 
ATOM     54  C   UNL     1      -8.215   8.224   5.639  1.00  0.00     0.074 A 
ATOM     55  C   UNL     1      -5.486  12.983   8.829  1.00  0.00     0.029 A 
ATOM     56  N   UNL     1      -5.986  11.409   7.339  1.00  0.00    -0.354 N 
ATOM     57  N   UNL     1      -7.585   9.212   6.227  1.00  0.00    -0.248 NA
ATOM     58  C   UNL     1      -9.353   7.694   6.402  1.00  0.00     0.031 C 
ATOM     59  C   UNL     1      -6.587  12.260   9.301  1.00  0.00     0.029 A 
ATOM     60  C   UNL     1      -6.916  11.298   8.359  1.00  0.00     0.049 A 
ATOM     61  H   UNL     1      -5.964  10.848   6.531  1.00  0.00     0.167 HD
ATOM     62  C   UNL     1      -8.262   9.438   7.420  1.00  0.00     0.074 A 
ATOM     63  C   UNL     1      -9.361   8.493   7.460  1.00  0.00     0.031 C 
ATOM     64  C   UNL     1      -8.000  10.347   8.392  1.00  0.00     0.031 A 
BRANCH  51  65
ATOM     65  C   UNL     1      -3.015  13.845   7.306  1.00  0.00    -0.014 A 
ATOM     66  C   UNL     1      -2.924  15.108   6.693  1.00  0.00     0.010 A 
ATOM     67  C   UNL     1      -2.217  13.574   8.432  1.00  0.00     0.010 A 
ATOM     68  C   UNL     1      -2.017  16.061   7.166  1.00  0.00     0.020 A 
ATOM     69  C   UNL     1      -1.331  14.535   8.927  1.00  0.00     0.020 A 
ATOM     70  C   UNL     1      -1.222  15.766   8.277  1.00  0.00     0.054 A 
BRANCH  70  71
ATOM     71  S   UNL     1      -0.059  17.024   8.874  1.00  0.00     0.124 S 
ATOM     72  O   UNL     1       0.975  16.991   7.843  1.00  0.00    -0.237 OA
ATOM     73  O   UNL     1      -0.880  18.232   8.901  1.00  0.00    -0.237 OA
ATOM     74  O   UNL     1       0.352  16.524  10.184  1.00  0.00    -0.744 OA
ENDBRANCH  70  71
ENDBRANCH  51  65
BRANCH  52  75
ATOM     75  C   UNL     1      -8.744   6.438   3.815  1.00  0.00    -0.014 A 
ATOM     76  C   UNL     1     -10.072   6.626   3.394  1.00  0.00     0.010 A 
ATOM     77  C   UNL     1      -8.173   5.155   3.726  1.00  0.00     0.010 A 
ATOM     78  C   UNL     1     -10.817   5.550   2.902  1.00  0.00     0.020 A 
ATOM     79  C   UNL     1      -8.905   4.083   3.209  1.00  0.00     0.020 A 
ATOM     80  C   UNL     1     -10.226   4.286   2.807  1.00  0.00     0.054 A 
BRANCH  80  81
ATOM     81  S   UNL     1     -11.187   2.921   2.096  1.00  0.00     0.124 S 
ATOM     82  O   UNL     1     -12.132   2.624   3.167  1.00  0.00    -0.237 OA
ATOM     83  O   UNL     1     -11.758   3.529   0.896  1.00  0.00    -0.237 OA
ATOM     84  O   UNL     1     -10.181   1.891   1.844  1.00  0.00    -0.744 OA
ENDBRANCH  80  81
ENDBRANCH  52  75
BRANCH  64  85
ATOM     85  C   UNL     1      -8.930  10.385   9.575  1.00  0.00    -0.014 A 
ATOM     86  C   UNL     1      -8.927   9.363  10.540  1.00  0.00     0.010 A 
ATOM     87  C   UNL     1      -9.781  11.492   9.752  1.00  0.00     0.010 A 
ATOM     88  C   UNL     1      -9.780   9.432  11.645  1.00  0.00     0.020 A 
ATOM     89  C   UNL     1     -10.614  11.579  10.870  1.00  0.00     0.020 A 
ATOM     90  C   UNL     1     -10.618  10.541  11.803  1.00  0.00     0.054 A 
BRANCH  90  91
ATOM     91  S   UNL     1     -11.684  10.628  13.267  1.00  0.00     0.124 S 
ATOM     92  O   UNL     1     -12.708   9.634  12.957  1.00  0.00    -0.237 OA
ATOM     93  O   UNL     1     -10.771  10.272  14.350  1.00  0.00    -0.237 OA
ATOM     94  O   UNL     1     -12.145  12.014  13.279  1.00  0.00    -0.744 OA
ENDBRANCH  90  91
ENDBRANCH  64  85
ENDBRANCH  38  39
ENDBRANCH  30  33
ENDBRANCH  28  29
ENDBRANCH  27  28
ENDBRANCH  26  27
ENDBRANCH  25  26
ENDBRANCH   1  25
TORSDOF 21
