REMARK SMILES Cc1ccc(S(=O)(=O)n2cc(C(=O)C(=O)NCC(=O)N[C@@H](Cc3c[nH]c4ccccc34)C(=O)NCCCCCCNC(=O)c3ccc(-c4c5nc(c(-c6ccc(S(=O)(=O)[O-])cc6)c6ccc([nH]6)c(-c6ccc(S(=O)(=O)[O-])cc6)c6nc(c(-c7ccc(S(=O)(=O)[O-])cc7)c7ccc4[nH]7)C=C6)C=C5)cc3)c3ccccc32)cc1
REMARK SMILES IDX 35 1 34 2 32 3 33 4 21 6 20 7 18 8 19 9 17 11 16 12 14 13
REMARK SMILES IDX 15 14 12 16 13 17 11 18 9 19 10 20 109 21 104 22 108 23
REMARK SMILES IDX 105 24 107 25 106 26 6 27 7 28 8 29 5 30 1 31 2 32 3 33
REMARK SMILES IDX 111 34 4 35 110 36 22 37 23 38 24 39 31 40 25 41 26 42 30 43
REMARK SMILES IDX 27 45 29 46 28 47 36 48 37 49 38 50 39 51 40 52 41 53 42 54
REMARK SMILES IDX 43 56 44 57 45 58 103 59 46 60 102 61 47 62 48 63 49 64
REMARK SMILES IDX 96 65 50 66 101 67 95 68 97 69 51 70 100 71 94 72 93 73
REMARK SMILES IDX 52 75 82 76 63 77 81 78 64 79 67 80 80 81 98 82 65 83 66 84
REMARK SMILES IDX 79 86 99 87 68 88 53 89 54 90 62 91 55 92 61 93 56 94 57 95
REMARK SMILES IDX 58 96 59 97 60 98 83 99 84 100 92 101 85 102 91 103 86 104
REMARK SMILES IDX 87 105 88 106 89 107 90 108 69 109 70 110 78 111 71 112
REMARK SMILES IDX 77 113 72 114 73 115 74 116 75 117 76 118
REMARK H PARENT 34 5 20 10 16 15 25 44 41 55 97 74 67 85
REMARK Flexibility Score: inf
ROOT
ATOM      1  C   UNL     1     -11.505   0.647   5.033  1.00  0.00     0.116 C 
ENDROOT
BRANCH   1   2
ATOM      2  N   UNL     1     -10.543  -0.087   4.237  1.00  0.00    -0.354 N 
ATOM      3  C   UNL     1      -9.589   0.376   3.380  1.00  0.00     0.242 C 
ATOM      4  O   UNL     1      -8.608  -0.356   3.189  1.00  0.00    -0.273 OA
ATOM      5  H   UNL     1     -10.583  -1.067   4.329  1.00  0.00     0.163 HD
BRANCH   3   6
ATOM      6  C   UNL     1      -9.613   1.774   2.710  1.00  0.00     0.175 C 
BRANCH   6   7
ATOM      7  N   UNL     1     -10.909   2.240   2.211  1.00  0.00    -0.342 N 
ATOM      8  C   UNL     1     -11.349   2.257   0.913  1.00  0.00     0.240 C 
ATOM      9  O   UNL     1     -12.540   2.480   0.695  1.00  0.00    -0.273 OA
ATOM     10  H   UNL     1     -11.537   2.582   2.887  1.00  0.00     0.164 HD
BRANCH   8  11
ATOM     11  C   UNL     1     -10.360   1.981  -0.237  1.00  0.00     0.216 C 
BRANCH  11  12
ATOM     12  N   UNL     1      -9.263   2.955  -0.216  1.00  0.00    -0.340 N 
ATOM     13  C   UNL     1      -7.940   2.765  -0.575  1.00  0.00     0.292 C 
ATOM     14  O   UNL     1      -7.103   3.645  -0.411  1.00  0.00    -0.265 OA
ATOM     15  H   UNL     1      -9.498   3.859   0.094  1.00  0.00     0.164 HD
BRANCH  13  16
ATOM     16  C   UNL     1      -7.524   1.425  -1.188  1.00  0.00     0.252 C 
ATOM     17  O   UNL     1      -8.177   1.041  -2.158  1.00  0.00    -0.283 OA
BRANCH  16  18
ATOM     18  C   UNL     1      -6.503   0.582  -0.554  1.00  0.00     0.054 A 
ATOM     19  N   UNL     1      -4.644  -0.260   0.415  1.00  0.00    -0.240 N 
ATOM     20  C   UNL     1      -5.202   0.889  -0.139  1.00  0.00     0.117 A 
ATOM     21  C   UNL     1      -5.662  -1.214   0.543  1.00  0.00     0.065 A 
ATOM     22  C   UNL     1      -6.676  -0.817  -0.324  1.00  0.00     0.012 A 
ATOM     23  C   UNL     1      -5.663  -2.487   1.143  1.00  0.00     0.028 A 
ATOM     24  C   UNL     1      -7.620  -1.779  -0.742  1.00  0.00     0.011 A 
ATOM     25  C   UNL     1      -6.573  -3.434   0.676  1.00  0.00     0.002 A 
ATOM     26  C   UNL     1      -7.514  -3.097  -0.287  1.00  0.00     0.001 A 
BRANCH  19  27
ATOM     27  S   UNL     1      -3.132  -0.981  -0.068  1.00  0.00     0.268 S 
ATOM     28  O   UNL     1      -3.366  -1.359  -1.452  1.00  0.00    -0.201 OA
ATOM     29  O   UNL     1      -2.900  -1.986   0.960  1.00  0.00    -0.201 OA
BRANCH  27  30
ATOM     30  C   UNL     1      -1.597  -0.127  -0.082  1.00  0.00     0.088 A 
ATOM     31  C   UNL     1       2.553   1.067  -0.022  1.00  0.00     0.044 C 
ATOM     32  C   UNL     1       1.099   0.695  -0.080  1.00  0.00    -0.051 A 
ATOM     33  C   UNL     1       0.788  -0.632  -0.347  1.00  0.00     0.005 A 
ATOM     34  C   UNL     1       0.050   1.605   0.176  1.00  0.00     0.005 A 
ATOM     35  C   UNL     1      -0.537  -1.026  -0.357  1.00  0.00     0.022 A 
ATOM     36  C   UNL     1      -1.310   1.202   0.180  1.00  0.00     0.022 A 
ENDBRANCH  27  30
ENDBRANCH  19  27
ENDBRANCH  16  18
ENDBRANCH  13  16
ENDBRANCH  11  12
ENDBRANCH   8  11
ENDBRANCH   6   7
BRANCH   6  37
ATOM     37  C   UNL     1      -8.789   2.873   3.404  1.00  0.00     0.072 C 
BRANCH  37  38
ATOM     38  C   UNL     1      -9.124   3.185   4.827  1.00  0.00    -0.020 A 
ATOM     39  C   UNL     1      -8.746   2.424   5.918  1.00  0.00     0.087 A 
ATOM     40  C   UNL     1      -9.800   4.338   5.349  1.00  0.00     0.003 A 
ATOM     41  N   UNL     1      -9.266   2.993   7.047  1.00  0.00    -0.361 N 
ATOM     42  C   UNL     1      -9.912   4.164   6.730  1.00  0.00     0.046 A 
ATOM     43  C   UNL     1     -10.328   5.520   4.786  1.00  0.00     0.010 A 
ATOM     44  H   UNL     1      -9.189   2.619   7.954  1.00  0.00     0.166 HD
ATOM     45  C   UNL     1     -10.572   5.073   7.565  1.00  0.00     0.026 A 
ATOM     46  C   UNL     1     -10.953   6.463   5.614  1.00  0.00     0.001 A 
ATOM     47  C   UNL     1     -11.086   6.232   6.981  1.00  0.00     0.002 A 
ENDBRANCH  37  38
ENDBRANCH   6  37
ENDBRANCH   3   6
ENDBRANCH   1   2
BRANCH   1  48
ATOM     48  C   UNL     1     -12.593  -0.209   5.677  1.00  0.00     0.021 C 
BRANCH  48  49
ATOM     49  C   UNL     1     -12.153  -1.219   6.746  1.00  0.00     0.002 C 
BRANCH  49  50
ATOM     50  C   UNL     1     -11.206  -0.745   7.860  1.00  0.00     0.002 C 
BRANCH  50  51
ATOM     51  C   UNL     1     -11.539   0.570   8.565  1.00  0.00     0.021 C 
BRANCH  51  52
ATOM     52  C   UNL     1     -12.869   0.584   9.307  1.00  0.00     0.116 C 
BRANCH  52  53
ATOM     53  N   UNL     1     -12.717   0.767  10.746  1.00  0.00    -0.352 N 
ATOM     54  C   UNL     1     -13.695   1.152  11.653  1.00  0.00     0.251 C 
ATOM     55  H   UNL     1     -11.821   0.598  11.116  1.00  0.00     0.163 HD
ATOM     56  O   UNL     1     -13.447   1.492  12.793  1.00  0.00    -0.269 OA
BRANCH  54  57
ATOM     57  C   UNL     1     -15.091   1.012  11.192  1.00  0.00     0.039 A 
ATOM     58  C   UNL     1     -15.800  -0.104  11.652  1.00  0.00     0.014 A 
ATOM     59  C   UNL     1     -15.526   1.749  10.096  1.00  0.00     0.014 A 
ATOM     60  C   UNL     1     -16.854  -0.600  10.891  1.00  0.00     0.010 A 
ATOM     61  C   UNL     1     -16.502   1.196   9.291  1.00  0.00     0.010 A 
ATOM     62  C   UNL     1     -17.132  -0.003   9.662  1.00  0.00    -0.014 A 
BRANCH  62  63
ATOM     63  C   UNL     1     -17.999  -0.601   8.652  1.00  0.00     0.031 A 
ATOM     64  C   UNL     1     -19.325   0.000   8.373  1.00  0.00     0.074 A 
ATOM     65  C   UNL     1     -17.558  -1.636   7.901  1.00  0.00     0.049 A 
ATOM     66  N   UNL     1     -20.303  -0.624   7.804  1.00  0.00    -0.248 NA
ATOM     67  C   UNL     1     -19.669   1.366   8.764  1.00  0.00     0.031 C 
ATOM     68  C   UNL     1     -18.146  -2.118   6.652  1.00  0.00     0.029 A 
ATOM     69  N   UNL     1     -16.605  -2.609   8.216  1.00  0.00    -0.354 N 
ATOM     70  C   UNL     1     -21.262   0.313   7.493  1.00  0.00     0.074 A 
ATOM     71  C   UNL     1     -20.854   1.522   8.169  1.00  0.00     0.031 C 
ATOM     72  C   UNL     1     -17.786  -3.398   6.473  1.00  0.00     0.029 A 
ATOM     73  C   UNL     1     -17.078  -3.815   7.671  1.00  0.00     0.049 A 
ATOM     74  H   UNL     1     -15.769  -2.475   8.719  1.00  0.00     0.167 HD
ATOM     75  C   UNL     1     -22.232   0.023   6.582  1.00  0.00     0.031 A 
ATOM     76  C   UNL     1     -17.361  -4.934   8.401  1.00  0.00     0.031 A 
ATOM     77  C   UNL     1     -22.147  -1.353   6.113  1.00  0.00     0.049 A 
ATOM     78  C   UNL     1     -18.792  -5.402   8.234  1.00  0.00     0.074 A 
ATOM     79  C   UNL     1     -21.581  -1.934   4.990  1.00  0.00     0.029 A 
ATOM     80  N   UNL     1     -22.426  -2.386   6.997  1.00  0.00    -0.354 N 
ATOM     81  N   UNL     1     -19.736  -4.670   7.712  1.00  0.00    -0.248 NA
ATOM     82  C   UNL     1     -19.285  -6.703   8.682  1.00  0.00     0.031 C 
ATOM     83  C   UNL     1     -21.438  -3.323   5.245  1.00  0.00     0.029 A 
ATOM     84  C   UNL     1     -21.944  -3.583   6.506  1.00  0.00     0.049 A 
ATOM     85  H   UNL     1     -22.901  -2.280   7.853  1.00  0.00     0.167 HD
ATOM     86  C   UNL     1     -20.925  -5.351   7.749  1.00  0.00     0.074 A 
ATOM     87  C   UNL     1     -20.589  -6.625   8.357  1.00  0.00     0.031 C 
ATOM     88  C   UNL     1     -22.086  -4.803   7.286  1.00  0.00     0.031 A 
BRANCH  75  89
ATOM     89  C   UNL     1     -23.061   1.091   5.916  1.00  0.00    -0.014 A 
ATOM     90  C   UNL     1     -23.390   0.964   4.551  1.00  0.00     0.010 A 
ATOM     91  C   UNL     1     -23.501   2.260   6.565  1.00  0.00     0.010 A 
ATOM     92  C   UNL     1     -24.041   1.986   3.847  1.00  0.00     0.020 A 
ATOM     93  C   UNL     1     -24.120   3.307   5.864  1.00  0.00     0.020 A 
ATOM     94  C   UNL     1     -24.380   3.166   4.504  1.00  0.00     0.054 A 
BRANCH  94  95
ATOM     95  S   UNL     1     -25.146   4.507   3.556  1.00  0.00     0.124 S 
ATOM     96  O   UNL     1     -24.200   4.701   2.459  1.00  0.00    -0.237 OA
ATOM     97  O   UNL     1     -26.433   3.929   3.182  1.00  0.00    -0.237 OA
ATOM     98  O   UNL     1     -25.214   5.612   4.511  1.00  0.00    -0.744 OA
ENDBRANCH  94  95
ENDBRANCH  75  89
BRANCH  76  99
ATOM     99  C   UNL     1     -16.548  -5.082   9.638  1.00  0.00    -0.014 A 
ATOM    100  C   UNL     1     -15.179  -5.386   9.476  1.00  0.00     0.010 A 
ATOM    101  C   UNL     1     -16.979  -4.501  10.844  1.00  0.00     0.010 A 
ATOM    102  C   UNL     1     -14.239  -4.944  10.410  1.00  0.00     0.020 A 
ATOM    103  C   UNL     1     -16.036  -4.062  11.785  1.00  0.00     0.020 A 
ATOM    104  C   UNL     1     -14.671  -4.223  11.522  1.00  0.00     0.054 A 
BRANCH 104 105
ATOM    105  S   UNL     1     -13.421  -3.328  12.494  1.00  0.00     0.124 S 
ATOM    106  O   UNL     1     -12.533  -4.401  12.928  1.00  0.00    -0.237 OA
ATOM    107  O   UNL     1     -12.863  -2.412  11.498  1.00  0.00    -0.237 OA
ATOM    108  O   UNL     1     -14.207  -2.694  13.548  1.00  0.00    -0.744 OA
ENDBRANCH 104 105
ENDBRANCH  76  99
BRANCH  88 109
ATOM    109  C   UNL     1     -23.467  -5.385   7.451  1.00  0.00    -0.014 A 
ATOM    110  C   UNL     1     -23.839  -6.234   8.505  1.00  0.00     0.010 A 
ATOM    111  C   UNL     1     -24.496  -4.950   6.580  1.00  0.00     0.010 A 
ATOM    112  C   UNL     1     -25.162  -6.677   8.647  1.00  0.00     0.020 A 
ATOM    113  C   UNL     1     -25.825  -5.352   6.738  1.00  0.00     0.020 A 
ATOM    114  C   UNL     1     -26.146  -6.237   7.760  1.00  0.00     0.054 A 
BRANCH 114 115
ATOM    115  S   UNL     1     -27.863  -6.764   7.986  1.00  0.00     0.124 S 
ATOM    116  O   UNL     1     -27.904  -7.997   7.203  1.00  0.00    -0.237 OA
ATOM    117  O   UNL     1     -27.967  -6.940   9.433  1.00  0.00    -0.237 OA
ATOM    118  O   UNL     1     -28.636  -5.650   7.445  1.00  0.00    -0.744 OA
ENDBRANCH 114 115
ENDBRANCH  88 109
ENDBRANCH  62  63
ENDBRANCH  54  57
ENDBRANCH  52  53
ENDBRANCH  51  52
ENDBRANCH  50  51
ENDBRANCH  49  50
ENDBRANCH  48  49
ENDBRANCH   1  48
TORSDOF 25
