REMARK SMILES CC(C)c1ccc2c(c1)c(SC(C)(C)C)c(CC(C)(C)C(=O)NCCCCCCNC(=O)c1ccc(-c3c4nc(c(-c5ccc(S(=O)(=O)[O-])cc5)c5ccc([nH]5)c(-c5ccc(S(=O)(=O)[O-])cc5)c5nc(c(-c6ccc(S(=O)(=O)[O-])cc6)c6ccc3[nH]6)C=C5)C=C4)cc1)n2Cc1ccc(Cl)cc1
REMARK SMILES IDX 26 1 25 2 24 3 23 4 21 5 22 6 18 8 19 9 20 10 17 11 16 12
REMARK SMILES IDX 4 13 5 14 9 15 6 16 8 17 7 18 10 19 93 20 2 21 1 22 3 23
REMARK SMILES IDX 11 24 12 25 13 26 14 27 15 28 94 29 95 30 96 31 101 32 97 33
REMARK SMILES IDX 100 34 98 35 99 36 27 37 28 38 29 39 30 40 31 41 32 43 33 44
REMARK SMILES IDX 34 45 92 46 35 47 91 48 36 49 37 50 38 51 85 52 39 53 90 54
REMARK SMILES IDX 84 55 86 56 40 57 89 58 83 59 82 60 41 62 71 63 52 64 70 65
REMARK SMILES IDX 53 66 56 67 69 68 87 69 54 70 55 71 68 73 88 74 57 75 42 76
REMARK SMILES IDX 43 77 51 78 44 79 50 80 45 81 46 82 47 83 48 84 49 85 72 86
REMARK SMILES IDX 73 87 81 88 74 89 80 90 75 91 76 92 77 93 78 94 79 95 58 96
REMARK SMILES IDX 59 97 67 98 60 99 66 100 61 101 62 102 63 103 64 104 65 105
REMARK H PARENT 23 7 30 42 86 61 56 72
REMARK Flexibility Score: inf
ROOT
ATOM      1  C   UNL     1      -8.110   4.896   5.739  1.00  0.00     0.002 C 
ENDROOT
BRANCH   1   2
ATOM      2  C   UNL     1      -8.224   5.336   4.288  1.00  0.00     0.021 C 
BRANCH   2   3
ATOM      3  C   UNL     1      -6.936   5.083   3.546  1.00  0.00     0.116 C 
BRANCH   3   4
ATOM      4  N   UNL     1      -6.788   3.684   3.188  1.00  0.00    -0.356 N 
ATOM      5  C   UNL     1      -6.506   3.142   1.959  1.00  0.00     0.226 C 
ATOM      6  O   UNL     1      -6.052   2.005   1.943  1.00  0.00    -0.275 OA
ATOM      7  H   UNL     1      -6.906   3.040   3.923  1.00  0.00     0.163 HD
BRANCH   5   8
ATOM      8  C   UNL     1      -6.553   4.062   0.736  1.00  0.00     0.049 C 
ATOM      9  C   UNL     1      -5.225   4.815   1.020  1.00  0.00     0.022 C 
ATOM     10  C   UNL     1      -7.929   4.800   0.742  1.00  0.00     0.022 C 
BRANCH   8  11
ATOM     11  C   UNL     1      -6.553   3.433  -0.689  1.00  0.00     0.071 C 
BRANCH  11  12
ATOM     12  C   UNL     1      -5.320   2.771  -1.125  1.00  0.00     0.034 A 
ATOM     13  C   UNL     1      -1.029   1.044  -1.250  1.00  0.00    -0.045 A 
ATOM     14  C   UNL     1      -1.755  -0.136  -1.076  1.00  0.00     0.006 A 
ATOM     15  C   UNL     1      -1.736   2.244  -1.478  1.00  0.00     0.015 A 
ATOM     16  C   UNL     1      -3.153  -0.136  -1.032  1.00  0.00     0.027 A 
ATOM     17  C   UNL     1      -3.156   2.286  -1.436  1.00  0.00     0.014 A 
ATOM     18  C   UNL     1      -3.834   1.086  -1.169  1.00  0.00     0.050 A 
ATOM     19  C   UNL     1      -4.137   3.342  -1.570  1.00  0.00     0.037 A 
ATOM     20  N   UNL     1      -5.185   1.386  -1.078  1.00  0.00    -0.339 N 
BRANCH  13  21
ATOM     21  C   UNL     1       0.493   1.065  -1.193  1.00  0.00     0.013 C 
ATOM     22  C   UNL     1       1.079   0.182  -0.081  1.00  0.00     0.012 C 
ATOM     23  C   UNL     1       1.089   0.675  -2.546  1.00  0.00     0.012 C 
ENDBRANCH  13  21
BRANCH  19  24
ATOM     24  S   UNL     1      -3.654   5.019  -1.952  1.00  0.00    -0.118 SA
BRANCH  24  25
ATOM     25  C   UNL     1      -4.956   6.339  -2.266  1.00  0.00     0.012 C 
ATOM     26  C   UNL     1      -5.733   6.021  -3.548  1.00  0.00     0.023 C 
ATOM     27  C   UNL     1      -5.969   6.840  -1.207  1.00  0.00     0.023 C 
ATOM     28  C   UNL     1      -4.096   7.617  -2.480  1.00  0.00     0.023 C 
ENDBRANCH  24  25
ENDBRANCH  19  24
BRANCH  20  29
ATOM     29  C   UNL     1      -6.272   0.369  -1.148  1.00  0.00     0.158 C 
BRANCH  29  30
ATOM     30  C   UNL     1      -7.163   0.166   0.070  1.00  0.00    -0.028 A 
ATOM     31  C   UNL     1      -8.413   0.810   0.176  1.00  0.00     0.007 A 
ATOM     32  C   UNL     1      -6.762  -0.645   1.145  1.00  0.00     0.007 A 
ATOM     33  C   UNL     1      -9.128   0.823   1.379  1.00  0.00     0.021 A 
ATOM     34  C   UNL     1      -7.510  -0.685   2.334  1.00  0.00     0.021 A 
ATOM     35  C   UNL     1      -8.657   0.094   2.463  1.00  0.00     0.041 A 
ATOM     36  Cl  UNL     1      -9.481   0.188   3.973  1.00  0.00    -0.084 Cl
ENDBRANCH  29  30
ENDBRANCH  20  29
ENDBRANCH  11  12
ENDBRANCH   8  11
ENDBRANCH   5   8
ENDBRANCH   3   4
ENDBRANCH   2   3
ENDBRANCH   1   2
BRANCH   1  37
ATOM     37  C   UNL     1      -6.973   5.587   6.505  1.00  0.00     0.002 C 
BRANCH  37  38
ATOM     38  C   UNL     1      -6.975   7.120   6.415  1.00  0.00     0.021 C 
BRANCH  38  39
ATOM     39  C   UNL     1      -8.327   7.745   6.757  1.00  0.00     0.116 C 
BRANCH  39  40
ATOM     40  N   UNL     1      -8.863   7.271   8.013  1.00  0.00    -0.352 N 
ATOM     41  C   UNL     1      -8.598   7.533   9.324  1.00  0.00     0.251 C 
ATOM     42  H   UNL     1      -9.581   6.608   7.894  1.00  0.00     0.163 HD
ATOM     43  O   UNL     1      -9.243   6.879  10.147  1.00  0.00    -0.269 OA
BRANCH  41  44
ATOM     44  C   UNL     1      -7.574   8.496   9.803  1.00  0.00     0.039 A 
ATOM     45  C   UNL     1      -6.870   9.403   9.008  1.00  0.00     0.014 A 
ATOM     46  C   UNL     1      -7.301   8.456  11.182  1.00  0.00     0.014 A 
ATOM     47  C   UNL     1      -5.854  10.176   9.551  1.00  0.00     0.010 A 
ATOM     48  C   UNL     1      -6.312   9.255  11.738  1.00  0.00     0.010 A 
ATOM     49  C   UNL     1      -5.557  10.080  10.910  1.00  0.00    -0.014 A 
BRANCH  49  50
ATOM     50  C   UNL     1      -4.520  10.957  11.441  1.00  0.00     0.031 A 
ATOM     51  C   UNL     1      -4.791  12.417  11.285  1.00  0.00     0.074 A 
ATOM     52  C   UNL     1      -3.461  10.498  12.136  1.00  0.00     0.049 A 
ATOM     53  N   UNL     1      -4.073  13.313  10.690  1.00  0.00    -0.248 NA
ATOM     54  C   UNL     1      -6.092  12.914  11.764  1.00  0.00     0.031 C 
ATOM     55  C   UNL     1      -3.222   9.129  12.605  1.00  0.00     0.029 A 
ATOM     56  N   UNL     1      -2.428  11.195  12.684  1.00  0.00    -0.354 N 
ATOM     57  C   UNL     1      -4.738  14.524  10.878  1.00  0.00     0.074 A 
ATOM     58  C   UNL     1      -6.034  14.198  11.416  1.00  0.00     0.031 C 
ATOM     59  C   UNL     1      -2.271   9.148  13.565  1.00  0.00     0.029 A 
ATOM     60  C   UNL     1      -1.729  10.492  13.658  1.00  0.00     0.049 A 
ATOM     61  H   UNL     1      -2.196  12.113  12.414  1.00  0.00     0.167 HD
ATOM     62  C   UNL     1      -4.110  15.728  10.772  1.00  0.00     0.031 A 
ATOM     63  C   UNL     1      -0.825  11.000  14.531  1.00  0.00     0.031 A 
ATOM     64  C   UNL     1      -2.882  15.633  10.034  1.00  0.00     0.049 A 
ATOM     65  C   UNL     1      -0.337  12.278  13.966  1.00  0.00     0.074 A 
ATOM     66  C   UNL     1      -2.550  15.306   8.736  1.00  0.00     0.029 A 
ATOM     67  N   UNL     1      -1.719  15.554  10.759  1.00  0.00    -0.354 N 
ATOM     68  N   UNL     1       0.356  12.369  12.866  1.00  0.00    -0.248 NA
ATOM     69  C   UNL     1      -0.956  13.512  14.419  1.00  0.00     0.031 C 
ATOM     70  C   UNL     1      -1.313  14.608   8.835  1.00  0.00     0.029 A 
ATOM     71  C   UNL     1      -0.928  14.596  10.179  1.00  0.00     0.049 A 
ATOM     72  H   UNL     1      -1.493  16.089  11.554  1.00  0.00     0.167 HD
ATOM     73  C   UNL     1      -0.079  13.543  12.270  1.00  0.00     0.074 A 
ATOM     74  C   UNL     1      -0.793  14.258  13.325  1.00  0.00     0.031 C 
ATOM     75  C   UNL     1      -0.051  13.702  10.915  1.00  0.00     0.031 A 
BRANCH  62  76
ATOM     76  C   UNL     1      -4.446  16.917  11.642  1.00  0.00    -0.014 A 
ATOM     77  C   UNL     1      -5.233  16.811  12.808  1.00  0.00     0.010 A 
ATOM     78  C   UNL     1      -3.760  18.135  11.451  1.00  0.00     0.010 A 
ATOM     79  C   UNL     1      -5.352  17.854  13.726  1.00  0.00     0.020 A 
ATOM     80  C   UNL     1      -3.835  19.175  12.392  1.00  0.00     0.020 A 
ATOM     81  C   UNL     1      -4.638  19.028  13.521  1.00  0.00     0.054 A 
BRANCH  81  82
ATOM     82  S   UNL     1      -4.724  20.306  14.799  1.00  0.00     0.124 S 
ATOM     83  O   UNL     1      -6.100  20.776  14.658  1.00  0.00    -0.237 OA
ATOM     84  O   UNL     1      -4.437  19.552  16.015  1.00  0.00    -0.237 OA
ATOM     85  O   UNL     1      -3.693  21.260  14.399  1.00  0.00    -0.744 OA
ENDBRANCH  81  82
ENDBRANCH  62  76
BRANCH  63  86
ATOM     86  C   UNL     1      -0.721  10.692  15.982  1.00  0.00    -0.014 A 
ATOM     87  C   UNL     1      -1.861  10.259  16.690  1.00  0.00     0.010 A 
ATOM     88  C   UNL     1       0.389  11.134  16.727  1.00  0.00     0.010 A 
ATOM     89  C   UNL     1      -1.926  10.345  18.085  1.00  0.00     0.020 A 
ATOM     90  C   UNL     1       0.329  11.226  18.128  1.00  0.00     0.020 A 
ATOM     91  C   UNL     1      -0.844  10.867  18.793  1.00  0.00     0.054 A 
BRANCH  91  92
ATOM     92  S   UNL     1      -1.047  11.155  20.574  1.00  0.00     0.124 S 
ATOM     93  O   UNL     1      -2.049  12.215  20.598  1.00  0.00    -0.237 OA
ATOM     94  O   UNL     1      -1.498   9.853  21.055  1.00  0.00    -0.237 OA
ATOM     95  O   UNL     1       0.291  11.549  21.015  1.00  0.00    -0.744 OA
ENDBRANCH  91  92
ENDBRANCH  63  86
BRANCH  75  96
ATOM     96  C   UNL     1       0.737  12.717  10.075  1.00  0.00    -0.014 A 
ATOM     97  C   UNL     1       1.664  13.248   9.159  1.00  0.00     0.010 A 
ATOM     98  C   UNL     1       0.449  11.338  10.012  1.00  0.00     0.010 A 
ATOM     99  C   UNL     1       2.248  12.446   8.177  1.00  0.00     0.020 A 
ATOM    100  C   UNL     1       1.054  10.520   9.042  1.00  0.00     0.020 A 
ATOM    101  C   UNL     1       1.926  11.089   8.111  1.00  0.00     0.054 A 
BRANCH 101 102
ATOM    102  S   UNL     1       2.640  10.107   6.763  1.00  0.00     0.124 S 
ATOM    103  O   UNL     1       1.925  10.619   5.596  1.00  0.00    -0.237 OA
ATOM    104  O   UNL     1       4.059  10.456   6.826  1.00  0.00    -0.237 OA
ATOM    105  O   UNL     1       2.328   8.726   7.125  1.00  0.00    -0.744 OA
ENDBRANCH 101 102
ENDBRANCH  75  96
ENDBRANCH  49  50
ENDBRANCH  41  44
ENDBRANCH  39  40
ENDBRANCH  38  39
ENDBRANCH  37  38
ENDBRANCH   1  37
TORSDOF 23
