REMARK SMILES COc1ccc(Cl)cc1C(=O)Nc1ccc(OCC(=O)NCCCCCCNC(=O)c2ccc(-c3c4nc(c(-c5ccc(S(=O)(=O)[O-])cc5)c5ccc([nH]5)c(-c5ccc(S(=O)(=O)[O-])cc5)c5nc(c(-c6ccc(S(=O)(=O)[O-])cc6)c6ccc3[nH]6)C=C5)C=C4)cc2)cc1
REMARK SMILES IDX 23 1 22 2 21 3 19 4 20 5 18 7 17 8 16 9 13 10 14 11 92 12
REMARK SMILES IDX 15 13 91 14 12 15 10 16 11 17 9 19 3 20 4 21 5 22 8 23 6 24
REMARK SMILES IDX 7 25 2 26 1 27 24 28 25 29 26 30 27 31 28 32 29 33 30 35
REMARK SMILES IDX 31 36 32 37 90 38 33 39 89 40 34 41 35 42 36 43 83 44 37 45
REMARK SMILES IDX 88 46 82 47 84 48 38 49 87 50 81 51 80 52 39 54 69 55 50 56
REMARK SMILES IDX 68 57 51 58 54 59 67 60 85 61 52 62 53 63 66 65 86 66 55 67
REMARK SMILES IDX 40 68 41 69 49 70 42 71 48 72 43 73 44 74 45 75 46 76 47 77
REMARK SMILES IDX 70 78 71 79 79 80 72 81 78 82 73 83 74 84 75 85 76 86 77 87
REMARK SMILES IDX 56 88 57 89 65 90 58 91 64 92 59 93 60 94 61 95 62 96 63 97
REMARK H PARENT 21 6 12 18 28 34 84 53 54 64
REMARK Flexibility Score: inf
ROOT
ATOM      1  C   UNL     1       4.057   3.075  -1.751  1.00  0.00     0.021 C 
ENDROOT
BRANCH   1   2
ATOM      2  C   UNL     1       4.452   1.762  -2.444  1.00  0.00     0.116 C 
BRANCH   2   3
ATOM      3  N   UNL     1       4.433   0.614  -1.552  1.00  0.00    -0.353 N 
ATOM      4  C   UNL     1       3.668  -0.518  -1.587  1.00  0.00     0.257 C 
ATOM      5  O   UNL     1       3.832  -1.346  -0.684  1.00  0.00    -0.271 OA
ATOM      6  H   UNL     1       5.072   0.660  -0.805  1.00  0.00     0.163 HD
BRANCH   4   7
ATOM      7  C   UNL     1       2.668  -0.788  -2.730  1.00  0.00     0.329 C 
BRANCH   7   8
ATOM      8  O   UNL     1       1.569   0.075  -2.963  1.00  0.00    -0.484 OA
BRANCH   8   9
ATOM      9  C   UNL     1       0.643   0.236  -1.972  1.00  0.00     0.120 A 
ATOM     10  C   UNL     1      -0.935   1.068   0.191  1.00  0.00     0.041 A 
ATOM     11  C   UNL     1      -0.861   1.848  -0.967  1.00  0.00     0.030 A 
ATOM     12  C   UNL     1      -0.375  -0.209   0.189  1.00  0.00     0.030 A 
ATOM     13  C   UNL     1      -0.056   1.443  -2.033  1.00  0.00     0.048 A 
ATOM     14  C   UNL     1       0.399  -0.636  -0.909  1.00  0.00     0.048 A 
BRANCH  10  15
ATOM     15  N   UNL     1      -1.575   1.639   1.296  1.00  0.00    -0.322 N 
ATOM     16  C   UNL     1      -1.330   1.621   2.652  1.00  0.00     0.259 C 
ATOM     17  O   UNL     1      -2.262   1.989   3.378  1.00  0.00    -0.269 OA
ATOM     18  H   UNL     1      -2.371   2.165   1.053  1.00  0.00     0.170 HD
BRANCH  16  19
ATOM     19  C   UNL     1      -0.021   1.326   3.325  1.00  0.00     0.083 A 
ATOM     20  C   UNL     1       1.262   1.481   2.782  1.00  0.00     0.131 A 
ATOM     21  C   UNL     1       2.412   1.279   3.574  1.00  0.00     0.049 A 
ATOM     22  C   UNL     1       2.307   0.956   4.918  1.00  0.00     0.024 A 
ATOM     23  C   UNL     1      -0.100   1.030   4.704  1.00  0.00     0.038 A 
ATOM     24  C   UNL     1       1.048   0.857   5.484  1.00  0.00     0.042 A 
ATOM     25  Cl  UNL     1       0.910   0.570   7.175  1.00  0.00    -0.084 Cl
BRANCH  20  26
ATOM     26  O   UNL     1       1.423   1.962   1.515  1.00  0.00    -0.496 OA
ATOM     27  C   UNL     1       2.411   1.229   0.802  1.00  0.00     0.278 C 
ENDBRANCH  20  26
ENDBRANCH  16  19
ENDBRANCH  10  15
ENDBRANCH   8   9
ENDBRANCH   7   8
ENDBRANCH   4   7
ENDBRANCH   2   3
ENDBRANCH   1   2
BRANCH   1  28
ATOM     28  C   UNL     1       4.934   3.512  -0.566  1.00  0.00     0.002 C 
BRANCH  28  29
ATOM     29  C   UNL     1       6.402   3.803  -0.882  1.00  0.00     0.002 C 
BRANCH  29  30
ATOM     30  C   UNL     1       6.642   4.814  -2.001  1.00  0.00     0.021 C 
BRANCH  30  31
ATOM     31  C   UNL     1       6.022   6.190  -1.775  1.00  0.00     0.116 C 
BRANCH  31  32
ATOM     32  N   UNL     1       6.652   6.915  -0.683  1.00  0.00    -0.352 N 
ATOM     33  C   UNL     1       7.268   8.146  -0.690  1.00  0.00     0.251 C 
ATOM     34  H   UNL     1       6.635   6.459   0.190  1.00  0.00     0.163 HD
ATOM     35  O   UNL     1       7.897   8.522   0.291  1.00  0.00    -0.269 OA
BRANCH  33  36
ATOM     36  C   UNL     1       7.193   9.002  -1.897  1.00  0.00     0.039 A 
ATOM     37  C   UNL     1       8.358   9.617  -2.364  1.00  0.00     0.014 A 
ATOM     38  C   UNL     1       5.984   9.192  -2.572  1.00  0.00     0.014 A 
ATOM     39  C   UNL     1       8.325  10.356  -3.550  1.00  0.00     0.010 A 
ATOM     40  C   UNL     1       5.968   9.864  -3.793  1.00  0.00     0.010 A 
ATOM     41  C   UNL     1       7.139  10.448  -4.299  1.00  0.00    -0.014 A 
BRANCH  41  42
ATOM     42  C   UNL     1       7.109  11.130  -5.621  1.00  0.00     0.031 A 
ATOM     43  C   UNL     1       6.257  12.352  -5.829  1.00  0.00     0.074 A 
ATOM     44  C   UNL     1       7.802  10.610  -6.655  1.00  0.00     0.049 A 
ATOM     45  N   UNL     1       6.059  13.043  -6.923  1.00  0.00    -0.248 NA
ATOM     46  C   UNL     1       5.514  12.851  -4.661  1.00  0.00     0.031 C 
ATOM     47  C   UNL     1       8.646   9.414  -6.593  1.00  0.00     0.029 A 
ATOM     48  N   UNL     1       7.903  11.018  -7.962  1.00  0.00    -0.354 N 
ATOM     49  C   UNL     1       5.166  14.051  -6.579  1.00  0.00     0.074 A 
ATOM     50  C   UNL     1       4.816  13.846  -5.190  1.00  0.00     0.031 C 
ATOM     51  C   UNL     1       9.205   9.207  -7.796  1.00  0.00     0.029 A 
ATOM     52  C   UNL     1       8.721  10.221  -8.728  1.00  0.00     0.049 A 
ATOM     53  H   UNL     1       7.435  11.807  -8.317  1.00  0.00     0.167 HD
ATOM     54  C   UNL     1       4.695  15.068  -7.341  1.00  0.00     0.031 A 
ATOM     55  C   UNL     1       9.041  10.289 -10.036  1.00  0.00     0.031 A 
ATOM     56  C   UNL     1       5.037  15.265  -8.726  1.00  0.00     0.049 A 
ATOM     57  C   UNL     1       8.461  11.394 -10.877  1.00  0.00     0.074 A 
ATOM     58  C   UNL     1       4.641  16.285  -9.573  1.00  0.00     0.029 A 
ATOM     59  N   UNL     1       5.848  14.421  -9.470  1.00  0.00    -0.354 N 
ATOM     60  N   UNL     1       7.665  12.372 -10.517  1.00  0.00    -0.248 NA
ATOM     61  C   UNL     1       8.827  11.406 -12.300  1.00  0.00     0.031 C 
ATOM     62  C   UNL     1       5.161  16.023 -10.845  1.00  0.00     0.029 A 
ATOM     63  C   UNL     1       5.938  14.878 -10.774  1.00  0.00     0.049 A 
ATOM     64  H   UNL     1       6.294  13.615  -9.122  1.00  0.00     0.167 HD
ATOM     65  C   UNL     1       7.457  13.132 -11.663  1.00  0.00     0.074 A 
ATOM     66  C   UNL     1       8.224  12.508 -12.722  1.00  0.00     0.031 C 
ATOM     67  C   UNL     1       6.699  14.245 -11.823  1.00  0.00     0.031 A 
BRANCH  54  68
ATOM     68  C   UNL     1       3.744  16.040  -6.688  1.00  0.00    -0.014 A 
ATOM     69  C   UNL     1       4.178  16.911  -5.671  1.00  0.00     0.010 A 
ATOM     70  C   UNL     1       2.403  16.102  -7.111  1.00  0.00     0.010 A 
ATOM     71  C   UNL     1       3.279  17.783  -5.052  1.00  0.00     0.020 A 
ATOM     72  C   UNL     1       1.508  16.997  -6.517  1.00  0.00     0.020 A 
ATOM     73  C   UNL     1       1.947  17.816  -5.476  1.00  0.00     0.054 A 
BRANCH  73  74
ATOM     74  S   UNL     1       0.803  18.958  -4.653  1.00  0.00     0.124 S 
ATOM     75  O   UNL     1       0.641  18.329  -3.344  1.00  0.00    -0.237 OA
ATOM     76  O   UNL     1       1.548  20.215  -4.657  1.00  0.00    -0.237 OA
ATOM     77  O   UNL     1      -0.383  18.936  -5.505  1.00  0.00    -0.744 OA
ENDBRANCH  73  74
ENDBRANCH  54  68
BRANCH  55  78
ATOM     78  C   UNL     1       9.971   9.288 -10.628  1.00  0.00    -0.014 A 
ATOM     79  C   UNL     1      11.258   9.671 -11.044  1.00  0.00     0.010 A 
ATOM     80  C   UNL     1       9.581   7.943 -10.768  1.00  0.00     0.010 A 
ATOM     81  C   UNL     1      12.133   8.733 -11.602  1.00  0.00     0.020 A 
ATOM     82  C   UNL     1      10.463   6.996 -11.297  1.00  0.00     0.020 A 
ATOM     83  C   UNL     1      11.731   7.400 -11.719  1.00  0.00     0.054 A 
BRANCH  83  84
ATOM     84  S   UNL     1      12.904   6.190 -12.392  1.00  0.00     0.124 S 
ATOM     85  O   UNL     1      12.949   6.562 -13.803  1.00  0.00    -0.237 OA
ATOM     86  O   UNL     1      14.115   6.467 -11.624  1.00  0.00    -0.237 OA
ATOM     87  O   UNL     1      12.273   4.904 -12.103  1.00  0.00    -0.744 OA
ENDBRANCH  83  84
ENDBRANCH  55  78
BRANCH  67  88
ATOM     88  C   UNL     1       6.680  14.882 -13.189  1.00  0.00    -0.014 A 
ATOM     89  C   UNL     1       6.021  14.271 -14.270  1.00  0.00     0.010 A 
ATOM     90  C   UNL     1       7.281  16.140 -13.377  1.00  0.00     0.010 A 
ATOM     91  C   UNL     1       5.987  14.893 -15.521  1.00  0.00     0.020 A 
ATOM     92  C   UNL     1       7.223  16.780 -14.618  1.00  0.00     0.020 A 
ATOM     93  C   UNL     1       6.586  16.146 -15.686  1.00  0.00     0.054 A 
BRANCH  93  94
ATOM     94  S   UNL     1       6.481  16.955 -17.306  1.00  0.00     0.124 S 
ATOM     95  O   UNL     1       7.387  16.141 -18.112  1.00  0.00    -0.237 OA
ATOM     96  O   UNL     1       5.063  16.829 -17.634  1.00  0.00    -0.237 OA
ATOM     97  O   UNL     1       6.936  18.319 -17.044  1.00  0.00    -0.744 OA
ENDBRANCH  93  94
ENDBRANCH  67  88
ENDBRANCH  41  42
ENDBRANCH  33  36
ENDBRANCH  31  32
ENDBRANCH  30  31
ENDBRANCH  29  30
ENDBRANCH  28  29
ENDBRANCH   1  28
TORSDOF 21
