REMARK SMILES Cc1ccc(C(=O)N2C[C@H](C(=O)NCCCCCCNC(=O)c3ccc(-c4c5nc(c(-c6ccc(S(=O)(=O)[O-])cc6)c6ccc([nH]6)c(-c6ccc(S(=O)(=O)[O-])cc6)c6nc(c(-c7ccc(S(=O)(=O)[O-])cc7)c7ccc4[nH]7)C=C6)C=C5)cc3)Oc3ccccc32)o1
REMARK SMILES IDX 17 1 16 2 15 3 14 4 13 5 11 6 12 7 10 9 8 10 9 11 89 12
REMARK SMILES IDX 84 13 88 14 83 15 85 16 87 17 86 18 6 19 7 20 5 21 1 22 2 23
REMARK SMILES IDX 3 24 90 25 4 26 18 27 19 28 20 29 21 30 22 32 23 33 24 34
REMARK SMILES IDX 82 35 25 36 81 37 26 38 27 39 28 40 75 41 29 42 80 43 74 44
REMARK SMILES IDX 76 45 30 46 79 47 73 48 72 49 31 51 61 52 42 53 60 54 43 55
REMARK SMILES IDX 46 56 59 57 77 58 44 59 45 60 58 62 78 63 47 64 32 65 33 66
REMARK SMILES IDX 41 67 34 68 40 69 35 70 36 71 37 72 38 73 39 74 62 75 63 76
REMARK SMILES IDX 71 77 64 78 70 79 65 80 66 81 67 82 68 83 69 84 48 85 49 86
REMARK SMILES IDX 57 87 50 88 56 89 51 90 52 91 53 92 54 93 55 94
REMARK H PARENT 13 8 20 31 76 50 46 61
REMARK Flexibility Score: inf
ROOT
ATOM      1  C   UNL     1      -7.689  -4.503   2.315  1.00  0.00     0.002 C 
ENDROOT
BRANCH   1   2
ATOM      2  C   UNL     1      -6.287  -3.950   2.592  1.00  0.00     0.002 C 
BRANCH   2   3
ATOM      3  C   UNL     1      -5.764  -2.933   1.572  1.00  0.00     0.021 C 
BRANCH   3   4
ATOM      4  C   UNL     1      -6.601  -1.658   1.457  1.00  0.00     0.116 C 
BRANCH   4   5
ATOM      5  N   UNL     1      -6.434  -0.811   2.627  1.00  0.00    -0.353 N 
ATOM      6  C   UNL     1      -5.975   0.473   2.727  1.00  0.00     0.262 C 
ATOM      7  O   UNL     1      -5.908   0.971   3.854  1.00  0.00    -0.271 OA
ATOM      8  H   UNL     1      -6.692  -1.226   3.481  1.00  0.00     0.163 HD
BRANCH   6   9
ATOM      9  C   UNL     1      -5.500   1.251   1.496  1.00  0.00     0.281 C 
ATOM     10  N   UNL     1      -3.689   1.413  -0.169  1.00  0.00    -0.298 N 
ATOM     11  C   UNL     1      -4.153   0.711   1.028  1.00  0.00     0.181 C 
ATOM     12  C   UNL     1      -4.712   1.805  -1.089  1.00  0.00     0.087 A 
ATOM     13  C   UNL     1      -6.064   1.636  -0.743  1.00  0.00     0.144 A 
ATOM     14  C   UNL     1      -4.411   2.257  -2.381  1.00  0.00     0.030 A 
ATOM     15  O   UNL     1      -6.501   1.194   0.480  1.00  0.00    -0.477 OA
ATOM     16  C   UNL     1      -7.078   1.883  -1.673  1.00  0.00     0.049 A 
ATOM     17  C   UNL     1      -5.427   2.511  -3.307  1.00  0.00     0.002 A 
ATOM     18  C   UNL     1      -6.760   2.318  -2.956  1.00  0.00     0.004 A 
BRANCH  10  19
ATOM     19  C   UNL     1      -2.334   1.700  -0.382  1.00  0.00     0.294 C 
ATOM     20  O   UNL     1      -1.975   2.786  -0.845  1.00  0.00    -0.265 OA
BRANCH  19  21
ATOM     21  C   UNL     1      -1.376   0.644  -0.082  1.00  0.00     0.192 A 
ATOM     22  C   UNL     1       2.135   0.008   0.241  1.00  0.00     0.087 C 
ATOM     23  C   UNL     1       0.669  -0.150   0.177  1.00  0.00     0.101 A 
ATOM     24  C   UNL     1      -0.169  -1.240   0.204  1.00  0.00     0.046 A 
ATOM     25  O   UNL     1      -0.053   0.992   0.022  1.00  0.00    -0.456 OA
ATOM     26  C   UNL     1      -1.480  -0.734   0.026  1.00  0.00     0.056 A 
ENDBRANCH  19  21
ENDBRANCH  10  19
ENDBRANCH   6   9
ENDBRANCH   4   5
ENDBRANCH   3   4
ENDBRANCH   2   3
ENDBRANCH   1   2
BRANCH   1  27
ATOM     27  C   UNL     1      -7.907  -5.100   0.921  1.00  0.00     0.021 C 
BRANCH  27  28
ATOM     28  C   UNL     1      -6.952  -6.227   0.532  1.00  0.00     0.116 C 
BRANCH  28  29
ATOM     29  N   UNL     1      -7.095  -7.398   1.380  1.00  0.00    -0.352 N 
ATOM     30  C   UNL     1      -7.182  -8.721   1.021  1.00  0.00     0.251 C 
ATOM     31  H   UNL     1      -7.134  -7.218   2.347  1.00  0.00     0.163 HD
ATOM     32  O   UNL     1      -7.444  -9.571   1.868  1.00  0.00    -0.269 OA
BRANCH  30  33
ATOM     33  C   UNL     1      -6.988  -9.120  -0.391  1.00  0.00     0.039 A 
ATOM     34  C   UNL     1      -7.930  -9.963  -0.989  1.00  0.00     0.014 A 
ATOM     35  C   UNL     1      -5.881  -8.673  -1.119  1.00  0.00     0.014 A 
ATOM     36  C   UNL     1      -7.799 -10.305  -2.337  1.00  0.00     0.010 A 
ATOM     37  C   UNL     1      -5.772  -8.985  -2.474  1.00  0.00     0.010 A 
ATOM     38  C   UNL     1      -6.735  -9.795  -3.097  1.00  0.00    -0.014 A 
BRANCH  38  39
ATOM     39  C   UNL     1      -6.621 -10.077  -4.549  1.00  0.00     0.031 A 
ATOM     40  C   UNL     1      -5.516 -10.951  -5.069  1.00  0.00     0.074 A 
ATOM     41  C   UNL     1      -7.469  -9.481  -5.410  1.00  0.00     0.049 A 
ATOM     42  N   UNL     1      -5.193 -11.220  -6.308  1.00  0.00    -0.248 NA
ATOM     43  C   UNL     1      -4.652 -11.592  -4.066  1.00  0.00     0.031 C 
ATOM     44  C   UNL     1      -8.569  -8.589  -5.037  1.00  0.00     0.029 A 
ATOM     45  N   UNL     1      -7.526  -9.525  -6.780  1.00  0.00    -0.354 N 
ATOM     46  C   UNL     1      -4.074 -12.040  -6.237  1.00  0.00     0.074 A 
ATOM     47  C   UNL     1      -3.764 -12.211  -4.832  1.00  0.00     0.031 C 
ATOM     48  C   UNL     1      -9.195  -8.176  -6.151  1.00  0.00     0.029 A 
ATOM     49  C   UNL     1      -8.524  -8.748  -7.315  1.00  0.00     0.049 A 
ATOM     50  H   UNL     1      -6.910 -10.063  -7.328  1.00  0.00     0.167 HD
ATOM     51  C   UNL     1      -3.370 -12.605  -7.247  1.00  0.00     0.031 A 
ATOM     52  C   UNL     1      -8.857  -8.509  -8.598  1.00  0.00     0.031 A 
ATOM     53  C   UNL     1      -3.683 -12.454  -8.643  1.00  0.00     0.049 A 
ATOM     54  C   UNL     1      -8.068  -9.152  -9.702  1.00  0.00     0.074 A 
ATOM     55  C   UNL     1      -3.052 -13.025  -9.734  1.00  0.00     0.029 A 
ATOM     56  N   UNL     1      -4.717 -11.677  -9.140  1.00  0.00    -0.354 N 
ATOM     57  N   UNL     1      -7.030  -9.949  -9.612  1.00  0.00    -0.248 NA
ATOM     58  C   UNL     1      -8.496  -8.866 -11.078  1.00  0.00     0.031 C 
ATOM     59  C   UNL     1      -3.692 -12.574 -10.895  1.00  0.00     0.029 A 
ATOM     60  C   UNL     1      -4.737 -11.743 -10.522  1.00  0.00     0.049 A 
ATOM     61  H   UNL     1      -5.345 -11.154  -8.591  1.00  0.00     0.167 HD
ATOM     62  C   UNL     1      -6.688 -10.269 -10.920  1.00  0.00     0.074 A 
ATOM     63  C   UNL     1      -7.633  -9.588 -11.782  1.00  0.00     0.031 C 
ATOM     64  C   UNL     1      -5.681 -11.057 -11.365  1.00  0.00     0.031 A 
BRANCH  51  65
ATOM     65  C   UNL     1      -2.176 -13.433  -6.867  1.00  0.00    -0.014 A 
ATOM     66  C   UNL     1      -2.333 -14.731  -6.351  1.00  0.00     0.010 A 
ATOM     67  C   UNL     1      -0.882 -12.909  -7.035  1.00  0.00     0.010 A 
ATOM     68  C   UNL     1      -1.215 -15.476  -5.966  1.00  0.00     0.020 A 
ATOM     69  C   UNL     1       0.239 -13.659  -6.667  1.00  0.00     0.020 A 
ATOM     70  C   UNL     1       0.063 -14.930  -6.115  1.00  0.00     0.054 A 
BRANCH  70  71
ATOM     71  S   UNL     1       1.504 -15.907  -5.604  1.00  0.00     0.124 S 
ATOM     72  O   UNL     1       1.534 -15.662  -4.164  1.00  0.00    -0.237 OA
ATOM     73  O   UNL     1       1.137 -17.264  -6.002  1.00  0.00    -0.237 OA
ATOM     74  O   UNL     1       2.604 -15.316  -6.360  1.00  0.00    -0.744 OA
ENDBRANCH  70  71
ENDBRANCH  51  65
BRANCH  52  75
ATOM     75  C   UNL     1     -10.001  -7.614  -8.904  1.00  0.00    -0.014 A 
ATOM     76  C   UNL     1     -11.244  -8.157  -9.271  1.00  0.00     0.010 A 
ATOM     77  C   UNL     1      -9.862  -6.219  -8.796  1.00  0.00     0.010 A 
ATOM     78  C   UNL     1     -12.332  -7.319  -9.529  1.00  0.00     0.020 A 
ATOM     79  C   UNL     1     -10.952  -5.379  -9.039  1.00  0.00     0.020 A 
ATOM     80  C   UNL     1     -12.179  -5.935  -9.410  1.00  0.00     0.054 A 
BRANCH  80  81
ATOM     81  S   UNL     1     -13.618  -4.860  -9.670  1.00  0.00     0.124 S 
ATOM     82  O   UNL     1     -13.629  -4.716 -11.122  1.00  0.00    -0.237 OA
ATOM     83  O   UNL     1     -14.713  -5.643  -9.102  1.00  0.00    -0.237 OA
ATOM     84  O   UNL     1     -13.274  -3.654  -8.919  1.00  0.00    -0.744 OA
ENDBRANCH  80  81
ENDBRANCH  52  75
BRANCH  64  85
ATOM     85  C   UNL     1      -5.557 -11.240 -12.851  1.00  0.00    -0.014 A 
ATOM     86  C   UNL     1      -4.949 -10.256 -13.648  1.00  0.00     0.010 A 
ATOM     87  C   UNL     1      -6.007 -12.432 -13.447  1.00  0.00     0.010 A 
ATOM     88  C   UNL     1      -4.808 -10.452 -15.024  1.00  0.00     0.020 A 
ATOM     89  C   UNL     1      -5.855 -12.637 -14.820  1.00  0.00     0.020 A 
ATOM     90  C   UNL     1      -5.265 -11.640 -15.602  1.00  0.00     0.054 A 
BRANCH  90  91
ATOM     91  S   UNL     1      -5.027 -11.905 -17.381  1.00  0.00     0.124 S 
ATOM     92  O   UNL     1      -6.154 -11.170 -17.950  1.00  0.00    -0.237 OA
ATOM     93  O   UNL     1      -3.710 -11.321 -17.625  1.00  0.00    -0.237 OA
ATOM     94  O   UNL     1      -5.092 -13.357 -17.523  1.00  0.00    -0.744 OA
ENDBRANCH  90  91
ENDBRANCH  64  85
ENDBRANCH  38  39
ENDBRANCH  30  33
ENDBRANCH  28  29
ENDBRANCH  27  28
ENDBRANCH   1  27
TORSDOF 18
