REMARK SMILES Cc1ccc(N2C(=O)C[C@H](Sc3ccccc3C(=O)NCCCCCCNC(=O)c3ccc(-c4c5nc(c(-c6ccc(S(=O)(=O)[O-])cc6)c6ccc([nH]6)c(-c6ccc(S(=O)(=O)[O-])cc6)c6nc(c(-c7ccc(S(=O)(=O)[O-])cc7)c7ccc4[nH]7)C=C6)C=C5)cc3)C2=O)cc1
REMARK SMILES IDX 23 1 22 2 21 3 20 4 18 5 19 6 17 8 12 9 13 10 14 11 16 12
REMARK SMILES IDX 15 13 11 14 10 15 6 16 7 17 90 18 8 19 9 20 91 21 5 22 1 23
REMARK SMILES IDX 2 24 3 25 93 26 4 27 92 28 24 29 25 30 26 31 27 32 28 33
REMARK SMILES IDX 29 35 30 36 31 37 89 38 32 39 88 40 33 41 34 42 35 43 82 44
REMARK SMILES IDX 36 45 87 46 81 47 83 48 37 49 86 50 80 51 79 52 38 54 68 55
REMARK SMILES IDX 49 56 67 57 50 58 53 59 66 60 84 61 51 62 52 63 65 65 85 66
REMARK SMILES IDX 54 67 39 68 40 69 48 70 41 71 47 72 42 73 43 74 44 75 45 76
REMARK SMILES IDX 46 77 69 78 70 79 78 80 71 81 77 82 72 83 73 84 74 85 75 86
REMARK SMILES IDX 76 87 55 88 56 89 64 90 57 91 63 92 58 93 59 94 60 95 61 96
REMARK SMILES IDX 62 97
REMARK H PARENT 20 7 27 34 83 53 53 64
REMARK Flexibility Score: inf
ROOT
ATOM      1  C   UNL     1      -5.328   5.069  -3.615  1.00  0.00     0.002 C 
ENDROOT
BRANCH   1   2
ATOM      2  C   UNL     1      -4.564   5.037  -2.288  1.00  0.00     0.021 C 
BRANCH   2   3
ATOM      3  C   UNL     1      -5.343   4.930  -0.978  1.00  0.00     0.116 C 
BRANCH   3   4
ATOM      4  N   UNL     1      -6.399   3.932  -0.939  1.00  0.00    -0.352 N 
ATOM      5  C   UNL     1      -6.874   3.164   0.104  1.00  0.00     0.252 C 
ATOM      6  O   UNL     1      -7.911   2.527  -0.062  1.00  0.00    -0.269 OA
ATOM      7  H   UNL     1      -6.850   3.778  -1.800  1.00  0.00     0.163 HD
BRANCH   5   8
ATOM      8  C   UNL     1      -6.131   3.063   1.392  1.00  0.00     0.053 A 
ATOM      9  C   UNL     1      -5.861   1.822   2.015  1.00  0.00     0.021 A 
ATOM     10  C   UNL     1      -5.132   1.818   3.220  1.00  0.00     0.016 A 
ATOM     11  C   UNL     1      -4.708   3.009   3.814  1.00  0.00     0.001 A 
ATOM     12  C   UNL     1      -5.756   4.254   2.040  1.00  0.00     0.015 A 
ATOM     13  C   UNL     1      -5.036   4.228   3.234  1.00  0.00     0.001 A 
BRANCH   9  14
ATOM     14  S   UNL     1      -6.595   0.240   1.575  1.00  0.00    -0.111 SA
BRANCH  14  15
ATOM     15  C   UNL     1      -5.463  -0.501   0.354  1.00  0.00     0.151 C 
ATOM     16  N   UNL     1      -3.227   0.093   0.027  1.00  0.00    -0.250 N 
ATOM     17  C   UNL     1      -3.943   0.768  -0.937  1.00  0.00     0.235 C 
ATOM     18  C   UNL     1      -4.048  -0.655   0.844  1.00  0.00     0.247 C 
ATOM     19  O   UNL     1      -3.551   1.583  -1.759  1.00  0.00    -0.274 OA
ATOM     20  C   UNL     1      -5.341   0.235  -0.956  1.00  0.00     0.126 C 
ATOM     21  O   UNL     1      -3.740  -1.325   1.823  1.00  0.00    -0.273 OA
BRANCH  16  22
ATOM     22  C   UNL     1      -1.809   0.113   0.113  1.00  0.00     0.052 A 
ATOM     23  C   UNL     1       2.520   0.021   0.028  1.00  0.00     0.044 C 
ATOM     24  C   UNL     1       1.023   0.068   0.104  1.00  0.00    -0.051 A 
ATOM     25  C   UNL     1       0.296  -1.062   0.484  1.00  0.00     0.005 A 
ATOM     26  C   UNL     1       0.328   1.221  -0.270  1.00  0.00     0.005 A 
ATOM     27  C   UNL     1      -1.103  -1.033   0.511  1.00  0.00     0.027 A 
ATOM     28  C   UNL     1      -1.072   1.238  -0.274  1.00  0.00     0.027 A 
ENDBRANCH  16  22
ENDBRANCH  14  15
ENDBRANCH   9  14
ENDBRANCH   5   8
ENDBRANCH   3   4
ENDBRANCH   2   3
ENDBRANCH   1   2
BRANCH   1  29
ATOM     29  C   UNL     1      -6.518   6.023  -3.762  1.00  0.00     0.002 C 
BRANCH  29  30
ATOM     30  C   UNL     1      -6.316   7.474  -3.334  1.00  0.00     0.021 C 
BRANCH  30  31
ATOM     31  C   UNL     1      -5.256   8.236  -4.124  1.00  0.00     0.116 C 
BRANCH  31  32
ATOM     32  N   UNL     1      -5.813   9.341  -4.900  1.00  0.00    -0.352 N 
ATOM     33  C   UNL     1      -5.139  10.399  -5.490  1.00  0.00     0.251 C 
ATOM     34  H   UNL     1      -6.790   9.334  -5.020  1.00  0.00     0.163 HD
ATOM     35  O   UNL     1      -5.719  11.322  -6.030  1.00  0.00    -0.269 OA
BRANCH  33  36
ATOM     36  C   UNL     1      -3.663  10.328  -5.495  1.00  0.00     0.039 A 
ATOM     37  C   UNL     1      -3.027  10.067  -6.712  1.00  0.00     0.014 A 
ATOM     38  C   UNL     1      -2.979  10.241  -4.287  1.00  0.00     0.014 A 
ATOM     39  C   UNL     1      -1.744   9.525  -6.706  1.00  0.00     0.010 A 
ATOM     40  C   UNL     1      -1.747   9.617  -4.279  1.00  0.00     0.010 A 
ATOM     41  C   UNL     1      -1.152   9.209  -5.484  1.00  0.00    -0.014 A 
BRANCH  41  42
ATOM     42  C   UNL     1       0.042   8.380  -5.349  1.00  0.00     0.031 A 
ATOM     43  C   UNL     1       1.324   8.984  -4.921  1.00  0.00     0.074 A 
ATOM     44  C   UNL     1      -0.024   7.039  -5.507  1.00  0.00     0.049 A 
ATOM     45  N   UNL     1       2.480   8.427  -5.073  1.00  0.00    -0.248 NA
ATOM     46  C   UNL     1       1.407  10.321  -4.344  1.00  0.00     0.031 C 
ATOM     47  C   UNL     1       0.955   6.059  -5.041  1.00  0.00     0.029 A 
ATOM     48  N   UNL     1      -0.876   6.295  -6.324  1.00  0.00    -0.354 N 
ATOM     49  C   UNL     1       3.388   9.151  -4.336  1.00  0.00     0.074 A 
ATOM     50  C   UNL     1       2.698  10.377  -4.009  1.00  0.00     0.031 C 
ATOM     51  C   UNL     1       0.848   4.956  -5.793  1.00  0.00     0.029 A 
ATOM     52  C   UNL     1      -0.097   5.251  -6.856  1.00  0.00     0.049 A 
ATOM     53  H   UNL     1      -1.831   6.466  -6.494  1.00  0.00     0.167 HD
ATOM     54  C   UNL     1       4.566   8.572  -3.963  1.00  0.00     0.031 A 
ATOM     55  C   UNL     1       0.120   5.051  -8.189  1.00  0.00     0.031 A 
ATOM     56  C   UNL     1       4.767   7.261  -4.589  1.00  0.00     0.049 A 
ATOM     57  C   UNL     1       1.587   5.022  -8.582  1.00  0.00     0.074 A 
ATOM     58  C   UNL     1       4.775   5.951  -4.138  1.00  0.00     0.029 A 
ATOM     59  N   UNL     1       4.791   7.184  -5.973  1.00  0.00    -0.354 N 
ATOM     60  N   UNL     1       2.576   5.184  -7.748  1.00  0.00    -0.248 NA
ATOM     61  C   UNL     1       2.049   4.926  -9.969  1.00  0.00     0.031 C 
ATOM     62  C   UNL     1       4.833   5.088  -5.270  1.00  0.00     0.029 A 
ATOM     63  C   UNL     1       4.864   5.875  -6.405  1.00  0.00     0.049 A 
ATOM     64  H   UNL     1       4.760   7.964  -6.572  1.00  0.00     0.167 HD
ATOM     65  C   UNL     1       3.750   5.304  -8.445  1.00  0.00     0.074 A 
ATOM     66  C   UNL     1       3.374   5.111  -9.832  1.00  0.00     0.031 C 
ATOM     67  C   UNL     1       4.929   5.619  -7.835  1.00  0.00     0.031 A 
BRANCH  54  68
ATOM     68  C   UNL     1       5.444   9.091  -2.839  1.00  0.00    -0.014 A 
ATOM     69  C   UNL     1       6.366   8.224  -2.214  1.00  0.00     0.010 A 
ATOM     70  C   UNL     1       5.370  10.388  -2.299  1.00  0.00     0.010 A 
ATOM     71  C   UNL     1       7.078   8.591  -1.060  1.00  0.00     0.020 A 
ATOM     72  C   UNL     1       6.053  10.765  -1.133  1.00  0.00     0.020 A 
ATOM     73  C   UNL     1       6.889   9.854  -0.506  1.00  0.00     0.054 A 
BRANCH  73  74
ATOM     74  S   UNL     1       7.728  10.287   1.038  1.00  0.00     0.124 S 
ATOM     75  O   UNL     1       7.237   9.265   1.958  1.00  0.00    -0.237 OA
ATOM     76  O   UNL     1       9.137  10.183   0.671  1.00  0.00    -0.237 OA
ATOM     77  O   UNL     1       7.259  11.643   1.318  1.00  0.00    -0.744 OA
ENDBRANCH  73  74
ENDBRANCH  54  68
BRANCH  55  78
ATOM     78  C   UNL     1      -0.981   5.548  -9.059  1.00  0.00    -0.014 A 
ATOM     79  C   UNL     1      -2.213   4.862  -8.998  1.00  0.00     0.010 A 
ATOM     80  C   UNL     1      -0.953   6.864  -9.550  1.00  0.00     0.010 A 
ATOM     81  C   UNL     1      -3.409   5.536  -9.246  1.00  0.00     0.020 A 
ATOM     82  C   UNL     1      -2.152   7.539  -9.810  1.00  0.00     0.020 A 
ATOM     83  C   UNL     1      -3.370   6.888  -9.587  1.00  0.00     0.054 A 
BRANCH  83  84
ATOM     84  S   UNL     1      -4.924   7.828  -9.514  1.00  0.00     0.124 S 
ATOM     85  O   UNL     1      -5.757   7.132 -10.488  1.00  0.00    -0.237 OA
ATOM     86  O   UNL     1      -5.307   7.656  -8.114  1.00  0.00    -0.237 OA
ATOM     87  O   UNL     1      -4.515   9.180  -9.885  1.00  0.00    -0.744 OA
ENDBRANCH  83  84
ENDBRANCH  55  78
BRANCH  67  88
ATOM     88  C   UNL     1       6.251   5.777  -8.540  1.00  0.00    -0.014 A 
ATOM     89  C   UNL     1       6.665   4.947  -9.594  1.00  0.00     0.010 A 
ATOM     90  C   UNL     1       7.189   6.719  -8.056  1.00  0.00     0.010 A 
ATOM     91  C   UNL     1       7.937   5.090 -10.171  1.00  0.00     0.020 A 
ATOM     92  C   UNL     1       8.464   6.857  -8.610  1.00  0.00     0.020 A 
ATOM     93  C   UNL     1       8.826   6.050  -9.679  1.00  0.00     0.054 A 
BRANCH  93  94
ATOM     94  S   UNL     1      10.477   6.190 -10.410  1.00  0.00     0.124 S 
ATOM     95  O   UNL     1      10.923   4.799 -10.459  1.00  0.00    -0.237 OA
ATOM     96  O   UNL     1      10.184   6.800 -11.704  1.00  0.00    -0.237 OA
ATOM     97  O   UNL     1      11.206   7.039  -9.471  1.00  0.00    -0.744 OA
ENDBRANCH  93  94
ENDBRANCH  67  88
ENDBRANCH  41  42
ENDBRANCH  33  36
ENDBRANCH  31  32
ENDBRANCH  30  31
ENDBRANCH  29  30
ENDBRANCH   1  29
TORSDOF 19
