REMARK SMILES COc1c(C)cc([C@H](C(=O)NCCCCCCNC(=O)c2ccc(-c3c4nc(c(-c5ccc(S(=O)(=O)[O-])cc5)c5ccc([nH]5)c(-c5ccc(S(=O)(=O)[O-])cc5)c5nc(c(-c6ccc(S(=O)(=O)[O-])cc6)c6ccc3[nH]6)C=C5)C=C4)cc2)[N@@H+](C)CCN2CCCCC2=O)cc1C
REMARK SMILES IDX 14 1 13 2 12 3 11 4 9 5 10 6 8 8 7 9 3 10 4 11 93 12 5 13
REMARK SMILES IDX 6 14 92 15 94 16 2 17 1 18 81 19 82 20 83 22 84 23 85 24
REMARK SMILES IDX 86 25 90 26 87 27 89 28 91 29 88 30 15 31 16 32 17 33 18 34
REMARK SMILES IDX 19 35 20 37 21 38 22 39 80 40 23 41 79 42 24 43 25 44 26 45
REMARK SMILES IDX 73 46 27 47 78 48 72 49 74 50 28 51 77 52 71 53 70 54 29 56
REMARK SMILES IDX 59 57 40 58 58 59 41 60 44 61 57 62 75 63 42 64 43 65 56 67
REMARK SMILES IDX 76 68 45 69 30 70 31 71 39 72 32 73 38 74 33 75 34 76 35 77
REMARK SMILES IDX 36 78 37 79 60 80 61 81 69 82 62 83 68 84 63 85 64 86 65 87
REMARK SMILES IDX 66 88 67 89 46 90 47 91 55 92 48 93 54 94 49 95 50 96 51 97
REMARK SMILES IDX 52 98 53 99
REMARK H PARENT 11 7 81 21 18 36 74 55 44 66
REMARK Flexibility Score: inf
ROOT
ATOM      1  C   UNL     1       3.460  -3.701  -0.731  1.00  0.00     0.002 C 
ENDROOT
BRANCH   1   2
ATOM      2  C   UNL     1       3.523  -3.984  -2.240  1.00  0.00     0.021 C 
BRANCH   2   3
ATOM      3  C   UNL     1       2.570  -4.970  -2.929  1.00  0.00     0.116 C 
BRANCH   3   4
ATOM      4  N   UNL     1       1.604  -4.323  -3.847  1.00  0.00    -0.351 N 
ATOM      5  C   UNL     1       1.568  -4.021  -5.195  1.00  0.00     0.283 C 
ATOM      6  O   UNL     1       0.473  -3.593  -5.597  1.00  0.00    -0.268 OA
ATOM      7  H   UNL     1       0.784  -4.038  -3.382  1.00  0.00     0.163 HD
BRANCH   5   8
ATOM      8  C   UNL     1       2.772  -4.179  -6.210  1.00  0.00     0.305 C 
BRANCH   8   9
ATOM      9  C   UNL     1       2.854  -3.232  -7.465  1.00  0.00     0.020 A 
ATOM     10  C   UNL     1       3.269  -1.553  -9.777  1.00  0.00     0.124 A 
ATOM     11  C   UNL     1       2.402  -2.663  -9.832  1.00  0.00    -0.008 A 
ATOM     12  C   UNL     1       3.970  -1.301  -8.613  1.00  0.00    -0.008 A 
ATOM     13  C   UNL     1       1.685  -2.972 -11.119  1.00  0.00     0.048 C 
ATOM     14  C   UNL     1       2.183  -3.476  -8.674  1.00  0.00     0.017 A 
ATOM     15  C   UNL     1       3.704  -2.117  -7.506  1.00  0.00     0.017 A 
ATOM     16  C   UNL     1       5.044  -0.264  -8.430  1.00  0.00     0.048 C 
BRANCH  10  17
ATOM     17  O   UNL     1       3.468  -0.811 -10.911  1.00  0.00    -0.496 OA
ATOM     18  C   UNL     1       3.094   0.560 -10.762  1.00  0.00     0.278 C 
ENDBRANCH  10  17
ENDBRANCH   8   9
BRANCH   8  19
ATOM     19  N   UNL     1       4.052  -4.450  -5.491  1.00  0.00    -0.322 N 
ATOM     20  C   UNL     1       4.740  -5.543  -6.218  1.00  0.00     0.333 C 
ATOM     21  H   UNL     1       3.719  -4.651  -4.548  1.00  0.00     0.348 HD
BRANCH  19  22
ATOM     22  C   UNL     1       5.037  -3.381  -5.178  1.00  0.00     0.284 C 
BRANCH  22  23
ATOM     23  C   UNL     1       4.926  -2.003  -4.361  1.00  0.00     0.180 C 
BRANCH  23  24
ATOM     24  N   UNL     1       3.949  -0.895  -4.573  1.00  0.00    -0.337 N 
ATOM     25  C   UNL     1       2.522  -1.137  -4.621  1.00  0.00     0.119 C 
ATOM     26  C   UNL     1       4.365   0.398  -4.234  1.00  0.00     0.222 C 
ATOM     27  C   UNL     1       1.716  -0.066  -5.336  1.00  0.00     0.022 C 
ATOM     28  C   UNL     1       3.423   1.552  -4.581  1.00  0.00     0.100 C 
ATOM     29  O   UNL     1       5.475   0.637  -3.782  1.00  0.00    -0.275 OA
ATOM     30  C   UNL     1       1.938   1.240  -4.617  1.00  0.00     0.012 C 
ENDBRANCH  23  24
ENDBRANCH  22  23
ENDBRANCH  19  22
ENDBRANCH   8  19
ENDBRANCH   5   8
ENDBRANCH   3   4
ENDBRANCH   2   3
ENDBRANCH   1   2
BRANCH   1  31
ATOM     31  C   UNL     1       3.732  -4.832   0.262  1.00  0.00     0.002 C 
BRANCH  31  32
ATOM     32  C   UNL     1       5.011  -5.655   0.085  1.00  0.00     0.021 C 
BRANCH  32  33
ATOM     33  C   UNL     1       6.349  -4.914   0.178  1.00  0.00     0.116 C 
BRANCH  33  34
ATOM     34  N   UNL     1       6.635  -4.376   1.501  1.00  0.00    -0.352 N 
ATOM     35  C   UNL     1       7.579  -4.720   2.441  1.00  0.00     0.251 C 
ATOM     36  H   UNL     1       6.048  -3.633   1.771  1.00  0.00     0.163 HD
ATOM     37  O   UNL     1       7.540  -4.179   3.549  1.00  0.00    -0.269 OA
BRANCH  35  38
ATOM     38  C   UNL     1       8.626  -5.738   2.176  1.00  0.00     0.039 A 
ATOM     39  C   UNL     1       8.925  -6.670   3.179  1.00  0.00     0.014 A 
ATOM     40  C   UNL     1       9.365  -5.751   0.991  1.00  0.00     0.014 A 
ATOM     41  C   UNL     1       9.898  -7.654   2.965  1.00  0.00     0.010 A 
ATOM     42  C   UNL     1      10.297  -6.767   0.755  1.00  0.00     0.010 A 
ATOM     43  C   UNL     1      10.570  -7.734   1.736  1.00  0.00    -0.014 A 
BRANCH  43  44
ATOM     44  C   UNL     1      11.536  -8.832   1.453  1.00  0.00     0.031 A 
ATOM     45  C   UNL     1      12.996  -8.538   1.232  1.00  0.00     0.074 A 
ATOM     46  C   UNL     1      11.087 -10.095   1.310  1.00  0.00     0.049 A 
ATOM     47  N   UNL     1      13.964  -9.359   0.910  1.00  0.00    -0.248 NA
ATOM     48  C   UNL     1      13.415  -7.136   1.365  1.00  0.00     0.031 C 
ATOM     49  C   UNL     1       9.691 -10.514   1.444  1.00  0.00     0.029 A 
ATOM     50  N   UNL     1      11.754 -11.255   1.002  1.00  0.00    -0.354 N 
ATOM     51  C   UNL     1      15.102  -8.572   0.777  1.00  0.00     0.074 A 
ATOM     52  C   UNL     1      14.693  -7.203   1.018  1.00  0.00     0.031 C 
ATOM     53  C   UNL     1       9.606 -11.836   1.222  1.00  0.00     0.029 A 
ATOM     54  C   UNL     1      10.934 -12.354   0.903  1.00  0.00     0.049 A 
ATOM     55  H   UNL     1      12.728 -11.296   0.864  1.00  0.00     0.167 HD
ATOM     56  C   UNL     1      16.373  -8.949   0.490  1.00  0.00     0.031 A 
ATOM     57  C   UNL     1      11.208 -13.634   0.583  1.00  0.00     0.031 A 
ATOM     58  C   UNL     1      16.785 -10.308   0.255  1.00  0.00     0.049 A 
ATOM     59  C   UNL     1      12.625 -14.040   0.296  1.00  0.00     0.074 A 
ATOM     60  C   UNL     1      18.061 -10.796   0.027  1.00  0.00     0.029 A 
ATOM     61  N   UNL     1      15.929 -11.398   0.208  1.00  0.00    -0.354 N 
ATOM     62  N   UNL     1      13.701 -13.291   0.254  1.00  0.00    -0.248 NA
ATOM     63  C   UNL     1      12.868 -15.464   0.029  1.00  0.00     0.031 C 
ATOM     64  C   UNL     1      17.970 -12.175  -0.199  1.00  0.00     0.029 A 
ATOM     65  C   UNL     1      16.643 -12.553  -0.067  1.00  0.00     0.049 A 
ATOM     66  H   UNL     1      14.955 -11.357   0.350  1.00  0.00     0.167 HD
ATOM     67  C   UNL     1      14.752 -14.156  -0.029  1.00  0.00     0.074 A 
ATOM     68  C   UNL     1      14.185 -15.485  -0.135  1.00  0.00     0.031 C 
ATOM     69  C   UNL     1      16.069 -13.870  -0.185  1.00  0.00     0.031 A 
BRANCH  56  70
ATOM     70  C   UNL     1      17.406  -7.855   0.394  1.00  0.00    -0.014 A 
ATOM     71  C   UNL     1      17.835  -7.157   1.537  1.00  0.00     0.010 A 
ATOM     72  C   UNL     1      17.945  -7.512  -0.859  1.00  0.00     0.010 A 
ATOM     73  C   UNL     1      18.729  -6.089   1.421  1.00  0.00     0.020 A 
ATOM     74  C   UNL     1      18.862  -6.463  -0.977  1.00  0.00     0.020 A 
ATOM     75  C   UNL     1      19.224  -5.738   0.161  1.00  0.00     0.054 A 
BRANCH  75  76
ATOM     76  S   UNL     1      20.356  -4.327   0.027  1.00  0.00     0.124 S 
ATOM     77  O   UNL     1      19.434  -3.196   0.112  1.00  0.00    -0.237 OA
ATOM     78  O   UNL     1      21.236  -4.506   1.179  1.00  0.00    -0.237 OA
ATOM     79  O   UNL     1      20.992  -4.516  -1.274  1.00  0.00    -0.744 OA
ENDBRANCH  75  76
ENDBRANCH  56  70
BRANCH  57  80
ATOM     80  C   UNL     1      10.097 -14.622   0.538  1.00  0.00    -0.014 A 
ATOM     81  C   UNL     1       9.914 -15.535   1.591  1.00  0.00     0.010 A 
ATOM     82  C   UNL     1       9.172 -14.599  -0.521  1.00  0.00     0.010 A 
ATOM     83  C   UNL     1       8.816 -16.401   1.591  1.00  0.00     0.020 A 
ATOM     84  C   UNL     1       8.063 -15.449  -0.514  1.00  0.00     0.020 A 
ATOM     85  C   UNL     1       7.892 -16.346   0.543  1.00  0.00     0.054 A 
BRANCH  85  86
ATOM     86  S   UNL     1       6.415 -17.397   0.620  1.00  0.00     0.124 S 
ATOM     87  O   UNL     1       6.950 -18.702   0.246  1.00  0.00    -0.237 OA
ATOM     88  O   UNL     1       5.999 -17.259   2.014  1.00  0.00    -0.237 OA
ATOM     89  O   UNL     1       5.511 -16.786  -0.352  1.00  0.00    -0.744 OA
ENDBRANCH  85  86
ENDBRANCH  57  80
BRANCH  69  90
ATOM     90  C   UNL     1      16.996 -15.020  -0.476  1.00  0.00    -0.014 A 
ATOM     91  C   UNL     1      17.029 -15.621  -1.746  1.00  0.00     0.010 A 
ATOM     92  C   UNL     1      17.883 -15.469   0.519  1.00  0.00     0.010 A 
ATOM     93  C   UNL     1      17.916 -16.669  -2.009  1.00  0.00     0.020 A 
ATOM     94  C   UNL     1      18.786 -16.502   0.254  1.00  0.00     0.020 A 
ATOM     95  C   UNL     1      18.788 -17.105  -1.005  1.00  0.00     0.054 A 
BRANCH  95  96
ATOM     96  S   UNL     1      19.963 -18.436  -1.381  1.00  0.00     0.124 S 
ATOM     97  O   UNL     1      19.106 -19.618  -1.337  1.00  0.00    -0.237 OA
ATOM     98  O   UNL     1      20.456 -18.067  -2.706  1.00  0.00    -0.237 OA
ATOM     99  O   UNL     1      20.949 -18.339  -0.307  1.00  0.00    -0.744 OA
ENDBRANCH  95  96
ENDBRANCH  69  90
ENDBRANCH  43  44
ENDBRANCH  35  38
ENDBRANCH  33  34
ENDBRANCH  32  33
ENDBRANCH  31  32
ENDBRANCH   1  31
TORSDOF 22
