REMARK SMILES COC(=O)c1cc(F)cc(-c2ccc(C(=O)NCCCCCCNC(=O)c3ccc(-c4c5nc(c(-c6ccc(S(=O)(=O)[O-])cc6)c6ccc([nH]6)c(-c6ccc(S(=O)(=O)[O-])cc6)c6nc(c(-c7ccc(S(=O)(=O)[O-])cc7)c7ccc4[nH]7)C=C6)C=C5)cc3)cc2C)c1
REMARK SMILES IDX 20 1 19 2 18 3 17 4 15 5 16 6 14 8 11 9 12 10 88 11 13 12
REMARK SMILES IDX 87 13 89 14 10 15 5 16 6 17 90 18 7 19 8 20 9 21 3 22 4 23
REMARK SMILES IDX 2 24 1 25 21 26 22 27 23 28 24 29 25 30 26 32 27 33 28 34
REMARK SMILES IDX 86 35 29 36 85 37 30 38 31 39 32 40 79 41 33 42 84 43 78 44
REMARK SMILES IDX 80 45 34 46 83 47 77 48 76 49 35 51 65 52 46 53 64 54 47 55
REMARK SMILES IDX 50 56 63 57 81 58 48 59 49 60 62 62 82 63 51 64 36 65 37 66
REMARK SMILES IDX 45 67 38 68 44 69 39 70 40 71 41 72 42 73 43 74 66 75 67 76
REMARK SMILES IDX 75 77 68 78 74 79 69 80 70 81 71 82 72 83 73 84 52 85 53 86
REMARK SMILES IDX 61 87 54 88 60 89 55 90 56 91 57 92 58 93 59 94
REMARK H PARENT 17 7 24 31 80 50 50 61
REMARK Flexibility Score: inf
ROOT
ATOM      1  C   UNL     1       7.617  11.248   2.938  1.00  0.00     0.002 C 
ENDROOT
BRANCH   1   2
ATOM      2  C   UNL     1       6.312  10.547   2.568  1.00  0.00     0.021 C 
BRANCH   2   3
ATOM      3  C   UNL     1       5.983   9.246   3.291  1.00  0.00     0.116 C 
BRANCH   3   4
ATOM      4  N   UNL     1       5.601   9.394   4.681  1.00  0.00    -0.352 N 
ATOM      5  C   UNL     1       4.622   8.776   5.428  1.00  0.00     0.251 C 
ATOM      6  O   UNL     1       4.531   9.076   6.620  1.00  0.00    -0.269 OA
ATOM      7  H   UNL     1       6.135  10.053   5.180  1.00  0.00     0.163 HD
BRANCH   5   8
ATOM      8  C   UNL     1       3.645   7.795   4.862  1.00  0.00     0.040 A 
ATOM      9  C   UNL     1       1.632   6.047   3.849  1.00  0.00    -0.015 A 
ATOM     10  C   UNL     1       2.874   6.214   3.207  1.00  0.00     0.010 A 
ATOM     11  C   UNL     1       1.435   6.714   5.073  1.00  0.00    -0.042 A 
ATOM     12  C   UNL     1       3.886   7.008   3.743  1.00  0.00     0.014 A 
ATOM     13  C   UNL     1       2.425   7.614   5.536  1.00  0.00     0.018 A 
ATOM     14  C   UNL     1       0.248   6.479   5.968  1.00  0.00     0.045 C 
BRANCH   9  15
ATOM     15  C   UNL     1       0.664   5.133   3.217  1.00  0.00    -0.014 A 
ATOM     16  C   UNL     1       0.254   2.975   2.136  1.00  0.00     0.063 A 
ATOM     17  C   UNL     1      -1.028   3.384   1.774  1.00  0.00     0.055 A 
ATOM     18  C   UNL     1       1.077   3.835   2.871  1.00  0.00     0.024 A 
ATOM     19  C   UNL     1      -1.458   4.653   2.149  1.00  0.00     0.124 A 
ATOM     20  F   UNL     1      -2.695   5.047   1.815  1.00  0.00    -0.207 F 
ATOM     21  C   UNL     1      -0.628   5.530   2.849  1.00  0.00     0.048 A 
BRANCH  16  22
ATOM     22  C   UNL     1       0.817   1.661   1.759  1.00  0.00     0.337 C 
ATOM     23  O   UNL     1       1.702   1.103   2.397  1.00  0.00    -0.246 OA
BRANCH  22  24
ATOM     24  O   UNL     1       0.284   1.236   0.591  1.00  0.00    -0.465 OA
ATOM     25  C   UNL     1       0.902   0.051   0.087  1.00  0.00     0.282 C 
ENDBRANCH  22  24
ENDBRANCH  16  22
ENDBRANCH   9  15
ENDBRANCH   5   8
ENDBRANCH   3   4
ENDBRANCH   2   3
ENDBRANCH   1   2
BRANCH   1  26
ATOM     26  C   UNL     1       8.900  10.404   2.954  1.00  0.00     0.002 C 
BRANCH  26  27
ATOM     27  C   UNL     1       9.103   9.407   1.814  1.00  0.00     0.021 C 
BRANCH  27  28
ATOM     28  C   UNL     1       9.258  10.029   0.439  1.00  0.00     0.116 C 
BRANCH  28  29
ATOM     29  N   UNL     1      10.644  10.093   0.001  1.00  0.00    -0.352 N 
ATOM     30  C   UNL     1      11.088  10.130  -1.312  1.00  0.00     0.251 C 
ATOM     31  H   UNL     1      11.333  10.112   0.705  1.00  0.00     0.163 HD
ATOM     32  O   UNL     1      12.124   9.614  -1.705  1.00  0.00    -0.269 OA
BRANCH  30  33
ATOM     33  C   UNL     1      10.293  10.976  -2.217  1.00  0.00     0.039 A 
ATOM     34  C   UNL     1      10.816  12.236  -2.543  1.00  0.00     0.014 A 
ATOM     35  C   UNL     1       8.949  10.668  -2.387  1.00  0.00     0.014 A 
ATOM     36  C   UNL     1       9.942  13.266  -2.839  1.00  0.00     0.010 A 
ATOM     37  C   UNL     1       8.079  11.711  -2.531  1.00  0.00     0.010 A 
ATOM     38  C   UNL     1       8.584  13.002  -2.720  1.00  0.00    -0.014 A 
BRANCH  38  39
ATOM     39  C   UNL     1       7.547  13.989  -2.886  1.00  0.00     0.031 A 
ATOM     40  C   UNL     1       6.974  14.082  -4.234  1.00  0.00     0.074 A 
ATOM     41  C   UNL     1       7.053  14.545  -1.761  1.00  0.00     0.049 A 
ATOM     42  N   UNL     1       6.281  15.064  -4.672  1.00  0.00    -0.248 NA
ATOM     43  C   UNL     1       7.200  13.045  -5.247  1.00  0.00     0.031 C 
ATOM     44  C   UNL     1       5.818  15.285  -1.547  1.00  0.00     0.029 A 
ATOM     45  N   UNL     1       7.761  14.717  -0.572  1.00  0.00    -0.354 N 
ATOM     46  C   UNL     1       5.667  14.624  -5.827  1.00  0.00     0.074 A 
ATOM     47  C   UNL     1       6.383  13.442  -6.224  1.00  0.00     0.031 C 
ATOM     48  C   UNL     1       5.970  16.065  -0.458  1.00  0.00     0.029 A 
ATOM     49  C   UNL     1       7.362  15.949  -0.035  1.00  0.00     0.049 A 
ATOM     50  H   UNL     1       8.416  14.094  -0.184  1.00  0.00     0.167 HD
ATOM     51  C   UNL     1       4.485  15.198  -6.178  1.00  0.00     0.031 A 
ATOM     52  C   UNL     1       8.263  16.980  -0.057  1.00  0.00     0.031 A 
ATOM     53  C   UNL     1       4.208  16.331  -5.292  1.00  0.00     0.049 A 
ATOM     54  C   UNL     1       7.841  18.055  -1.042  1.00  0.00     0.074 A 
ATOM     55  C   UNL     1       3.421  16.450  -4.159  1.00  0.00     0.029 A 
ATOM     56  N   UNL     1       5.114  17.388  -5.259  1.00  0.00    -0.354 N 
ATOM     57  N   UNL     1       7.117  17.838  -2.111  1.00  0.00    -0.248 NA
ATOM     58  C   UNL     1       8.122  19.471  -0.832  1.00  0.00     0.031 C 
ATOM     59  C   UNL     1       3.956  17.513  -3.376  1.00  0.00     0.029 A 
ATOM     60  C   UNL     1       5.045  18.048  -4.045  1.00  0.00     0.049 A 
ATOM     61  H   UNL     1       5.718  17.632  -5.997  1.00  0.00     0.167 HD
ATOM     62  C   UNL     1       6.776  19.038  -2.682  1.00  0.00     0.074 A 
ATOM     63  C   UNL     1       7.443  20.028  -1.851  1.00  0.00     0.031 C 
ATOM     64  C   UNL     1       5.947  19.159  -3.764  1.00  0.00     0.031 A 
BRANCH  51  65
ATOM     65  C   UNL     1       3.454  14.553  -7.075  1.00  0.00    -0.014 A 
ATOM     66  C   UNL     1       2.120  15.003  -6.998  1.00  0.00     0.010 A 
ATOM     67  C   UNL     1       3.691  13.477  -7.955  1.00  0.00     0.010 A 
ATOM     68  C   UNL     1       1.082  14.397  -7.719  1.00  0.00     0.020 A 
ATOM     69  C   UNL     1       2.660  12.850  -8.675  1.00  0.00     0.020 A 
ATOM     70  C   UNL     1       1.357  13.316  -8.551  1.00  0.00     0.054 A 
BRANCH  70  71
ATOM     71  S   UNL     1       0.002  12.558  -9.481  1.00  0.00     0.124 S 
ATOM     72  O   UNL     1      -0.890  12.101  -8.418  1.00  0.00    -0.237 OA
ATOM     73  O   UNL     1      -0.490  13.676 -10.281  1.00  0.00    -0.237 OA
ATOM     74  O   UNL     1       0.654  11.493 -10.240  1.00  0.00    -0.744 OA
ENDBRANCH  70  71
ENDBRANCH  51  65
BRANCH  52  75
ATOM     75  C   UNL     1       9.666  16.523   0.233  1.00  0.00    -0.014 A 
ATOM     76  C   UNL     1       9.895  15.924   1.497  1.00  0.00     0.010 A 
ATOM     77  C   UNL     1      10.603  16.285  -0.788  1.00  0.00     0.010 A 
ATOM     78  C   UNL     1      10.916  14.984   1.684  1.00  0.00     0.020 A 
ATOM     79  C   UNL     1      11.649  15.360  -0.593  1.00  0.00     0.020 A 
ATOM     80  C   UNL     1      11.762  14.675   0.622  1.00  0.00     0.054 A 
BRANCH  80  81
ATOM     81  S   UNL     1      12.878  13.246   0.805  1.00  0.00     0.124 S 
ATOM     82  O   UNL     1      13.872  13.750   1.746  1.00  0.00    -0.237 OA
ATOM     83  O   UNL     1      11.986  12.207   1.327  1.00  0.00    -0.237 OA
ATOM     84  O   UNL     1      13.360  13.015  -0.552  1.00  0.00    -0.744 OA
ENDBRANCH  80  81
ENDBRANCH  52  75
BRANCH  64  85
ATOM     85  C   UNL     1       5.836  20.395  -4.627  1.00  0.00    -0.014 A 
ATOM     86  C   UNL     1       6.785  21.427  -4.636  1.00  0.00     0.010 A 
ATOM     87  C   UNL     1       4.800  20.476  -5.591  1.00  0.00     0.010 A 
ATOM     88  C   UNL     1       6.654  22.530  -5.485  1.00  0.00     0.020 A 
ATOM     89  C   UNL     1       4.700  21.534  -6.494  1.00  0.00     0.020 A 
ATOM     90  C   UNL     1       5.609  22.579  -6.405  1.00  0.00     0.054 A 
BRANCH  90  91
ATOM     91  S   UNL     1       5.472  24.005  -7.504  1.00  0.00     0.124 S 
ATOM     92  O   UNL     1       4.861  24.998  -6.625  1.00  0.00    -0.237 OA
ATOM     93  O   UNL     1       6.862  24.263  -7.872  1.00  0.00    -0.237 OA
ATOM     94  O   UNL     1       4.625  23.523  -8.592  1.00  0.00    -0.744 OA
ENDBRANCH  90  91
ENDBRANCH  64  85
ENDBRANCH  38  39
ENDBRANCH  30  33
ENDBRANCH  28  29
ENDBRANCH  27  28
ENDBRANCH  26  27
ENDBRANCH   1  26
TORSDOF 19
