REMARK SMILES COC(=O)c1ccc([C@H]2CC(=O)Nc3c(C(=O)NCCCCCCNC(=O)c4ccc(-c5c6nc(c(-c7ccc(S(=O)(=O)[O-])cc7)c7ccc([nH]7)c(-c7ccc(S(=O)(=O)[O-])cc7)c7nc(c(-c8ccc(S(=O)(=O)[O-])cc8)c8ccc5[nH]8)C=C7)C=C6)cc4)cn(-c4ccccc4)c32)cc1
REMARK SMILES IDX 21 1 20 2 19 3 18 4 16 5 17 6 15 8 9 9 10 10 96 11 11 12
REMARK SMILES IDX 14 13 89 14 12 15 13 16 88 17 8 19 5 20 6 21 98 22 7 23
REMARK SMILES IDX 97 24 3 25 4 26 2 27 1 28 90 29 91 30 95 31 92 32 94 33
REMARK SMILES IDX 93 34 22 35 23 36 24 37 25 38 26 39 27 41 28 42 29 43 87 44
REMARK SMILES IDX 30 45 86 46 31 47 32 48 33 49 80 50 34 51 85 52 79 53 81 54
REMARK SMILES IDX 35 55 84 56 78 57 77 58 36 60 66 61 47 62 65 63 48 64 51 65
REMARK SMILES IDX 64 66 82 67 49 68 50 69 63 71 83 72 52 73 37 74 38 75 46 76
REMARK SMILES IDX 39 77 45 78 40 79 41 80 42 81 43 82 44 83 67 84 68 85 76 86
REMARK SMILES IDX 69 87 75 88 70 89 71 90 72 91 73 92 74 93 53 94 54 95 62 96
REMARK SMILES IDX 55 97 61 98 56 99 57 100 58 101 59 102 60 103
REMARK H PARENT 18 7 13 18 25 40 81 59 51 70
REMARK Flexibility Score: inf
ROOT
ATOM      1  C   UNL     1      -7.324   7.223  -7.230  1.00  0.00     0.002 C 
ENDROOT
BRANCH   1   2
ATOM      2  C   UNL     1      -5.946   7.059  -6.588  1.00  0.00     0.021 C 
BRANCH   2   3
ATOM      3  C   UNL     1      -5.499   5.594  -6.511  1.00  0.00     0.116 C 
BRANCH   3   4
ATOM      4  N   UNL     1      -4.707   5.261  -7.660  1.00  0.00    -0.352 N 
ATOM      5  C   UNL     1      -3.362   5.213  -7.875  1.00  0.00     0.254 C 
ATOM      6  O   UNL     1      -3.037   4.831  -9.005  1.00  0.00    -0.269 OA
ATOM      7  H   UNL     1      -5.242   5.020  -8.451  1.00  0.00     0.163 HD
BRANCH   5   8
ATOM      8  C   UNL     1      -2.338   5.516  -6.866  1.00  0.00     0.081 A 
ATOM      9  C   UNL     1      -0.387   6.874  -3.961  1.00  0.00     0.078 C 
ATOM     10  C   UNL     1      -1.462   7.746  -3.296  1.00  0.00     0.115 C 
ATOM     11  C   UNL     1      -0.928   6.139  -5.167  1.00  0.00     0.055 A 
ATOM     12  C   UNL     1      -2.884   7.370  -3.593  1.00  0.00     0.225 C 
ATOM     13  C   UNL     1      -2.237   6.191  -5.607  1.00  0.00     0.076 A 
ATOM     14  N   UNL     1      -0.206   5.378  -6.068  1.00  0.00    -0.317 N 
ATOM     15  O   UNL     1      -3.809   7.635  -2.824  1.00  0.00    -0.275 OA
ATOM     16  N   UNL     1      -3.156   6.836  -4.817  1.00  0.00    -0.324 N 
ATOM     17  C   UNL     1      -1.036   5.094  -7.122  1.00  0.00     0.107 A 
ATOM     18  H   UNL     1      -4.075   6.919  -5.159  1.00  0.00     0.170 HD
BRANCH   9  19
ATOM     19  C   UNL     1       0.821   7.779  -4.213  1.00  0.00    -0.038 A 
ATOM     20  C   UNL     1       3.108   9.383  -4.603  1.00  0.00     0.060 A 
ATOM     21  C   UNL     1       2.702   9.038  -3.310  1.00  0.00     0.016 A 
ATOM     22  C   UNL     1       2.334   8.984  -5.694  1.00  0.00     0.016 A 
ATOM     23  C   UNL     1       1.575   8.234  -3.118  1.00  0.00     0.005 A 
ATOM     24  C   UNL     1       1.181   8.226  -5.494  1.00  0.00     0.005 A 
BRANCH  20  25
ATOM     25  C   UNL     1       4.368  10.153  -4.771  1.00  0.00     0.337 C 
ATOM     26  O   UNL     1       5.187  10.308  -3.888  1.00  0.00    -0.246 OA
BRANCH  25  27
ATOM     27  O   UNL     1       4.457  10.612  -6.044  1.00  0.00    -0.465 OA
ATOM     28  C   UNL     1       5.563  11.475  -6.291  1.00  0.00     0.282 C 
ENDBRANCH  25  27
ENDBRANCH  20  25
ENDBRANCH   9  19
BRANCH  14  29
ATOM     29  C   UNL     1       1.173   5.062  -6.032  1.00  0.00     0.045 A 
ATOM     30  C   UNL     1       1.768   4.621  -4.848  1.00  0.00     0.026 A 
ATOM     31  C   UNL     1       1.954   5.335  -7.164  1.00  0.00     0.026 A 
ATOM     32  C   UNL     1       3.156   4.521  -4.774  1.00  0.00     0.002 A 
ATOM     33  C   UNL     1       3.343   5.268  -7.069  1.00  0.00     0.002 A 
ATOM     34  C   UNL     1       3.942   4.872  -5.873  1.00  0.00     0.000 A 
ENDBRANCH  14  29
ENDBRANCH   5   8
ENDBRANCH   3   4
ENDBRANCH   2   3
ENDBRANCH   1   2
BRANCH   1  35
ATOM     35  C   UNL     1      -8.456   6.468  -6.510  1.00  0.00     0.002 C 
BRANCH  35  36
ATOM     36  C   UNL     1      -8.588   6.730  -5.000  1.00  0.00     0.021 C 
BRANCH  36  37
ATOM     37  C   UNL     1      -9.146   8.109  -4.702  1.00  0.00     0.116 C 
BRANCH  37  38
ATOM     38  N   UNL     1     -10.533   8.249  -5.179  1.00  0.00    -0.352 N 
ATOM     39  C   UNL     1     -11.378   9.346  -5.133  1.00  0.00     0.251 C 
ATOM     40  H   UNL     1     -10.916   7.442  -5.593  1.00  0.00     0.163 HD
ATOM     41  O   UNL     1     -12.589   9.211  -5.256  1.00  0.00    -0.269 OA
BRANCH  39  42
ATOM     42  C   UNL     1     -10.779  10.676  -4.951  1.00  0.00     0.039 A 
ATOM     43  C   UNL     1     -11.367  11.714  -4.224  1.00  0.00     0.014 A 
ATOM     44  C   UNL     1      -9.523  10.836  -5.505  1.00  0.00     0.014 A 
ATOM     45  C   UNL     1     -10.643  12.898  -4.080  1.00  0.00     0.010 A 
ATOM     46  C   UNL     1      -8.701  11.777  -4.987  1.00  0.00     0.010 A 
ATOM     47  C   UNL     1      -9.306  12.912  -4.497  1.00  0.00    -0.014 A 
BRANCH  47  48
ATOM     48  C   UNL     1      -8.432  14.067  -4.446  1.00  0.00     0.031 A 
ATOM     49  C   UNL     1      -8.157  14.541  -3.077  1.00  0.00     0.074 A 
ATOM     50  C   UNL     1      -7.702  14.453  -5.521  1.00  0.00     0.049 A 
ATOM     51  N   UNL     1      -8.619  15.603  -2.512  1.00  0.00    -0.248 NA
ATOM     52  C   UNL     1      -7.437  13.637  -2.164  1.00  0.00     0.031 C 
ATOM     53  C   UNL     1      -7.593  13.829  -6.853  1.00  0.00     0.029 A 
ATOM     54  N   UNL     1      -6.781  15.443  -5.600  1.00  0.00    -0.354 N 
ATOM     55  C   UNL     1      -8.049  15.627  -1.247  1.00  0.00     0.074 A 
ATOM     56  C   UNL     1      -7.538  14.300  -1.012  1.00  0.00     0.031 C 
ATOM     57  C   UNL     1      -6.501  14.307  -7.495  1.00  0.00     0.029 A 
ATOM     58  C   UNL     1      -5.939  15.386  -6.705  1.00  0.00     0.049 A 
ATOM     59  H   UNL     1      -6.713  16.153  -4.922  1.00  0.00     0.167 HD
ATOM     60  C   UNL     1      -7.793  16.803  -0.609  1.00  0.00     0.031 A 
ATOM     61  C   UNL     1      -4.840  16.156  -6.922  1.00  0.00     0.031 A 
ATOM     62  C   UNL     1      -8.413  17.916  -1.285  1.00  0.00     0.049 A 
ATOM     63  C   UNL     1      -4.990  17.351  -6.048  1.00  0.00     0.074 A 
ATOM     64  C   UNL     1      -9.715  18.251  -1.604  1.00  0.00     0.029 A 
ATOM     65  N   UNL     1      -7.616  18.648  -2.139  1.00  0.00    -0.354 N 
ATOM     66  N   UNL     1      -5.959  18.216  -6.188  1.00  0.00    -0.248 NA
ATOM     67  C   UNL     1      -4.395  17.297  -4.720  1.00  0.00     0.031 C 
ATOM     68  C   UNL     1      -9.643  18.763  -2.934  1.00  0.00     0.029 A 
ATOM     69  C   UNL     1      -8.301  18.796  -3.320  1.00  0.00     0.049 A 
ATOM     70  H   UNL     1      -6.719  19.000  -1.938  1.00  0.00     0.167 HD
ATOM     71  C   UNL     1      -6.383  18.497  -4.895  1.00  0.00     0.074 A 
ATOM     72  C   UNL     1      -5.328  17.963  -4.030  1.00  0.00     0.031 C 
ATOM     73  C   UNL     1      -7.673  18.865  -4.627  1.00  0.00     0.031 A 
BRANCH  60  74
ATOM     74  C   UNL     1      -6.662  16.994   0.367  1.00  0.00    -0.014 A 
ATOM     75  C   UNL     1      -6.562  18.219   1.053  1.00  0.00     0.010 A 
ATOM     76  C   UNL     1      -5.553  16.124   0.440  1.00  0.00     0.010 A 
ATOM     77  C   UNL     1      -5.386  18.581   1.721  1.00  0.00     0.020 A 
ATOM     78  C   UNL     1      -4.393  16.456   1.140  1.00  0.00     0.020 A 
ATOM     79  C   UNL     1      -4.304  17.700   1.747  1.00  0.00     0.054 A 
BRANCH  79  80
ATOM     80  S   UNL     1      -2.753  18.226   2.513  1.00  0.00     0.124 S 
ATOM     81  O   UNL     1      -2.341  19.318   1.637  1.00  0.00    -0.237 OA
ATOM     82  O   UNL     1      -3.187  18.614   3.852  1.00  0.00    -0.237 OA
ATOM     83  O   UNL     1      -1.919  17.027   2.455  1.00  0.00    -0.744 OA
ENDBRANCH  79  80
ENDBRANCH  60  74
BRANCH  61  84
ATOM     84  C   UNL     1      -3.536  15.727  -7.503  1.00  0.00    -0.014 A 
ATOM     85  C   UNL     1      -2.557  16.657  -7.903  1.00  0.00     0.010 A 
ATOM     86  C   UNL     1      -3.140  14.376  -7.402  1.00  0.00     0.010 A 
ATOM     87  C   UNL     1      -1.225  16.259  -8.140  1.00  0.00     0.020 A 
ATOM     88  C   UNL     1      -1.819  13.972  -7.636  1.00  0.00     0.020 A 
ATOM     89  C   UNL     1      -0.859  14.918  -7.984  1.00  0.00     0.054 A 
BRANCH  89  90
ATOM     90  S   UNL     1       0.890  14.432  -8.123  1.00  0.00     0.124 S 
ATOM     91  O   UNL     1       1.152  14.606  -9.549  1.00  0.00    -0.237 OA
ATOM     92  O   UNL     1       1.558  15.383  -7.238  1.00  0.00    -0.237 OA
ATOM     93  O   UNL     1       0.902  13.046  -7.658  1.00  0.00    -0.744 OA
ENDBRANCH  89  90
ENDBRANCH  61  84
BRANCH  73  94
ATOM     94  C   UNL     1      -8.597  19.158  -5.795  1.00  0.00    -0.014 A 
ATOM     95  C   UNL     1      -8.998  18.192  -6.743  1.00  0.00     0.010 A 
ATOM     96  C   UNL     1      -9.221  20.416  -5.829  1.00  0.00     0.010 A 
ATOM     97  C   UNL     1      -9.980  18.487  -7.706  1.00  0.00     0.020 A 
ATOM     98  C   UNL     1     -10.208  20.712  -6.774  1.00  0.00     0.020 A 
ATOM     99  C   UNL     1     -10.579  19.750  -7.714  1.00  0.00     0.054 A 
BRANCH  99 100
ATOM    100  S   UNL     1     -11.877  20.121  -8.930  1.00  0.00     0.124 S 
ATOM    101  O   UNL     1     -11.138  20.137 -10.189  1.00  0.00    -0.237 OA
ATOM    102  O   UNL     1     -12.810  19.010  -8.762  1.00  0.00    -0.237 OA
ATOM    103  O   UNL     1     -12.393  21.421  -8.502  1.00  0.00    -0.744 OA
ENDBRANCH  99 100
ENDBRANCH  73  94
ENDBRANCH  47  48
ENDBRANCH  39  42
ENDBRANCH  37  38
ENDBRANCH  36  37
ENDBRANCH  35  36
ENDBRANCH   1  35
TORSDOF 20
