REMARK SMILES Cc1csc(NC(=O)[C@@H]2CC=CC[C@H]2C(=O)NCCCCCCNC(=O)c2ccc(-c3c4nc(c(-c5ccc(S(=O)(=O)[O-])cc5)c5ccc([nH]5)c(-c5ccc(S(=O)(=O)[O-])cc5)c5nc(c(-c6ccc(S(=O)(=O)[O-])cc6)c6ccc3[nH]6)C=C5)C=C4)cc2)n1
REMARK SMILES IDX 21 1 20 2 19 3 18 4 17 5 15 6 16 7 14 9 9 10 10 11 11 12
REMARK SMILES IDX 13 13 12 14 7 15 6 16 8 18 5 19 1 20 2 21 3 22 87 23 4 24
REMARK SMILES IDX 22 25 23 26 24 27 25 28 26 30 27 31 28 32 86 33 29 34 85 35
REMARK SMILES IDX 30 36 31 37 32 38 79 39 33 40 84 41 78 42 80 43 34 44 83 45
REMARK SMILES IDX 77 46 76 47 35 49 65 50 46 51 64 52 47 53 50 54 63 55 81 56
REMARK SMILES IDX 48 57 49 58 62 60 82 61 51 62 36 63 37 64 45 65 38 66 44 67
REMARK SMILES IDX 39 68 40 69 41 70 42 71 43 72 66 73 67 74 75 75 68 76 74 77
REMARK SMILES IDX 69 78 70 79 71 80 72 81 73 82 52 83 53 84 61 85 54 86 60 87
REMARK SMILES IDX 55 88 56 89 57 90 58 91 59 92
REMARK H PARENT 17 8 6 17 24 29 80 48 50 59
REMARK Flexibility Score: inf
ROOT
ATOM      1  C   UNL     1       4.235   0.892  -1.518  1.00  0.00     0.002 C 
ENDROOT
BRANCH   1   2
ATOM      2  C   UNL     1       3.292   0.939  -0.310  1.00  0.00     0.002 C 
BRANCH   2   3
ATOM      3  C   UNL     1       2.477   2.233  -0.191  1.00  0.00     0.021 C 
BRANCH   3   4
ATOM      4  C   UNL     1       1.627   2.515  -1.426  1.00  0.00     0.116 C 
BRANCH   4   5
ATOM      5  N   UNL     1       0.536   1.562  -1.513  1.00  0.00    -0.356 N 
ATOM      6  C   UNL     1      -0.811   1.748  -1.486  1.00  0.00     0.224 C 
ATOM      7  O   UNL     1      -1.530   0.759  -1.653  1.00  0.00    -0.275 OA
ATOM      8  H   UNL     1       0.819   0.624  -1.608  1.00  0.00     0.163 HD
BRANCH   6   9
ATOM      9  C   UNL     1      -1.412   3.148  -1.410  1.00  0.00     0.095 C 
ATOM     10  C   UNL     1      -1.040   3.961  -0.128  1.00  0.00     0.095 C 
ATOM     11  C   UNL     1      -1.271   5.451  -0.369  1.00  0.00     0.041 C 
ATOM     12  C   UNL     1      -0.954   6.011  -1.714  1.00  0.00    -0.030 C 
ATOM     13  C   UNL     1      -1.122   3.793  -2.790  1.00  0.00     0.041 C 
ATOM     14  C   UNL     1      -0.891   5.261  -2.811  1.00  0.00    -0.030 C 
BRANCH  10  15
ATOM     15  C   UNL     1      -1.709   3.298   1.114  1.00  0.00     0.230 C 
ATOM     16  N   UNL     1      -2.205   3.874   2.236  1.00  0.00    -0.302 N 
ATOM     17  H   UNL     1      -2.491   3.232   2.925  1.00  0.00     0.172 HD
ATOM     18  O   UNL     1      -1.747   2.056   1.159  1.00  0.00    -0.274 OA
BRANCH  16  19
ATOM     19  C   UNL     1      -2.380   5.175   2.582  1.00  0.00     0.189 A 
ATOM     20  C   UNL     1      -2.466   8.602   1.642  1.00  0.00     0.068 C 
ATOM     21  C   UNL     1      -2.623   7.361   2.439  1.00  0.00     0.051 A 
ATOM     22  C   UNL     1      -3.391   7.133   3.563  1.00  0.00     0.092 A 
ATOM     23  N   UNL     1      -1.971   6.245   1.975  1.00  0.00    -0.225 NA
ATOM     24  S   UNL     1      -3.345   5.454   3.963  1.00  0.00    -0.105 S 
ENDBRANCH  16  19
ENDBRANCH  10  15
ENDBRANCH   6   9
ENDBRANCH   4   5
ENDBRANCH   3   4
ENDBRANCH   2   3
ENDBRANCH   1   2
BRANCH   1  25
ATOM     25  C   UNL     1       5.207   2.071  -1.612  1.00  0.00     0.021 C 
BRANCH  25  26
ATOM     26  C   UNL     1       6.110   2.228  -0.394  1.00  0.00     0.116 C 
BRANCH  26  27
ATOM     27  N   UNL     1       6.958   1.063  -0.200  1.00  0.00    -0.352 N 
ATOM     28  C   UNL     1       8.324   0.995  -0.093  1.00  0.00     0.251 C 
ATOM     29  H   UNL     1       6.485   0.201  -0.137  1.00  0.00     0.163 HD
ATOM     30  O   UNL     1       8.895  -0.086  -0.162  1.00  0.00    -0.269 OA
BRANCH  28  31
ATOM     31  C   UNL     1       9.098   2.240   0.093  1.00  0.00     0.039 A 
ATOM     32  C   UNL     1      10.260   2.434  -0.656  1.00  0.00     0.014 A 
ATOM     33  C   UNL     1       8.674   3.212   1.004  1.00  0.00     0.014 A 
ATOM     34  C   UNL     1      10.971   3.628  -0.527  1.00  0.00     0.010 A 
ATOM     35  C   UNL     1       9.337   4.432   1.072  1.00  0.00     0.010 A 
ATOM     36  C   UNL     1      10.498   4.649   0.316  1.00  0.00    -0.014 A 
BRANCH  36  37
ATOM     37  C   UNL     1      11.209   5.947   0.423  1.00  0.00     0.031 A 
ATOM     38  C   UNL     1      11.812   6.373   1.734  1.00  0.00     0.074 A 
ATOM     39  C   UNL     1      11.260   6.769  -0.644  1.00  0.00     0.049 A 
ATOM     40  N   UNL     1      12.432   7.485   2.034  1.00  0.00    -0.248 NA
ATOM     41  C   UNL     1      11.678   5.437   2.863  1.00  0.00     0.031 C 
ATOM     42  C   UNL     1      10.681   6.486  -1.960  1.00  0.00     0.029 A 
ATOM     43  N   UNL     1      11.823   8.011  -0.790  1.00  0.00    -0.354 N 
ATOM     44  C   UNL     1      12.747   7.390   3.385  1.00  0.00     0.074 A 
ATOM     45  C   UNL     1      12.200   6.138   3.858  1.00  0.00     0.031 C 
ATOM     46  C   UNL     1      10.949   7.508  -2.787  1.00  0.00     0.029 A 
ATOM     47  C   UNL     1      11.677   8.538  -2.052  1.00  0.00     0.049 A 
ATOM     48  H   UNL     1      12.289   8.481  -0.061  1.00  0.00     0.167 HD
ATOM     49  C   UNL     1      13.446   8.257   4.157  1.00  0.00     0.031 A 
ATOM     50  C   UNL     1      12.077   9.720  -2.560  1.00  0.00     0.031 A 
ATOM     51  C   UNL     1      13.987   9.502   3.679  1.00  0.00     0.049 A 
ATOM     52  C   UNL     1      12.831  10.678  -1.679  1.00  0.00     0.074 A 
ATOM     53  C   UNL     1      14.755  10.426   4.365  1.00  0.00     0.029 A 
ATOM     54  N   UNL     1      13.812  10.001   2.397  1.00  0.00    -0.354 N 
ATOM     55  N   UNL     1      13.179  10.541  -0.421  1.00  0.00    -0.248 NA
ATOM     56  C   UNL     1      13.256  11.944  -2.289  1.00  0.00     0.031 C 
ATOM     57  C   UNL     1      14.991  11.513   3.518  1.00  0.00     0.029 A 
ATOM     58  C   UNL     1      14.430  11.235   2.280  1.00  0.00     0.049 A 
ATOM     59  H   UNL     1      13.321   9.546   1.675  1.00  0.00     0.167 HD
ATOM     60  C   UNL     1      13.889  11.692  -0.098  1.00  0.00     0.074 A 
ATOM     61  C   UNL     1      13.932  12.506  -1.296  1.00  0.00     0.031 C 
ATOM     62  C   UNL     1      14.458  12.040   1.083  1.00  0.00     0.031 A 
BRANCH  49  63
ATOM     63  C   UNL     1      13.643   7.890   5.606  1.00  0.00    -0.014 A 
ATOM     64  C   UNL     1      14.449   6.798   5.981  1.00  0.00     0.010 A 
ATOM     65  C   UNL     1      13.028   8.659   6.611  1.00  0.00     0.010 A 
ATOM     66  C   UNL     1      14.587   6.447   7.326  1.00  0.00     0.020 A 
ATOM     67  C   UNL     1      13.192   8.332   7.960  1.00  0.00     0.020 A 
ATOM     68  C   UNL     1      13.952   7.214   8.308  1.00  0.00     0.054 A 
BRANCH  68  69
ATOM     69  S   UNL     1      14.148   6.735  10.046  1.00  0.00     0.124 S 
ATOM     70  O   UNL     1      13.333   5.525  10.118  1.00  0.00    -0.237 OA
ATOM     71  O   UNL     1      15.589   6.529  10.161  1.00  0.00    -0.237 OA
ATOM     72  O   UNL     1      13.625   7.882  10.784  1.00  0.00    -0.744 OA
ENDBRANCH  68  69
ENDBRANCH  49  63
BRANCH  50  73
ATOM     73  C   UNL     1      11.791  10.046  -3.984  1.00  0.00    -0.014 A 
ATOM     74  C   UNL     1      12.830  10.083  -4.930  1.00  0.00     0.010 A 
ATOM     75  C   UNL     1      10.471  10.289  -4.409  1.00  0.00     0.010 A 
ATOM     76  C   UNL     1      12.557  10.365  -6.272  1.00  0.00     0.020 A 
ATOM     77  C   UNL     1      10.191  10.543  -5.754  1.00  0.00     0.020 A 
ATOM     78  C   UNL     1      11.238  10.587  -6.676  1.00  0.00     0.054 A 
BRANCH  78  79
ATOM     79  S   UNL     1      10.901  10.883  -8.435  1.00  0.00     0.124 S 
ATOM     80  O   UNL     1      11.442  12.224  -8.627  1.00  0.00    -0.237 OA
ATOM     81  O   UNL     1      11.641   9.802  -9.082  1.00  0.00    -0.237 OA
ATOM     82  O   UNL     1       9.447  10.774  -8.527  1.00  0.00    -0.744 OA
ENDBRANCH  78  79
ENDBRANCH  50  73
BRANCH  62  83
ATOM     83  C   UNL     1      15.206  13.347   1.135  1.00  0.00    -0.014 A 
ATOM     84  C   UNL     1      14.530  14.579   1.093  1.00  0.00     0.010 A 
ATOM     85  C   UNL     1      16.605  13.337   1.286  1.00  0.00     0.010 A 
ATOM     86  C   UNL     1      15.244  15.778   1.169  1.00  0.00     0.020 A 
ATOM     87  C   UNL     1      17.319  14.533   1.394  1.00  0.00     0.020 A 
ATOM     88  C   UNL     1      16.634  15.747   1.321  1.00  0.00     0.054 A 
BRANCH  88  89
ATOM     89  S   UNL     1      17.531  17.317   1.463  1.00  0.00     0.124 S 
ATOM     90  O   UNL     1      17.458  17.834   0.100  1.00  0.00    -0.237 OA
ATOM     91  O   UNL     1      16.744  18.046   2.455  1.00  0.00    -0.237 OA
ATOM     92  O   UNL     1      18.864  16.917   1.907  1.00  0.00    -0.744 OA
ENDBRANCH  88  89
ENDBRANCH  62  83
ENDBRANCH  36  37
ENDBRANCH  28  31
ENDBRANCH  26  27
ENDBRANCH  25  26
ENDBRANCH   1  25
TORSDOF 18
