REMARK SMILES C[C@@H]1[C@H](C(=O)NCCCCCCNC(=O)c2ccc(-c3c4nc(c(-c5ccc(S(=O)(=O)[O-])cc5)c5ccc([nH]5)c(-c5ccc(S(=O)(=O)[O-])cc5)c5nc(c(-c6ccc(S(=O)(=O)[O-])cc6)c6ccc3[nH]6)C=C5)C=C4)cc2)CCN1C(=O)c1c(Cl)cccc1[N+](=O)[O-]
REMARK SMILES IDX 9 1 8 2 7 3 6 4 4 5 5 6 3 8 1 9 2 10 78 11 76 12 77 13 79 14
REMARK SMILES IDX 80 15 81 16 82 17 87 18 83 19 84 20 86 21 85 22 88 23 89 24
REMARK SMILES IDX 90 25 10 26 11 27 12 28 13 29 14 30 15 32 16 33 17 34 75 35
REMARK SMILES IDX 18 36 74 37 19 38 20 39 21 40 68 41 22 42 73 43 67 44 69 45
REMARK SMILES IDX 23 46 72 47 66 48 65 49 24 51 54 52 35 53 53 54 36 55 39 56
REMARK SMILES IDX 52 57 70 58 37 59 38 60 51 62 71 63 40 64 25 65 26 66 34 67
REMARK SMILES IDX 27 68 33 69 28 70 29 71 30 72 31 73 32 74 55 75 56 76 64 77
REMARK SMILES IDX 57 78 63 79 58 80 59 81 60 82 61 83 62 84 41 85 42 86 50 87
REMARK SMILES IDX 43 88 49 89 44 90 45 91 46 92 47 93 48 94
REMARK H PARENT 6 7 13 31 69 50 39 61
REMARK Flexibility Score: inf
ROOT
ATOM      1  C   UNL     1       3.475   2.737   3.084  1.00  0.00     0.002 C 
ENDROOT
BRANCH   1   2
ATOM      2  C   UNL     1       2.820   1.518   2.429  1.00  0.00     0.021 C 
BRANCH   2   3
ATOM      3  C   UNL     1       1.344   1.680   2.064  1.00  0.00     0.116 C 
BRANCH   3   4
ATOM      4  N   UNL     1       1.166   2.590   0.943  1.00  0.00    -0.356 N 
ATOM      5  C   UNL     1       0.562   2.440  -0.263  1.00  0.00     0.225 C 
ATOM      6  O   UNL     1       0.641   3.389  -1.050  1.00  0.00    -0.275 OA
ATOM      7  H   UNL     1       1.557   3.482   1.086  1.00  0.00     0.163 HD
BRANCH   5   8
ATOM      8  C   UNL     1      -0.181   1.181  -0.688  1.00  0.00     0.102 C 
ATOM      9  C   UNL     1       2.133  -0.016  -0.741  1.00  0.00     0.032 C 
ATOM     10  C   UNL     1       0.640  -0.088  -1.018  1.00  0.00     0.094 C 
ATOM     11  N   UNL     1      -0.089  -1.186  -0.354  1.00  0.00    -0.335 N 
ATOM     12  C   UNL     1      -1.295   0.756   0.270  1.00  0.00     0.037 C 
ATOM     13  C   UNL     1      -1.397  -0.742   0.093  1.00  0.00     0.121 C 
BRANCH  11  14
ATOM     14  C   UNL     1       0.115  -2.557  -0.408  1.00  0.00     0.262 C 
ATOM     15  O   UNL     1      -0.730  -3.385  -0.076  1.00  0.00    -0.269 OA
BRANCH  14  16
ATOM     16  C   UNL     1       1.392  -3.095  -0.882  1.00  0.00     0.136 A 
ATOM     17  C   UNL     1       1.512  -3.515  -2.211  1.00  0.00     0.060 A 
ATOM     18  C   UNL     1       2.475  -3.275  -0.013  1.00  0.00     0.283 A 
ATOM     19  Cl  UNL     1       0.229  -3.348  -3.357  1.00  0.00    -0.083 Cl
ATOM     20  C   UNL     1       2.714  -4.074  -2.666  1.00  0.00     0.022 A 
ATOM     21  C   UNL     1       3.686  -3.820  -0.470  1.00  0.00     0.086 A 
ATOM     22  C   UNL     1       3.800  -4.220  -1.800  1.00  0.00     0.009 A 
BRANCH  18  23
ATOM     23  N   UNL     1       2.414  -2.837   1.375  1.00  0.00     0.063 N 
ATOM     24  O   UNL     1       3.385  -2.188   1.792  1.00  0.00    -0.258 OA
ATOM     25  O   UNL     1       1.423  -3.136   2.044  1.00  0.00    -0.258 OA
ENDBRANCH  18  23
ENDBRANCH  14  16
ENDBRANCH  11  14
ENDBRANCH   5   8
ENDBRANCH   3   4
ENDBRANCH   2   3
ENDBRANCH   1   2
BRANCH   1  26
ATOM     26  C   UNL     1       2.900   3.152   4.440  1.00  0.00     0.002 C 
BRANCH  26  27
ATOM     27  C   UNL     1       2.801   2.043   5.490  1.00  0.00     0.021 C 
BRANCH  27  28
ATOM     28  C   UNL     1       4.086   1.261   5.754  1.00  0.00     0.116 C 
BRANCH  28  29
ATOM     29  N   UNL     1       5.166   2.107   6.231  1.00  0.00    -0.352 N 
ATOM     30  C   UNL     1       5.939   1.994   7.359  1.00  0.00     0.251 C 
ATOM     31  H   UNL     1       5.374   2.880   5.657  1.00  0.00     0.163 HD
ATOM     32  O   UNL     1       6.697   2.909   7.667  1.00  0.00    -0.269 OA
BRANCH  30  33
ATOM     33  C   UNL     1       5.853   0.789   8.216  1.00  0.00     0.039 A 
ATOM     34  C   UNL     1       5.828   0.957   9.603  1.00  0.00     0.014 A 
ATOM     35  C   UNL     1       5.841  -0.498   7.669  1.00  0.00     0.014 A 
ATOM     36  C   UNL     1       5.746  -0.160  10.439  1.00  0.00     0.010 A 
ATOM     37  C   UNL     1       5.699  -1.609   8.502  1.00  0.00     0.010 A 
ATOM     38  C   UNL     1       5.661  -1.452   9.896  1.00  0.00    -0.014 A 
BRANCH  38  39
ATOM     39  C   UNL     1       5.547  -2.642  10.778  1.00  0.00     0.031 A 
ATOM     40  C   UNL     1       6.666  -3.647  10.847  1.00  0.00     0.074 A 
ATOM     41  C   UNL     1       4.422  -2.838  11.493  1.00  0.00     0.049 A 
ATOM     42  N   UNL     1       6.744  -4.747  11.552  1.00  0.00    -0.248 NA
ATOM     43  C   UNL     1       7.844  -3.392  10.002  1.00  0.00     0.031 C 
ATOM     44  C   UNL     1       3.249  -1.960  11.485  1.00  0.00     0.029 A 
ATOM     45  N   UNL     1       4.080  -3.840  12.368  1.00  0.00    -0.354 N 
ATOM     46  C   UNL     1       7.967  -5.322  11.226  1.00  0.00     0.074 A 
ATOM     47  C   UNL     1       8.579  -4.472  10.227  1.00  0.00     0.031 C 
ATOM     48  C   UNL     1       2.329  -2.448  12.333  1.00  0.00     0.029 A 
ATOM     49  C   UNL     1       2.832  -3.685  12.923  1.00  0.00     0.049 A 
ATOM     50  H   UNL     1       4.673  -4.597  12.577  1.00  0.00     0.167 HD
ATOM     51  C   UNL     1       8.540  -6.444  11.725  1.00  0.00     0.031 A 
ATOM     52  C   UNL     1       2.166  -4.451  13.809  1.00  0.00     0.031 A 
ATOM     53  C   UNL     1       7.938  -7.282  12.727  1.00  0.00     0.049 A 
ATOM     54  C   UNL     1       2.823  -5.690  14.351  1.00  0.00     0.074 A 
ATOM     55  C   UNL     1       8.463  -8.409  13.336  1.00  0.00     0.029 A 
ATOM     56  N   UNL     1       6.676  -7.087  13.269  1.00  0.00    -0.354 N 
ATOM     57  N   UNL     1       4.009  -6.180  14.078  1.00  0.00    -0.248 NA
ATOM     58  C   UNL     1       2.057  -6.473  15.331  1.00  0.00     0.031 C 
ATOM     59  C   UNL     1       7.501  -8.919  14.216  1.00  0.00     0.029 A 
ATOM     60  C   UNL     1       6.397  -8.083  14.189  1.00  0.00     0.049 A 
ATOM     61  H   UNL     1       6.069  -6.349  13.033  1.00  0.00     0.167 HD
ATOM     62  C   UNL     1       4.139  -7.317  14.868  1.00  0.00     0.074 A 
ATOM     63  C   UNL     1       2.919  -7.432  15.641  1.00  0.00     0.031 C 
ATOM     64  C   UNL     1       5.176  -8.187  14.947  1.00  0.00     0.031 A 
BRANCH  51  65
ATOM     65  C   UNL     1       9.893  -6.829  11.187  1.00  0.00    -0.014 A 
ATOM     66  C   UNL     1      11.041  -6.086  11.515  1.00  0.00     0.010 A 
ATOM     67  C   UNL     1      10.024  -7.967  10.371  1.00  0.00     0.010 A 
ATOM     68  C   UNL     1      12.289  -6.446  10.999  1.00  0.00     0.020 A 
ATOM     69  C   UNL     1      11.275  -8.346   9.873  1.00  0.00     0.020 A 
ATOM     70  C   UNL     1      12.397  -7.571  10.176  1.00  0.00     0.054 A 
BRANCH  70  71
ATOM     71  S   UNL     1      14.030  -8.024   9.529  1.00  0.00     0.124 S 
ATOM     72  O   UNL     1      14.227  -7.023   8.484  1.00  0.00    -0.237 OA
ATOM     73  O   UNL     1      14.891  -7.886  10.701  1.00  0.00    -0.237 OA
ATOM     74  O   UNL     1      13.846  -9.393   9.053  1.00  0.00    -0.744 OA
ENDBRANCH  70  71
ENDBRANCH  51  65
BRANCH  52  75
ATOM     75  C   UNL     1       0.805  -4.052  14.258  1.00  0.00    -0.014 A 
ATOM     76  C   UNL     1       0.601  -3.552  15.556  1.00  0.00     0.010 A 
ATOM     77  C   UNL     1      -0.293  -4.158  13.385  1.00  0.00     0.010 A 
ATOM     78  C   UNL     1      -0.678  -3.179  15.979  1.00  0.00     0.020 A 
ATOM     79  C   UNL     1      -1.569  -3.763  13.796  1.00  0.00     0.020 A 
ATOM     80  C   UNL     1      -1.756  -3.287  15.095  1.00  0.00     0.054 A 
BRANCH  80  81
ATOM     81  S   UNL     1      -3.398  -2.746  15.645  1.00  0.00     0.124 S 
ATOM     82  O   UNL     1      -3.809  -3.851  16.505  1.00  0.00    -0.237 OA
ATOM     83  O   UNL     1      -3.106  -1.487  16.327  1.00  0.00    -0.237 OA
ATOM     84  O   UNL     1      -4.147  -2.609  14.397  1.00  0.00    -0.744 OA
ENDBRANCH  80  81
ENDBRANCH  52  75
BRANCH  64  85
ATOM     85  C   UNL     1       5.045  -9.329  15.917  1.00  0.00    -0.014 A 
ATOM     86  C   UNL     1       4.197 -10.418  15.647  1.00  0.00     0.010 A 
ATOM     87  C   UNL     1       5.816  -9.334  17.094  1.00  0.00     0.010 A 
ATOM     88  C   UNL     1       4.099 -11.477  16.553  1.00  0.00     0.020 A 
ATOM     89  C   UNL     1       5.739 -10.403  17.990  1.00  0.00     0.020 A 
ATOM     90  C   UNL     1       4.869 -11.462  17.720  1.00  0.00     0.054 A 
BRANCH  90  91
ATOM     91  S   UNL     1       4.755 -12.867  18.862  1.00  0.00     0.124 S 
ATOM     92  O   UNL     1       3.480 -12.614  19.528  1.00  0.00    -0.237 OA
ATOM     93  O   UNL     1       4.777 -14.017  17.962  1.00  0.00    -0.237 OA
ATOM     94  O   UNL     1       5.939 -12.722  19.706  1.00  0.00    -0.744 OA
ENDBRANCH  90  91
ENDBRANCH  64  85
ENDBRANCH  38  39
ENDBRANCH  30  33
ENDBRANCH  28  29
ENDBRANCH  27  28
ENDBRANCH  26  27
ENDBRANCH   1  26
TORSDOF 19
