REMARK SMILES C[NH+](C)Cc1noc(C[C@@](C)(C(=O)NCCCCCCNC(=O)c2ccc(-c3c4nc(c(-c5ccc(S(=O)(=O)[O-])cc5)c5ccc([nH]5)c(-c5ccc(S(=O)(=O)[O-])cc5)c5nc(c(-c6ccc(S(=O)(=O)[O-])cc6)c6ccc3[nH]6)C=C5)C=C4)cc2)c2ccccc2)n1
REMARK SMILES IDX 17 1 16 2 15 3 14 4 12 5 13 6 10 8 11 9 9 10 8 11 5 12 6 13
REMARK SMILES IDX 90 14 7 15 4 16 2 17 1 18 3 19 84 21 85 22 89 23 86 24 88 25
REMARK SMILES IDX 87 26 18 27 19 28 20 29 21 30 22 31 23 33 24 34 25 35 83 36
REMARK SMILES IDX 26 37 82 38 27 39 28 40 29 41 76 42 30 43 81 44 75 45 77 46
REMARK SMILES IDX 31 47 80 48 74 49 73 50 32 52 62 53 43 54 61 55 44 56 47 57
REMARK SMILES IDX 60 58 78 59 45 60 46 61 59 63 79 64 48 65 33 66 34 67 42 68
REMARK SMILES IDX 35 69 41 70 36 71 37 72 38 73 39 74 40 75 63 76 64 77 72 78
REMARK SMILES IDX 65 79 71 80 66 81 67 82 68 83 69 84 70 85 49 86 50 87 58 88
REMARK SMILES IDX 51 89 57 90 52 91 53 92 54 93 55 94 56 95
REMARK H PARENT 14 7 2 20 21 32 77 51 47 62
REMARK Flexibility Score: inf
ROOT
ATOM      1  C   UNL     1      -4.115   7.283  -5.829  1.00  0.00     0.002 C 
ENDROOT
BRANCH   1   2
ATOM      2  C   UNL     1      -3.013   6.333  -5.351  1.00  0.00     0.021 C 
BRANCH   2   3
ATOM      3  C   UNL     1      -2.446   6.698  -3.980  1.00  0.00     0.116 C 
BRANCH   3   4
ATOM      4  N   UNL     1      -3.379   6.342  -2.926  1.00  0.00    -0.355 N 
ATOM      5  C   UNL     1      -3.355   5.406  -1.935  1.00  0.00     0.230 C 
ATOM      6  O   UNL     1      -4.397   5.313  -1.279  1.00  0.00    -0.274 OA
ATOM      7  H   UNL     1      -4.197   6.889  -2.927  1.00  0.00     0.163 HD
BRANCH   5   8
ATOM      8  C   UNL     1      -2.105   4.524  -1.644  1.00  0.00     0.080 C 
ATOM      9  C   UNL     1      -0.904   5.466  -1.349  1.00  0.00     0.027 C 
BRANCH   8  10
ATOM     10  C   UNL     1      -1.840   3.651  -2.907  1.00  0.00     0.122 C 
BRANCH  10  11
ATOM     11  C   UNL     1      -0.687   2.727  -2.791  1.00  0.00     0.228 A 
ATOM     12  C   UNL     1       0.647   1.139  -2.567  1.00  0.00     0.226 A 
ATOM     13  N   UNL     1       1.443   2.217  -2.510  1.00  0.00    -0.056 NA
ATOM     14  N   UNL     1      -0.679   1.417  -2.803  1.00  0.00    -0.190 NA
ATOM     15  O   UNL     1       0.555   3.278  -2.678  1.00  0.00    -0.339 OA
BRANCH  12  16
ATOM     16  C   UNL     1       1.149  -0.248  -2.318  1.00  0.00     0.344 C 
BRANCH  16  17
ATOM     17  N   UNL     1       0.689  -0.850  -1.041  1.00  0.00    -0.333 N 
ATOM     18  C   UNL     1       1.093  -0.053   0.118  1.00  0.00     0.332 C 
ATOM     19  C   UNL     1      -0.752  -1.090  -1.029  1.00  0.00     0.332 C 
ATOM     20  H   UNL     1       1.151  -1.756  -0.972  1.00  0.00     0.348 HD
ENDBRANCH  16  17
ENDBRANCH  12  16
ENDBRANCH  10  11
ENDBRANCH   8  10
BRANCH   8  21
ATOM     21  C   UNL     1      -2.377   3.656  -0.370  1.00  0.00    -0.032 A 
ATOM     22  C   UNL     1      -2.123   4.161   0.922  1.00  0.00     0.005 A 
ATOM     23  C   UNL     1      -2.885   2.346  -0.449  1.00  0.00     0.005 A 
ATOM     24  C   UNL     1      -2.265   3.363   2.062  1.00  0.00     0.000 A 
ATOM     25  C   UNL     1      -3.027   1.548   0.691  1.00  0.00     0.000 A 
ATOM     26  C   UNL     1      -2.696   2.048   1.944  1.00  0.00     0.000 A 
ENDBRANCH   8  21
ENDBRANCH   5   8
ENDBRANCH   3   4
ENDBRANCH   2   3
ENDBRANCH   1   2
BRANCH   1  27
ATOM     27  C   UNL     1      -3.702   8.758  -5.894  1.00  0.00     0.002 C 
BRANCH  27  28
ATOM     28  C   UNL     1      -2.426   9.035  -6.695  1.00  0.00     0.021 C 
BRANCH  28  29
ATOM     29  C   UNL     1      -2.488   8.583  -8.150  1.00  0.00     0.116 C 
BRANCH  29  30
ATOM     30  N   UNL     1      -3.532   9.281  -8.884  1.00  0.00    -0.352 N 
ATOM     31  C   UNL     1      -3.432  10.024 -10.031  1.00  0.00     0.251 C 
ATOM     32  H   UNL     1      -4.437   9.209  -8.504  1.00  0.00     0.163 HD
ATOM     33  O   UNL     1      -4.372  10.735 -10.385  1.00  0.00    -0.269 OA
BRANCH  31  34
ATOM     34  C   UNL     1      -2.191   9.979 -10.830  1.00  0.00     0.039 A 
ATOM     35  C   UNL     1      -1.657  11.173 -11.320  1.00  0.00     0.014 A 
ATOM     36  C   UNL     1      -1.559   8.761 -11.101  1.00  0.00     0.014 A 
ATOM     37  C   UNL     1      -0.459  11.150 -12.037  1.00  0.00     0.010 A 
ATOM     38  C   UNL     1      -0.329   8.749 -11.752  1.00  0.00     0.010 A 
ATOM     39  C   UNL     1       0.232   9.942 -12.233  1.00  0.00    -0.014 A 
BRANCH  39  40
ATOM     40  C   UNL     1       1.541   9.910 -12.933  1.00  0.00     0.031 A 
ATOM     41  C   UNL     1       1.689   9.156 -14.229  1.00  0.00     0.074 A 
ATOM     42  C   UNL     1       2.611  10.510 -12.371  1.00  0.00     0.049 A 
ATOM     43  N   UNL     1       2.762   8.971 -14.953  1.00  0.00    -0.248 NA
ATOM     44  C   UNL     1       0.483   8.505 -14.770  1.00  0.00     0.031 C 
ATOM     45  C   UNL     1       2.605  11.232 -11.096  1.00  0.00     0.029 A 
ATOM     46  N   UNL     1       3.914  10.600 -12.794  1.00  0.00    -0.354 N 
ATOM     47  C   UNL     1       2.369   8.168 -16.017  1.00  0.00     0.074 A 
ATOM     48  C   UNL     1       0.967   7.868 -15.827  1.00  0.00     0.031 C 
ATOM     49  C   UNL     1       3.838  11.705 -10.851  1.00  0.00     0.029 A 
ATOM     50  C   UNL     1       4.732  11.285 -11.925  1.00  0.00     0.049 A 
ATOM     51  H   UNL     1       4.233  10.210 -13.640  1.00  0.00     0.167 HD
ATOM     52  C   UNL     1       3.105   7.731 -17.066  1.00  0.00     0.031 A 
ATOM     53  C   UNL     1       6.056  11.533 -11.977  1.00  0.00     0.031 A 
ATOM     54  C   UNL     1       4.493   8.055 -17.266  1.00  0.00     0.049 A 
ATOM     55  C   UNL     1       6.847  11.037 -13.158  1.00  0.00     0.074 A 
ATOM     56  C   UNL     1       5.303   7.726 -18.340  1.00  0.00     0.029 A 
ATOM     57  N   UNL     1       5.278   8.772 -16.377  1.00  0.00    -0.354 N 
ATOM     58  N   UNL     1       6.432  10.357 -14.201  1.00  0.00    -0.248 NA
ATOM     59  C   UNL     1       8.282  11.353 -13.178  1.00  0.00     0.031 C 
ATOM     60  C   UNL     1       6.593   8.188 -18.070  1.00  0.00     0.029 A 
ATOM     61  C   UNL     1       6.571   8.867 -16.863  1.00  0.00     0.049 A 
ATOM     62  H   UNL     1       4.963   9.157 -15.528  1.00  0.00     0.167 HD
ATOM     63  C   UNL     1       7.549  10.193 -15.013  1.00  0.00     0.074 A 
ATOM     64  C   UNL     1       8.650  10.861 -14.352  1.00  0.00     0.031 C 
ATOM     65  C   UNL     1       7.655   9.545 -16.199  1.00  0.00     0.031 A 
BRANCH  52  66
ATOM     66  C   UNL     1       2.438   6.850 -18.089  1.00  0.00    -0.014 A 
ATOM     67  C   UNL     1       1.491   7.367 -18.991  1.00  0.00     0.010 A 
ATOM     68  C   UNL     1       2.845   5.508 -18.217  1.00  0.00     0.010 A 
ATOM     69  C   UNL     1       0.955   6.555 -19.994  1.00  0.00     0.020 A 
ATOM     70  C   UNL     1       2.331   4.701 -19.235  1.00  0.00     0.020 A 
ATOM     71  C   UNL     1       1.384   5.229 -20.115  1.00  0.00     0.054 A 
BRANCH  71  72
ATOM     72  S   UNL     1       0.728   4.224 -21.474  1.00  0.00     0.124 S 
ATOM     73  O   UNL     1      -0.656   4.016 -21.055  1.00  0.00    -0.237 OA
ATOM     74  O   UNL     1       0.908   5.097 -22.631  1.00  0.00    -0.237 OA
ATOM     75  O   UNL     1       1.568   3.029 -21.462  1.00  0.00    -0.744 OA
ENDBRANCH  71  72
ENDBRANCH  52  66
BRANCH  53  76
ATOM     76  C   UNL     1       6.728  12.271 -10.870  1.00  0.00    -0.014 A 
ATOM     77  C   UNL     1       7.286  13.544 -11.084  1.00  0.00     0.010 A 
ATOM     78  C   UNL     1       6.846  11.681  -9.598  1.00  0.00     0.010 A 
ATOM     79  C   UNL     1       7.987  14.193 -10.063  1.00  0.00     0.020 A 
ATOM     80  C   UNL     1       7.514  12.341  -8.564  1.00  0.00     0.020 A 
ATOM     81  C   UNL     1       8.100  13.584  -8.810  1.00  0.00     0.054 A 
BRANCH  81  82
ATOM     82  S   UNL     1       9.010  14.443  -7.496  1.00  0.00     0.124 S 
ATOM     83  O   UNL     1      10.393  14.287  -7.935  1.00  0.00    -0.237 OA
ATOM     84  O   UNL     1       8.469  15.797  -7.571  1.00  0.00    -0.237 OA
ATOM     85  O   UNL     1       8.648  13.701  -6.290  1.00  0.00    -0.744 OA
ENDBRANCH  81  82
ENDBRANCH  53  76
BRANCH  65  86
ATOM     86  C   UNL     1       8.994   9.565 -16.889  1.00  0.00    -0.014 A 
ATOM     87  C   UNL     1      10.087   8.837 -16.388  1.00  0.00     0.010 A 
ATOM     88  C   UNL     1       9.140  10.281 -18.092  1.00  0.00     0.010 A 
ATOM     89  C   UNL     1      11.312   8.853 -17.060  1.00  0.00     0.020 A 
ATOM     90  C   UNL     1      10.353  10.273 -18.784  1.00  0.00     0.020 A 
ATOM     91  C   UNL     1      11.437   9.570 -18.255  1.00  0.00     0.054 A 
BRANCH  91  92
ATOM     92  S   UNL     1      13.025   9.538 -19.130  1.00  0.00     0.124 S 
ATOM     93  O   UNL     1      13.861  10.374 -18.272  1.00  0.00    -0.237 OA
ATOM     94  O   UNL     1      13.357   8.116 -19.139  1.00  0.00    -0.237 OA
ATOM     95  O   UNL     1      12.711  10.107 -20.439  1.00  0.00    -0.744 OA
ENDBRANCH  91  92
ENDBRANCH  65  86
ENDBRANCH  39  40
ENDBRANCH  31  34
ENDBRANCH  29  30
ENDBRANCH  28  29
ENDBRANCH  27  28
ENDBRANCH   1  27
TORSDOF 21
