REMARK SMILES COc1ncnc(N2CCCC[C@H]2CC(=O)NCCCCCCNC(=O)c2ccc(-c3c4nc(c(-c5ccc(S(=O)(=O)[O-])cc5)c5ccc([nH]5)c(-c5ccc(S(=O)(=O)[O-])cc5)c5nc(c(-c6ccc(S(=O)(=O)[O-])cc6)c6ccc3[nH]6)C=C5)C=C4)cc2)c1[N+](=O)[O-]
REMARK SMILES IDX 20 1 19 2 18 3 17 4 15 5 16 6 14 8 13 9 8 10 9 11 10 12
REMARK SMILES IDX 12 13 11 14 7 15 3 16 4 17 87 18 5 19 6 20 2 21 1 22 88 23
REMARK SMILES IDX 89 24 90 25 21 26 22 27 23 28 24 29 25 30 26 32 27 33 28 34
REMARK SMILES IDX 86 35 29 36 85 37 30 38 31 39 32 40 79 41 33 42 84 43 78 44
REMARK SMILES IDX 80 45 34 46 83 47 77 48 76 49 35 51 65 52 46 53 64 54 47 55
REMARK SMILES IDX 50 56 63 57 81 58 48 59 49 60 62 62 82 63 51 64 36 65 37 66
REMARK SMILES IDX 45 67 38 68 44 69 39 70 40 71 41 72 42 73 43 74 66 75 67 76
REMARK SMILES IDX 75 77 68 78 74 79 69 80 70 81 71 82 72 83 73 84 52 85 53 86
REMARK SMILES IDX 61 87 54 88 60 89 55 90 56 91 57 92 58 93 59 94
REMARK H PARENT 17 7 24 31 80 50 50 61
REMARK Flexibility Score: inf
ROOT
ATOM      1  C   UNL     1       2.701  -2.617   1.585  1.00  0.00     0.002 C 
ENDROOT
BRANCH   1   2
ATOM      2  C   UNL     1       3.087  -1.458   2.507  1.00  0.00     0.021 C 
BRANCH   2   3
ATOM      3  C   UNL     1       4.551  -1.464   2.943  1.00  0.00     0.116 C 
BRANCH   3   4
ATOM      4  N   UNL     1       5.426  -0.993   1.885  1.00  0.00    -0.356 N 
ATOM      5  C   UNL     1       6.218   0.113   1.833  1.00  0.00     0.222 C 
ATOM      6  O   UNL     1       6.859   0.338   0.805  1.00  0.00    -0.275 OA
ATOM      7  H   UNL     1       5.451  -1.562   1.082  1.00  0.00     0.163 HD
BRANCH   5   8
ATOM      8  C   UNL     1       6.348   1.027   3.030  1.00  0.00     0.125 C 
BRANCH   8   9
ATOM      9  C   UNL     1       5.367   2.217   3.002  1.00  0.00     0.093 C 
ATOM     10  N   UNL     1       4.062   1.902   3.631  1.00  0.00    -0.347 N 
ATOM     11  C   UNL     1       4.119   1.631   5.091  1.00  0.00     0.118 C 
ATOM     12  C   UNL     1       4.717   2.815   5.840  1.00  0.00     0.022 C 
ATOM     13  C   UNL     1       5.962   3.434   3.751  1.00  0.00     0.026 C 
ATOM     14  C   UNL     1       6.074   3.196   5.257  1.00  0.00     0.004 C 
BRANCH  10  15
ATOM     15  C   UNL     1       2.805   2.160   3.095  1.00  0.00     0.215 A 
ATOM     16  C   UNL     1       1.071   2.120   1.463  1.00  0.00     0.299 A 
ATOM     17  N   UNL     1       0.095   2.236   2.376  1.00  0.00    -0.196 NA
ATOM     18  C   UNL     1       2.421   2.167   1.765  1.00  0.00     0.372 A 
ATOM     19  C   UNL     1       0.526   2.369   3.625  1.00  0.00     0.228 A 
ATOM     20  N   UNL     1       1.812   2.307   4.012  1.00  0.00    -0.212 NA
BRANCH  16  21
ATOM     21  O   UNL     1       0.635   1.903   0.177  1.00  0.00    -0.476 OA
ATOM     22  C   UNL     1       0.308   0.517   0.026  1.00  0.00     0.280 C 
ENDBRANCH  16  21
BRANCH  18  23
ATOM     23  N   UNL     1       3.310   2.169   0.655  1.00  0.00     0.072 N 
ATOM     24  O   UNL     1       3.668   1.075   0.201  1.00  0.00    -0.258 OA
ATOM     25  O   UNL     1       3.628   3.277   0.198  1.00  0.00    -0.258 OA
ENDBRANCH  18  23
ENDBRANCH  10  15
ENDBRANCH   8   9
ENDBRANCH   5   8
ENDBRANCH   3   4
ENDBRANCH   2   3
ENDBRANCH   1   2
BRANCH   1  26
ATOM     26  C   UNL     1       2.708  -3.993   2.257  1.00  0.00     0.002 C 
BRANCH  26  27
ATOM     27  C   UNL     1       1.846  -4.107   3.518  1.00  0.00     0.021 C 
BRANCH  27  28
ATOM     28  C   UNL     1       0.383  -3.708   3.339  1.00  0.00     0.116 C 
BRANCH  28  29
ATOM     29  N   UNL     1      -0.298  -4.553   2.373  1.00  0.00    -0.352 N 
ATOM     30  C   UNL     1      -1.403  -5.352   2.535  1.00  0.00     0.251 C 
ATOM     31  H   UNL     1       0.091  -4.554   1.468  1.00  0.00     0.163 HD
ATOM     32  O   UNL     1      -1.706  -6.157   1.660  1.00  0.00    -0.269 OA
BRANCH  30  33
ATOM     33  C   UNL     1      -2.218  -5.253   3.765  1.00  0.00     0.039 A 
ATOM     34  C   UNL     1      -2.638  -6.430   4.391  1.00  0.00     0.014 A 
ATOM     35  C   UNL     1      -2.591  -4.010   4.286  1.00  0.00     0.014 A 
ATOM     36  C   UNL     1      -3.391  -6.360   5.565  1.00  0.00     0.010 A 
ATOM     37  C   UNL     1      -3.287  -3.942   5.492  1.00  0.00     0.010 A 
ATOM     38  C   UNL     1      -3.700  -5.116   6.141  1.00  0.00    -0.014 A 
BRANCH  38  39
ATOM     39  C   UNL     1      -4.456  -5.033   7.416  1.00  0.00     0.031 A 
ATOM     40  C   UNL     1      -5.836  -4.432   7.447  1.00  0.00     0.074 A 
ATOM     41  C   UNL     1      -3.886  -5.467   8.557  1.00  0.00     0.049 A 
ATOM     42  N   UNL     1      -6.641  -4.269   8.466  1.00  0.00    -0.248 NA
ATOM     43  C   UNL     1      -6.371  -3.929   6.172  1.00  0.00     0.031 C 
ATOM     44  C   UNL     1      -2.541  -6.037   8.669  1.00  0.00     0.029 A 
ATOM     45  N   UNL     1      -4.367  -5.500   9.842  1.00  0.00    -0.354 N 
ATOM     46  C   UNL     1      -7.772  -3.640   7.958  1.00  0.00     0.074 A 
ATOM     47  C   UNL     1      -7.525  -3.402   6.552  1.00  0.00     0.031 C 
ATOM     48  C   UNL     1      -2.321  -6.397   9.944  1.00  0.00     0.029 A 
ATOM     49  C   UNL     1      -3.492  -6.055  10.745  1.00  0.00     0.049 A 
ATOM     50  H   UNL     1      -5.256  -5.159  10.093  1.00  0.00     0.167 HD
ATOM     51  C   UNL     1      -8.922  -3.309   8.596  1.00  0.00     0.031 A 
ATOM     52  C   UNL     1      -3.619  -6.271  12.068  1.00  0.00     0.031 A 
ATOM     53  C   UNL     1      -9.169  -3.547   9.994  1.00  0.00     0.049 A 
ATOM     54  C   UNL     1      -4.899  -5.889  12.757  1.00  0.00     0.074 A 
ATOM     55  C   UNL     1     -10.314  -3.281  10.725  1.00  0.00     0.029 A 
ATOM     56  N   UNL     1      -8.255  -4.107  10.874  1.00  0.00    -0.354 N 
ATOM     57  N   UNL     1      -5.976  -5.339  12.248  1.00  0.00    -0.248 NA
ATOM     58  C   UNL     1      -4.985  -6.172  14.196  1.00  0.00     0.031 C 
ATOM     59  C   UNL     1     -10.077  -3.644  12.056  1.00  0.00     0.029 A 
ATOM     60  C   UNL     1      -8.803  -4.182  12.143  1.00  0.00     0.049 A 
ATOM     61  H   UNL     1      -7.349  -4.408  10.631  1.00  0.00     0.167 HD
ATOM     62  C   UNL     1      -6.879  -5.235  13.300  1.00  0.00     0.074 A 
ATOM     63  C   UNL     1      -6.226  -5.791  14.468  1.00  0.00     0.031 C 
ATOM     64  C   UNL     1      -8.137  -4.729  13.299  1.00  0.00     0.031 A 
BRANCH  51  65
ATOM     65  C   UNL     1      -9.997  -2.646   7.775  1.00  0.00    -0.014 A 
ATOM     66  C   UNL     1     -10.702  -3.362   6.790  1.00  0.00     0.010 A 
ATOM     67  C   UNL     1     -10.315  -1.293   7.994  1.00  0.00     0.010 A 
ATOM     68  C   UNL     1     -11.664  -2.725   6.002  1.00  0.00     0.020 A 
ATOM     69  C   UNL     1     -11.297  -0.659   7.228  1.00  0.00     0.020 A 
ATOM     70  C   UNL     1     -11.949  -1.374   6.220  1.00  0.00     0.054 A 
BRANCH  70  71
ATOM     71  S   UNL     1     -13.199  -0.568   5.181  1.00  0.00     0.124 S 
ATOM     72  O   UNL     1     -12.475  -0.394   3.924  1.00  0.00    -0.237 OA
ATOM     73  O   UNL     1     -14.278  -1.552   5.153  1.00  0.00    -0.237 OA
ATOM     74  O   UNL     1     -13.504   0.666   5.901  1.00  0.00    -0.744 OA
ENDBRANCH  70  71
ENDBRANCH  51  65
BRANCH  52  75
ATOM     75  C   UNL     1      -2.512  -6.920  12.821  1.00  0.00    -0.014 A 
ATOM     76  C   UNL     1      -2.640  -8.248  13.266  1.00  0.00     0.010 A 
ATOM     77  C   UNL     1      -1.317  -6.224  13.078  1.00  0.00     0.010 A 
ATOM     78  C   UNL     1      -1.599  -8.864  13.966  1.00  0.00     0.020 A 
ATOM     79  C   UNL     1      -0.265  -6.845  13.756  1.00  0.00     0.020 A 
ATOM     80  C   UNL     1      -0.416  -8.159  14.204  1.00  0.00     0.054 A 
BRANCH  80  81
ATOM     81  S   UNL     1       0.946  -8.998  15.059  1.00  0.00     0.124 S 
ATOM     82  O   UNL     1       0.479  -9.005  16.441  1.00  0.00    -0.237 OA
ATOM     83  O   UNL     1       0.983 -10.299  14.395  1.00  0.00    -0.237 OA
ATOM     84  O   UNL     1       2.097  -8.139  14.790  1.00  0.00    -0.744 OA
ENDBRANCH  80  81
ENDBRANCH  52  75
BRANCH  64  85
ATOM     85  C   UNL     1      -8.899  -4.782  14.596  1.00  0.00    -0.014 A 
ATOM     86  C   UNL     1      -8.569  -3.939  15.672  1.00  0.00     0.010 A 
ATOM     87  C   UNL     1      -9.976  -5.678  14.731  1.00  0.00     0.010 A 
ATOM     88  C   UNL     1      -9.274  -4.022  16.876  1.00  0.00     0.020 A 
ATOM     89  C   UNL     1     -10.700  -5.745  15.924  1.00  0.00     0.020 A 
ATOM     90  C   UNL     1     -10.332  -4.930  16.996  1.00  0.00     0.054 A 
BRANCH  90  91
ATOM     91  S   UNL     1     -11.244  -5.009  18.562  1.00  0.00     0.124 S 
ATOM     92  O   UNL     1     -10.318  -5.751  19.414  1.00  0.00    -0.237 OA
ATOM     93  O   UNL     1     -11.421  -3.600  18.904  1.00  0.00    -0.237 OA
ATOM     94  O   UNL     1     -12.472  -5.718  18.210  1.00  0.00    -0.744 OA
ENDBRANCH  90  91
ENDBRANCH  64  85
ENDBRANCH  38  39
ENDBRANCH  30  33
ENDBRANCH  28  29
ENDBRANCH  27  28
ENDBRANCH  26  27
ENDBRANCH   1  26
TORSDOF 20
