REMARK SMILES O=C(C[C@@H](NC(=O)c1cc(-c2ccc(F)cc2)on1)c1cccc(Br)c1)NCCCCCCNC(=O)c1ccc(-c2c3nc(c(-c4ccc(S(=O)(=O)[O-])cc4)c4ccc([nH]4)c(-c4ccc(S(=O)(=O)[O-])cc4)c4nc(c(-c5ccc(S(=O)(=O)[O-])cc5)c5ccc2[nH]5)C=C4)C=C3)cc1
REMARK SMILES IDX 30 1 29 2 28 3 27 4 1 5 2 6 3 8 4 9 5 10 6 11 7 13 8 14 9 15
REMARK SMILES IDX 19 16 10 17 18 18 11 19 12 20 17 21 13 22 16 23 14 24 15 25
REMARK SMILES IDX 20 26 21 27 26 28 22 29 24 30 23 31 25 32 31 33 32 34 33 35
REMARK SMILES IDX 34 36 35 37 36 39 37 40 38 41 96 42 39 43 95 44 40 45 41 46
REMARK SMILES IDX 42 47 89 48 43 49 94 50 88 51 90 52 44 53 93 54 87 55 86 56
REMARK SMILES IDX 45 58 75 59 56 60 74 61 57 62 60 63 73 64 91 65 58 66 59 67
REMARK SMILES IDX 72 69 92 70 61 71 46 72 47 73 55 74 48 75 54 76 49 77 50 78
REMARK SMILES IDX 51 79 52 80 53 81 76 82 77 83 85 84 78 85 84 86 79 87 80 88
REMARK SMILES IDX 81 89 82 90 83 91 62 92 63 93 71 94 64 95 70 96 65 97 66 98
REMARK SMILES IDX 67 99 68 100 69 101
REMARK H PARENT 27 7 5 12 34 38 90 57 60 68
REMARK Flexibility Score: inf
ROOT
ATOM      1  C   UNL     1       4.121   1.760  -3.305  1.00  0.00     0.002 C 
ENDROOT
BRANCH   1   2
ATOM      2  C   UNL     1       2.607   1.748  -3.037  1.00  0.00     0.021 C 
BRANCH   2   3
ATOM      3  C   UNL     1       2.088   0.443  -2.432  1.00  0.00     0.116 C 
BRANCH   3   4
ATOM      4  N   UNL     1       2.770   0.185  -1.183  1.00  0.00    -0.356 N 
ATOM      5  O   UNL     1       0.944  -0.501   0.030  1.00  0.00    -0.275 OA
ATOM      6  C   UNL     1       2.122  -0.176  -0.033  1.00  0.00     0.222 C 
ATOM      7  H   UNL     1       3.750   0.275  -1.159  1.00  0.00     0.163 HD
BRANCH   6   8
ATOM      8  C   UNL     1       3.003  -0.086   1.184  1.00  0.00     0.129 C 
BRANCH   8   9
ATOM      9  C   UNL     1       3.900  -1.324   1.368  1.00  0.00     0.122 C 
BRANCH   9  10
ATOM     10  N   UNL     1       5.073  -1.292   0.470  1.00  0.00    -0.343 N 
ATOM     11  C   UNL     1       6.439  -1.387   0.597  1.00  0.00     0.273 C 
ATOM     12  H   UNL     1       4.805  -1.168  -0.469  1.00  0.00     0.164 HD
ATOM     13  O   UNL     1       7.103  -1.236  -0.430  1.00  0.00    -0.267 OA
BRANCH  11  14
ATOM     14  C   UNL     1       7.064  -1.699   1.872  1.00  0.00     0.171 A 
ATOM     15  C   UNL     1       7.042  -2.934   2.568  1.00  0.00     0.088 A 
ATOM     16  N   UNL     1       7.789  -0.788   2.543  1.00  0.00    -0.074 NA
ATOM     17  C   UNL     1       7.621  -2.655   3.784  1.00  0.00     0.167 A 
ATOM     18  O   UNL     1       8.110  -1.383   3.753  1.00  0.00    -0.355 OA
BRANCH  17  19
ATOM     19  C   UNL     1       7.685  -3.366   5.054  1.00  0.00     0.020 A 
ATOM     20  C   UNL     1       7.585  -4.766   5.089  1.00  0.00     0.015 A 
ATOM     21  C   UNL     1       7.685  -2.661   6.270  1.00  0.00     0.015 A 
ATOM     22  C   UNL     1       7.433  -5.438   6.305  1.00  0.00     0.040 A 
ATOM     23  C   UNL     1       7.515  -3.331   7.484  1.00  0.00     0.040 A 
ATOM     24  C   UNL     1       7.378  -4.713   7.488  1.00  0.00     0.123 A 
ATOM     25  F   UNL     1       7.173  -5.353   8.647  1.00  0.00    -0.207 F 
ENDBRANCH  17  19
ENDBRANCH  11  14
ENDBRANCH   9  10
BRANCH   9  26
ATOM     26  C   UNL     1       4.172  -1.468   2.849  1.00  0.00    -0.024 A 
ATOM     27  C   UNL     1       4.681  -0.399   3.609  1.00  0.00     0.006 A 
ATOM     28  C   UNL     1       3.831  -2.662   3.505  1.00  0.00     0.021 A 
ATOM     29  C   UNL     1       4.841  -0.518   4.988  1.00  0.00     0.002 A 
ATOM     30  C   UNL     1       4.000  -2.775   4.884  1.00  0.00     0.018 A 
ATOM     31  C   UNL     1       4.492  -1.705   5.628  1.00  0.00     0.016 A 
ATOM     32  Br  UNL     1       3.573  -4.401   5.746  1.00  0.00    -0.051 Br
ENDBRANCH   9  26
ENDBRANCH   8   9
ENDBRANCH   6   8
ENDBRANCH   3   4
ENDBRANCH   2   3
ENDBRANCH   1   2
BRANCH   1  33
ATOM     33  C   UNL     1       4.622   0.621  -4.197  1.00  0.00     0.002 C 
BRANCH  33  34
ATOM     34  C   UNL     1       3.960   0.561  -5.573  1.00  0.00     0.021 C 
BRANCH  34  35
ATOM     35  C   UNL     1       4.081   1.846  -6.383  1.00  0.00     0.116 C 
BRANCH  35  36
ATOM     36  N   UNL     1       5.464   2.168  -6.697  1.00  0.00    -0.352 N 
ATOM     37  C   UNL     1       6.017   2.485  -7.913  1.00  0.00     0.251 C 
ATOM     38  H   UNL     1       6.088   2.157  -5.936  1.00  0.00     0.163 HD
ATOM     39  O   UNL     1       7.237   2.550  -8.040  1.00  0.00    -0.269 OA
BRANCH  37  40
ATOM     40  C   UNL     1       5.132   2.721  -9.072  1.00  0.00     0.039 A 
ATOM     41  C   UNL     1       5.432   2.108 -10.290  1.00  0.00     0.014 A 
ATOM     42  C   UNL     1       3.995   3.527  -8.948  1.00  0.00     0.014 A 
ATOM     43  C   UNL     1       4.557   2.254 -11.368  1.00  0.00     0.010 A 
ATOM     44  C   UNL     1       3.087   3.606  -9.999  1.00  0.00     0.010 A 
ATOM     45  C   UNL     1       3.359   2.973 -11.221  1.00  0.00    -0.014 A 
BRANCH  45  46
ATOM     46  C   UNL     1       2.378   3.071 -12.332  1.00  0.00     0.031 A 
ATOM     47  C   UNL     1       2.050   4.410 -12.937  1.00  0.00     0.074 A 
ATOM     48  C   UNL     1       1.740   1.962 -12.758  1.00  0.00     0.049 A 
ATOM     49  N   UNL     1       1.185   4.700 -13.874  1.00  0.00    -0.248 NA
ATOM     50  C   UNL     1       2.771   5.577 -12.403  1.00  0.00     0.031 C 
ATOM     51  C   UNL     1       1.946   0.611 -12.232  1.00  0.00     0.029 A 
ATOM     52  N   UNL     1       0.788   1.796 -13.733  1.00  0.00    -0.354 N 
ATOM     53  C   UNL     1       1.252   6.079 -14.037  1.00  0.00     0.074 A 
ATOM     54  C   UNL     1       2.198   6.574 -13.061  1.00  0.00     0.031 C 
ATOM     55  C   UNL     1       1.171  -0.249 -12.911  1.00  0.00     0.029 A 
ATOM     56  C   UNL     1       0.378   0.492 -13.888  1.00  0.00     0.049 A 
ATOM     57  H   UNL     1       0.432   2.539 -14.271  1.00  0.00     0.167 HD
ATOM     58  C   UNL     1       0.602   6.861 -14.932  1.00  0.00     0.031 A 
ATOM     59  C   UNL     1      -0.537  -0.048 -14.717  1.00  0.00     0.031 A 
ATOM     60  C   UNL     1      -0.339   6.365 -15.901  1.00  0.00     0.049 A 
ATOM     61  C   UNL     1      -1.272   0.846 -15.678  1.00  0.00     0.074 A 
ATOM     62  C   UNL     1      -1.020   7.071 -16.877  1.00  0.00     0.029 A 
ATOM     63  N   UNL     1      -0.734   5.040 -16.018  1.00  0.00    -0.354 N 
ATOM     64  N   UNL     1      -1.156   2.141 -15.852  1.00  0.00    -0.248 NA
ATOM     65  C   UNL     1      -2.254   0.204 -16.561  1.00  0.00     0.031 C 
ATOM     66  C   UNL     1      -1.871   6.184 -17.544  1.00  0.00     0.029 A 
ATOM     67  C   UNL     1      -1.668   4.913 -17.032  1.00  0.00     0.049 A 
ATOM     68  H   UNL     1      -0.399   4.300 -15.461  1.00  0.00     0.167 HD
ATOM     69  C   UNL     1      -2.028   2.464 -16.886  1.00  0.00     0.074 A 
ATOM     70  C   UNL     1      -2.653   1.226 -17.307  1.00  0.00     0.031 C 
ATOM     71  C   UNL     1      -2.285   3.675 -17.440  1.00  0.00     0.031 A 
BRANCH  58  72
ATOM     72  C   UNL     1       0.885   8.341 -14.898  1.00  0.00    -0.014 A 
ATOM     73  C   UNL     1       2.139   8.850 -15.286  1.00  0.00     0.010 A 
ATOM     74  C   UNL     1      -0.127   9.241 -14.515  1.00  0.00     0.010 A 
ATOM     75  C   UNL     1       2.389  10.224 -15.250  1.00  0.00     0.020 A 
ATOM     76  C   UNL     1       0.109  10.619 -14.509  1.00  0.00     0.020 A 
ATOM     77  C   UNL     1       1.372  11.100 -14.860  1.00  0.00     0.054 A 
BRANCH  77  78
ATOM     78  S   UNL     1       1.719  12.880 -14.847  1.00  0.00     0.124 S 
ATOM     79  O   UNL     1       2.619  13.003 -13.703  1.00  0.00    -0.237 OA
ATOM     80  O   UNL     1       2.332  13.096 -16.155  1.00  0.00    -0.237 OA
ATOM     81  O   UNL     1       0.403  13.490 -14.671  1.00  0.00    -0.744 OA
ENDBRANCH  77  78
ENDBRANCH  58  72
BRANCH  59  82
ATOM     82  C   UNL     1      -0.795  -1.514 -14.685  1.00  0.00    -0.014 A 
ATOM     83  C   UNL     1      -0.403  -2.331 -15.760  1.00  0.00     0.010 A 
ATOM     84  C   UNL     1      -1.421  -2.105 -13.572  1.00  0.00     0.010 A 
ATOM     85  C   UNL     1      -0.646  -3.708 -15.730  1.00  0.00     0.020 A 
ATOM     86  C   UNL     1      -1.638  -3.485 -13.524  1.00  0.00     0.020 A 
ATOM     87  C   UNL     1      -1.258  -4.277 -14.610  1.00  0.00     0.054 A 
BRANCH  87  88
ATOM     88  S   UNL     1      -1.511  -6.073 -14.570  1.00  0.00     0.124 S 
ATOM     89  O   UNL     1      -2.581  -6.250 -15.547  1.00  0.00    -0.237 OA
ATOM     90  O   UNL     1      -0.201  -6.583 -14.965  1.00  0.00    -0.237 OA
ATOM     91  O   UNL     1      -1.881  -6.335 -13.181  1.00  0.00    -0.744 OA
ENDBRANCH  87  88
ENDBRANCH  59  82
BRANCH  71  92
ATOM     92  C   UNL     1      -3.258   3.723 -18.589  1.00  0.00    -0.014 A 
ATOM     93  C   UNL     1      -4.635   3.518 -18.392  1.00  0.00     0.010 A 
ATOM     94  C   UNL     1      -2.790   4.036 -19.879  1.00  0.00     0.010 A 
ATOM     95  C   UNL     1      -5.522   3.595 -19.469  1.00  0.00     0.020 A 
ATOM     96  C   UNL     1      -3.677   4.145 -20.952  1.00  0.00     0.020 A 
ATOM     97  C   UNL     1      -5.037   3.911 -20.743  1.00  0.00     0.054 A 
BRANCH  97  98
ATOM     98  S   UNL     1      -6.215   4.051 -22.114  1.00  0.00     0.124 S 
ATOM     99  O   UNL     1      -6.587   2.657 -22.340  1.00  0.00    -0.237 OA
ATOM    100  O   UNL     1      -7.263   4.898 -21.549  1.00  0.00    -0.237 OA
ATOM    101  O   UNL     1      -5.433   4.668 -23.183  1.00  0.00    -0.744 OA
ENDBRANCH  97  98
ENDBRANCH  71  92
ENDBRANCH  45  46
ENDBRANCH  37  40
ENDBRANCH  35  36
ENDBRANCH  34  35
ENDBRANCH  33  34
ENDBRANCH   1  33
TORSDOF 21
