REMARK SMILES CC(C)(C[C@@H](O)C(F)(F)F)C(=O)NCCCCCCNC(=O)c1ccc(-c2c3nc(c(-c4ccc(S(=O)(=O)[O-])cc4)c4ccc([nH]4)c(-c4ccc(S(=O)(=O)[O-])cc4)c4nc(c(-c5ccc(S(=O)(=O)[O-])cc5)c5ccc2[nH]5)C=C4)C=C3)cc1
REMARK SMILES IDX 16 1 15 2 14 3 13 4 11 5 12 6 2 8 1 9 3 10 4 11 5 12 6 13
REMARK SMILES IDX 7 15 8 16 9 17 10 18 17 19 18 20 19 21 20 22 21 23 22 25
REMARK SMILES IDX 23 26 24 27 82 28 25 29 81 30 26 31 27 32 28 33 75 34 29 35
REMARK SMILES IDX 80 36 74 37 76 38 30 39 79 40 73 41 72 42 31 44 61 45 42 46
REMARK SMILES IDX 60 47 43 48 46 49 59 50 77 51 44 52 45 53 58 55 78 56 47 57
REMARK SMILES IDX 32 58 33 59 41 60 34 61 40 62 35 63 36 64 37 65 38 66 39 67
REMARK SMILES IDX 62 68 63 69 71 70 64 71 70 72 65 73 66 74 67 75 68 76 69 77
REMARK SMILES IDX 48 78 49 79 57 80 50 81 56 82 51 83 52 84 53 85 54 86 55 87
REMARK H PARENT 13 7 6 14 20 24 76 43 46 54
REMARK Flexibility Score: inf
ROOT
ATOM      1  C   UNL     1      -0.802  -1.862   5.997  1.00  0.00     0.002 C 
ENDROOT
BRANCH   1   2
ATOM      2  C   UNL     1      -1.192  -0.820   4.942  1.00  0.00     0.021 C 
BRANCH   2   3
ATOM      3  C   UNL     1      -0.030   0.037   4.441  1.00  0.00     0.116 C 
BRANCH   3   4
ATOM      4  N   UNL     1       0.909  -0.744   3.656  1.00  0.00    -0.356 N 
ATOM      5  C   UNL     1       1.179  -0.784   2.328  1.00  0.00     0.225 C 
ATOM      6  O   UNL     1       1.885  -1.722   1.939  1.00  0.00    -0.275 OA
ATOM      7  H   UNL     1       1.455  -1.364   4.192  1.00  0.00     0.163 HD
BRANCH   5   8
ATOM      8  C   UNL     1       0.604   0.229   1.318  1.00  0.00     0.046 C 
ATOM      9  C   UNL     1       1.226  -0.054  -0.072  1.00  0.00     0.021 C 
ATOM     10  C   UNL     1       1.058   1.655   1.695  1.00  0.00     0.021 C 
BRANCH   8  11
ATOM     11  C   UNL     1      -0.941   0.144   1.202  1.00  0.00     0.057 C 
BRANCH  11  12
ATOM     12  C   UNL     1      -1.536  -1.199   0.722  1.00  0.00     0.220 C 
BRANCH  12  13
ATOM     13  O   UNL     1      -1.082  -2.286   1.540  1.00  0.00    -0.384 OA
ATOM     14  H   UNL     1      -1.372  -2.145   2.455  1.00  0.00     0.211 HD
ENDBRANCH  12  13
BRANCH  12  15
ATOM     15  C   UNL     1      -3.077  -1.114   0.720  1.00  0.00     0.414 C 
ATOM     16  F   UNL     1      -3.496  -0.116  -0.096  1.00  0.00    -0.168 F 
ATOM     17  F   UNL     1      -3.635  -2.259   0.265  1.00  0.00    -0.168 F 
ATOM     18  F   UNL     1      -3.573  -0.867   1.952  1.00  0.00    -0.168 F 
ENDBRANCH  12  15
ENDBRANCH  11  12
ENDBRANCH   8  11
ENDBRANCH   5   8
ENDBRANCH   3   4
ENDBRANCH   2   3
ENDBRANCH   1   2
BRANCH   1  19
ATOM     19  C   UNL     1      -0.090  -1.302   7.233  1.00  0.00     0.002 C 
BRANCH  19  20
ATOM     20  C   UNL     1      -0.815  -0.154   7.941  1.00  0.00     0.021 C 
BRANCH  20  21
ATOM     21  C   UNL     1      -2.221  -0.488   8.428  1.00  0.00     0.116 C 
BRANCH  21  22
ATOM     22  N   UNL     1      -2.216  -1.544   9.428  1.00  0.00    -0.352 N 
ATOM     23  C   UNL     1      -2.740  -1.547  10.694  1.00  0.00     0.251 C 
ATOM     24  H   UNL     1      -1.771  -2.379   9.155  1.00  0.00     0.163 HD
ATOM     25  O   UNL     1      -2.458  -2.462  11.469  1.00  0.00    -0.269 OA
BRANCH  23  26
ATOM     26  C   UNL     1      -3.624  -0.449  11.139  1.00  0.00     0.039 A 
ATOM     27  C   UNL     1      -3.439   0.092  12.413  1.00  0.00     0.014 A 
ATOM     28  C   UNL     1      -4.641   0.040  10.312  1.00  0.00     0.014 A 
ATOM     29  C   UNL     1      -4.233   1.161  12.834  1.00  0.00     0.010 A 
ATOM     30  C   UNL     1      -5.384   1.151  10.705  1.00  0.00     0.010 A 
ATOM     31  C   UNL     1      -5.189   1.723  11.971  1.00  0.00    -0.014 A 
BRANCH  31  32
ATOM     32  C   UNL     1      -5.972   2.920  12.374  1.00  0.00     0.031 A 
ATOM     33  C   UNL     1      -7.466   2.841  12.534  1.00  0.00     0.074 A 
ATOM     34  C   UNL     1      -5.336   4.096  12.550  1.00  0.00     0.049 A 
ATOM     35  N   UNL     1      -8.310   3.786  12.863  1.00  0.00    -0.248 NA
ATOM     36  C   UNL     1      -8.098   1.538  12.272  1.00  0.00     0.031 C 
ATOM     37  C   UNL     1      -3.897   4.314  12.381  1.00  0.00     0.029 A 
ATOM     38  N   UNL     1      -5.817   5.330  12.909  1.00  0.00    -0.354 N 
ATOM     39  C   UNL     1      -9.569   3.198  12.837  1.00  0.00     0.074 A 
ATOM     40  C   UNL     1      -9.384   1.827  12.411  1.00  0.00     0.031 C 
ATOM     41  C   UNL     1      -3.609   5.593  12.668  1.00  0.00     0.029 A 
ATOM     42  C   UNL     1      -4.843   6.297  13.000  1.00  0.00     0.049 A 
ATOM     43  H   UNL     1      -6.770   5.507  13.085  1.00  0.00     0.167 HD
ATOM     44  C   UNL     1     -10.768   3.742  13.157  1.00  0.00     0.031 A 
ATOM     45  C   UNL     1      -4.931   7.604  13.313  1.00  0.00     0.031 A 
ATOM     46  C   UNL     1     -10.948   5.106  13.582  1.00  0.00     0.049 A 
ATOM     47  C   UNL     1      -6.274   8.188  13.652  1.00  0.00     0.074 A 
ATOM     48  C   UNL     1     -12.115   5.736  13.980  1.00  0.00     0.029 A 
ATOM     49  N   UNL     1      -9.938   6.053  13.659  1.00  0.00    -0.354 N 
ATOM     50  N   UNL     1      -7.444   7.596  13.690  1.00  0.00    -0.248 NA
ATOM     51  C   UNL     1      -6.307   9.615  14.001  1.00  0.00     0.031 C 
ATOM     52  C   UNL     1     -11.820   7.078  14.244  1.00  0.00     0.029 A 
ATOM     53  C   UNL     1     -10.459   7.269  14.071  1.00  0.00     0.049 A 
ATOM     54  H   UNL     1      -8.990   5.886  13.452  1.00  0.00     0.167 HD
ATOM     55  C   UNL     1      -8.350   8.573  14.089  1.00  0.00     0.074 A 
ATOM     56  C   UNL     1      -7.587   9.787  14.301  1.00  0.00     0.031 C 
ATOM     57  C   UNL     1      -9.691   8.474  14.265  1.00  0.00     0.031 A 
BRANCH  44  58
ATOM     58  C   UNL     1     -11.985   2.859  13.052  1.00  0.00    -0.014 A 
ATOM     59  C   UNL     1     -12.189   1.792  13.947  1.00  0.00     0.010 A 
ATOM     60  C   UNL     1     -12.960   3.123  12.073  1.00  0.00     0.010 A 
ATOM     61  C   UNL     1     -13.322   0.982  13.838  1.00  0.00     0.020 A 
ATOM     62  C   UNL     1     -14.111   2.333  11.979  1.00  0.00     0.020 A 
ATOM     63  C   UNL     1     -14.275   1.257  12.853  1.00  0.00     0.054 A 
BRANCH  63  64
ATOM     64  S   UNL     1     -15.748   0.202  12.751  1.00  0.00     0.124 S 
ATOM     65  O   UNL     1     -15.194  -1.035  12.204  1.00  0.00    -0.237 OA
ATOM     66  O   UNL     1     -16.188   0.131  14.141  1.00  0.00    -0.237 OA
ATOM     67  O   UNL     1     -16.639   0.935  11.854  1.00  0.00    -0.744 OA
ENDBRANCH  63  64
ENDBRANCH  44  58
BRANCH  45  68
ATOM     68  C   UNL     1      -3.703   8.447  13.334  1.00  0.00    -0.014 A 
ATOM     69  C   UNL     1      -3.184   8.925  14.549  1.00  0.00     0.010 A 
ATOM     70  C   UNL     1      -3.038   8.764  12.135  1.00  0.00     0.010 A 
ATOM     71  C   UNL     1      -2.034   9.719  14.565  1.00  0.00     0.020 A 
ATOM     72  C   UNL     1      -1.871   9.532  12.149  1.00  0.00     0.020 A 
ATOM     73  C   UNL     1      -1.383  10.015  13.364  1.00  0.00     0.054 A 
BRANCH  73  74
ATOM     74  S   UNL     1       0.139  11.003  13.413  1.00  0.00     0.124 S 
ATOM     75  O   UNL     1      -0.375  12.338  13.700  1.00  0.00    -0.237 OA
ATOM     76  O   UNL     1       0.892  10.367  14.491  1.00  0.00    -0.237 OA
ATOM     77  O   UNL     1       0.705  10.823  12.078  1.00  0.00    -0.744 OA
ENDBRANCH  73  74
ENDBRANCH  45  68
BRANCH  57  78
ATOM     78  C   UNL     1     -10.418   9.709  14.728  1.00  0.00    -0.014 A 
ATOM     79  C   UNL     1     -10.597  10.813  13.875  1.00  0.00     0.010 A 
ATOM     80  C   UNL     1     -10.959   9.752  16.026  1.00  0.00     0.010 A 
ATOM     81  C   UNL     1     -11.266  11.953  14.326  1.00  0.00     0.020 A 
ATOM     82  C   UNL     1     -11.656  10.878  16.470  1.00  0.00     0.020 A 
ATOM     83  C   UNL     1     -11.790  11.980  15.623  1.00  0.00     0.054 A 
BRANCH  83  84
ATOM     84  S   UNL     1     -12.678  13.461  16.175  1.00  0.00     0.124 S 
ATOM     85  O   UNL     1     -11.587  14.411  16.378  1.00  0.00    -0.237 OA
ATOM     86  O   UNL     1     -13.559  13.748  15.046  1.00  0.00    -0.237 OA
ATOM     87  O   UNL     1     -13.357  13.024  17.392  1.00  0.00    -0.744 OA
ENDBRANCH  83  84
ENDBRANCH  57  78
ENDBRANCH  31  32
ENDBRANCH  23  26
ENDBRANCH  21  22
ENDBRANCH  20  21
ENDBRANCH  19  20
ENDBRANCH   1  19
TORSDOF 20
