REMARK SMILES CC1=C(C)C[C@H](C(=O)N[C@@H](C)CCc2ccccc2)[C@@H](C(=O)NCCCCCCNC(=O)c2ccc(-c3c4nc(c(-c5ccc(S(=O)(=O)[O-])cc5)c5ccc([nH]5)c(-c5ccc(S(=O)(=O)[O-])cc5)c5nc(c(-c6ccc(S(=O)(=O)[O-])cc6)c6ccc3[nH]6)C=C5)C=C4)cc2)C1
REMARK SMILES IDX 25 1 24 2 23 3 21 4 22 5 20 7 1 8 2 9 3 10 93 11 4 12 5 13
REMARK SMILES IDX 6 14 7 15 8 16 9 17 10 19 11 20 12 21 13 22 14 23 15 24
REMARK SMILES IDX 19 25 16 26 18 27 17 28 26 29 27 30 28 31 29 32 30 33 31 34
REMARK SMILES IDX 32 36 33 37 34 38 92 39 35 40 91 41 36 42 37 43 38 44 85 45
REMARK SMILES IDX 39 46 90 47 84 48 86 49 40 50 89 51 83 52 82 53 41 55 71 56
REMARK SMILES IDX 52 57 70 58 53 59 56 60 69 61 87 62 54 63 55 64 68 66 88 67
REMARK SMILES IDX 57 68 42 69 43 70 51 71 44 72 50 73 45 74 46 75 47 76 48 77
REMARK SMILES IDX 49 78 72 79 73 80 81 81 74 82 80 83 75 84 76 85 77 86 78 87
REMARK SMILES IDX 79 88 58 89 59 90 67 91 60 92 66 93 61 94 62 95 63 96 64 97
REMARK SMILES IDX 65 98
REMARK H PARENT 23 6 9 18 30 35 86 54 56 65
REMARK Flexibility Score: inf
ROOT
ATOM      1  C   UNL     1       1.998   7.020   1.579  1.00  0.00     0.021 C 
ENDROOT
BRANCH   1   2
ATOM      2  C   UNL     1       2.199   5.793   0.685  1.00  0.00     0.116 C 
BRANCH   2   3
ATOM      3  N   UNL     1       2.638   4.639   1.458  1.00  0.00    -0.356 N 
ATOM      4  C   UNL     1       1.996   3.498   1.845  1.00  0.00     0.224 C 
ATOM      5  O   UNL     1       2.637   2.697   2.532  1.00  0.00    -0.275 OA
ATOM      6  H   UNL     1       3.575   4.691   1.757  1.00  0.00     0.163 HD
BRANCH   4   7
ATOM      7  C   UNL     1       0.552   3.205   1.419  1.00  0.00     0.095 C 
ATOM      8  C   UNL     1       0.837  -0.272  -0.358  1.00  0.00     0.039 C 
ATOM      9  C   UNL     1       0.438   0.693   0.732  1.00  0.00    -0.074 C 
ATOM     10  C   UNL     1       0.007   0.338   1.959  1.00  0.00    -0.074 C 
ATOM     11  C   UNL     1       0.572   2.140   0.317  1.00  0.00     0.045 C 
ATOM     12  C   UNL     1      -0.216  -1.079   2.432  1.00  0.00     0.039 C 
ATOM     13  C   UNL     1      -0.284   1.355   3.038  1.00  0.00     0.045 C 
ATOM     14  C   UNL     1      -0.279   2.848   2.662  1.00  0.00     0.095 C 
BRANCH  14  15
ATOM     15  C   UNL     1      -1.703   3.418   2.709  1.00  0.00     0.224 C 
ATOM     16  O   UNL     1      -2.704   2.724   2.526  1.00  0.00    -0.275 OA
ATOM     17  N   UNL     1      -1.903   4.728   3.076  1.00  0.00    -0.353 N 
ATOM     18  H   UNL     1      -2.711   4.916   3.606  1.00  0.00     0.163 HD
BRANCH  17  19
ATOM     19  C   UNL     1      -1.051   5.867   2.767  1.00  0.00     0.079 C 
ATOM     20  C   UNL     1      -1.552   6.439   1.430  1.00  0.00     0.031 C 
BRANCH  19  21
ATOM     21  C   UNL     1      -1.046   6.986   3.826  1.00  0.00     0.029 C 
BRANCH  21  22
ATOM     22  C   UNL     1      -0.571   6.624   5.242  1.00  0.00     0.037 C 
BRANCH  22  23
ATOM     23  C   UNL     1       0.818   6.045   5.359  1.00  0.00    -0.048 A 
ATOM     24  C   UNL     1       0.977   4.668   5.548  1.00  0.00     0.004 A 
ATOM     25  C   UNL     1       1.966   6.847   5.293  1.00  0.00     0.004 A 
ATOM     26  C   UNL     1       2.246   4.090   5.589  1.00  0.00     0.000 A 
ATOM     27  C   UNL     1       3.241   6.270   5.359  1.00  0.00     0.000 A 
ATOM     28  C   UNL     1       3.379   4.890   5.488  1.00  0.00     0.000 A 
ENDBRANCH  22  23
ENDBRANCH  21  22
ENDBRANCH  19  21
ENDBRANCH  17  19
ENDBRANCH  14  15
ENDBRANCH   4   7
ENDBRANCH   2   3
ENDBRANCH   1   2
BRANCH   1  29
ATOM     29  C   UNL     1       3.184   7.979   1.691  1.00  0.00     0.002 C 
BRANCH  29  30
ATOM     30  C   UNL     1       3.470   8.813   0.438  1.00  0.00     0.002 C 
BRANCH  30  31
ATOM     31  C   UNL     1       2.285   9.592  -0.150  1.00  0.00     0.021 C 
BRANCH  31  32
ATOM     32  C   UNL     1       1.563  10.538   0.812  1.00  0.00     0.116 C 
BRANCH  32  33
ATOM     33  N   UNL     1       2.422  11.610   1.283  1.00  0.00    -0.352 N 
ATOM     34  C   UNL     1       2.424  12.950   0.984  1.00  0.00     0.251 C 
ATOM     35  H   UNL     1       3.118  11.329   1.921  1.00  0.00     0.163 HD
ATOM     36  O   UNL     1       3.381  13.639   1.328  1.00  0.00    -0.269 OA
BRANCH  34  37
ATOM     37  C   UNL     1       1.302  13.575   0.244  1.00  0.00     0.039 A 
ATOM     38  C   UNL     1       1.595  14.501  -0.763  1.00  0.00     0.014 A 
ATOM     39  C   UNL     1      -0.031  13.314   0.576  1.00  0.00     0.014 A 
ATOM     40  C   UNL     1       0.559  15.119  -1.471  1.00  0.00     0.010 A 
ATOM     41  C   UNL     1      -1.063  13.888  -0.171  1.00  0.00     0.010 A 
ATOM     42  C   UNL     1      -0.780  14.798  -1.200  1.00  0.00    -0.014 A 
BRANCH  42  43
ATOM     43  C   UNL     1      -1.889  15.399  -1.991  1.00  0.00     0.031 A 
ATOM     44  C   UNL     1      -2.880  16.328  -1.341  1.00  0.00     0.074 A 
ATOM     45  C   UNL     1      -2.036  15.069  -3.290  1.00  0.00     0.049 A 
ATOM     46  N   UNL     1      -3.930  16.910  -1.864  1.00  0.00    -0.248 NA
ATOM     47  C   UNL     1      -2.677  16.626   0.085  1.00  0.00     0.031 C 
ATOM     48  C   UNL     1      -1.167  14.154  -4.034  1.00  0.00     0.029 A 
ATOM     49  N   UNL     1      -2.974  15.460  -4.213  1.00  0.00    -0.354 N 
ATOM     50  C   UNL     1      -4.522  17.628  -0.831  1.00  0.00     0.074 A 
ATOM     51  C   UNL     1      -3.736  17.376   0.358  1.00  0.00     0.031 C 
ATOM     52  C   UNL     1      -1.599  14.073  -5.303  1.00  0.00     0.029 A 
ATOM     53  C   UNL     1      -2.793  14.899  -5.455  1.00  0.00     0.049 A 
ATOM     54  H   UNL     1      -3.707  16.083  -4.006  1.00  0.00     0.167 HD
ATOM     55  C   UNL     1      -5.609  18.437  -0.869  1.00  0.00     0.031 A 
ATOM     56  C   UNL     1      -3.506  15.027  -6.591  1.00  0.00     0.031 A 
ATOM     57  C   UNL     1      -6.387  18.697  -2.052  1.00  0.00     0.049 A 
ATOM     58  C   UNL     1      -4.711  15.926  -6.609  1.00  0.00     0.074 A 
ATOM     59  C   UNL     1      -7.473  19.544  -2.200  1.00  0.00     0.029 A 
ATOM     60  N   UNL     1      -6.165  18.114  -3.291  1.00  0.00    -0.354 N 
ATOM     61  N   UNL     1      -5.218  16.642  -5.634  1.00  0.00    -0.248 NA
ATOM     62  C   UNL     1      -5.433  16.043  -7.884  1.00  0.00     0.031 C 
ATOM     63  C   UNL     1      -7.935  19.439  -3.517  1.00  0.00     0.029 A 
ATOM     64  C   UNL     1      -7.106  18.565  -4.202  1.00  0.00     0.049 A 
ATOM     65  H   UNL     1      -5.445  17.474  -3.492  1.00  0.00     0.167 HD
ATOM     66  C   UNL     1      -6.306  17.311  -6.184  1.00  0.00     0.074 A 
ATOM     67  C   UNL     1      -6.373  16.927  -7.579  1.00  0.00     0.031 C 
ATOM     68  C   UNL     1      -7.169  18.169  -5.586  1.00  0.00     0.031 A 
BRANCH  55  69
ATOM     69  C   UNL     1      -6.029  19.095   0.420  1.00  0.00    -0.014 A 
ATOM     70  C   UNL     1      -5.263  20.128   0.990  1.00  0.00     0.010 A 
ATOM     71  C   UNL     1      -7.219  18.696   1.055  1.00  0.00     0.010 A 
ATOM     72  C   UNL     1      -5.652  20.715   2.197  1.00  0.00     0.020 A 
ATOM     73  C   UNL     1      -7.626  19.299   2.249  1.00  0.00     0.020 A 
ATOM     74  C   UNL     1      -6.828  20.291   2.823  1.00  0.00     0.054 A 
BRANCH  74  75
ATOM     75  S   UNL     1      -7.313  21.072   4.387  1.00  0.00     0.124 S 
ATOM     76  O   UNL     1      -6.380  20.458   5.329  1.00  0.00    -0.237 OA
ATOM     77  O   UNL     1      -7.094  22.491   4.121  1.00  0.00    -0.237 OA
ATOM     78  O   UNL     1      -8.711  20.680   4.551  1.00  0.00    -0.744 OA
ENDBRANCH  74  75
ENDBRANCH  55  69
BRANCH  56  79
ATOM     79  C   UNL     1      -3.084  14.296  -7.815  1.00  0.00    -0.014 A 
ATOM     80  C   UNL     1      -2.497  14.987  -8.890  1.00  0.00     0.010 A 
ATOM     81  C   UNL     1      -3.244  12.901  -7.902  1.00  0.00     0.010 A 
ATOM     82  C   UNL     1      -2.087  14.297 -10.034  1.00  0.00     0.020 A 
ATOM     83  C   UNL     1      -2.812  12.205  -9.035  1.00  0.00     0.020 A 
ATOM     84  C   UNL     1      -2.244  12.910 -10.098  1.00  0.00     0.054 A 
BRANCH  84  85
ATOM     85  S   UNL     1      -1.642  12.027 -11.565  1.00  0.00     0.124 S 
ATOM     86  O   UNL     1      -2.671  12.339 -12.551  1.00  0.00    -0.237 OA
ATOM     87  O   UNL     1      -0.338  12.643 -11.793  1.00  0.00    -0.237 OA
ATOM     88  O   UNL     1      -1.595  10.633 -11.126  1.00  0.00    -0.744 OA
ENDBRANCH  84  85
ENDBRANCH  56  79
BRANCH  68  89
ATOM     89  C   UNL     1      -8.250  18.771  -6.444  1.00  0.00    -0.014 A 
ATOM     90  C   UNL     1      -9.351  18.006  -6.868  1.00  0.00     0.010 A 
ATOM     91  C   UNL     1      -8.184  20.131  -6.794  1.00  0.00     0.010 A 
ATOM     92  C   UNL     1     -10.351  18.584  -7.655  1.00  0.00     0.020 A 
ATOM     93  C   UNL     1      -9.194  20.719  -7.561  1.00  0.00     0.020 A 
ATOM     94  C   UNL     1     -10.264  19.937  -7.999  1.00  0.00     0.054 A 
BRANCH  94  95
ATOM     95  S   UNL     1     -11.592  20.676  -8.990  1.00  0.00     0.124 S 
ATOM     96  O   UNL     1     -11.297  20.160 -10.324  1.00  0.00    -0.237 OA
ATOM     97  O   UNL     1     -12.799  20.141  -8.362  1.00  0.00    -0.237 OA
ATOM     98  O   UNL     1     -11.393  22.113  -8.818  1.00  0.00    -0.744 OA
ENDBRANCH  94  95
ENDBRANCH  68  89
ENDBRANCH  42  43
ENDBRANCH  34  37
ENDBRANCH  32  33
ENDBRANCH  31  32
ENDBRANCH  30  31
ENDBRANCH  29  30
ENDBRANCH   1  29
TORSDOF 21
