REMARK SMILES N#Cc1cc(-c2cnccc2C(=O)NCCCCCCNC(=O)c2ccc(-c3c4nc(c(-c5ccc(S(=O)(=O)[O-])cc5)c5ccc([nH]5)c(-c5ccc(S(=O)(=O)[O-])cc5)c5nc(c(-c6ccc(S(=O)(=O)[O-])cc6)c6ccc3[nH]6)C=C5)C=C4)cc2)ccc1Cl
REMARK SMILES IDX 18 1 17 2 16 3 15 4 14 5 12 6 13 7 11 9 6 10 7 11 8 12 10 13
REMARK SMILES IDX 9 14 5 15 3 16 4 17 86 18 85 19 87 20 84 21 2 22 1 23 19 24
REMARK SMILES IDX 20 25 21 26 22 27 23 29 24 30 25 31 83 32 26 33 82 34 27 35
REMARK SMILES IDX 28 36 29 37 76 38 30 39 81 40 75 41 77 42 31 43 80 44 74 45
REMARK SMILES IDX 73 46 32 48 62 49 43 50 61 51 44 52 47 53 60 54 78 55 45 56
REMARK SMILES IDX 46 57 59 59 79 60 48 61 33 62 34 63 42 64 35 65 41 66 36 67
REMARK SMILES IDX 37 68 38 69 39 70 40 71 63 72 64 73 72 74 65 75 71 76 66 77
REMARK SMILES IDX 67 78 68 79 69 80 70 81 49 82 50 83 58 84 51 85 57 86 52 87
REMARK SMILES IDX 53 88 54 89 55 90 56 91
REMARK H PARENT 14 8 21 28 77 47 47 58
REMARK Flexibility Score: inf
ROOT
ATOM      1  C   UNL     1      -1.343   0.271   2.893  1.00  0.00     0.002 C 
ENDROOT
BRANCH   1   2
ATOM      2  C   UNL     1      -0.121  -0.135   3.726  1.00  0.00     0.002 C 
BRANCH   2   3
ATOM      3  C   UNL     1       1.191  -0.405   2.989  1.00  0.00     0.021 C 
BRANCH   3   4
ATOM      4  C   UNL     1       1.680   0.640   2.001  1.00  0.00     0.116 C 
BRANCH   4   5
ATOM      5  N   UNL     1       2.213   1.869   2.512  1.00  0.00    -0.352 N 
ATOM      6  C   UNL     1       3.146   2.723   1.969  1.00  0.00     0.252 C 
ATOM      7  O   UNL     1       3.288   3.799   2.560  1.00  0.00    -0.269 OA
ATOM      8  H   UNL     1       1.857   2.144   3.388  1.00  0.00     0.163 HD
BRANCH   6   9
ATOM      9  C   UNL     1       4.065   2.442   0.801  1.00  0.00     0.050 A 
ATOM     10  C   UNL     1       3.860   1.710  -0.392  1.00  0.00     0.013 A 
ATOM     11  C   UNL     1       4.948   1.663  -1.286  1.00  0.00     0.120 A 
ATOM     12  N   UNL     1       6.151   2.255  -1.119  1.00  0.00    -0.264 NA
ATOM     13  C   UNL     1       5.319   3.079   0.967  1.00  0.00     0.034 A 
ATOM     14  C   UNL     1       6.307   2.962   0.005  1.00  0.00     0.112 A 
BRANCH  10  15
ATOM     15  C   UNL     1       2.656   0.986  -0.832  1.00  0.00    -0.015 A 
ATOM     16  C   UNL     1       0.288   0.893  -1.427  1.00  0.00     0.071 A 
ATOM     17  C   UNL     1       1.438   1.632  -1.081  1.00  0.00     0.029 A 
ATOM     18  C   UNL     1       0.372  -0.496  -1.589  1.00  0.00     0.058 A 
ATOM     19  C   UNL     1       1.586  -1.149  -1.380  1.00  0.00     0.022 A 
ATOM     20  Cl  UNL     1      -1.002  -1.470  -1.976  1.00  0.00    -0.083 Cl
ATOM     21  C   UNL     1       2.714  -0.414  -1.012  1.00  0.00     0.010 A 
BRANCH  16  22
ATOM     22  C   UNL     1      -0.971   1.578  -1.474  1.00  0.00     0.101 C 
ATOM     23  N   UNL     1      -1.973   2.158  -1.423  1.00  0.00    -0.192 NA
ENDBRANCH  16  22
ENDBRANCH  10  15
ENDBRANCH   6   9
ENDBRANCH   4   5
ENDBRANCH   3   4
ENDBRANCH   2   3
ENDBRANCH   1   2
BRANCH   1  24
ATOM     24  C   UNL     1      -1.664  -0.580   1.664  1.00  0.00     0.021 C 
BRANCH  24  25
ATOM     25  C   UNL     1      -1.844  -2.076   1.891  1.00  0.00     0.116 C 
BRANCH  25  26
ATOM     26  N   UNL     1      -2.992  -2.381   2.722  1.00  0.00    -0.352 N 
ATOM     27  C   UNL     1      -4.083  -3.172   2.455  1.00  0.00     0.251 C 
ATOM     28  H   UNL     1      -2.989  -1.957   3.611  1.00  0.00     0.163 HD
ATOM     29  O   UNL     1      -5.043  -3.153   3.222  1.00  0.00    -0.269 OA
BRANCH  27  30
ATOM     30  C   UNL     1      -4.120  -4.037   1.250  1.00  0.00     0.039 A 
ATOM     31  C   UNL     1      -5.314  -4.135   0.528  1.00  0.00     0.014 A 
ATOM     32  C   UNL     1      -3.007  -4.781   0.850  1.00  0.00     0.014 A 
ATOM     33  C   UNL     1      -5.376  -4.938  -0.615  1.00  0.00     0.010 A 
ATOM     34  C   UNL     1      -3.047  -5.518  -0.334  1.00  0.00     0.010 A 
ATOM     35  C   UNL     1      -4.234  -5.615  -1.075  1.00  0.00    -0.014 A 
BRANCH  35  36
ATOM     36  C   UNL     1      -4.266  -6.428  -2.321  1.00  0.00     0.031 A 
ATOM     37  C   UNL     1      -4.014  -7.913  -2.273  1.00  0.00     0.074 A 
ATOM     38  C   UNL     1      -4.472  -5.824  -3.509  1.00  0.00     0.049 A 
ATOM     39  N   UNL     1      -3.971  -8.777  -3.256  1.00  0.00    -0.248 NA
ATOM     40  C   UNL     1      -3.752  -8.499  -0.949  1.00  0.00     0.031 C 
ATOM     41  C   UNL     1      -4.712  -4.392  -3.699  1.00  0.00     0.029 A 
ATOM     42  N   UNL     1      -4.516  -6.339  -4.781  1.00  0.00    -0.354 N 
ATOM     43  C   UNL     1      -3.659 -10.001  -2.673  1.00  0.00     0.074 A 
ATOM     44  C   UNL     1      -3.470  -9.755  -1.260  1.00  0.00     0.031 C 
ATOM     45  C   UNL     1      -4.925  -4.152  -5.003  1.00  0.00     0.029 A 
ATOM     46  C   UNL     1      -4.782  -5.399  -5.749  1.00  0.00     0.049 A 
ATOM     47  H   UNL     1      -4.371  -7.292  -4.982  1.00  0.00     0.167 HD
ATOM     48  C   UNL     1      -3.551 -11.221  -3.256  1.00  0.00     0.031 A 
ATOM     49  C   UNL     1      -4.894  -5.521  -7.086  1.00  0.00     0.031 A 
ATOM     50  C   UNL     1      -3.731 -11.458  -4.666  1.00  0.00     0.049 A 
ATOM     51  C   UNL     1      -4.720  -6.875  -7.719  1.00  0.00     0.074 A 
ATOM     52  C   UNL     1      -3.696 -12.663  -5.346  1.00  0.00     0.029 A 
ATOM     53  N   UNL     1      -3.963 -10.473  -5.615  1.00  0.00    -0.354 N 
ATOM     54  N   UNL     1      -4.490  -8.031  -7.144  1.00  0.00    -0.248 NA
ATOM     55  C   UNL     1      -4.829  -6.939  -9.183  1.00  0.00     0.031 C 
ATOM     56  C   UNL     1      -3.825 -12.397  -6.714  1.00  0.00     0.029 A 
ATOM     57  C   UNL     1      -4.029 -11.037  -6.879  1.00  0.00     0.049 A 
ATOM     58  H   UNL     1      -4.066  -9.513  -5.418  1.00  0.00     0.167 HD
ATOM     59  C   UNL     1      -4.465  -8.967  -8.173  1.00  0.00     0.074 A 
ATOM     60  C   UNL     1      -4.711  -8.242  -9.403  1.00  0.00     0.031 C 
ATOM     61  C   UNL     1      -4.266 -10.307  -8.102  1.00  0.00     0.031 A 
BRANCH  48  62
ATOM     62  C   UNL     1      -3.180 -12.386  -2.370  1.00  0.00    -0.014 A 
ATOM     63  C   UNL     1      -4.040 -12.844  -1.353  1.00  0.00     0.010 A 
ATOM     64  C   UNL     1      -1.950 -13.041  -2.563  1.00  0.00     0.010 A 
ATOM     65  C   UNL     1      -3.645 -13.881  -0.503  1.00  0.00     0.020 A 
ATOM     66  C   UNL     1      -1.568 -14.106  -1.741  1.00  0.00     0.020 A 
ATOM     67  C   UNL     1      -2.407 -14.500  -0.698  1.00  0.00     0.054 A 
BRANCH  67  68
ATOM     68  S   UNL     1      -1.911 -15.828   0.433  1.00  0.00     0.124 S 
ATOM     69  O   UNL     1      -1.661 -15.091   1.669  1.00  0.00    -0.237 OA
ATOM     70  O   UNL     1      -3.087 -16.694   0.445  1.00  0.00    -0.237 OA
ATOM     71  O   UNL     1      -0.725 -16.400  -0.200  1.00  0.00    -0.744 OA
ENDBRANCH  67  68
ENDBRANCH  48  62
BRANCH  49  72
ATOM     72  C   UNL     1      -5.226  -4.327  -7.914  1.00  0.00    -0.014 A 
ATOM     73  C   UNL     1      -6.481  -4.229  -8.541  1.00  0.00     0.010 A 
ATOM     74  C   UNL     1      -4.307  -3.272  -8.058  1.00  0.00     0.010 A 
ATOM     75  C   UNL     1      -6.808  -3.103  -9.302  1.00  0.00     0.020 A 
ATOM     76  C   UNL     1      -4.642  -2.130  -8.791  1.00  0.00     0.020 A 
ATOM     77  C   UNL     1      -5.889  -2.056  -9.414  1.00  0.00     0.054 A 
BRANCH  77  78
ATOM     78  S   UNL     1      -6.367  -0.576 -10.348  1.00  0.00     0.124 S 
ATOM     79  O   UNL     1      -6.409  -1.081 -11.717  1.00  0.00    -0.237 OA
ATOM     80  O   UNL     1      -7.660  -0.238  -9.758  1.00  0.00    -0.237 OA
ATOM     81  O   UNL     1      -5.292   0.371 -10.063  1.00  0.00    -0.744 OA
ENDBRANCH  77  78
ENDBRANCH  49  72
BRANCH  61  82
ATOM     82  C   UNL     1      -4.345 -11.095  -9.386  1.00  0.00    -0.014 A 
ATOM     83  C   UNL     1      -3.364 -10.976 -10.387  1.00  0.00     0.010 A 
ATOM     84  C   UNL     1      -5.396 -12.014  -9.567  1.00  0.00     0.010 A 
ATOM     85  C   UNL     1      -3.451 -11.738 -11.556  1.00  0.00     0.020 A 
ATOM     86  C   UNL     1      -5.467 -12.803 -10.718  1.00  0.00     0.020 A 
ATOM     87  C   UNL     1      -4.500 -12.649 -11.712  1.00  0.00     0.054 A 
BRANCH  87  88
ATOM     88  S   UNL     1      -4.559 -13.661 -13.216  1.00  0.00     0.124 S 
ATOM     89  O   UNL     1      -4.905 -12.673 -14.235  1.00  0.00    -0.237 OA
ATOM     90  O   UNL     1      -3.202 -14.196 -13.294  1.00  0.00    -0.237 OA
ATOM     91  O   UNL     1      -5.597 -14.649 -12.930  1.00  0.00    -0.744 OA
ENDBRANCH  87  88
ENDBRANCH  61  82
ENDBRANCH  35  36
ENDBRANCH  27  30
ENDBRANCH  25  26
ENDBRANCH  24  25
ENDBRANCH   1  24
TORSDOF 18
