REMARK SMILES C[C@@](NC(=O)CSCc1ccccc1)(C(=O)NCCCCCCNC(=O)c1ccc(-c2c3nc(c(-c4ccc(S(=O)(=O)[O-])cc4)c4ccc([nH]4)c(-c4ccc(S(=O)(=O)[O-])cc4)c4nc(c(-c5ccc(S(=O)(=O)[O-])cc5)c5ccc2[nH]5)C=C4)C=C3)cc1)C1CC1
REMARK SMILES IDX 19 1 18 2 17 3 15 4 16 5 2 7 1 8 3 9 4 10 5 12 6 13 7 14
REMARK SMILES IDX 8 15 9 16 10 17 14 18 11 19 13 20 12 21 87 22 88 23 89 24
REMARK SMILES IDX 20 25 21 26 22 27 23 28 24 29 25 30 26 32 27 33 28 34 86 35
REMARK SMILES IDX 29 36 85 37 30 38 31 39 32 40 79 41 33 42 84 43 78 44 80 45
REMARK SMILES IDX 34 46 83 47 77 48 76 49 35 51 65 52 46 53 64 54 47 55 50 56
REMARK SMILES IDX 63 57 81 58 48 59 49 60 62 62 82 63 51 64 36 65 37 66 45 67
REMARK SMILES IDX 38 68 44 69 39 70 40 71 41 72 42 73 43 74 66 75 67 76 75 77
REMARK SMILES IDX 68 78 74 79 69 80 70 81 71 82 72 83 73 84 52 85 53 86 61 87
REMARK SMILES IDX 54 88 60 89 55 90 56 91 57 92 58 93 59 94
REMARK H PARENT 17 6 3 11 24 31 80 50 50 61
REMARK Flexibility Score: inf
ROOT
ATOM      1  C   UNL     1      -1.602   1.092   2.510  1.00  0.00     0.021 C 
ENDROOT
BRANCH   1   2
ATOM      2  C   UNL     1      -0.959   0.022   1.627  1.00  0.00     0.116 C 
BRANCH   2   3
ATOM      3  N   UNL     1      -1.508   0.016   0.286  1.00  0.00    -0.354 N 
ATOM      4  C   UNL     1      -1.025  -0.448  -0.902  1.00  0.00     0.245 C 
ATOM      5  O   UNL     1      -1.819  -0.372  -1.847  1.00  0.00    -0.272 OA
ATOM      6  H   UNL     1      -2.401   0.425   0.220  1.00  0.00     0.163 HD
BRANCH   4   7
ATOM      7  C   UNL     1       0.446  -0.961  -1.073  1.00  0.00     0.119 C 
ATOM      8  C   UNL     1       1.403   0.227  -0.758  1.00  0.00     0.046 C 
BRANCH   7   9
ATOM      9  N   UNL     1       0.766  -2.058  -0.138  1.00  0.00    -0.341 N 
ATOM     10  C   UNL     1       0.228  -3.298   0.015  1.00  0.00     0.230 C 
ATOM     11  H   UNL     1       1.500  -1.856   0.486  1.00  0.00     0.164 HD
ATOM     12  O   UNL     1       0.943  -4.139   0.572  1.00  0.00    -0.274 OA
BRANCH  10  13
ATOM     13  C   UNL     1      -1.178  -3.659  -0.423  1.00  0.00     0.169 C 
BRANCH  13  14
ATOM     14  S   UNL     1      -2.487  -3.340   0.812  1.00  0.00    -0.147 SA
BRANCH  14  15
ATOM     15  C   UNL     1      -1.664  -3.680   2.400  1.00  0.00     0.105 C 
BRANCH  15  16
ATOM     16  C   UNL     1      -2.349  -4.730   3.232  1.00  0.00    -0.038 A 
ATOM     17  C   UNL     1      -3.463  -4.419   4.026  1.00  0.00     0.004 A 
ATOM     18  C   UNL     1      -1.817  -6.023   3.289  1.00  0.00     0.004 A 
ATOM     19  C   UNL     1      -3.994  -5.363   4.905  1.00  0.00     0.000 A 
ATOM     20  C   UNL     1      -2.359  -6.971   4.155  1.00  0.00     0.000 A 
ATOM     21  C   UNL     1      -3.437  -6.637   4.973  1.00  0.00     0.000 A 
ENDBRANCH  15  16
ENDBRANCH  14  15
ENDBRANCH  13  14
ENDBRANCH  10  13
ENDBRANCH   7   9
BRANCH   7  22
ATOM     22  C   UNL     1       0.872  -1.415  -2.479  1.00  0.00     0.024 C 
ATOM     23  C   UNL     1      -0.001  -1.944  -3.593  1.00  0.00     0.007 C 
ATOM     24  C   UNL     1       0.558  -0.550  -3.684  1.00  0.00     0.007 C 
ENDBRANCH   7  22
ENDBRANCH   4   7
ENDBRANCH   2   3
ENDBRANCH   1   2
BRANCH   1  25
ATOM     25  C   UNL     1      -3.109   0.934   2.757  1.00  0.00     0.002 C 
BRANCH  25  26
ATOM     26  C   UNL     1      -3.550  -0.368   3.429  1.00  0.00     0.002 C 
BRANCH  26  27
ATOM     27  C   UNL     1      -2.833  -0.701   4.736  1.00  0.00     0.021 C 
BRANCH  27  28
ATOM     28  C   UNL     1      -3.064   0.304   5.852  1.00  0.00     0.116 C 
BRANCH  28  29
ATOM     29  N   UNL     1      -4.436   0.271   6.339  1.00  0.00    -0.352 N 
ATOM     30  C   UNL     1      -4.920  -0.021   7.589  1.00  0.00     0.251 C 
ATOM     31  H   UNL     1      -5.122   0.493   5.668  1.00  0.00     0.163 HD
ATOM     32  O   UNL     1      -6.130  -0.212   7.740  1.00  0.00    -0.269 OA
BRANCH  30  33
ATOM     33  C   UNL     1      -4.007  -0.123   8.750  1.00  0.00     0.039 A 
ATOM     34  C   UNL     1      -4.265  -1.071   9.745  1.00  0.00     0.014 A 
ATOM     35  C   UNL     1      -2.905   0.724   8.873  1.00  0.00     0.014 A 
ATOM     36  C   UNL     1      -3.388  -1.201  10.827  1.00  0.00     0.010 A 
ATOM     37  C   UNL     1      -1.972   0.512   9.880  1.00  0.00     0.010 A 
ATOM     38  C   UNL     1      -2.214  -0.434  10.885  1.00  0.00    -0.014 A 
BRANCH  38  39
ATOM     39  C   UNL     1      -1.241  -0.564  12.002  1.00  0.00     0.031 A 
ATOM     40  C   UNL     1      -0.922   0.635  12.860  1.00  0.00     0.074 A 
ATOM     41  C   UNL     1      -0.591  -1.729  12.197  1.00  0.00     0.049 A 
ATOM     42  N   UNL     1      -0.039   0.755  13.818  1.00  0.00    -0.248 NA
ATOM     43  C   UNL     1      -1.668   1.874  12.578  1.00  0.00     0.031 C 
ATOM     44  C   UNL     1      -0.778  -2.949  11.407  1.00  0.00     0.029 A 
ATOM     45  N   UNL     1       0.363  -2.076  13.120  1.00  0.00    -0.354 N 
ATOM     46  C   UNL     1      -0.101   2.085  14.224  1.00  0.00     0.074 A 
ATOM     47  C   UNL     1      -1.060   2.745  13.369  1.00  0.00     0.031 C 
ATOM     48  C   UNL     1       0.002  -3.921  11.907  1.00  0.00     0.029 A 
ATOM     49  C   UNL     1       0.780  -3.383  13.018  1.00  0.00     0.049 A 
ATOM     50  H   UNL     1       0.715  -1.450  13.792  1.00  0.00     0.167 HD
ATOM     51  C   UNL     1       0.561   2.697  15.235  1.00  0.00     0.031 A 
ATOM     52  C   UNL     1       1.690  -4.070  13.737  1.00  0.00     0.031 A 
ATOM     53  C   UNL     1       1.491   2.026  16.103  1.00  0.00     0.049 A 
ATOM     54  C   UNL     1       2.412  -3.370  14.856  1.00  0.00     0.074 A 
ATOM     55  C   UNL     1       2.164   2.533  17.200  1.00  0.00     0.029 A 
ATOM     56  N   UNL     1       1.875   0.700  15.972  1.00  0.00    -0.354 N 
ATOM     57  N   UNL     1       2.292  -2.129  15.266  1.00  0.00    -0.248 NA
ATOM     58  C   UNL     1       3.385  -4.167  15.616  1.00  0.00     0.031 C 
ATOM     59  C   UNL     1       2.998   1.527  17.700  1.00  0.00     0.029 A 
ATOM     60  C   UNL     1       2.796   0.377  16.953  1.00  0.00     0.049 A 
ATOM     61  H   UNL     1       1.543   0.080  15.283  1.00  0.00     0.167 HD
ATOM     62  C   UNL     1       3.152  -2.006  16.352  1.00  0.00     0.074 A 
ATOM     63  C   UNL     1       3.773  -3.301  16.542  1.00  0.00     0.031 C 
ATOM     64  C   UNL     1       3.402  -0.920  17.125  1.00  0.00     0.031 A 
BRANCH  51  65
ATOM     65  C   UNL     1       0.301   4.168  15.448  1.00  0.00    -0.014 A 
ATOM     66  C   UNL     1      -0.952   4.633  15.889  1.00  0.00     0.010 A 
ATOM     67  C   UNL     1       1.329   5.099  15.216  1.00  0.00     0.010 A 
ATOM     68  C   UNL     1      -1.189   6.003  16.036  1.00  0.00     0.020 A 
ATOM     69  C   UNL     1       1.107   6.468  15.396  1.00  0.00     0.020 A 
ATOM     70  C   UNL     1      -0.159   6.912  15.783  1.00  0.00     0.054 A 
BRANCH  70  71
ATOM     71  S   UNL     1      -0.494   8.683  15.985  1.00  0.00     0.124 S 
ATOM     72  O   UNL     1      -1.336   8.964  14.823  1.00  0.00    -0.237 OA
ATOM     73  O   UNL     1      -1.172   8.736  17.277  1.00  0.00    -0.237 OA
ATOM     74  O   UNL     1       0.832   9.294  15.954  1.00  0.00    -0.744 OA
ENDBRANCH  70  71
ENDBRANCH  51  65
BRANCH  52  75
ATOM     75  C   UNL     1       1.942  -5.508  13.442  1.00  0.00    -0.014 A 
ATOM     76  C   UNL     1       1.526  -6.501  14.346  1.00  0.00     0.010 A 
ATOM     77  C   UNL     1       2.585  -5.896  12.251  1.00  0.00     0.010 A 
ATOM     78  C   UNL     1       1.762  -7.852  14.076  1.00  0.00     0.020 A 
ATOM     79  C   UNL     1       2.797  -7.248  11.964  1.00  0.00     0.020 A 
ATOM     80  C   UNL     1       2.394  -8.217  12.885  1.00  0.00     0.054 A 
BRANCH  80  81
ATOM     81  S   UNL     1       2.647  -9.980  12.535  1.00  0.00     0.124 S 
ATOM     82  O   UNL     1       3.708 -10.327  13.475  1.00  0.00    -0.237 OA
ATOM     83  O   UNL     1       1.333 -10.549  12.824  1.00  0.00    -0.237 OA
ATOM     84  O   UNL     1       3.029  -9.997  11.125  1.00  0.00    -0.744 OA
ENDBRANCH  80  81
ENDBRANCH  52  75
BRANCH  64  85
ATOM     85  C   UNL     1       4.362  -1.094  18.272  1.00  0.00    -0.014 A 
ATOM     86  C   UNL     1       5.742  -1.247  18.054  1.00  0.00     0.010 A 
ATOM     87  C   UNL     1       3.876  -1.045  19.592  1.00  0.00     0.010 A 
ATOM     88  C   UNL     1       6.616  -1.380  19.136  1.00  0.00     0.020 A 
ATOM     89  C   UNL     1       4.750  -1.147  20.676  1.00  0.00     0.020 A 
ATOM     90  C   UNL     1       6.114  -1.328  20.441  1.00  0.00     0.054 A 
BRANCH  90  91
ATOM     91  S   UNL     1       7.275  -1.456  21.827  1.00  0.00     0.124 S 
ATOM     92  O   UNL     1       7.634  -2.872  21.793  1.00  0.00    -0.237 OA
ATOM     93  O   UNL     1       8.337  -0.529  21.442  1.00  0.00    -0.237 OA
ATOM     94  O   UNL     1       6.483  -1.042  22.983  1.00  0.00    -0.744 OA
ENDBRANCH  90  91
ENDBRANCH  64  85
ENDBRANCH  38  39
ENDBRANCH  30  33
ENDBRANCH  28  29
ENDBRANCH  27  28
ENDBRANCH  26  27
ENDBRANCH  25  26
ENDBRANCH   1  25
TORSDOF 22
