REMARK SMILES CCN(CC)c1ccc([C@@H]2c3[nH]c4ccccc4c3C[C@@H](C(=O)NCCCCCCNC(=O)c3ccc(-c4c5nc(c(-c6ccc(S(=O)(=O)[O-])cc6)c6ccc([nH]6)c(-c6ccc(S(=O)(=O)[O-])cc6)c6nc(c(-c7ccc(S(=O)(=O)[O-])cc7)c7ccc4[nH]7)C=C6)C=C5)cc3)N2C(C)=O)cc1
REMARK SMILES IDX 27 1 26 2 25 3 24 4 22 5 23 6 21 8 10 9 11 10 94 11 12 12
REMARK SMILES IDX 19 13 13 14 18 16 20 17 14 18 17 19 15 20 16 21 9 22 6 23
REMARK SMILES IDX 7 24 99 25 8 26 98 27 3 28 2 29 1 30 4 31 5 32 95 33 96 34
REMARK SMILES IDX 97 35 28 36 29 37 30 38 31 39 32 40 33 42 34 43 35 44 93 45
REMARK SMILES IDX 36 46 92 47 37 48 38 49 39 50 86 51 40 52 91 53 85 54 87 55
REMARK SMILES IDX 41 56 90 57 84 58 83 59 42 61 72 62 53 63 71 64 54 65 57 66
REMARK SMILES IDX 70 67 88 68 55 69 56 70 69 72 89 73 58 74 43 75 44 76 52 77
REMARK SMILES IDX 45 78 51 79 46 80 47 81 48 82 49 83 50 84 73 85 74 86 82 87
REMARK SMILES IDX 75 88 81 89 76 90 77 91 78 92 79 93 80 94 59 95 60 96 68 97
REMARK SMILES IDX 61 98 67 99 62 100 63 101 64 102 65 103 66 104
REMARK H PARENT 24 7 12 15 31 41 87 60 57 71
REMARK Flexibility Score: inf
ROOT
ATOM      1  C   UNL     1       6.006  -6.625  -3.746  1.00  0.00     0.002 C 
ENDROOT
BRANCH   1   2
ATOM      2  C   UNL     1       6.440  -5.775  -2.534  1.00  0.00     0.021 C 
BRANCH   2   3
ATOM      3  C   UNL     1       7.861  -5.162  -2.476  1.00  0.00     0.116 C 
BRANCH   3   4
ATOM      4  N   UNL     1       7.945  -3.738  -2.007  1.00  0.00    -0.354 N 
ATOM      5  C   UNL     1       8.268  -2.999  -0.888  1.00  0.00     0.243 C 
ATOM      6  O   UNL     1       8.340  -1.776  -1.100  1.00  0.00    -0.273 OA
ATOM      7  H   UNL     1       7.683  -3.133  -2.739  1.00  0.00     0.163 HD
BRANCH   5   8
ATOM      8  C   UNL     1       8.335  -3.486   0.626  1.00  0.00     0.179 C 
ATOM      9  C   UNL     1       5.914  -3.795   0.571  1.00  0.00     0.163 C 
ATOM     10  C   UNL     1       6.245  -5.283   0.563  1.00  0.00     0.047 A 
ATOM     11  N   UNL     1       7.027  -3.310   1.379  1.00  0.00    -0.318 N 
ATOM     12  N   UNL     1       5.396  -6.350   0.552  1.00  0.00    -0.356 N 
ATOM     13  C   UNL     1       7.542  -5.803   0.663  1.00  0.00    -0.014 A 
ATOM     14  C   UNL     1       6.074  -7.469   0.979  1.00  0.00     0.046 A 
ATOM     15  H   UNL     1       4.449  -6.324   0.282  1.00  0.00     0.166 HD
ATOM     16  C   UNL     1       7.434  -7.169   0.973  1.00  0.00     0.003 A 
ATOM     17  C   UNL     1       8.771  -4.949   0.697  1.00  0.00     0.073 C 
ATOM     18  C   UNL     1       5.585  -8.700   1.403  1.00  0.00     0.026 A 
ATOM     19  C   UNL     1       8.370  -8.142   1.351  1.00  0.00     0.010 A 
ATOM     20  C   UNL     1       6.525  -9.630   1.857  1.00  0.00     0.002 A 
ATOM     21  C   UNL     1       7.894  -9.365   1.818  1.00  0.00     0.001 A 
BRANCH   9  22
ATOM     22  C   UNL     1       4.540  -3.250   0.884  1.00  0.00    -0.019 A 
ATOM     23  C   UNL     1       1.847  -2.309   1.002  1.00  0.00     0.037 A 
ATOM     24  C   UNL     1       2.203  -3.611   1.342  1.00  0.00     0.026 A 
ATOM     25  C   UNL     1       2.913  -1.436   0.754  1.00  0.00     0.026 A 
ATOM     26  C   UNL     1       3.513  -4.060   1.331  1.00  0.00     0.008 A 
ATOM     27  C   UNL     1       4.239  -1.894   0.679  1.00  0.00     0.008 A 
BRANCH  23  28
ATOM     28  N   UNL     1       0.517  -1.926   0.899  1.00  0.00    -0.372 N 
BRANCH  28  29
ATOM     29  C   UNL     1       0.071  -1.248  -0.325  1.00  0.00     0.113 C 
ATOM     30  C   UNL     1       0.257   0.261  -0.270  1.00  0.00     0.027 C 
ENDBRANCH  28  29
BRANCH  28  31
ATOM     31  C   UNL     1      -0.516  -2.506   1.777  1.00  0.00     0.113 C 
ATOM     32  C   UNL     1      -0.895  -3.951   1.452  1.00  0.00     0.027 C 
ENDBRANCH  28  31
ENDBRANCH  23  28
ENDBRANCH   9  22
BRANCH  11  33
ATOM     33  C   UNL     1       6.840  -3.541   2.762  1.00  0.00     0.220 C 
ATOM     34  C   UNL     1       7.998  -3.599   3.718  1.00  0.00     0.114 C 
ATOM     35  O   UNL     1       5.731  -3.753   3.267  1.00  0.00    -0.275 OA
ENDBRANCH  11  33
ENDBRANCH   5   8
ENDBRANCH   3   4
ENDBRANCH   2   3
ENDBRANCH   1   2
BRANCH   1  36
ATOM     36  C   UNL     1       6.707  -7.973  -3.983  1.00  0.00     0.002 C 
BRANCH  36  37
ATOM     37  C   UNL     1       6.635  -9.050  -2.885  1.00  0.00     0.021 C 
BRANCH  37  38
ATOM     38  C   UNL     1       5.255  -9.591  -2.484  1.00  0.00     0.116 C 
BRANCH  38  39
ATOM     39  N   UNL     1       4.518 -10.182  -3.593  1.00  0.00    -0.352 N 
ATOM     40  C   UNL     1       4.089 -11.467  -3.834  1.00  0.00     0.251 C 
ATOM     41  H   UNL     1       4.283  -9.542  -4.303  1.00  0.00     0.163 HD
ATOM     42  O   UNL     1       3.624 -11.729  -4.943  1.00  0.00    -0.269 OA
BRANCH  40  43
ATOM     43  C   UNL     1       4.165 -12.547  -2.816  1.00  0.00     0.039 A 
ATOM     44  C   UNL     1       4.480 -13.845  -3.241  1.00  0.00     0.014 A 
ATOM     45  C   UNL     1       3.832 -12.335  -1.476  1.00  0.00     0.014 A 
ATOM     46  C   UNL     1       4.510 -14.907  -2.327  1.00  0.00     0.010 A 
ATOM     47  C   UNL     1       3.918 -13.385  -0.552  1.00  0.00     0.010 A 
ATOM     48  C   UNL     1       4.254 -14.685  -0.965  1.00  0.00    -0.014 A 
BRANCH  48  49
ATOM     49  C   UNL     1       4.336 -15.797   0.027  1.00  0.00     0.031 A 
ATOM     50  C   UNL     1       3.110 -16.250   0.781  1.00  0.00     0.074 A 
ATOM     51  C   UNL     1       5.526 -16.377   0.286  1.00  0.00     0.049 A 
ATOM     52  N   UNL     1       3.002 -17.173   1.705  1.00  0.00    -0.248 NA
ATOM     53  C   UNL     1       1.846 -15.565   0.471  1.00  0.00     0.031 C 
ATOM     54  C   UNL     1       6.796 -16.018  -0.350  1.00  0.00     0.029 A 
ATOM     55  N   UNL     1       5.867 -17.387   1.154  1.00  0.00    -0.354 N 
ATOM     56  C   UNL     1       1.667 -17.168   2.096  1.00  0.00     0.074 A 
ATOM     57  C   UNL     1       1.015 -16.119   1.343  1.00  0.00     0.031 C 
ATOM     58  C   UNL     1       7.769 -16.810   0.130  1.00  0.00     0.029 A 
ATOM     59  C   UNL     1       7.205 -17.704   1.137  1.00  0.00     0.049 A 
ATOM     60  H   UNL     1       5.213 -17.840   1.734  1.00  0.00     0.167 HD
ATOM     61  C   UNL     1       1.036 -17.972   2.988  1.00  0.00     0.031 A 
ATOM     62  C   UNL     1       7.907 -18.606   1.852  1.00  0.00     0.031 A 
ATOM     63  C   UNL     1       1.685 -19.019   3.735  1.00  0.00     0.049 A 
ATOM     64  C   UNL     1       7.189 -19.475   2.850  1.00  0.00     0.074 A 
ATOM     65  C   UNL     1       1.121 -19.918   4.624  1.00  0.00     0.029 A 
ATOM     66  N   UNL     1       3.041 -19.307   3.685  1.00  0.00    -0.354 N 
ATOM     67  N   UNL     1       5.915 -19.493   3.159  1.00  0.00    -0.248 NA
ATOM     68  C   UNL     1       8.002 -20.455   3.584  1.00  0.00     0.031 C 
ATOM     69  C   UNL     1       2.144 -20.710   5.156  1.00  0.00     0.029 A 
ATOM     70  C   UNL     1       3.335 -20.352   4.545  1.00  0.00     0.049 A 
ATOM     71  H   UNL     1       3.697 -18.838   3.120  1.00  0.00     0.167 HD
ATOM     72  C   UNL     1       5.768 -20.508   4.099  1.00  0.00     0.074 A 
ATOM     73  C   UNL     1       7.080 -21.088   4.298  1.00  0.00     0.031 C 
ATOM     74  C   UNL     1       4.645 -20.925   4.735  1.00  0.00     0.031 A 
BRANCH  61  75
ATOM     75  C   UNL     1      -0.439 -17.744   3.217  1.00  0.00    -0.014 A 
ATOM     76  C   UNL     1      -1.386 -18.037   2.219  1.00  0.00     0.010 A 
ATOM     77  C   UNL     1      -0.889 -17.277   4.466  1.00  0.00     0.010 A 
ATOM     78  C   UNL     1      -2.748 -17.824   2.447  1.00  0.00     0.020 A 
ATOM     79  C   UNL     1      -2.254 -17.093   4.710  1.00  0.00     0.020 A 
ATOM     80  C   UNL     1      -3.174 -17.350   3.692  1.00  0.00     0.054 A 
BRANCH  80  81
ATOM     81  S   UNL     1      -4.950 -17.101   3.963  1.00  0.00     0.124 S 
ATOM     82  O   UNL     1      -5.218 -15.924   3.143  1.00  0.00    -0.237 OA
ATOM     83  O   UNL     1      -5.527 -18.350   3.480  1.00  0.00    -0.237 OA
ATOM     84  O   UNL     1      -5.053 -16.887   5.409  1.00  0.00    -0.744 OA
ENDBRANCH  80  81
ENDBRANCH  61  75
BRANCH  62  85
ATOM     85  C   UNL     1       9.376 -18.743   1.641  1.00  0.00    -0.014 A 
ATOM     86  C   UNL     1       9.910 -19.895   1.036  1.00  0.00     0.010 A 
ATOM     87  C   UNL     1      10.251 -17.713   2.035  1.00  0.00     0.010 A 
ATOM     88  C   UNL     1      11.290 -20.023   0.845  1.00  0.00     0.020 A 
ATOM     89  C   UNL     1      11.628 -17.823   1.817  1.00  0.00     0.020 A 
ATOM     90  C   UNL     1      12.139 -18.983   1.234  1.00  0.00     0.054 A 
BRANCH  90  91
ATOM     91  S   UNL     1      13.921 -19.149   0.929  1.00  0.00     0.124 S 
ATOM     92  O   UNL     1      14.308 -20.145   1.922  1.00  0.00    -0.237 OA
ATOM     93  O   UNL     1      13.962 -19.591  -0.463  1.00  0.00    -0.237 OA
ATOM     94  O   UNL     1      14.434 -17.800   1.161  1.00  0.00    -0.744 OA
ENDBRANCH  90  91
ENDBRANCH  62  85
BRANCH  74  95
ATOM     95  C   UNL     1       4.770 -22.095   5.677  1.00  0.00    -0.014 A 
ATOM     96  C   UNL     1       5.426 -21.977   6.915  1.00  0.00     0.010 A 
ATOM     97  C   UNL     1       4.168 -23.322   5.336  1.00  0.00     0.010 A 
ATOM     98  C   UNL     1       5.507 -23.073   7.779  1.00  0.00     0.020 A 
ATOM     99  C   UNL     1       4.220 -24.410   6.210  1.00  0.00     0.020 A 
ATOM    100  C   UNL     1       4.902 -24.282   7.421  1.00  0.00     0.054 A 
BRANCH 100 101
ATOM    101  S   UNL     1       4.984 -25.676   8.580  1.00  0.00     0.124 S 
ATOM    102  O   UNL     1       6.382 -26.081   8.471  1.00  0.00    -0.237 OA
ATOM    103  O   UNL     1       4.605 -25.059   9.849  1.00  0.00    -0.237 OA
ATOM    104  O   UNL     1       4.015 -26.630   8.045  1.00  0.00    -0.744 OA
ENDBRANCH 100 101
ENDBRANCH  74  95
ENDBRANCH  48  49
ENDBRANCH  40  43
ENDBRANCH  38  39
ENDBRANCH  37  38
ENDBRANCH  36  37
ENDBRANCH   1  36
TORSDOF 21
