REMARK SMILES N#CCC[NH2+]C1(C(=O)NCCCCCCNC(=O)c2ccc(-c3c4nc(c(-c5ccc(S(=O)(=O)[O-])cc5)c5ccc([nH]5)c(-c5ccc(S(=O)(=O)[O-])cc5)c5nc(c(-c6ccc(S(=O)(=O)[O-])cc6)c6ccc3[nH]6)C=C5)C=C4)cc2)CC1
REMARK SMILES IDX 12 1 11 2 10 3 9 4 7 5 8 6 6 8 79 9 80 10 5 11 4 14 3 15
REMARK SMILES IDX 2 16 1 17 13 18 14 19 15 20 16 21 17 22 18 24 19 25 20 26
REMARK SMILES IDX 78 27 21 28 77 29 22 30 23 31 24 32 71 33 25 34 76 35 70 36
REMARK SMILES IDX 72 37 26 38 75 39 69 40 68 41 27 43 57 44 38 45 56 46 39 47
REMARK SMILES IDX 42 48 55 49 73 50 40 51 41 52 54 54 74 55 43 56 28 57 29 58
REMARK SMILES IDX 37 59 30 60 36 61 31 62 32 63 33 64 34 65 35 66 58 67 59 68
REMARK SMILES IDX 67 69 60 70 66 71 61 72 62 73 63 74 64 75 65 76 44 77 45 78
REMARK SMILES IDX 53 79 46 80 52 81 47 82 48 83 49 84 50 85 51 86
REMARK H PARENT 9 7 5 12 5 13 16 23 72 42 42 53
REMARK Flexibility Score: inf
ROOT
ATOM      1  C   UNL     1       8.773   2.725  -5.221  1.00  0.00     0.002 C 
ENDROOT
BRANCH   1   2
ATOM      2  C   UNL     1       7.567   3.672  -5.140  1.00  0.00     0.021 C 
BRANCH   2   3
ATOM      3  C   UNL     1       6.208   2.989  -5.316  1.00  0.00     0.116 C 
BRANCH   3   4
ATOM      4  N   UNL     1       6.006   1.952  -4.326  1.00  0.00    -0.351 N 
ATOM      5  C   UNL     1       5.848   2.293  -3.005  1.00  0.00     0.281 C 
ATOM      6  O   UNL     1       6.771   2.116  -2.213  1.00  0.00    -0.268 OA
ATOM      7  H   UNL     1       5.983   1.006  -4.598  1.00  0.00     0.163 HD
BRANCH   5   8
ATOM      8  C   UNL     1       4.465   2.712  -2.537  1.00  0.00     0.176 C 
ATOM      9  C   UNL     1       3.348   3.091  -3.492  1.00  0.00     0.086 C 
ATOM     10  C   UNL     1       4.061   4.160  -2.715  1.00  0.00     0.086 C 
BRANCH   8  11
ATOM     11  N   UNL     1       4.041   2.038  -1.273  1.00  0.00    -0.333 N 
ATOM     12  H   UNL     1       4.596   2.411  -0.503  1.00  0.00     0.347 HD
ATOM     13  H   UNL     1       3.046   2.222  -1.144  1.00  0.00     0.347 HD
BRANCH  11  14
ATOM     14  C   UNL     1       4.221   0.581  -1.320  1.00  0.00     0.276 C 
BRANCH  14  15
ATOM     15  C   UNL     1       3.720  -0.068  -0.042  1.00  0.00     0.181 C 
BRANCH  15  16
ATOM     16  C   UNL     1       2.200  -0.068  -0.042  1.00  0.00     0.068 C 
ATOM     17  N   UNL     1       0.940  -0.068  -0.042  1.00  0.00    -0.198 NA
ENDBRANCH  15  16
ENDBRANCH  14  15
ENDBRANCH  11  14
ENDBRANCH   8  11
ENDBRANCH   5   8
ENDBRANCH   3   4
ENDBRANCH   2   3
ENDBRANCH   1   2
BRANCH   1  18
ATOM     18  C   UNL     1       8.858   1.881  -6.495  1.00  0.00     0.002 C 
BRANCH  18  19
ATOM     19  C   UNL     1       8.735   2.666  -7.801  1.00  0.00     0.021 C 
BRANCH  19  20
ATOM     20  C   UNL     1       9.720   3.819  -7.946  1.00  0.00     0.116 C 
BRANCH  20  21
ATOM     21  N   UNL     1      11.092   3.360  -8.074  1.00  0.00    -0.352 N 
ATOM     22  C   UNL     1      12.001   3.658  -9.061  1.00  0.00     0.251 C 
ATOM     23  H   UNL     1      11.412   2.758  -7.364  1.00  0.00     0.163 HD
ATOM     24  O   UNL     1      13.072   3.064  -9.125  1.00  0.00    -0.269 OA
BRANCH  22  25
ATOM     25  C   UNL     1      11.652   4.683 -10.067  1.00  0.00     0.039 A 
ATOM     26  C   UNL     1      11.730   4.356 -11.422  1.00  0.00     0.014 A 
ATOM     27  C   UNL     1      11.188   5.939  -9.664  1.00  0.00     0.014 A 
ATOM     28  C   UNL     1      11.264   5.264 -12.376  1.00  0.00     0.010 A 
ATOM     29  C   UNL     1      10.670   6.817 -10.611  1.00  0.00     0.010 A 
ATOM     30  C   UNL     1      10.690   6.481 -11.974  1.00  0.00    -0.014 A 
BRANCH  30  31
ATOM     31  C   UNL     1      10.060   7.401 -12.956  1.00  0.00     0.031 A 
ATOM     32  C   UNL     1      10.639   8.767 -13.193  1.00  0.00     0.074 A 
ATOM     33  C   UNL     1       8.914   7.036 -13.564  1.00  0.00     0.049 A 
ATOM     34  N   UNL     1      10.172   9.742 -13.928  1.00  0.00    -0.248 NA
ATOM     35  C   UNL     1      11.896   9.086 -12.495  1.00  0.00     0.031 C 
ATOM     36  C   UNL     1       8.232   5.751 -13.390  1.00  0.00     0.029 A 
ATOM     37  N   UNL     1       8.108   7.722 -14.439  1.00  0.00    -0.354 N 
ATOM     38  C   UNL     1      11.064  10.794 -13.772  1.00  0.00     0.074 A 
ATOM     39  C   UNL     1      12.082  10.351 -12.842  1.00  0.00     0.031 C 
ATOM     40  C   UNL     1       7.120   5.738 -14.141  1.00  0.00     0.029 A 
ATOM     41  C   UNL     1       6.984   7.025 -14.816  1.00  0.00     0.049 A 
ATOM     42  H   UNL     1       8.316   8.627 -14.766  1.00  0.00     0.167 HD
ATOM     43  C   UNL     1      11.045  12.015 -14.358  1.00  0.00     0.031 A 
ATOM     44  C   UNL     1       5.949   7.386 -15.598  1.00  0.00     0.031 A 
ATOM     45  C   UNL     1      10.037  12.450 -15.287  1.00  0.00     0.049 A 
ATOM     46  C   UNL     1       5.933   8.757 -16.211  1.00  0.00     0.074 A 
ATOM     47  C   UNL     1       9.971  13.641 -15.989  1.00  0.00     0.029 A 
ATOM     48  N   UNL     1       8.914  11.716 -15.638  1.00  0.00    -0.354 N 
ATOM     49  N   UNL     1       6.823   9.714 -16.106  1.00  0.00    -0.248 NA
ATOM     50  C   UNL     1       4.772   9.099 -17.045  1.00  0.00     0.031 C 
ATOM     51  C   UNL     1       8.780  13.649 -16.724  1.00  0.00     0.029 A 
ATOM     52  C   UNL     1       8.129  12.444 -16.517  1.00  0.00     0.049 A 
ATOM     53  H   UNL     1       8.705  10.812 -15.310  1.00  0.00     0.167 HD
ATOM     54  C   UNL     1       6.335  10.770 -16.867  1.00  0.00     0.074 A 
ATOM     55  C   UNL     1       5.081  10.327 -17.443  1.00  0.00     0.031 C 
ATOM     56  C   UNL     1       6.876  11.996 -17.068  1.00  0.00     0.031 A 
BRANCH  43  57
ATOM     57  C   UNL     1      12.148  12.974 -14.001  1.00  0.00    -0.014 A 
ATOM     58  C   UNL     1      13.459  12.777 -14.470  1.00  0.00     0.010 A 
ATOM     59  C   UNL     1      11.863  14.107 -13.218  1.00  0.00     0.010 A 
ATOM     60  C   UNL     1      14.475  13.674 -14.129  1.00  0.00     0.020 A 
ATOM     61  C   UNL     1      12.871  15.020 -12.894  1.00  0.00     0.020 A 
ATOM     62  C   UNL     1      14.175  14.787 -13.338  1.00  0.00     0.054 A 
BRANCH  62  63
ATOM     63  S   UNL     1      15.508  15.945 -12.923  1.00  0.00     0.124 S 
ATOM     64  O   UNL     1      16.250  15.197 -11.911  1.00  0.00    -0.237 OA
ATOM     65  O   UNL     1      16.192  16.119 -14.202  1.00  0.00    -0.237 OA
ATOM     66  O   UNL     1      14.802  17.126 -12.433  1.00  0.00    -0.744 OA
ENDBRANCH  62  63
ENDBRANCH  43  57
BRANCH  44  67
ATOM     67  C   UNL     1       4.832   6.431 -15.832  1.00  0.00    -0.014 A 
ATOM     68  C   UNL     1       4.686   5.797 -17.077  1.00  0.00     0.010 A 
ATOM     69  C   UNL     1       3.924   6.134 -14.800  1.00  0.00     0.010 A 
ATOM     70  C   UNL     1       3.647   4.886 -17.289  1.00  0.00     0.020 A 
ATOM     71  C   UNL     1       2.898   5.207 -15.000  1.00  0.00     0.020 A 
ATOM     72  C   UNL     1       2.761   4.595 -16.248  1.00  0.00     0.054 A 
BRANCH  72  73
ATOM     73  S   UNL     1       1.461   3.358 -16.521  1.00  0.00     0.124 S 
ATOM     74  O   UNL     1       0.492   4.106 -17.314  1.00  0.00    -0.237 OA
ATOM     75  O   UNL     1       2.176   2.297 -17.227  1.00  0.00    -0.237 OA
ATOM     76  O   UNL     1       1.033   3.012 -15.167  1.00  0.00    -0.744 OA
ENDBRANCH  72  73
ENDBRANCH  44  67
BRANCH  56  77
ATOM     77  C   UNL     1       6.116  12.951 -17.946  1.00  0.00    -0.014 A 
ATOM     78  C   UNL     1       4.966  13.605 -17.469  1.00  0.00     0.010 A 
ATOM     79  C   UNL     1       6.593  13.250 -19.235  1.00  0.00     0.010 A 
ATOM     80  C   UNL     1       4.297  14.531 -18.273  1.00  0.00     0.020 A 
ATOM     81  C   UNL     1       5.939  14.192 -20.033  1.00  0.00     0.020 A 
ATOM     82  C   UNL     1       4.789  14.820 -19.550  1.00  0.00     0.054 A 
BRANCH  82  83
ATOM     83  S   UNL     1       3.939  16.072 -20.550  1.00  0.00     0.124 S 
ATOM     84  O   UNL     1       2.748  15.351 -20.990  1.00  0.00    -0.237 OA
ATOM     85  O   UNL     1       3.704  17.146 -19.589  1.00  0.00    -0.237 OA
ATOM     86  O   UNL     1       4.902  16.386 -21.603  1.00  0.00    -0.744 OA
ENDBRANCH  82  83
ENDBRANCH  56  77
ENDBRANCH  30  31
ENDBRANCH  22  25
ENDBRANCH  20  21
ENDBRANCH  19  20
ENDBRANCH  18  19
ENDBRANCH   1  18
TORSDOF 20
