REMARK SMILES O=C(NCCCCCCNC(=O)[C@H]1C[N@H+](Cc2cccc(Cl)c2)CC12CCCCC2)c1ccc(-c2c3nc(c(-c4ccc(S(=O)(=O)[O-])cc4)c4ccc([nH]4)c(-c4ccc(S(=O)(=O)[O-])cc4)c4nc(c(-c5ccc(S(=O)(=O)[O-])cc5)c5ccc2[nH]5)C=C4)C=C3)cc1
REMARK SMILES IDX 6 1 5 2 4 3 3 4 1 5 2 6 31 8 32 9 90 10 33 11 89 12 34 13
REMARK SMILES IDX 35 14 36 15 83 16 37 17 88 18 82 19 84 20 38 21 87 22 81 23
REMARK SMILES IDX 80 24 39 26 69 27 50 28 68 29 51 30 54 31 67 32 85 33 52 34
REMARK SMILES IDX 53 35 66 37 86 38 55 39 40 40 41 41 49 42 42 43 48 44 43 45
REMARK SMILES IDX 44 46 45 47 46 48 47 49 70 50 71 51 79 52 72 53 78 54 73 55
REMARK SMILES IDX 74 56 75 57 76 58 77 59 56 60 57 61 65 62 58 63 64 64 59 65
REMARK SMILES IDX 60 66 61 67 62 68 63 69 7 70 8 71 9 72 10 73 11 74 12 76
REMARK SMILES IDX 13 77 14 78 25 79 15 80 24 81 26 82 30 83 27 85 29 86 28 87
REMARK SMILES IDX 16 88 17 89 18 90 23 91 19 92 21 93 20 94 22 95
REMARK H PARENT 3 7 84 25 54 36 10 75 15 84
REMARK Flexibility Score: inf
ROOT
ATOM      1  C   UNL     1       4.000  -2.316  -3.233  1.00  0.00     0.002 C 
ENDROOT
BRANCH   1   2
ATOM      2  C   UNL     1       4.535  -2.147  -1.811  1.00  0.00     0.021 C 
BRANCH   2   3
ATOM      3  C   UNL     1       4.356  -0.756  -1.217  1.00  0.00     0.116 C 
BRANCH   3   4
ATOM      4  N   UNL     1       2.957  -0.383  -1.089  1.00  0.00    -0.352 N 
ATOM      5  O   UNL     1       1.049   0.150  -0.014  1.00  0.00    -0.269 OA
ATOM      6  C   UNL     1       2.272   0.041   0.022  1.00  0.00     0.251 C 
ATOM      7  H   UNL     1       2.426  -0.443  -1.916  1.00  0.00     0.163 HD
BRANCH   6   8
ATOM      8  C   UNL     1       3.010   0.341   1.268  1.00  0.00     0.039 A 
ATOM      9  C   UNL     1       4.188   1.091   1.234  1.00  0.00     0.014 A 
ATOM     10  C   UNL     1       2.513  -0.130   2.486  1.00  0.00     0.014 A 
ATOM     11  C   UNL     1       4.937   1.254   2.394  1.00  0.00     0.010 A 
ATOM     12  C   UNL     1       3.225   0.108   3.666  1.00  0.00     0.010 A 
ATOM     13  C   UNL     1       4.458   0.777   3.625  1.00  0.00    -0.014 A 
BRANCH  13  14
ATOM     14  C   UNL     1       5.234   1.052   4.861  1.00  0.00     0.031 A 
ATOM     15  C   UNL     1       5.853  -0.062   5.660  1.00  0.00     0.074 A 
ATOM     16  C   UNL     1       5.404   2.333   5.242  1.00  0.00     0.049 A 
ATOM     17  N   UNL     1       6.597   0.014   6.734  1.00  0.00    -0.248 NA
ATOM     18  C   UNL     1       5.605  -1.438   5.199  1.00  0.00     0.031 C 
ATOM     19  C   UNL     1       4.844   3.499   4.551  1.00  0.00     0.029 A 
ATOM     20  N   UNL     1       6.112   2.875   6.283  1.00  0.00    -0.354 N 
ATOM     21  C   UNL     1       6.889  -1.297   7.092  1.00  0.00     0.074 A 
ATOM     22  C   UNL     1       6.224  -2.152   6.131  1.00  0.00     0.031 C 
ATOM     23  C   UNL     1       5.277   4.617   5.151  1.00  0.00     0.029 A 
ATOM     24  C   UNL     1       6.090   4.250   6.305  1.00  0.00     0.049 A 
ATOM     25  H   UNL     1       6.591   2.333   6.951  1.00  0.00     0.167 HD
ATOM     26  C   UNL     1       7.645  -1.747   8.123  1.00  0.00     0.031 A 
ATOM     27  C   UNL     1       6.651   5.123   7.161  1.00  0.00     0.031 A 
ATOM     28  C   UNL     1       8.302  -0.891   9.079  1.00  0.00     0.049 A 
ATOM     29  C   UNL     1       7.462   4.597   8.309  1.00  0.00     0.074 A 
ATOM     30  C   UNL     1       9.111  -1.250  10.143  1.00  0.00     0.029 A 
ATOM     31  N   UNL     1       8.220   0.494   9.090  1.00  0.00    -0.354 N 
ATOM     32  N   UNL     1       7.751   3.353   8.610  1.00  0.00    -0.248 NA
ATOM     33  C   UNL     1       8.023   5.592   9.232  1.00  0.00     0.031 C 
ATOM     34  C   UNL     1       9.480  -0.086  10.826  1.00  0.00     0.029 A 
ATOM     35  C   UNL     1       8.945   1.003  10.156  1.00  0.00     0.049 A 
ATOM     36  H   UNL     1       7.721   1.036   8.438  1.00  0.00     0.167 HD
ATOM     37  C   UNL     1       8.542   3.417   9.750  1.00  0.00     0.074 A 
ATOM     38  C   UNL     1       8.701   4.822  10.071  1.00  0.00     0.031 C 
ATOM     39  C   UNL     1       9.086   2.403  10.467  1.00  0.00     0.031 A 
BRANCH  26  40
ATOM     40  C   UNL     1       7.781  -3.238   8.291  1.00  0.00    -0.014 A 
ATOM     41  C   UNL     1       8.559  -4.004   7.404  1.00  0.00     0.010 A 
ATOM     42  C   UNL     1       7.152  -3.878   9.375  1.00  0.00     0.010 A 
ATOM     43  C   UNL     1       8.670  -5.388   7.574  1.00  0.00     0.020 A 
ATOM     44  C   UNL     1       7.281  -5.258   9.563  1.00  0.00     0.020 A 
ATOM     45  C   UNL     1       8.024  -6.007   8.649  1.00  0.00     0.054 A 
BRANCH  45  46
ATOM     46  S   UNL     1       8.191  -7.803   8.849  1.00  0.00     0.124 S 
ATOM     47  O   UNL     1       7.324  -8.304   7.785  1.00  0.00    -0.237 OA
ATOM     48  O   UNL     1       9.621  -8.018   8.645  1.00  0.00    -0.237 OA
ATOM     49  O   UNL     1       7.714  -8.046  10.208  1.00  0.00    -0.744 OA
ENDBRANCH  45  46
ENDBRANCH  26  40
BRANCH  27  50
ATOM     50  C   UNL     1       6.456   6.582   6.958  1.00  0.00    -0.014 A 
ATOM     51  C   UNL     1       7.523   7.395   6.538  1.00  0.00     0.010 A 
ATOM     52  C   UNL     1       5.187   7.161   7.149  1.00  0.00     0.010 A 
ATOM     53  C   UNL     1       7.327   8.762   6.324  1.00  0.00     0.020 A 
ATOM     54  C   UNL     1       4.982   8.521   6.909  1.00  0.00     0.020 A 
ATOM     55  C   UNL     1       6.057   9.316   6.508  1.00  0.00     0.054 A 
BRANCH  55  56
ATOM     56  S   UNL     1       5.810  11.080   6.165  1.00  0.00     0.124 S 
ATOM     57  O   UNL     1       6.416  11.703   7.337  1.00  0.00    -0.237 OA
ATOM     58  O   UNL     1       6.531  11.262   4.907  1.00  0.00    -0.237 OA
ATOM     59  O   UNL     1       4.358  11.208   6.065  1.00  0.00    -0.744 OA
ENDBRANCH  55  56
ENDBRANCH  27  50
BRANCH  39  60
ATOM     60  C   UNL     1       9.925   2.782  11.656  1.00  0.00    -0.014 A 
ATOM     61  C   UNL     1       9.338   3.276  12.835  1.00  0.00     0.010 A 
ATOM     62  C   UNL     1      11.321   2.616  11.602  1.00  0.00     0.010 A 
ATOM     63  C   UNL     1      10.136   3.633  13.925  1.00  0.00     0.020 A 
ATOM     64  C   UNL     1      12.120   2.946  12.699  1.00  0.00     0.020 A 
ATOM     65  C   UNL     1      11.523   3.469  13.848  1.00  0.00     0.054 A 
BRANCH  65  66
ATOM     66  S   UNL     1      12.537   3.911  15.286  1.00  0.00     0.124 S 
ATOM     67  O   UNL     1      12.549   5.369  15.211  1.00  0.00    -0.237 OA
ATOM     68  O   UNL     1      11.780   3.345  16.400  1.00  0.00    -0.237 OA
ATOM     69  O   UNL     1      13.818   3.261  15.017  1.00  0.00    -0.744 OA
ENDBRANCH  65  66
ENDBRANCH  39  60
ENDBRANCH  13  14
ENDBRANCH   6   8
ENDBRANCH   3   4
ENDBRANCH   2   3
ENDBRANCH   1   2
BRANCH   1  70
ATOM     70  C   UNL     1       4.544  -1.321  -4.263  1.00  0.00     0.002 C 
BRANCH  70  71
ATOM     71  C   UNL     1       6.069  -1.206  -4.325  1.00  0.00     0.021 C 
BRANCH  71  72
ATOM     72  C   UNL     1       6.797  -2.528  -4.543  1.00  0.00     0.116 C 
BRANCH  72  73
ATOM     73  N   UNL     1       6.515  -3.089  -5.851  1.00  0.00    -0.356 N 
ATOM     74  C   UNL     1       7.367  -3.429  -6.860  1.00  0.00     0.229 C 
ATOM     75  H   UNL     1       5.562  -3.249  -6.039  1.00  0.00     0.163 HD
ATOM     76  O   UNL     1       6.895  -3.954  -7.869  1.00  0.00    -0.275 OA
BRANCH  74  77
ATOM     77  C   UNL     1       8.848  -3.135  -6.708  1.00  0.00     0.145 C 
ATOM     78  C   UNL     1       9.696  -4.242  -7.322  1.00  0.00     0.276 C 
ATOM     79  C   UNL     1       9.380  -1.817  -7.336  1.00  0.00     0.037 C 
ATOM     80  N   UNL     1      11.009  -3.642  -7.532  1.00  0.00    -0.330 N 
ATOM     81  C   UNL     1      10.758  -2.253  -7.924  1.00  0.00     0.270 C 
ATOM     82  C   UNL     1       8.466  -1.229  -8.442  1.00  0.00     0.014 C 
ATOM     83  C   UNL     1       9.518  -0.725  -6.250  1.00  0.00     0.014 C 
ATOM     84  H   UNL     1      11.501  -4.128  -8.281  1.00  0.00     0.348 HD
ATOM     85  C   UNL     1       8.973   0.111  -8.991  1.00  0.00     0.001 C 
ATOM     86  C   UNL     1      10.092   0.587  -6.776  1.00  0.00     0.001 C 
ATOM     87  C   UNL     1       9.219   1.142  -7.892  1.00  0.00     0.000 C 
BRANCH  80  88
ATOM     88  C   UNL     1      12.023  -3.875  -6.494  1.00  0.00     0.299 C 
BRANCH  88  89
ATOM     89  C   UNL     1      11.877  -3.171  -5.161  1.00  0.00     0.008 A 
ATOM     90  C   UNL     1      11.061  -3.695  -4.145  1.00  0.00     0.009 A 
ATOM     91  C   UNL     1      12.546  -1.959  -4.921  1.00  0.00     0.030 A 
ATOM     92  C   UNL     1      10.844  -2.983  -2.961  1.00  0.00     0.002 A 
ATOM     93  C   UNL     1      12.334  -1.255  -3.733  1.00  0.00     0.041 A 
ATOM     94  C   UNL     1      11.471  -1.754  -2.760  1.00  0.00     0.020 A 
ATOM     95  Cl  UNL     1      13.095   0.270  -3.501  1.00  0.00    -0.084 Cl
ENDBRANCH  88  89
ENDBRANCH  80  88
ENDBRANCH  74  77
ENDBRANCH  72  73
ENDBRANCH  71  72
ENDBRANCH  70  71
ENDBRANCH   1  70
TORSDOF 18
