REMARK SMILES O=C(NCCCCCCNC(=O)c1nc(NC[C@H]2c3ccccc3CSc3ccccc32)c2ccccc2n1)c1ccc(-c2c3nc(c(-c4ccc(S(=O)(=O)[O-])cc4)c4ccc([nH]4)c(-c4ccc(S(=O)(=O)[O-])cc4)c4nc(c(-c5ccc(S(=O)(=O)[O-])cc5)c5ccc2[nH]5)C=C4)C=C3)cc1
REMARK SMILES IDX 6 1 5 2 4 3 3 4 1 5 2 6 40 8 41 9 99 10 42 11 98 12 43 13
REMARK SMILES IDX 44 14 45 15 92 16 46 17 97 18 91 19 93 20 47 21 96 22 90 23
REMARK SMILES IDX 89 24 48 26 78 27 59 28 77 29 60 30 63 31 76 32 94 33 61 34
REMARK SMILES IDX 62 35 75 37 95 38 64 39 49 40 50 41 58 42 51 43 57 44 52 45
REMARK SMILES IDX 53 46 54 47 55 48 56 49 79 50 80 51 88 52 81 53 87 54 82 55
REMARK SMILES IDX 83 56 84 57 85 58 86 59 65 60 66 61 74 62 67 63 73 64 68 65
REMARK SMILES IDX 69 66 70 67 71 68 72 69 7 70 8 71 9 72 10 73 11 74 12 76
REMARK SMILES IDX 13 77 14 78 39 79 15 80 38 81 33 82 37 83 34 84 36 85 35 86
REMARK SMILES IDX 16 87 17 89 18 90 19 91 32 92 20 93 24 94 27 95 31 96 21 97
REMARK SMILES IDX 23 98 25 99 26 100 28 101 30 102 22 103 29 104
REMARK H PARENT 3 7 93 25 63 36 10 75 16 88
REMARK Flexibility Score: inf
ROOT
ATOM      1  C   UNL     1       4.204  -1.150  -3.748  1.00  0.00     0.002 C 
ENDROOT
BRANCH   1   2
ATOM      2  C   UNL     1       4.688  -1.451  -2.327  1.00  0.00     0.021 C 
BRANCH   2   3
ATOM      3  C   UNL     1       4.430  -0.349  -1.304  1.00  0.00     0.116 C 
BRANCH   3   4
ATOM      4  N   UNL     1       3.014  -0.076  -1.137  1.00  0.00    -0.352 N 
ATOM      5  O   UNL     1       1.037   0.047  -0.080  1.00  0.00    -0.269 OA
ATOM      6  C   UNL     1       2.260  -0.015   0.008  1.00  0.00     0.251 C 
ATOM      7  H   UNL     1       2.519   0.090  -1.972  1.00  0.00     0.163 HD
BRANCH   6   8
ATOM      8  C   UNL     1       2.904  -0.028   1.343  1.00  0.00     0.039 A 
ATOM      9  C   UNL     1       2.284  -0.737   2.376  1.00  0.00     0.014 A 
ATOM     10  C   UNL     1       4.063   0.709   1.604  1.00  0.00     0.014 A 
ATOM     11  C   UNL     1       2.830  -0.720   3.662  1.00  0.00     0.010 A 
ATOM     12  C   UNL     1       4.646   0.670   2.870  1.00  0.00     0.010 A 
ATOM     13  C   UNL     1       4.019  -0.019   3.919  1.00  0.00    -0.014 A 
BRANCH  13  14
ATOM     14  C   UNL     1       4.574   0.070   5.294  1.00  0.00     0.031 A 
ATOM     15  C   UNL     1       4.600   1.400   6.003  1.00  0.00     0.074 A 
ATOM     16  C   UNL     1       5.068  -1.026   5.901  1.00  0.00     0.049 A 
ATOM     17  N   UNL     1       5.078   1.694   7.184  1.00  0.00    -0.248 NA
ATOM     18  C   UNL     1       4.032   2.553   5.283  1.00  0.00     0.031 C 
ATOM     19  C   UNL     1       5.109  -2.367   5.316  1.00  0.00     0.029 A 
ATOM     20  N   UNL     1       5.627  -1.188   7.145  1.00  0.00    -0.354 N 
ATOM     21  C   UNL     1       4.882   3.061   7.341  1.00  0.00     0.074 A 
ATOM     22  C   UNL     1       4.291   3.550   6.117  1.00  0.00     0.031 C 
ATOM     23  C   UNL     1       5.632  -3.220   6.212  1.00  0.00     0.029 A 
ATOM     24  C   UNL     1       6.002  -2.483   7.419  1.00  0.00     0.049 A 
ATOM     25  H   UNL     1       5.747  -0.447   7.781  1.00  0.00     0.167 HD
ATOM     26  C   UNL     1       5.143   3.835   8.420  1.00  0.00     0.031 A 
ATOM     27  C   UNL     1       6.575  -3.020   8.515  1.00  0.00     0.031 A 
ATOM     28  C   UNL     1       5.699   3.338   9.650  1.00  0.00     0.049 A 
ATOM     29  C   UNL     1       6.869  -2.140   9.699  1.00  0.00     0.074 A 
ATOM     30  C   UNL     1       5.955   4.037  10.816  1.00  0.00     0.029 A 
ATOM     31  N   UNL     1       6.074   2.023   9.879  1.00  0.00    -0.354 N 
ATOM     32  N   UNL     1       6.642  -0.856   9.843  1.00  0.00    -0.248 NA
ATOM     33  C   UNL     1       7.485  -2.777  10.872  1.00  0.00     0.031 C 
ATOM     34  C   UNL     1       6.537   3.158  11.731  1.00  0.00     0.029 A 
ATOM     35  C   UNL     1       6.581   1.896  11.161  1.00  0.00     0.049 A 
ATOM     36  H   UNL     1       5.991   1.289   9.228  1.00  0.00     0.167 HD
ATOM     37  C   UNL     1       7.070  -0.535  11.126  1.00  0.00     0.074 A 
ATOM     38  C   UNL     1       7.556  -1.762  11.725  1.00  0.00     0.031 C 
ATOM     39  C   UNL     1       7.061   0.669  11.748  1.00  0.00     0.031 A 
BRANCH  26  40
ATOM     40  C   UNL     1       4.814   5.303   8.340  1.00  0.00    -0.014 A 
ATOM     41  C   UNL     1       5.849   6.255   8.372  1.00  0.00     0.010 A 
ATOM     42  C   UNL     1       3.478   5.744   8.337  1.00  0.00     0.010 A 
ATOM     43  C   UNL     1       5.556   7.620   8.429  1.00  0.00     0.020 A 
ATOM     44  C   UNL     1       3.181   7.109   8.364  1.00  0.00     0.020 A 
ATOM     45  C   UNL     1       4.223   8.038   8.434  1.00  0.00     0.054 A 
BRANCH  45  46
ATOM     46  S   UNL     1       3.859   9.813   8.525  1.00  0.00     0.124 S 
ATOM     47  O   UNL     1       4.099  10.104   9.934  1.00  0.00    -0.237 OA
ATOM     48  O   UNL     1       4.822  10.386   7.588  1.00  0.00    -0.237 OA
ATOM     49  O   UNL     1       2.464   9.897   8.096  1.00  0.00    -0.744 OA
ENDBRANCH  45  46
ENDBRANCH  26  40
BRANCH  27  50
ATOM     50  C   UNL     1       6.862  -4.481   8.540  1.00  0.00    -0.014 A 
ATOM     51  C   UNL     1       7.858  -5.028   7.709  1.00  0.00     0.010 A 
ATOM     52  C   UNL     1       6.081  -5.346   9.327  1.00  0.00     0.010 A 
ATOM     53  C   UNL     1       8.029  -6.412   7.621  1.00  0.00     0.020 A 
ATOM     54  C   UNL     1       6.268  -6.731   9.263  1.00  0.00     0.020 A 
ATOM     55  C   UNL     1       7.220  -7.255   8.386  1.00  0.00     0.054 A 
BRANCH  55  56
ATOM     56  S   UNL     1       7.415  -9.051   8.207  1.00  0.00     0.124 S 
ATOM     57  O   UNL     1       6.741  -9.298   6.935  1.00  0.00    -0.237 OA
ATOM     58  O   UNL     1       8.866  -9.215   8.193  1.00  0.00    -0.237 OA
ATOM     59  O   UNL     1       6.741  -9.587   9.386  1.00  0.00    -0.744 OA
ENDBRANCH  55  56
ENDBRANCH  27  50
BRANCH  39  60
ATOM     60  C   UNL     1       7.588   0.752  13.157  1.00  0.00    -0.014 A 
ATOM     61  C   UNL     1       6.706   1.045  14.214  1.00  0.00     0.010 A 
ATOM     62  C   UNL     1       8.969   0.696  13.412  1.00  0.00     0.010 A 
ATOM     63  C   UNL     1       7.197   1.322  15.492  1.00  0.00     0.020 A 
ATOM     64  C   UNL     1       9.462   0.946  14.696  1.00  0.00     0.020 A 
ATOM     65  C   UNL     1       8.575   1.285  15.721  1.00  0.00     0.054 A 
BRANCH  65  66
ATOM     66  S   UNL     1       9.199   1.696  17.374  1.00  0.00     0.124 S 
ATOM     67  O   UNL     1       9.098   3.152  17.388  1.00  0.00    -0.237 OA
ATOM     68  O   UNL     1       8.270   0.991  18.254  1.00  0.00    -0.237 OA
ATOM     69  O   UNL     1      10.560   1.164  17.367  1.00  0.00    -0.744 OA
ENDBRANCH  65  66
ENDBRANCH  39  60
ENDBRANCH  13  14
ENDBRANCH   6   8
ENDBRANCH   3   4
ENDBRANCH   2   3
ENDBRANCH   1   2
BRANCH   1  70
ATOM     70  C   UNL     1       4.744   0.142  -4.368  1.00  0.00     0.002 C 
BRANCH  70  71
ATOM     71  C   UNL     1       6.269   0.275  -4.387  1.00  0.00     0.021 C 
BRANCH  71  72
ATOM     72  C   UNL     1       7.008  -0.857  -5.098  1.00  0.00     0.116 C 
BRANCH  72  73
ATOM     73  N   UNL     1       6.672  -0.912  -6.511  1.00  0.00    -0.349 N 
ATOM     74  C   UNL     1       7.524  -0.855  -7.599  1.00  0.00     0.289 C 
ATOM     75  H   UNL     1       5.714  -1.001  -6.721  1.00  0.00     0.163 HD
ATOM     76  O   UNL     1       7.039  -0.731  -8.724  1.00  0.00    -0.266 OA
BRANCH  74  77
ATOM     77  C   UNL     1       9.012  -0.954  -7.400  1.00  0.00     0.220 A 
ATOM     78  N   UNL     1       9.782  -0.164  -8.167  1.00  0.00    -0.206 NA
ATOM     79  N   UNL     1       9.439  -1.841  -6.481  1.00  0.00    -0.224 NA
ATOM     80  C   UNL     1      11.103  -0.279  -7.995  1.00  0.00     0.138 A 
ATOM     81  C   UNL     1      10.752  -1.911  -6.288  1.00  0.00     0.077 A 
ATOM     82  C   UNL     1      11.665  -1.159  -7.037  1.00  0.00     0.043 A 
ATOM     83  C   UNL     1      11.223  -2.748  -5.284  1.00  0.00     0.029 A 
ATOM     84  C   UNL     1      13.051  -1.302  -6.758  1.00  0.00     0.014 A 
ATOM     85  C   UNL     1      12.584  -2.858  -4.992  1.00  0.00     0.002 A 
ATOM     86  C   UNL     1      13.503  -2.135  -5.736  1.00  0.00     0.001 A 
BRANCH  80  87
ATOM     87  N   UNL     1      11.940   0.530  -8.755  1.00  0.00    -0.368 N 
ATOM     88  H   UNL     1      12.889   0.279  -8.832  1.00  0.00     0.162 HD
BRANCH  87  89
ATOM     89  C   UNL     1      11.484   1.732  -9.444  1.00  0.00     0.127 C 
BRANCH  89  90
ATOM     90  C   UNL     1      11.443   3.131  -8.661  1.00  0.00     0.070 C 
ATOM     91  C   UNL     1      10.121   3.872  -8.989  1.00  0.00    -0.035 A 
ATOM     92  C   UNL     1      11.974   3.334  -7.217  1.00  0.00    -0.025 A 
ATOM     93  C   UNL     1       8.895   3.202  -9.143  1.00  0.00     0.005 A 
ATOM     94  C   UNL     1      10.117   5.276  -9.157  1.00  0.00    -0.034 A 
ATOM     95  C   UNL     1      11.823   4.507  -6.432  1.00  0.00     0.011 A 
ATOM     96  C   UNL     1      12.791   2.343  -6.636  1.00  0.00     0.005 A 
ATOM     97  C   UNL     1       7.736   3.879  -9.543  1.00  0.00     0.000 A 
ATOM     98  C   UNL     1       8.945   5.949  -9.552  1.00  0.00     0.005 A 
ATOM     99  C   UNL     1      11.297   6.094  -8.719  1.00  0.00     0.110 C 
ATOM    100  S   UNL     1      11.276   6.156  -6.910  1.00  0.00    -0.121 SA
ATOM    101  C   UNL     1      12.249   4.514  -5.078  1.00  0.00     0.015 A 
ATOM    102  C   UNL     1      13.228   2.364  -5.307  1.00  0.00     0.000 A 
ATOM    103  C   UNL     1       7.764   5.250  -9.762  1.00  0.00     0.000 A 
ATOM    104  C   UNL     1      12.918   3.440  -4.508  1.00  0.00     0.001 A 
ENDBRANCH  89  90
ENDBRANCH  87  89
ENDBRANCH  80  87
ENDBRANCH  74  77
ENDBRANCH  72  73
ENDBRANCH  71  72
ENDBRANCH  70  71
ENDBRANCH   1  70
TORSDOF 19
