REMARK SMILES COC(=O)c1c(SCC(=O)Nc2cc(C)ccc2C)[nH]c2cc(C(=O)NCCCCCCNC(=O)c3ccc(-c4c5nc(c(-c6ccc(S(=O)(=O)[O-])cc6)c6ccc([nH]6)c(-c6ccc(S(=O)(=O)[O-])cc6)c6nc(c(-c7ccc(S(=O)(=O)[O-])cc7)c7ccc4[nH]7)C=C6)C=C5)cc3)ccc2c1=O
REMARK SMILES IDX 29 1 28 2 27 3 26 4 24 5 25 6 23 8 5 9 6 10 99 11 20 12
REMARK SMILES IDX 98 13 100 14 21 15 97 17 22 18 96 19 3 20 4 21 2 22 1 23
REMARK SMILES IDX 7 24 8 25 9 26 10 27 11 28 12 30 13 31 18 32 14 33 17 34
REMARK SMILES IDX 19 35 15 36 16 37 30 38 31 39 32 40 33 41 34 42 35 44 36 45
REMARK SMILES IDX 37 46 95 47 38 48 94 49 39 50 40 51 41 52 88 53 42 54 93 55
REMARK SMILES IDX 87 56 89 57 43 58 92 59 86 60 85 61 44 63 74 64 55 65 73 66
REMARK SMILES IDX 56 67 59 68 72 69 90 70 57 71 58 72 71 74 91 75 60 76 45 77
REMARK SMILES IDX 46 78 54 79 47 80 53 81 48 82 49 83 50 84 51 85 52 86 75 87
REMARK SMILES IDX 76 88 84 89 77 90 83 91 78 92 79 93 80 94 81 95 82 96 61 97
REMARK SMILES IDX 62 98 70 99 63 100 69 101 64 102 65 103 66 104 67 105 68 106
REMARK H PARENT 26 7 20 16 11 29 33 43 89 62 59 73
REMARK Flexibility Score: inf
ROOT
ATOM      1  C   UNL     1      -6.882  -6.809  -7.559  1.00  0.00     0.002 C 
ENDROOT
BRANCH   1   2
ATOM      2  C   UNL     1      -6.112  -5.796  -6.701  1.00  0.00     0.021 C 
BRANCH   2   3
ATOM      3  C   UNL     1      -4.895  -6.389  -5.985  1.00  0.00     0.116 C 
BRANCH   3   4
ATOM      4  N   UNL     1      -3.733  -6.426  -6.857  1.00  0.00    -0.352 N 
ATOM      5  C   UNL     1      -2.565  -5.701  -6.900  1.00  0.00     0.251 C 
ATOM      6  O   UNL     1      -1.700  -6.080  -7.692  1.00  0.00    -0.269 OA
ATOM      7  H   UNL     1      -3.795  -7.112  -7.561  1.00  0.00     0.163 HD
BRANCH   5   8
ATOM      8  C   UNL     1      -2.270  -4.546  -5.999  1.00  0.00     0.041 A 
ATOM      9  C   UNL     1       0.239  -1.330  -2.867  1.00  0.00     0.138 A 
ATOM     10  C   UNL     1       1.160  -1.875  -3.694  1.00  0.00     0.092 A 
ATOM     11  C   UNL     1      -1.189  -1.723  -3.013  1.00  0.00     0.205 A 
ATOM     12  N   UNL     1       0.769  -2.813  -4.656  1.00  0.00    -0.349 N 
ATOM     13  C   UNL     1      -1.570  -2.599  -4.130  1.00  0.00     0.046 A 
ATOM     14  O   UNL     1      -2.028  -1.428  -2.165  1.00  0.00    -0.288 OA
ATOM     15  C   UNL     1      -0.559  -3.181  -4.892  1.00  0.00     0.051 A 
ATOM     16  H   UNL     1       1.470  -3.239  -5.199  1.00  0.00     0.167 HD
ATOM     17  C   UNL     1      -2.914  -2.878  -4.370  1.00  0.00     0.015 A 
ATOM     18  C   UNL     1      -0.916  -4.186  -5.802  1.00  0.00     0.040 A 
ATOM     19  C   UNL     1      -3.259  -3.808  -5.346  1.00  0.00     0.015 A 
BRANCH   9  20
ATOM     20  C   UNL     1       0.506  -0.417  -1.762  1.00  0.00     0.344 C 
ATOM     21  O   UNL     1       0.325   0.794  -1.826  1.00  0.00    -0.246 OA
BRANCH  20  22
ATOM     22  O   UNL     1       0.881  -1.108  -0.659  1.00  0.00    -0.465 OA
ATOM     23  C   UNL     1       0.950  -0.302   0.518  1.00  0.00     0.282 C 
ENDBRANCH  20  22
ENDBRANCH   9  20
BRANCH  10  24
ATOM     24  S   UNL     1       2.897  -1.634  -3.562  1.00  0.00    -0.098 SA
BRANCH  24  25
ATOM     25  C   UNL     1       3.340   0.040  -3.080  1.00  0.00     0.176 C 
BRANCH  25  26
ATOM     26  C   UNL     1       2.619   1.266  -3.606  1.00  0.00     0.234 C 
ATOM     27  O   UNL     1       2.423   2.212  -2.828  1.00  0.00    -0.274 OA
ATOM     28  N   UNL     1       2.366   1.487  -4.933  1.00  0.00    -0.325 N 
ATOM     29  H   UNL     1       1.480   1.819  -5.207  1.00  0.00     0.169 HD
BRANCH  28  30
ATOM     30  C   UNL     1       3.345   1.249  -5.911  1.00  0.00     0.044 A 
ATOM     31  C   UNL     1       3.493  -0.045  -6.402  1.00  0.00     0.029 A 
ATOM     32  C   UNL     1       4.193   2.276  -6.354  1.00  0.00    -0.027 A 
ATOM     33  C   UNL     1       4.584  -0.393  -7.196  1.00  0.00    -0.049 A 
ATOM     34  C   UNL     1       5.249   1.937  -7.216  1.00  0.00     0.006 A 
ATOM     35  C   UNL     1       4.043   3.718  -5.953  1.00  0.00     0.046 C 
ATOM     36  C   UNL     1       4.798  -1.823  -7.583  1.00  0.00     0.044 C 
ATOM     37  C   UNL     1       5.461   0.611  -7.607  1.00  0.00     0.004 A 
ENDBRANCH  28  30
ENDBRANCH  25  26
ENDBRANCH  24  25
ENDBRANCH  10  24
ENDBRANCH   5   8
ENDBRANCH   3   4
ENDBRANCH   2   3
ENDBRANCH   1   2
BRANCH   1  38
ATOM     38  C   UNL     1      -7.349  -8.096  -6.850  1.00  0.00     0.002 C 
BRANCH  38  39
ATOM     39  C   UNL     1      -8.080  -7.942  -5.507  1.00  0.00     0.021 C 
BRANCH  39  40
ATOM     40  C   UNL     1      -9.419  -7.234  -5.613  1.00  0.00     0.116 C 
BRANCH  40  41
ATOM     41  N   UNL     1     -10.397  -7.955  -6.443  1.00  0.00    -0.352 N 
ATOM     42  C   UNL     1     -11.539  -7.539  -7.113  1.00  0.00     0.251 C 
ATOM     43  H   UNL     1     -10.205  -8.915  -6.542  1.00  0.00     0.163 HD
ATOM     44  O   UNL     1     -12.342  -8.374  -7.520  1.00  0.00    -0.269 OA
BRANCH  42  45
ATOM     45  C   UNL     1     -11.773  -6.105  -7.381  1.00  0.00     0.039 A 
ATOM     46  C   UNL     1     -12.726  -5.628  -8.288  1.00  0.00     0.014 A 
ATOM     47  C   UNL     1     -10.762  -5.232  -7.036  1.00  0.00     0.014 A 
ATOM     48  C   UNL     1     -12.492  -4.367  -8.866  1.00  0.00     0.010 A 
ATOM     49  C   UNL     1     -11.012  -3.911  -7.092  1.00  0.00     0.010 A 
ATOM     50  C   UNL     1     -11.444  -3.602  -8.351  1.00  0.00    -0.014 A 
BRANCH  50  51
ATOM     51  C   UNL     1     -10.957  -2.332  -8.836  1.00  0.00     0.031 A 
ATOM     52  C   UNL     1     -11.777  -1.225  -8.306  1.00  0.00     0.074 A 
ATOM     53  C   UNL     1      -9.729  -2.137  -9.365  1.00  0.00     0.049 A 
ATOM     54  N   UNL     1     -12.839  -0.750  -8.864  1.00  0.00    -0.248 NA
ATOM     55  C   UNL     1     -11.627  -0.849  -6.883  1.00  0.00     0.031 C 
ATOM     56  C   UNL     1      -8.617  -3.072  -9.568  1.00  0.00     0.029 A 
ATOM     57  N   UNL     1      -9.194  -0.961  -9.781  1.00  0.00    -0.354 N 
ATOM     58  C   UNL     1     -13.305   0.197  -7.971  1.00  0.00     0.074 A 
ATOM     59  C   UNL     1     -12.765  -0.178  -6.692  1.00  0.00     0.031 C 
ATOM     60  C   UNL     1      -7.489  -2.378  -9.877  1.00  0.00     0.029 A 
ATOM     61  C   UNL     1      -7.825  -0.970 -10.027  1.00  0.00     0.049 A 
ATOM     62  H   UNL     1      -9.741  -0.151  -9.901  1.00  0.00     0.167 HD
ATOM     63  C   UNL     1     -13.750   1.409  -8.402  1.00  0.00     0.031 A 
ATOM     64  C   UNL     1      -7.053   0.121 -10.293  1.00  0.00     0.031 A 
ATOM     65  C   UNL     1     -13.838   1.441  -9.845  1.00  0.00     0.049 A 
ATOM     66  C   UNL     1      -7.982   1.201 -10.734  1.00  0.00     0.074 A 
ATOM     67  C   UNL     1     -14.517   0.703 -10.795  1.00  0.00     0.029 A 
ATOM     68  N   UNL     1     -12.786   2.041 -10.505  1.00  0.00    -0.354 N 
ATOM     69  N   UNL     1      -8.693   1.127 -11.826  1.00  0.00    -0.248 NA
ATOM     70  C   UNL     1      -8.504   2.102  -9.716  1.00  0.00     0.031 C 
ATOM     71  C   UNL     1     -13.585   0.528 -11.861  1.00  0.00     0.029 A 
ATOM     72  C   UNL     1     -12.421   1.240 -11.557  1.00  0.00     0.049 A 
ATOM     73  H   UNL     1     -12.367   2.899 -10.262  1.00  0.00     0.167 HD
ATOM     74  C   UNL     1      -9.948   1.607 -11.472  1.00  0.00     0.074 A 
ATOM     75  C   UNL     1      -9.747   2.269 -10.182  1.00  0.00     0.031 C 
ATOM     76  C   UNL     1     -11.079   1.166 -12.102  1.00  0.00     0.031 A 
BRANCH  63  77
ATOM     77  C   UNL     1     -13.651   2.676  -7.590  1.00  0.00    -0.014 A 
ATOM     78  C   UNL     1     -14.194   3.852  -8.139  1.00  0.00     0.010 A 
ATOM     79  C   UNL     1     -12.844   2.819  -6.443  1.00  0.00     0.010 A 
ATOM     80  C   UNL     1     -13.871   5.109  -7.618  1.00  0.00     0.020 A 
ATOM     81  C   UNL     1     -12.550   4.063  -5.889  1.00  0.00     0.020 A 
ATOM     82  C   UNL     1     -13.038   5.204  -6.505  1.00  0.00     0.054 A 
BRANCH  82  83
ATOM     83  S   UNL     1     -12.541   6.834  -5.907  1.00  0.00     0.124 S 
ATOM     84  O   UNL     1     -11.749   7.332  -7.027  1.00  0.00    -0.237 OA
ATOM     85  O   UNL     1     -13.830   7.487  -5.697  1.00  0.00    -0.237 OA
ATOM     86  O   UNL     1     -11.791   6.537  -4.689  1.00  0.00    -0.744 OA
ENDBRANCH  82  83
ENDBRANCH  63  77
BRANCH  64  87
ATOM     87  C   UNL     1      -5.654   0.406  -9.858  1.00  0.00    -0.014 A 
ATOM     88  C   UNL     1      -4.897   1.460 -10.414  1.00  0.00     0.010 A 
ATOM     89  C   UNL     1      -5.163  -0.183  -8.675  1.00  0.00     0.010 A 
ATOM     90  C   UNL     1      -3.723   1.930  -9.787  1.00  0.00     0.020 A 
ATOM     91  C   UNL     1      -3.998   0.280  -8.045  1.00  0.00     0.020 A 
ATOM     92  C   UNL     1      -3.290   1.347  -8.593  1.00  0.00     0.054 A 
BRANCH  92  93
ATOM     93  S   UNL     1      -1.859   2.042  -7.705  1.00  0.00     0.124 S 
ATOM     94  O   UNL     1      -0.754   1.758  -8.616  1.00  0.00    -0.237 OA
ATOM     95  O   UNL     1      -2.219   3.451  -7.572  1.00  0.00    -0.237 OA
ATOM     96  O   UNL     1      -1.831   1.288  -6.452  1.00  0.00    -0.744 OA
ENDBRANCH  92  93
ENDBRANCH  64  87
BRANCH  76  97
ATOM     97  C   UNL     1     -10.928   0.365 -13.379  1.00  0.00    -0.014 A 
ATOM     98  C   UNL     1     -10.323  -0.907 -13.455  1.00  0.00     0.010 A 
ATOM     99  C   UNL     1     -11.587   0.859 -14.517  1.00  0.00     0.010 A 
ATOM    100  C   UNL     1     -10.369  -1.652 -14.647  1.00  0.00     0.020 A 
ATOM    101  C   UNL     1     -11.652   0.118 -15.697  1.00  0.00     0.020 A 
ATOM    102  C   UNL     1     -11.037  -1.132 -15.761  1.00  0.00     0.054 A 
BRANCH 102 103
ATOM    103  S   UNL     1     -11.143  -2.111 -17.287  1.00  0.00     0.124 S 
ATOM    104  O   UNL     1      -9.760  -2.121 -17.755  1.00  0.00    -0.237 OA
ATOM    105  O   UNL     1     -11.657  -3.395 -16.815  1.00  0.00    -0.237 OA
ATOM    106  O   UNL     1     -12.072  -1.352 -18.124  1.00  0.00    -0.744 OA
ENDBRANCH 102 103
ENDBRANCH  76  97
ENDBRANCH  50  51
ENDBRANCH  42  45
ENDBRANCH  40  41
ENDBRANCH  39  40
ENDBRANCH  38  39
ENDBRANCH   1  38
TORSDOF 22
