REMARK SMILES C=C[C@@H]1[C@@H](O)C[C@H]2[C@]3(CC[C@]4(C)[C@@H]([C@H](C)CCC=C(C)C)CC[C@]24C)C[C@]13CCC(=O)NCCCCCCNC(=O)c1ccc(-c2c3nc(c(-c4ccc(S(=O)(=O)[O-])cc4)c4ccc([nH]4)c(-c4ccc(S(=O)(=O)[O-])cc4)c4nc(c(-c5ccc(S(=O)(=O)[O-])cc5)c5ccc2[nH]5)C=C4)C=C3)cc1
REMARK SMILES IDX 34 1 33 2 32 3 30 4 31 5 29 7 28 8 27 9 3 10 4 11 6 12 8 13
REMARK SMILES IDX 26 14 7 15 9 16 24 17 10 18 11 19 23 20 25 21 13 22 12 23
REMARK SMILES IDX 22 24 2 25 1 26 5 27 14 29 15 30 16 31 17 32 18 33 19 34
REMARK SMILES IDX 20 35 21 36 35 37 36 38 37 39 38 40 39 41 40 42 41 44 42 45
REMARK SMILES IDX 43 46 101 47 44 48 100 49 45 50 46 51 47 52 94 53 48 54
REMARK SMILES IDX 99 55 93 56 95 57 49 58 98 59 92 60 91 61 50 63 80 64 61 65
REMARK SMILES IDX 79 66 62 67 65 68 78 69 96 70 63 71 64 72 77 74 97 75 66 76
REMARK SMILES IDX 51 77 52 78 60 79 53 80 59 81 54 82 55 83 56 84 57 85 58 86
REMARK SMILES IDX 81 87 82 88 90 89 83 90 89 91 84 92 85 93 86 94 87 95 88 96
REMARK SMILES IDX 67 97 68 98 76 99 69 100 75 101 70 102 71 103 72 104 73 105
REMARK SMILES IDX 74 106
REMARK H PARENT 32 6 5 28 39 43 95 62 65 73
REMARK Flexibility Score: inf
ROOT
ATOM      1  C   UNL     1      -0.147   1.788   1.130  1.00  0.00     0.021 C 
ENDROOT
BRANCH   1   2
ATOM      2  C   UNL     1      -0.334   0.490   2.429  1.00  0.00     0.116 C 
BRANCH   2   3
ATOM      3  N   UNL     1      -1.801  -0.846   2.662  1.00  0.00    -0.356 N 
ATOM      4  C   UNL     1      -2.380  -2.150   2.452  1.00  0.00     0.220 C 
ATOM      5  O   UNL     1      -3.554  -2.274   2.848  1.00  0.00    -0.275 OA
ATOM      6  H   UNL     1      -2.476  -0.368   3.195  1.00  0.00     0.163 HD
BRANCH   4   7
ATOM      7  C   UNL     1      -1.811  -3.408   1.761  1.00  0.00     0.100 C 
BRANCH   7   8
ATOM      8  C   UNL     1      -1.557  -3.283   0.273  1.00  0.00     0.018 C 
BRANCH   8   9
ATOM      9  C   UNL     1      -0.751  -2.072  -0.111  1.00  0.00    -0.014 C 
ATOM     10  C   UNL     1      -1.069  -1.556  -1.534  1.00  0.00     0.047 C 
ATOM     11  C   UNL     1      -2.326  -0.674  -1.549  1.00  0.00     0.122 C 
ATOM     12  C   UNL     1      -2.276   0.492  -0.559  1.00  0.00     0.037 C 
ATOM     13  C   UNL     1      -0.517  -1.159   1.127  1.00  0.00    -0.019 C 
ATOM     14  C   UNL     1       0.619  -1.780   0.319  1.00  0.00     0.016 C 
ATOM     15  C   UNL     1      -1.945   0.212   0.988  1.00  0.00     0.005 C 
ATOM     16  C   UNL     1       0.083  -1.660   2.933  1.00  0.00     0.008 C 
ATOM     17  C   UNL     1      -2.260   1.351   2.662  1.00  0.00    -0.023 C 
ATOM     18  C   UNL     1      -0.725  -0.853   4.457  1.00  0.00     0.008 C 
ATOM     19  C   UNL     1      -2.014   0.526   4.386  1.00  0.00    -0.024 C 
ATOM     20  C   UNL     1      -3.736   1.776   2.673  1.00  0.00     0.008 C 
ATOM     21  C   UNL     1      -1.451   2.725   3.193  1.00  0.00     0.012 C 
ATOM     22  C   UNL     1      -3.561   0.205   4.710  1.00  0.00    -0.002 C 
ATOM     23  C   UNL     1      -1.545   1.389   5.584  1.00  0.00     0.012 C 
ATOM     24  C   UNL     1      -4.473   1.073   3.800  1.00  0.00     0.005 C 
BRANCH  10  25
ATOM     25  C   UNL     1       0.019  -0.983  -2.461  1.00  0.00    -0.028 C 
ATOM     26  C   UNL     1       0.956  -0.039  -2.283  1.00  0.00     0.004 C 
ENDBRANCH  10  25
BRANCH  11  27
ATOM     27  O   UNL     1      -3.518  -1.440  -1.387  1.00  0.00    -0.392 OA
ATOM     28  H   UNL     1      -3.521  -1.851  -0.508  1.00  0.00     0.210 HD
ENDBRANCH  11  27
BRANCH  22  29
ATOM     29  C   UNL     1      -4.191  -0.163   6.091  1.00  0.00    -0.010 C 
ATOM     30  C   UNL     1      -5.572  -0.831   5.772  1.00  0.00     0.008 C 
BRANCH  29  31
ATOM     31  C   UNL     1      -4.482   0.747   7.323  1.00  0.00     0.008 C 
BRANCH  31  32
ATOM     32  C   UNL     1      -3.938   2.144   7.613  1.00  0.00     0.027 C 
BRANCH  32  33
ATOM     33  C   UNL     1      -4.377   3.210   6.657  1.00  0.00    -0.028 C 
ATOM     34  C   UNL     1      -3.783   4.407   6.497  1.00  0.00    -0.080 C 
ATOM     35  C   UNL     1      -4.198   5.333   5.388  1.00  0.00     0.039 C 
ATOM     36  C   UNL     1      -2.673   4.914   7.376  1.00  0.00     0.039 C 
ENDBRANCH  32  33
ENDBRANCH  31  32
ENDBRANCH  29  31
ENDBRANCH  22  29
ENDBRANCH   8   9
ENDBRANCH   7   8
ENDBRANCH   4   7
ENDBRANCH   2   3
ENDBRANCH   1   2
BRANCH   1  37
ATOM     37  C   UNL     1      -1.226   2.837   0.431  1.00  0.00     0.002 C 
BRANCH  37  38
ATOM     38  C   UNL     1      -1.794   4.195   0.863  1.00  0.00     0.002 C 
BRANCH  38  39
ATOM     39  C   UNL     1      -0.737   5.243   1.078  1.00  0.00     0.021 C 
BRANCH  39  40
ATOM     40  C   UNL     1      -0.947   6.282   0.023  1.00  0.00     0.116 C 
BRANCH  40  41
ATOM     41  N   UNL     1      -2.134   7.095   0.287  1.00  0.00    -0.352 N 
ATOM     42  C   UNL     1      -2.298   8.398  -0.136  1.00  0.00     0.251 C 
ATOM     43  H   UNL     1      -2.866   6.684   0.801  1.00  0.00     0.163 HD
ATOM     44  O   UNL     1      -3.223   9.103   0.204  1.00  0.00    -0.269 OA
BRANCH  42  45
ATOM     45  C   UNL     1      -1.224   8.861  -1.032  1.00  0.00     0.039 A 
ATOM     46  C   UNL     1      -0.256   9.727  -0.526  1.00  0.00     0.014 A 
ATOM     47  C   UNL     1      -0.999   8.082  -2.172  1.00  0.00     0.014 A 
ATOM     48  C   UNL     1       0.964   9.813  -1.188  1.00  0.00     0.010 A 
ATOM     49  C   UNL     1       0.278   8.032  -2.696  1.00  0.00     0.010 A 
ATOM     50  C   UNL     1       1.240   8.959  -2.271  1.00  0.00    -0.014 A 
BRANCH  50  51
ATOM     51  C   UNL     1       2.455   9.133  -3.095  1.00  0.00     0.031 A 
ATOM     52  C   UNL     1       2.268   9.473  -4.554  1.00  0.00     0.074 A 
ATOM     53  C   UNL     1       3.681   8.995  -2.556  1.00  0.00     0.049 A 
ATOM     54  N   UNL     1       3.169   9.682  -5.475  1.00  0.00    -0.248 NA
ATOM     55  C   UNL     1       0.882   9.527  -5.066  1.00  0.00     0.031 C 
ATOM     56  C   UNL     1       3.973   8.591  -1.176  1.00  0.00     0.029 A 
ATOM     57  N   UNL     1       4.918   9.210  -3.104  1.00  0.00    -0.354 N 
ATOM     58  C   UNL     1       2.454   9.852  -6.657  1.00  0.00     0.074 A 
ATOM     59  C   UNL     1       1.068   9.599  -6.370  1.00  0.00     0.031 C 
ATOM     60  C   UNL     1       5.300   8.659  -0.969  1.00  0.00     0.029 A 
ATOM     61  C   UNL     1       5.950   9.086  -2.203  1.00  0.00     0.049 A 
ATOM     62  H   UNL     1       5.055   9.432  -4.053  1.00  0.00     0.167 HD
ATOM     63  C   UNL     1       2.897  10.263  -7.864  1.00  0.00     0.031 A 
ATOM     64  C   UNL     1       7.266   9.328  -2.361  1.00  0.00     0.031 A 
ATOM     65  C   UNL     1       4.267  10.597  -8.111  1.00  0.00     0.049 A 
ATOM     66  C   UNL     1       7.737   9.840  -3.698  1.00  0.00     0.074 A 
ATOM     67  C   UNL     1       4.840  11.092  -9.265  1.00  0.00     0.029 A 
ATOM     68  N   UNL     1       5.274  10.491  -7.164  1.00  0.00    -0.354 N 
ATOM     69  N   UNL     1       7.037  10.068  -4.786  1.00  0.00    -0.248 NA
ATOM     70  C   UNL     1       9.165  10.154  -3.821  1.00  0.00     0.031 C 
ATOM     71  C   UNL     1       6.210  11.245  -9.027  1.00  0.00     0.029 A 
ATOM     72  C   UNL     1       6.474  10.898  -7.709  1.00  0.00     0.049 A 
ATOM     73  H   UNL     1       5.152  10.171  -6.241  1.00  0.00     0.167 HD
ATOM     74  C   UNL     1       7.936  10.574  -5.717  1.00  0.00     0.074 A 
ATOM     75  C   UNL     1       9.224  10.642  -5.052  1.00  0.00     0.031 C 
ATOM     76  C   UNL     1       7.729  10.947  -7.005  1.00  0.00     0.031 A 
BRANCH  63  77
ATOM     77  C   UNL     1       1.881  10.396  -8.967  1.00  0.00    -0.014 A 
ATOM     78  C   UNL     1       0.867  11.372  -8.912  1.00  0.00     0.010 A 
ATOM     79  C   UNL     1       1.929   9.522 -10.066  1.00  0.00     0.010 A 
ATOM     80  C   UNL     1      -0.109  11.439  -9.909  1.00  0.00     0.020 A 
ATOM     81  C   UNL     1       0.976   9.609 -11.084  1.00  0.00     0.020 A 
ATOM     82  C   UNL     1      -0.047  10.556 -10.990  1.00  0.00     0.054 A 
BRANCH  82  83
ATOM     83  S   UNL     1      -1.306  10.687 -12.289  1.00  0.00     0.124 S 
ATOM     84  O   UNL     1      -2.483  10.132 -11.626  1.00  0.00    -0.237 OA
ATOM     85  O   UNL     1      -1.349  12.123 -12.548  1.00  0.00    -0.237 OA
ATOM     86  O   UNL     1      -0.764   9.876 -13.378  1.00  0.00    -0.744 OA
ENDBRANCH  82  83
ENDBRANCH  63  77
BRANCH  64  87
ATOM     87  C   UNL     1       8.209   9.150  -1.221  1.00  0.00    -0.014 A 
ATOM     88  C   UNL     1       8.815  10.261  -0.607  1.00  0.00     0.010 A 
ATOM     89  C   UNL     1       8.503   7.863  -0.734  1.00  0.00     0.010 A 
ATOM     90  C   UNL     1       9.713  10.089   0.453  1.00  0.00     0.020 A 
ATOM     91  C   UNL     1       9.379   7.688   0.343  1.00  0.00     0.020 A 
ATOM     92  C   UNL     1       9.989   8.802   0.921  1.00  0.00     0.054 A 
BRANCH  92  93
ATOM     93  S   UNL     1      11.125   8.603   2.324  1.00  0.00     0.124 S 
ATOM     94  O   UNL     1      12.419   8.879   1.709  1.00  0.00    -0.237 OA
ATOM     95  O   UNL     1      10.642   9.610   3.266  1.00  0.00    -0.237 OA
ATOM     96  O   UNL     1      10.911   7.219   2.741  1.00  0.00    -0.744 OA
ENDBRANCH  92  93
ENDBRANCH  64  87
BRANCH  76  97
ATOM     97  C   UNL     1       8.911  11.483  -7.759  1.00  0.00    -0.014 A 
ATOM     98  C   UNL     1       9.951  10.634  -8.173  1.00  0.00     0.010 A 
ATOM     99  C   UNL     1       8.950  12.847  -8.103  1.00  0.00     0.010 A 
ATOM    100  C   UNL     1      11.037  11.151  -8.880  1.00  0.00     0.020 A 
ATOM    101  C   UNL     1      10.018  13.360  -8.838  1.00  0.00     0.020 A 
ATOM    102  C   UNL     1      11.064  12.511  -9.204  1.00  0.00     0.054 A 
BRANCH 102 103
ATOM    103  S   UNL     1      12.475  13.153 -10.141  1.00  0.00     0.124 S 
ATOM    104  O   UNL     1      13.522  13.186  -9.124  1.00  0.00    -0.237 OA
ATOM    105  O   UNL     1      12.647  12.150 -11.189  1.00  0.00    -0.237 OA
ATOM    106  O   UNL     1      12.016  14.460 -10.606  1.00  0.00    -0.744 OA
ENDBRANCH 102 103
ENDBRANCH  76  97
ENDBRANCH  50  51
ENDBRANCH  42  45
ENDBRANCH  40  41
ENDBRANCH  39  40
ENDBRANCH  38  39
ENDBRANCH  37  38
ENDBRANCH   1  37
TORSDOF 24
