REMARK SMILES CCCc1sc(C(=O)NCCC(=O)NCCCCCCNC(=O)c2ccc(-c3c4nc(c(-c5ccc(S(=O)(=O)[O-])cc5)c5ccc([nH]5)c(-c5ccc(S(=O)(=O)[O-])cc5)c5nc(c(-c6ccc(S(=O)(=O)[O-])cc6)c6ccc3[nH]6)C=C5)C=C4)cc2)cc1CC
REMARK SMILES IDX 16 1 15 2 14 3 12 4 13 5 11 7 10 8 9 9 7 10 8 11 6 13 4 14
REMARK SMILES IDX 5 15 85 16 84 17 3 18 2 19 1 20 86 21 87 22 17 23 18 24
REMARK SMILES IDX 19 25 20 26 21 27 22 28 23 30 24 31 25 32 83 33 26 34 82 35
REMARK SMILES IDX 27 36 28 37 29 38 76 39 30 40 81 41 75 42 77 43 31 44 80 45
REMARK SMILES IDX 74 46 73 47 32 49 62 50 43 51 61 52 44 53 47 54 60 55 78 56
REMARK SMILES IDX 45 57 46 58 59 60 79 61 48 62 33 63 34 64 42 65 35 66 41 67
REMARK SMILES IDX 36 68 37 69 38 70 39 71 40 72 63 73 64 74 72 75 65 76 71 77
REMARK SMILES IDX 66 78 67 79 68 80 69 81 70 82 49 83 50 84 58 85 51 86 57 87
REMARK SMILES IDX 52 88 53 89 54 90 55 91 56 92
REMARK H PARENT 14 6 9 12 21 29 77 48 47 59
REMARK Flexibility Score: inf
ROOT
ATOM      1  C   UNL     1      -2.260   4.217  -8.206  1.00  0.00     0.021 C 
ENDROOT
BRANCH   1   2
ATOM      2  C   UNL     1      -3.277   3.399  -7.409  1.00  0.00     0.116 C 
BRANCH   2   3
ATOM      3  N   UNL     1      -3.454   2.086  -7.999  1.00  0.00    -0.356 N 
ATOM      4  C   UNL     1      -2.936   0.891  -7.602  1.00  0.00     0.221 C 
ATOM      5  O   UNL     1      -3.129  -0.103  -8.303  1.00  0.00    -0.275 OA
ATOM      6  H   UNL     1      -4.029   2.054  -8.798  1.00  0.00     0.163 HD
BRANCH   4   7
ATOM      7  C   UNL     1      -2.138   0.792  -6.320  1.00  0.00     0.121 C 
BRANCH   7   8
ATOM      8  C   UNL     1      -0.673   1.171  -6.521  1.00  0.00     0.126 C 
BRANCH   8   9
ATOM      9  N   UNL     1      -0.391   2.554  -6.169  1.00  0.00    -0.351 N 
ATOM     10  C   UNL     1      -0.308   3.231  -4.976  1.00  0.00     0.261 C 
ATOM     11  O   UNL     1      -0.245   4.460  -5.093  1.00  0.00    -0.268 OA
ATOM     12  H   UNL     1      -0.223   3.126  -6.952  1.00  0.00     0.163 HD
BRANCH  10  13
ATOM     13  C   UNL     1      -0.228   2.531  -3.705  1.00  0.00     0.092 A 
ATOM     14  C   UNL     1       0.491   2.010  -1.365  1.00  0.00     0.009 A 
ATOM     15  S   UNL     1       0.199   3.426  -2.305  1.00  0.00    -0.135 S 
ATOM     16  C   UNL     1       0.157   0.871  -2.082  1.00  0.00    -0.034 A 
ATOM     17  C   UNL     1      -0.398   1.210  -3.362  1.00  0.00     0.029 A 
BRANCH  14  18
ATOM     18  C   UNL     1       1.146   2.200  -0.018  1.00  0.00     0.047 C 
BRANCH  18  19
ATOM     19  C   UNL     1       0.410   1.596   1.181  1.00  0.00     0.002 C 
ATOM     20  C   UNL     1       0.905   0.213   1.586  1.00  0.00     0.004 C 
ENDBRANCH  18  19
ENDBRANCH  14  18
BRANCH  16  21
ATOM     21  C   UNL     1       0.375  -0.564  -1.711  1.00  0.00     0.033 C 
ATOM     22  C   UNL     1      -0.916  -1.289  -1.366  1.00  0.00     0.009 C 
ENDBRANCH  16  21
ENDBRANCH  10  13
ENDBRANCH   8   9
ENDBRANCH   7   8
ENDBRANCH   4   7
ENDBRANCH   2   3
ENDBRANCH   1   2
BRANCH   1  23
ATOM     23  C   UNL     1      -2.818   4.880  -9.466  1.00  0.00     0.002 C 
BRANCH  23  24
ATOM     24  C   UNL     1      -3.949   5.882  -9.229  1.00  0.00     0.002 C 
BRANCH  24  25
ATOM     25  C   UNL     1      -3.671   6.956  -8.173  1.00  0.00     0.021 C 
BRANCH  25  26
ATOM     26  C   UNL     1      -2.403   7.778  -8.395  1.00  0.00     0.116 C 
BRANCH  26  27
ATOM     27  N   UNL     1      -2.413   8.456  -9.678  1.00  0.00    -0.352 N 
ATOM     28  C   UNL     1      -2.288   9.789  -9.971  1.00  0.00     0.251 C 
ATOM     29  H   UNL     1      -2.528   7.868 -10.459  1.00  0.00     0.163 HD
ATOM     30  O   UNL     1      -2.538  10.178 -11.110  1.00  0.00    -0.269 OA
BRANCH  28  31
ATOM     31  C   UNL     1      -1.860  10.758  -8.937  1.00  0.00     0.039 A 
ATOM     32  C   UNL     1      -2.459  12.021  -8.920  1.00  0.00     0.014 A 
ATOM     33  C   UNL     1      -0.828  10.465  -8.040  1.00  0.00     0.014 A 
ATOM     34  C   UNL     1      -2.036  12.981  -7.999  1.00  0.00     0.010 A 
ATOM     35  C   UNL     1      -0.452  11.401  -7.077  1.00  0.00     0.010 A 
ATOM     36  C   UNL     1      -1.031  12.678  -7.067  1.00  0.00    -0.014 A 
BRANCH  36  37
ATOM     37  C   UNL     1      -0.541  13.713  -6.122  1.00  0.00     0.031 A 
ATOM     38  C   UNL     1       0.862  14.248  -6.250  1.00  0.00     0.074 A 
ATOM     39  C   UNL     1      -1.348  14.165  -5.142  1.00  0.00     0.049 A 
ATOM     40  N   UNL     1       1.465  15.166  -5.537  1.00  0.00    -0.248 NA
ATOM     41  C   UNL     1       1.706  13.659  -7.303  1.00  0.00     0.031 C 
ATOM     42  C   UNL     1      -2.712  13.697  -4.887  1.00  0.00     0.029 A 
ATOM     43  N   UNL     1      -1.139  15.122  -4.182  1.00  0.00    -0.354 N 
ATOM     44  C   UNL     1       2.757  15.252  -6.043  1.00  0.00     0.074 A 
ATOM     45  C   UNL     1       2.867  14.260  -7.090  1.00  0.00     0.031 C 
ATOM     46  C   UNL     1      -3.228  14.391  -3.858  1.00  0.00     0.029 A 
ATOM     47  C   UNL     1      -2.227  15.334  -3.369  1.00  0.00     0.049 A 
ATOM     48  H   UNL     1      -0.290  15.611  -4.085  1.00  0.00     0.167 HD
ATOM     49  C   UNL     1       3.756  16.095  -5.687  1.00  0.00     0.031 A 
ATOM     50  C   UNL     1      -2.402  16.198  -2.351  1.00  0.00     0.031 A 
ATOM     51  C   UNL     1       3.640  17.093  -4.658  1.00  0.00     0.049 A 
ATOM     52  C   UNL     1      -1.290  17.148  -1.995  1.00  0.00     0.074 A 
ATOM     53  C   UNL     1       4.579  18.024  -4.249  1.00  0.00     0.029 A 
ATOM     54  N   UNL     1       2.512  17.294  -3.878  1.00  0.00    -0.354 N 
ATOM     55  N   UNL     1      -0.094  17.252  -2.524  1.00  0.00    -0.248 NA
ATOM     56  C   UNL     1      -1.564  18.114  -0.923  1.00  0.00     0.031 C 
ATOM     57  C   UNL     1       4.028  18.768  -3.199  1.00  0.00     0.029 A 
ATOM     58  C   UNL     1       2.730  18.331  -2.987  1.00  0.00     0.049 A 
ATOM     59  H   UNL     1       1.678  16.775  -3.947  1.00  0.00     0.167 HD
ATOM     60  C   UNL     1       0.515  18.318  -1.871  1.00  0.00     0.074 A 
ATOM     61  C   UNL     1      -0.449  18.831  -0.919  1.00  0.00     0.031 C 
ATOM     62  C   UNL     1       1.759  18.830  -2.048  1.00  0.00     0.031 A 
BRANCH  49  63
ATOM     63  C   UNL     1       5.064  15.967  -6.424  1.00  0.00    -0.014 A 
ATOM     64  C   UNL     1       5.180  16.359  -7.771  1.00  0.00     0.010 A 
ATOM     65  C   UNL     1       6.198  15.468  -5.758  1.00  0.00     0.010 A 
ATOM     66  C   UNL     1       6.391  16.209  -8.451  1.00  0.00     0.020 A 
ATOM     67  C   UNL     1       7.419  15.342  -6.428  1.00  0.00     0.020 A 
ATOM     68  C   UNL     1       7.502  15.695  -7.777  1.00  0.00     0.054 A 
BRANCH  68  69
ATOM     69  S   UNL     1       9.066  15.520  -8.679  1.00  0.00     0.124 S 
ATOM     70  O   UNL     1       8.808  14.339  -9.501  1.00  0.00    -0.237 OA
ATOM     71  O   UNL     1       9.161  16.782  -9.408  1.00  0.00    -0.237 OA
ATOM     72  O   UNL     1      10.058  15.338  -7.622  1.00  0.00    -0.744 OA
ENDBRANCH  68  69
ENDBRANCH  49  63
BRANCH  50  73
ATOM     73  C   UNL     1      -3.700  16.237  -1.626  1.00  0.00    -0.014 A 
ATOM     74  C   UNL     1      -4.589  17.310  -1.813  1.00  0.00     0.010 A 
ATOM     75  C   UNL     1      -4.061  15.193  -0.755  1.00  0.00     0.010 A 
ATOM     76  C   UNL     1      -5.806  17.351  -1.125  1.00  0.00     0.020 A 
ATOM     77  C   UNL     1      -5.287  15.218  -0.085  1.00  0.00     0.020 A 
ATOM     78  C   UNL     1      -6.147  16.304  -0.265  1.00  0.00     0.054 A 
BRANCH  78  79
ATOM     79  S   UNL     1      -7.753  16.350   0.579  1.00  0.00     0.124 S 
ATOM     80  O   UNL     1      -7.514  17.333   1.631  1.00  0.00    -0.237 OA
ATOM     81  O   UNL     1      -8.660  16.771  -0.486  1.00  0.00    -0.237 OA
ATOM     82  O   UNL     1      -7.938  14.975   1.035  1.00  0.00    -0.744 OA
ENDBRANCH  78  79
ENDBRANCH  50  73
BRANCH  62  83
ATOM     83  C   UNL     1       2.128  20.036  -1.227  1.00  0.00    -0.014 A 
ATOM     84  C   UNL     1       2.382  19.934   0.152  1.00  0.00     0.010 A 
ATOM     85  C   UNL     1       2.243  21.289  -1.856  1.00  0.00     0.010 A 
ATOM     86  C   UNL     1       2.697  21.074   0.897  1.00  0.00     0.020 A 
ATOM     87  C   UNL     1       2.584  22.426  -1.120  1.00  0.00     0.020 A 
ATOM     88  C   UNL     1       2.789  22.314   0.257  1.00  0.00     0.054 A 
BRANCH  88  89
ATOM     89  S   UNL     1       3.211  23.779   1.239  1.00  0.00     0.124 S 
ATOM     90  O   UNL     1       1.944  24.076   1.901  1.00  0.00    -0.237 OA
ATOM     91  O   UNL     1       4.276  23.289   2.112  1.00  0.00    -0.237 OA
ATOM     92  O   UNL     1       3.637  24.755   0.238  1.00  0.00    -0.744 OA
ENDBRANCH  88  89
ENDBRANCH  62  83
ENDBRANCH  36  37
ENDBRANCH  28  31
ENDBRANCH  26  27
ENDBRANCH  25  26
ENDBRANCH  24  25
ENDBRANCH  23  24
ENDBRANCH   1  23
TORSDOF 22
