REMARK SMILES O=C(Cc1csc(NC(=O)[C@H]2CC(=O)N(C3CC3)C2)n1)NCCCCCCNC(=O)c1ccc(-c2c3nc(c(-c4ccc(S(=O)(=O)[O-])cc4)c4ccc([nH]4)c(-c4ccc(S(=O)(=O)[O-])cc4)c4nc(c(-c5ccc(S(=O)(=O)[O-])cc5)c5ccc2[nH]5)C=C4)C=C3)cc1
REMARK SMILES IDX 24 1 23 2 22 3 21 4 1 5 2 6 3 8 4 9 5 10 20 11 6 12 7 13
REMARK SMILES IDX 8 14 9 15 10 17 11 18 12 19 19 20 13 21 15 22 14 23 16 24
REMARK SMILES IDX 17 25 18 26 25 27 26 28 27 29 28 30 29 31 30 33 31 34 32 35
REMARK SMILES IDX 90 36 33 37 89 38 34 39 35 40 36 41 83 42 37 43 88 44 82 45
REMARK SMILES IDX 84 46 38 47 87 48 81 49 80 50 39 52 69 53 50 54 68 55 51 56
REMARK SMILES IDX 54 57 67 58 85 59 52 60 53 61 66 63 86 64 55 65 40 66 41 67
REMARK SMILES IDX 49 68 42 69 48 70 43 71 44 72 45 73 46 74 47 75 70 76 71 77
REMARK SMILES IDX 79 78 72 79 78 80 73 81 74 82 75 83 76 84 77 85 56 86 57 87
REMARK SMILES IDX 65 88 58 89 64 90 59 91 60 92 61 93 62 94 63 95
REMARK H PARENT 21 7 8 16 28 32 84 51 54 62
REMARK Flexibility Score: inf
ROOT
ATOM      1  C   UNL     1      -1.399   1.270   3.705  1.00  0.00     0.002 C 
ENDROOT
BRANCH   1   2
ATOM      2  C   UNL     1      -1.096   2.711   3.270  1.00  0.00     0.021 C 
BRANCH   2   3
ATOM      3  C   UNL     1       0.351   3.147   3.485  1.00  0.00     0.116 C 
BRANCH   3   4
ATOM      4  N   UNL     1       1.274   2.294   2.764  1.00  0.00    -0.356 N 
ATOM      5  O   UNL     1       2.205   3.942   1.457  1.00  0.00    -0.275 OA
ATOM      6  C   UNL     1       2.150   2.769   1.813  1.00  0.00     0.226 C 
ATOM      7  H   UNL     1       1.274   1.330   2.964  1.00  0.00     0.163 HD
BRANCH   6   8
ATOM      8  C   UNL     1       3.069   1.708   1.243  1.00  0.00     0.157 C 
BRANCH   8   9
ATOM      9  C   UNL     1       4.055   1.202   2.249  1.00  0.00     0.063 A 
ATOM     10  C   UNL     1       4.509   1.832   3.395  1.00  0.00     0.093 A 
ATOM     11  N   UNL     1       4.607  -0.054   2.044  1.00  0.00    -0.224 NA
ATOM     12  S   UNL     1       5.708   0.871   4.149  1.00  0.00    -0.105 S 
ATOM     13  C   UNL     1       5.418  -0.362   3.029  1.00  0.00     0.189 A 
BRANCH  13  14
ATOM     14  N   UNL     1       6.062  -1.559   3.028  1.00  0.00    -0.302 N 
ATOM     15  C   UNL     1       6.754  -2.299   3.913  1.00  0.00     0.231 C 
ATOM     16  H   UNL     1       6.009  -2.000   2.149  1.00  0.00     0.172 HD
ATOM     17  O   UNL     1       7.378  -3.248   3.407  1.00  0.00    -0.274 OA
BRANCH  15  18
ATOM     18  C   UNL     1       6.854  -2.115   5.421  1.00  0.00     0.107 C 
ATOM     19  C   UNL     1       5.737  -1.489   6.243  1.00  0.00     0.115 C 
ATOM     20  C   UNL     1       6.895  -3.537   6.005  1.00  0.00     0.133 C 
ATOM     21  C   UNL     1       5.752  -2.232   7.555  1.00  0.00     0.223 C 
ATOM     22  N   UNL     1       6.462  -3.407   7.368  1.00  0.00    -0.339 N 
ATOM     23  O   UNL     1       5.188  -1.838   8.564  1.00  0.00    -0.275 OA
BRANCH  22  24
ATOM     24  C   UNL     1       6.597  -4.498   8.283  1.00  0.00     0.085 C 
ATOM     25  C   UNL     1       6.536  -4.349   9.777  1.00  0.00     0.027 C 
ATOM     26  C   UNL     1       5.413  -5.029   9.045  1.00  0.00     0.027 C 
ENDBRANCH  22  24
ENDBRANCH  15  18
ENDBRANCH  13  14
ENDBRANCH   8   9
ENDBRANCH   6   8
ENDBRANCH   3   4
ENDBRANCH   2   3
ENDBRANCH   1   2
BRANCH   1  27
ATOM     27  C   UNL     1      -1.136   0.961   5.182  1.00  0.00     0.002 C 
BRANCH  27  28
ATOM     28  C   UNL     1      -1.895   1.841   6.176  1.00  0.00     0.021 C 
BRANCH  28  29
ATOM     29  C   UNL     1      -3.410   1.843   6.003  1.00  0.00     0.116 C 
BRANCH  29  30
ATOM     30  N   UNL     1      -4.002   0.537   6.251  1.00  0.00    -0.352 N 
ATOM     31  C   UNL     1      -5.082   0.220   7.040  1.00  0.00     0.251 C 
ATOM     32  H   UNL     1      -3.572  -0.221   5.793  1.00  0.00     0.163 HD
ATOM     33  O   UNL     1      -5.359  -0.953   7.271  1.00  0.00    -0.269 OA
BRANCH  31  34
ATOM     34  C   UNL     1      -5.892   1.308   7.631  1.00  0.00     0.039 A 
ATOM     35  C   UNL     1      -6.204   1.264   8.992  1.00  0.00     0.014 A 
ATOM     36  C   UNL     1      -6.314   2.383   6.845  1.00  0.00     0.014 A 
ATOM     37  C   UNL     1      -6.885   2.335   9.579  1.00  0.00     0.010 A 
ATOM     38  C   UNL     1      -6.925   3.480   7.446  1.00  0.00     0.010 A 
ATOM     39  C   UNL     1      -7.219   3.468   8.819  1.00  0.00    -0.014 A 
BRANCH  39  40
ATOM     40  C   UNL     1      -7.882   4.651   9.428  1.00  0.00     0.031 A 
ATOM     41  C   UNL     1      -9.252   5.063   8.957  1.00  0.00     0.074 A 
ATOM     42  C   UNL     1      -7.225   5.399  10.338  1.00  0.00     0.049 A 
ATOM     43  N   UNL     1      -9.948   6.124   9.275  1.00  0.00    -0.248 NA
ATOM     44  C   UNL     1      -9.917   4.182   7.981  1.00  0.00     0.031 C 
ATOM     45  C   UNL     1      -5.882   5.125  10.856  1.00  0.00     0.029 A 
ATOM     46  N   UNL     1      -7.593   6.557  10.979  1.00  0.00    -0.354 N 
ATOM     47  C   UNL     1     -11.113   6.054   8.520  1.00  0.00     0.074 A 
ATOM     48  C   UNL     1     -11.017   4.867   7.700  1.00  0.00     0.031 C 
ATOM     49  C   UNL     1      -5.548   6.075  11.744  1.00  0.00     0.029 A 
ATOM     50  C   UNL     1      -6.627   7.054  11.825  1.00  0.00     0.049 A 
ATOM     51  H   UNL     1      -8.466   6.992  10.846  1.00  0.00     0.167 HD
ATOM     52  C   UNL     1     -12.174   6.894   8.520  1.00  0.00     0.031 A 
ATOM     53  C   UNL     1      -6.604   8.180  12.567  1.00  0.00     0.031 A 
ATOM     54  C   UNL     1     -12.280   8.057   9.360  1.00  0.00     0.049 A 
ATOM     55  C   UNL     1      -7.796   9.103  12.536  1.00  0.00     0.074 A 
ATOM     56  C   UNL     1     -13.348   8.929   9.483  1.00  0.00     0.029 A 
ATOM     57  N   UNL     1     -11.291   8.509  10.219  1.00  0.00    -0.354 N 
ATOM     58  N   UNL     1      -8.918   8.978  11.869  1.00  0.00    -0.248 NA
ATOM     59  C   UNL     1      -7.722  10.314  13.367  1.00  0.00     0.031 C 
ATOM     60  C   UNL     1     -12.981   9.944  10.370  1.00  0.00     0.029 A 
ATOM     61  C   UNL     1     -11.713   9.664  10.853  1.00  0.00     0.049 A 
ATOM     62  H   UNL     1     -10.419   8.074  10.356  1.00  0.00     0.167 HD
ATOM     63  C   UNL     1      -9.698  10.071  12.234  1.00  0.00     0.074 A 
ATOM     64  C   UNL     1      -8.925  10.841  13.185  1.00  0.00     0.031 C 
ATOM     65  C   UNL     1     -10.944  10.405  11.819  1.00  0.00     0.031 A 
BRANCH  52  66
ATOM     66  C   UNL     1     -13.315   6.600   7.583  1.00  0.00    -0.014 A 
ATOM     67  C   UNL     1     -14.185   5.519   7.810  1.00  0.00     0.010 A 
ATOM     68  C   UNL     1     -13.577   7.477   6.513  1.00  0.00     0.010 A 
ATOM     69  C   UNL     1     -15.287   5.312   6.976  1.00  0.00     0.020 A 
ATOM     70  C   UNL     1     -14.694   7.289   5.695  1.00  0.00     0.020 A 
ATOM     71  C   UNL     1     -15.538   6.203   5.928  1.00  0.00     0.054 A 
BRANCH  71  72
ATOM     72  S   UNL     1     -17.016   5.948   4.908  1.00  0.00     0.124 S 
ATOM     73  O   UNL     1     -16.657   4.751   4.151  1.00  0.00    -0.237 OA
ATOM     74  O   UNL     1     -18.066   5.767   5.908  1.00  0.00    -0.237 OA
ATOM     75  O   UNL     1     -17.112   7.175   4.122  1.00  0.00    -0.744 OA
ENDBRANCH  71  72
ENDBRANCH  52  66
BRANCH  53  76
ATOM     76  C   UNL     1      -5.414   8.516  13.400  1.00  0.00    -0.014 A 
ATOM     77  C   UNL     1      -5.504   8.535  14.803  1.00  0.00     0.010 A 
ATOM     78  C   UNL     1      -4.194   8.862  12.791  1.00  0.00     0.010 A 
ATOM     79  C   UNL     1      -4.413   8.940  15.580  1.00  0.00     0.020 A 
ATOM     80  C   UNL     1      -3.090   9.233  13.565  1.00  0.00     0.020 A 
ATOM     81  C   UNL     1      -3.214   9.292  14.954  1.00  0.00     0.054 A 
BRANCH  81  82
ATOM     82  S   UNL     1      -1.812   9.818  15.979  1.00  0.00     0.124 S 
ATOM     83  O   UNL     1      -2.233  11.148  16.408  1.00  0.00    -0.237 OA
ATOM     84  O   UNL     1      -1.783   8.795  17.022  1.00  0.00    -0.237 OA
ATOM     85  O   UNL     1      -0.682   9.786  15.053  1.00  0.00    -0.744 OA
ENDBRANCH  81  82
ENDBRANCH  53  76
BRANCH  65  86
ATOM     86  C   UNL     1     -11.590  11.617  12.437  1.00  0.00    -0.014 A 
ATOM     87  C   UNL     1     -11.167  12.919  12.120  1.00  0.00     0.010 A 
ATOM     88  C   UNL     1     -12.699  11.444  13.288  1.00  0.00     0.010 A 
ATOM     89  C   UNL     1     -11.827  14.026  12.660  1.00  0.00     0.020 A 
ATOM     90  C   UNL     1     -13.380  12.548  13.805  1.00  0.00     0.020 A 
ATOM     91  C   UNL     1     -12.933  13.833  13.495  1.00  0.00     0.054 A 
BRANCH  91  92
ATOM     92  S   UNL     1     -13.813  15.287  14.129  1.00  0.00     0.124 S 
ATOM     93  O   UNL     1     -12.870  15.808  15.115  1.00  0.00    -0.237 OA
ATOM     94  O   UNL     1     -13.984  16.105  12.930  1.00  0.00    -0.237 OA
ATOM     95  O   UNL     1     -15.048  14.734  14.680  1.00  0.00    -0.744 OA
ENDBRANCH  91  92
ENDBRANCH  65  86
ENDBRANCH  39  40
ENDBRANCH  31  34
ENDBRANCH  29  30
ENDBRANCH  28  29
ENDBRANCH  27  28
ENDBRANCH   1  27
TORSDOF 20
