REMARK SMILES CN1C(=O)C[C@@H](C(=O)NCCCCCCNC(=O)c2ccc(-c3c4nc(c(-c5ccc(S(=O)(=O)[O-])cc5)c5ccc([nH]5)c(-c5ccc(S(=O)(=O)[O-])cc5)c5nc(c(-c6ccc(S(=O)(=O)[O-])cc6)c6ccc3[nH]6)C=C5)C=C4)cc2)C12CC[NH+](CCSc1ccccc1)CC2
REMARK SMILES IDX 12 1 11 2 10 3 9 4 7 5 8 6 6 8 1 9 2 10 3 11 79 12 4 13 5 14
REMARK SMILES IDX 80 15 93 16 81 17 92 18 82 19 83 21 84 22 85 23 86 24 87 25
REMARK SMILES IDX 91 26 88 27 90 28 89 29 13 30 14 31 15 32 16 33 17 34 18 36
REMARK SMILES IDX 19 37 20 38 78 39 21 40 77 41 22 42 23 43 24 44 71 45 25 46
REMARK SMILES IDX 76 47 70 48 72 49 26 50 75 51 69 52 68 53 27 55 57 56 38 57
REMARK SMILES IDX 56 58 39 59 42 60 55 61 73 62 40 63 41 64 54 66 74 67 43 68
REMARK SMILES IDX 28 69 29 70 37 71 30 72 36 73 31 74 32 75 33 76 34 77 35 78
REMARK SMILES IDX 58 79 59 80 67 81 60 82 66 83 61 84 62 85 63 86 64 87 65 88
REMARK SMILES IDX 44 89 45 90 53 91 46 92 52 93 47 94 48 95 49 96 50 97 51 98
REMARK H PARENT 9 7 82 20 16 35 72 54 42 65
REMARK Flexibility Score: inf
ROOT
ATOM      1  C   UNL     1       2.077   2.193  -5.897  1.00  0.00     0.002 C 
ENDROOT
BRANCH   1   2
ATOM      2  C   UNL     1       1.688   1.549  -4.571  1.00  0.00     0.021 C 
BRANCH   2   3
ATOM      3  C   UNL     1       0.372   0.795  -4.655  1.00  0.00     0.116 C 
BRANCH   3   4
ATOM      4  N   UNL     1       0.543  -0.457  -5.347  1.00  0.00    -0.356 N 
ATOM      5  C   UNL     1       0.575  -1.718  -4.870  1.00  0.00     0.226 C 
ATOM      6  O   UNL     1       0.885  -2.616  -5.659  1.00  0.00    -0.275 OA
ATOM      7  H   UNL     1       0.654  -0.380  -6.322  1.00  0.00     0.163 HD
BRANCH   5   8
ATOM      8  C   UNL     1       0.240  -2.067  -3.438  1.00  0.00     0.114 C 
ATOM      9  C   UNL     1       1.203   0.133  -0.509  1.00  0.00     0.147 C 
ATOM     10  N   UNL     1       0.620  -0.616  -1.615  1.00  0.00    -0.339 N 
ATOM     11  C   UNL     1      -0.753  -0.582  -1.820  1.00  0.00     0.223 C 
ATOM     12  C   UNL     1       1.260  -1.762  -2.304  1.00  0.00     0.065 C 
ATOM     13  O   UNL     1      -1.562   0.110  -1.209  1.00  0.00    -0.275 OA
ATOM     14  C   UNL     1      -1.110  -1.535  -2.927  1.00  0.00     0.116 C 
ATOM     15  C   UNL     1       2.742  -1.485  -2.687  1.00  0.00     0.091 C 
ATOM     16  C   UNL     1       1.157  -2.984  -1.386  1.00  0.00     0.091 C 
ATOM     17  C   UNL     1       3.737  -2.658  -2.643  1.00  0.00     0.264 C 
ATOM     18  C   UNL     1       2.071  -4.113  -1.815  1.00  0.00     0.264 C 
ATOM     19  N   UNL     1       3.442  -3.712  -1.686  1.00  0.00    -0.334 N 
ATOM     20  H   UNL     1       4.035  -4.494  -1.967  1.00  0.00     0.348 HD
BRANCH  19  21
ATOM     21  C   UNL     1       4.019  -3.667  -0.333  1.00  0.00     0.273 C 
BRANCH  21  22
ATOM     22  C   UNL     1       3.221  -3.446   0.999  1.00  0.00     0.136 C 
BRANCH  22  23
ATOM     23  S   UNL     1       2.356  -4.847   1.889  1.00  0.00    -0.120 SA
BRANCH  23  24
ATOM     24  C   UNL     1       0.846  -5.217   1.003  1.00  0.00     0.007 A 
ATOM     25  C   UNL     1      -0.293  -4.402   1.009  1.00  0.00     0.015 A 
ATOM     26  C   UNL     1       0.803  -6.411   0.266  1.00  0.00     0.015 A 
ATOM     27  C   UNL     1      -1.388  -4.705   0.176  1.00  0.00     0.001 A 
ATOM     28  C   UNL     1      -0.268  -6.695  -0.588  1.00  0.00     0.001 A 
ATOM     29  C   UNL     1      -1.354  -5.828  -0.653  1.00  0.00     0.000 A 
ENDBRANCH  23  24
ENDBRANCH  22  23
ENDBRANCH  21  22
ENDBRANCH  19  21
ENDBRANCH   5   8
ENDBRANCH   3   4
ENDBRANCH   2   3
ENDBRANCH   1   2
BRANCH   1  30
ATOM     30  C   UNL     1       1.016   3.147  -6.452  1.00  0.00     0.002 C 
BRANCH  30  31
ATOM     31  C   UNL     1       0.500   4.176  -5.439  1.00  0.00     0.021 C 
BRANCH  31  32
ATOM     32  C   UNL     1       1.601   4.968  -4.744  1.00  0.00     0.116 C 
BRANCH  32  33
ATOM     33  N   UNL     1       2.487   5.585  -5.712  1.00  0.00    -0.352 N 
ATOM     34  C   UNL     1       2.812   6.904  -5.843  1.00  0.00     0.251 C 
ATOM     35  H   UNL     1       2.910   4.973  -6.357  1.00  0.00     0.163 HD
ATOM     36  O   UNL     1       3.338   7.313  -6.874  1.00  0.00    -0.269 OA
BRANCH  34  37
ATOM     37  C   UNL     1       2.526   7.821  -4.728  1.00  0.00     0.039 A 
ATOM     38  C   UNL     1       1.949   9.059  -5.005  1.00  0.00     0.014 A 
ATOM     39  C   UNL     1       2.856   7.459  -3.416  1.00  0.00     0.014 A 
ATOM     40  C   UNL     1       1.701   9.942  -3.959  1.00  0.00     0.010 A 
ATOM     41  C   UNL     1       2.543   8.312  -2.367  1.00  0.00     0.010 A 
ATOM     42  C   UNL     1       1.995   9.574  -2.635  1.00  0.00    -0.014 A 
BRANCH  42  43
ATOM     43  C   UNL     1       1.785  10.533  -1.528  1.00  0.00     0.031 A 
ATOM     44  C   UNL     1       2.970  11.097  -0.795  1.00  0.00     0.074 A 
ATOM     45  C   UNL     1       0.531  10.879  -1.184  1.00  0.00     0.049 A 
ATOM     46  N   UNL     1       2.996  11.972   0.176  1.00  0.00    -0.248 NA
ATOM     47  C   UNL     1       4.300  10.595  -1.185  1.00  0.00     0.031 C 
ATOM     48  C   UNL     1      -0.691  10.355  -1.799  1.00  0.00     0.029 A 
ATOM     49  N   UNL     1       0.078  11.762  -0.240  1.00  0.00    -0.354 N 
ATOM     50  C   UNL     1       4.336  12.117   0.518  1.00  0.00     0.074 A 
ATOM     51  C   UNL     1       5.087  11.200  -0.308  1.00  0.00     0.031 C 
ATOM     52  C   UNL     1      -1.754  10.955  -1.240  1.00  0.00     0.029 A 
ATOM     53  C   UNL     1      -1.291  11.883  -0.214  1.00  0.00     0.049 A 
ATOM     54  H   UNL     1       0.675  12.261   0.363  1.00  0.00     0.167 HD
ATOM     55  C   UNL     1       4.892  12.956   1.423  1.00  0.00     0.031 A 
ATOM     56  C   UNL     1      -2.080  12.667   0.544  1.00  0.00     0.031 A 
ATOM     57  C   UNL     1       4.135  13.876   2.228  1.00  0.00     0.049 A 
ATOM     58  C   UNL     1      -1.438  13.611   1.522  1.00  0.00     0.074 A 
ATOM     59  C   UNL     1       4.598  14.805   3.142  1.00  0.00     0.029 A 
ATOM     60  N   UNL     1       2.752  13.984   2.212  1.00  0.00    -0.354 N 
ATOM     61  N   UNL     1      -0.164  13.781   1.788  1.00  0.00    -0.248 NA
ATOM     62  C   UNL     1      -2.338  14.486   2.284  1.00  0.00     0.031 C 
ATOM     63  C   UNL     1       3.491  15.448   3.708  1.00  0.00     0.029 A 
ATOM     64  C   UNL     1       2.343  14.956   3.107  1.00  0.00     0.049 A 
ATOM     65  H   UNL     1       2.150  13.447   1.646  1.00  0.00     0.167 HD
ATOM     66  C   UNL     1      -0.108  14.805   2.727  1.00  0.00     0.074 A 
ATOM     67  C   UNL     1      -1.474  15.222   2.970  1.00  0.00     0.031 C 
ATOM     68  C   UNL     1       0.976  15.354   3.330  1.00  0.00     0.031 A 
BRANCH  55  69
ATOM     69  C   UNL     1       6.388  12.912   1.584  1.00  0.00    -0.014 A 
ATOM     70  C   UNL     1       7.243  13.383   0.571  1.00  0.00     0.010 A 
ATOM     71  C   UNL     1       6.949  12.415   2.774  1.00  0.00     0.010 A 
ATOM     72  C   UNL     1       8.630  13.318   0.725  1.00  0.00     0.020 A 
ATOM     73  C   UNL     1       8.337  12.374   2.945  1.00  0.00     0.020 A 
ATOM     74  C   UNL     1       9.168  12.809   1.911  1.00  0.00     0.054 A 
BRANCH  74  75
ATOM     75  S   UNL     1      10.972  12.751   2.093  1.00  0.00     0.124 S 
ATOM     76  O   UNL     1      11.326  11.632   1.225  1.00  0.00    -0.237 OA
ATOM     77  O   UNL     1      11.386  14.069   1.619  1.00  0.00    -0.237 OA
ATOM     78  O   UNL     1      11.169  12.517   3.522  1.00  0.00    -0.744 OA
ENDBRANCH  74  75
ENDBRANCH  55  69
BRANCH  56  79
ATOM     79  C   UNL     1      -3.556  12.618   0.371  1.00  0.00    -0.014 A 
ATOM     80  C   UNL     1      -4.239  13.683  -0.242  1.00  0.00     0.010 A 
ATOM     81  C   UNL     1      -4.284  11.492   0.795  1.00  0.00     0.010 A 
ATOM     82  C   UNL     1      -5.625  13.632  -0.410  1.00  0.00     0.020 A 
ATOM     83  C   UNL     1      -5.667  11.425   0.605  1.00  0.00     0.020 A 
ATOM     84  C   UNL     1      -6.331  12.502   0.014  1.00  0.00     0.054 A 
BRANCH  84  85
ATOM     85  S   UNL     1      -8.123  12.435  -0.261  1.00  0.00     0.124 S 
ATOM     86  O   UNL     1      -8.622  13.341   0.768  1.00  0.00    -0.237 OA
ATOM     87  O   UNL     1      -8.251  12.906  -1.637  1.00  0.00    -0.237 OA
ATOM     88  O   UNL     1      -8.445  11.023  -0.062  1.00  0.00    -0.744 OA
ENDBRANCH  84  85
ENDBRANCH  56  79
BRANCH  68  89
ATOM     89  C   UNL     1       0.728  16.493   4.280  1.00  0.00    -0.014 A 
ATOM     90  C   UNL     1       0.152  16.278   5.545  1.00  0.00     0.010 A 
ATOM     91  C   UNL     1       1.116  17.794   3.912  1.00  0.00     0.010 A 
ATOM     92  C   UNL     1      -0.069  17.353   6.409  1.00  0.00     0.020 A 
ATOM     93  C   UNL     1       0.922  18.867   4.785  1.00  0.00     0.020 A 
ATOM     94  C   UNL     1       0.314  18.641   6.021  1.00  0.00     0.054 A 
BRANCH  94  95
ATOM     95  S   UNL     1       0.042  20.017   7.171  1.00  0.00     0.124 S 
ATOM     96  O   UNL     1      -1.397  20.237   7.045  1.00  0.00    -0.237 OA
ATOM     97  O   UNL     1       0.483  19.462   8.448  1.00  0.00    -0.237 OA
ATOM     98  O   UNL     1       0.885  21.085   6.638  1.00  0.00    -0.744 OA
ENDBRANCH  94  95
ENDBRANCH  68  89
ENDBRANCH  42  43
ENDBRANCH  34  37
ENDBRANCH  32  33
ENDBRANCH  31  32
ENDBRANCH  30  31
ENDBRANCH   1  30
TORSDOF 20
