REMARK SMILES CC[N@@H+]1CCO[C@H](C[NH2+][C@@H]2CCC[C@H](C(=O)NCCCCCCNC(=O)c3ccc(-c4c5nc(c(-c6ccc(S(=O)(=O)[O-])cc6)c6ccc([nH]6)c(-c6ccc(S(=O)(=O)[O-])cc6)c6nc(c(-c7ccc(S(=O)(=O)[O-])cc7)c7ccc4[nH]7)C=C6)C=C5)cc3)C2)C1
REMARK SMILES IDX 20 1 19 2 18 3 17 4 15 5 16 6 14 8 10 9 11 10 87 11 12 12
REMARK SMILES IDX 13 13 9 14 8 17 7 18 3 19 4 20 88 21 5 23 6 24 2 25 1 26
REMARK SMILES IDX 21 27 22 28 23 29 24 30 25 31 26 33 27 34 28 35 86 36 29 37
REMARK SMILES IDX 85 38 30 39 31 40 32 41 79 42 33 43 84 44 78 45 80 46 34 47
REMARK SMILES IDX 83 48 77 49 76 50 35 52 65 53 46 54 64 55 47 56 50 57 63 58
REMARK SMILES IDX 81 59 48 60 49 61 62 63 82 64 51 65 36 66 37 67 45 68 38 69
REMARK SMILES IDX 44 70 39 71 40 72 41 73 42 74 43 75 66 76 67 77 75 78 68 79
REMARK SMILES IDX 74 80 69 81 70 82 71 83 72 84 73 85 52 86 53 87 61 88 54 89
REMARK SMILES IDX 60 90 55 91 56 92 57 93 58 94 59 95
REMARK H PARENT 17 7 9 15 9 16 3 22 24 32 80 51 50 62
REMARK Flexibility Score: inf
ROOT
ATOM      1  C   UNL     1       1.411  -4.821   2.709  1.00  0.00     0.002 C 
ENDROOT
BRANCH   1   2
ATOM      2  C   UNL     1       0.872  -3.387   2.737  1.00  0.00     0.021 C 
BRANCH   2   3
ATOM      3  C   UNL     1      -0.146  -3.071   1.644  1.00  0.00     0.116 C 
BRANCH   3   4
ATOM      4  N   UNL     1      -1.393  -3.795   1.842  1.00  0.00    -0.356 N 
ATOM      5  C   UNL     1      -2.671  -3.356   2.008  1.00  0.00     0.223 C 
ATOM      6  O   UNL     1      -3.556  -4.203   2.157  1.00  0.00    -0.275 OA
ATOM      7  H   UNL     1      -1.295  -4.774   1.859  1.00  0.00     0.163 HD
BRANCH   5   8
ATOM      8  C   UNL     1      -3.023  -1.872   2.001  1.00  0.00     0.084 C 
ATOM      9  C   UNL     1      -2.792   0.283   0.580  1.00  0.00     0.183 C 
ATOM     10  C   UNL     1      -2.040   0.883   1.778  1.00  0.00     0.065 C 
ATOM     11  C   UNL     1      -2.748  -1.253   0.623  1.00  0.00     0.078 C 
ATOM     12  C   UNL     1      -2.579   0.362   3.103  1.00  0.00     0.007 C 
ATOM     13  C   UNL     1      -2.410  -1.144   3.201  1.00  0.00     0.014 C 
BRANCH   9  14
ATOM     14  N   UNL     1      -2.228   0.656  -0.725  1.00  0.00    -0.341 N 
ATOM     15  H   UNL     1      -1.307   0.224  -0.801  1.00  0.00     0.346 HD
ATOM     16  H   UNL     1      -2.902   0.332  -1.418  1.00  0.00     0.346 HD
BRANCH  14  17
ATOM     17  C   UNL     1      -2.069   2.087  -0.973  1.00  0.00     0.299 C 
BRANCH  17  18
ATOM     18  C   UNL     1      -1.231   2.409  -2.238  1.00  0.00     0.227 C 
ATOM     19  N   UNL     1       1.257   1.921  -1.684  1.00  0.00    -0.331 N 
ATOM     20  C   UNL     1       1.434   3.383  -1.747  1.00  0.00     0.291 C 
ATOM     21  C   UNL     1       0.056   1.563  -2.467  1.00  0.00     0.300 C 
ATOM     22  H   UNL     1       2.059   1.455  -2.107  1.00  0.00     0.348 HD
ATOM     23  C   UNL     1       0.163   4.182  -1.429  1.00  0.00     0.222 C 
ATOM     24  O   UNL     1      -0.933   3.822  -2.284  1.00  0.00    -0.361 OA
BRANCH  19  25
ATOM     25  C   UNL     1       1.256   1.414  -0.312  1.00  0.00     0.258 C 
ATOM     26  C   UNL     1       1.514  -0.088  -0.246  1.00  0.00     0.071 C 
ENDBRANCH  19  25
ENDBRANCH  17  18
ENDBRANCH  14  17
ENDBRANCH   9  14
ENDBRANCH   5   8
ENDBRANCH   3   4
ENDBRANCH   2   3
ENDBRANCH   1   2
BRANCH   1  27
ATOM     27  C   UNL     1       2.082  -5.242   1.398  1.00  0.00     0.002 C 
BRANCH  27  28
ATOM     28  C   UNL     1       3.220  -4.335   0.919  1.00  0.00     0.021 C 
BRANCH  28  29
ATOM     29  C   UNL     1       4.363  -4.148   1.913  1.00  0.00     0.116 C 
BRANCH  29  30
ATOM     30  N   UNL     1       5.012  -5.405   2.248  1.00  0.00    -0.352 N 
ATOM     31  C   UNL     1       6.340  -5.741   2.215  1.00  0.00     0.251 C 
ATOM     32  H   UNL     1       4.406  -6.122   2.544  1.00  0.00     0.163 HD
ATOM     33  O   UNL     1       6.670  -6.919   2.362  1.00  0.00    -0.269 OA
BRANCH  31  34
ATOM     34  C   UNL     1       7.376  -4.709   1.992  1.00  0.00     0.039 A 
ATOM     35  C   UNL     1       8.449  -5.006   1.147  1.00  0.00     0.014 A 
ATOM     36  C   UNL     1       7.319  -3.469   2.636  1.00  0.00     0.014 A 
ATOM     37  C   UNL     1       9.438  -4.048   0.914  1.00  0.00     0.010 A 
ATOM     38  C   UNL     1       8.270  -2.490   2.350  1.00  0.00     0.010 A 
ATOM     39  C   UNL     1       9.345  -2.772   1.494  1.00  0.00    -0.014 A 
BRANCH  39  40
ATOM     40  C   UNL     1      10.371  -1.733   1.218  1.00  0.00     0.031 A 
ATOM     41  C   UNL     1      11.258  -1.226   2.324  1.00  0.00     0.074 A 
ATOM     42  C   UNL     1      10.479  -1.218  -0.023  1.00  0.00     0.049 A 
ATOM     43  N   UNL     1      12.199  -0.317   2.274  1.00  0.00    -0.248 NA
ATOM     44  C   UNL     1      11.048  -1.797   3.664  1.00  0.00     0.031 C 
ATOM     45  C   UNL     1       9.651  -1.595  -1.171  1.00  0.00     0.029 A 
ATOM     46  N   UNL     1      11.331  -0.267  -0.527  1.00  0.00    -0.354 N 
ATOM     47  C   UNL     1      12.683  -0.199   3.571  1.00  0.00     0.074 A 
ATOM     48  C   UNL     1      11.898  -1.092   4.396  1.00  0.00     0.031 C 
ATOM     49  C   UNL     1      10.057  -0.906  -2.250  1.00  0.00     0.029 A 
ATOM     50  C   UNL     1      11.147  -0.015  -1.866  1.00  0.00     0.049 A 
ATOM     51  H   UNL     1      12.011   0.191   0.019  1.00  0.00     0.167 HD
ATOM     52  C   UNL     1      13.702   0.566   4.033  1.00  0.00     0.031 A 
ATOM     53  C   UNL     1      11.782   0.838  -2.693  1.00  0.00     0.031 A 
ATOM     54  C   UNL     1      14.488   1.446   3.209  1.00  0.00     0.049 A 
ATOM     55  C   UNL     1      12.906   1.681  -2.157  1.00  0.00     0.074 A 
ATOM     56  C   UNL     1      15.577   2.220   3.572  1.00  0.00     0.029 A 
ATOM     57  N   UNL     1      14.271   1.671   1.858  1.00  0.00    -0.354 N 
ATOM     58  N   UNL     1      13.394   1.726  -0.940  1.00  0.00    -0.248 NA
ATOM     59  C   UNL     1      13.574   2.579  -3.109  1.00  0.00     0.031 C 
ATOM     60  C   UNL     1      15.986   2.951   2.452  1.00  0.00     0.029 A 
ATOM     61  C   UNL     1      15.188   2.591   1.378  1.00  0.00     0.049 A 
ATOM     62  H   UNL     1      13.568   1.240   1.320  1.00  0.00     0.167 HD
ATOM     63  C   UNL     1      14.441   2.640  -0.986  1.00  0.00     0.074 A 
ATOM     64  C   UNL     1      14.527   3.109  -2.354  1.00  0.00     0.031 C 
ATOM     65  C   UNL     1      15.257   3.054   0.015  1.00  0.00     0.031 A 
BRANCH  52  66
ATOM     66  C   UNL     1      14.021   0.487   5.504  1.00  0.00    -0.014 A 
ATOM     67  C   UNL     1      14.600  -0.668   6.060  1.00  0.00     0.010 A 
ATOM     68  C   UNL     1      13.774   1.595   6.335  1.00  0.00     0.010 A 
ATOM     69  C   UNL     1      14.885  -0.730   7.427  1.00  0.00     0.020 A 
ATOM     70  C   UNL     1      14.084   1.547   7.697  1.00  0.00     0.020 A 
ATOM     71  C   UNL     1      14.621   0.377   8.238  1.00  0.00     0.054 A 
BRANCH  71  72
ATOM     72  S   UNL     1      15.017   0.275  10.005  1.00  0.00     0.124 S 
ATOM     73  O   UNL     1      13.961  -0.607  10.499  1.00  0.00    -0.237 OA
ATOM     74  O   UNL     1      16.361  -0.297  10.001  1.00  0.00    -0.237 OA
ATOM     75  O   UNL     1      14.934   1.661  10.460  1.00  0.00    -0.744 OA
ENDBRANCH  71  72
ENDBRANCH  52  66
BRANCH  53  76
ATOM     76  C   UNL     1      11.381   0.921  -4.124  1.00  0.00    -0.014 A 
ATOM     77  C   UNL     1      12.224   0.421  -5.132  1.00  0.00     0.010 A 
ATOM     78  C   UNL     1      10.147   1.492  -4.486  1.00  0.00     0.010 A 
ATOM     79  C   UNL     1      11.849   0.506  -6.476  1.00  0.00     0.020 A 
ATOM     80  C   UNL     1       9.756   1.554  -5.827  1.00  0.00     0.020 A 
ATOM     81  C   UNL     1      10.616   1.072  -6.815  1.00  0.00     0.054 A 
BRANCH  81  82
ATOM     82  S   UNL     1      10.129   1.127  -8.562  1.00  0.00     0.124 S 
ATOM     83  O   UNL     1      10.975   2.198  -9.079  1.00  0.00    -0.237 OA
ATOM     84  O   UNL     1      10.457  -0.219  -9.024  1.00  0.00    -0.237 OA
ATOM     85  O   UNL     1       8.700   1.427  -8.508  1.00  0.00    -0.744 OA
ENDBRANCH  81  82
ENDBRANCH  53  76
BRANCH  65  86
ATOM     86  C   UNL     1      16.330   4.050  -0.336  1.00  0.00    -0.014 A 
ATOM     87  C   UNL     1      16.015   5.390  -0.620  1.00  0.00     0.010 A 
ATOM     88  C   UNL     1      17.678   3.647  -0.338  1.00  0.00     0.010 A 
ATOM     89  C   UNL     1      17.026   6.303  -0.933  1.00  0.00     0.020 A 
ATOM     90  C   UNL     1      18.694   4.563  -0.622  1.00  0.00     0.020 A 
ATOM     91  C   UNL     1      18.360   5.882  -0.934  1.00  0.00     0.054 A 
BRANCH  91  92
ATOM     92  S   UNL     1      19.657   7.095  -1.306  1.00  0.00     0.124 S 
ATOM     93  O   UNL     1      19.515   7.258  -2.750  1.00  0.00    -0.237 OA
ATOM     94  O   UNL     1      19.259   8.247  -0.501  1.00  0.00    -0.237 OA
ATOM     95  O   UNL     1      20.884   6.433  -0.871  1.00  0.00    -0.744 OA
ENDBRANCH  91  92
ENDBRANCH  65  86
ENDBRANCH  39  40
ENDBRANCH  31  34
ENDBRANCH  29  30
ENDBRANCH  28  29
ENDBRANCH  27  28
ENDBRANCH   1  27
TORSDOF 20
