REMARK SMILES O=C(NCCCCCCNC(=O)c1cc2cnc(Cl)cc2[nH]1)c1ccc(-c2c3nc(c(-c4ccc(S(=O)(=O)[O-])cc4)c4ccc([nH]4)c(-c4ccc(S(=O)(=O)[O-])cc4)c4nc(c(-c5ccc(S(=O)(=O)[O-])cc5)c5ccc2[nH]5)C=C4)C=C3)cc1
REMARK SMILES IDX 5 1 4 2 3 3 1 4 2 5 23 7 24 8 82 9 25 10 81 11 26 12 27 13
REMARK SMILES IDX 28 14 75 15 29 16 80 17 74 18 76 19 30 20 79 21 73 22 72 23
REMARK SMILES IDX 31 25 61 26 42 27 60 28 43 29 46 30 59 31 77 32 44 33 45 34
REMARK SMILES IDX 58 36 78 37 47 38 32 39 33 40 41 41 34 42 40 43 35 44 36 45
REMARK SMILES IDX 37 46 38 47 39 48 62 49 63 50 71 51 64 52 70 53 65 54 66 55
REMARK SMILES IDX 67 56 68 57 69 58 48 59 49 60 57 61 50 62 56 63 51 64 52 65
REMARK SMILES IDX 53 66 54 67 55 68 6 69 7 70 8 71 9 72 10 73 11 74 12 76
REMARK SMILES IDX 13 77 14 78 22 79 15 80 21 81 16 83 20 84 17 85 18 86 19 87
REMARK H PARENT 3 6 76 24 46 35 10 75 22 82
REMARK Flexibility Score: inf
ROOT
ATOM      1  C   UNL     1       4.728   0.570  -2.957  1.00  0.00     0.021 C 
ENDROOT
BRANCH   1   2
ATOM      2  C   UNL     1       4.361   0.330  -1.501  1.00  0.00     0.116 C 
BRANCH   2   3
ATOM      3  N   UNL     1       2.923   0.141  -1.266  1.00  0.00    -0.352 N 
ATOM      4  O   UNL     1       1.186  -0.547   0.052  1.00  0.00    -0.269 OA
ATOM      5  C   UNL     1       2.286  -0.009  -0.039  1.00  0.00     0.251 C 
ATOM      6  H   UNL     1       2.347   0.119  -2.064  1.00  0.00     0.163 HD
BRANCH   5   7
ATOM      7  C   UNL     1       2.973   0.522   1.151  1.00  0.00     0.039 A 
ATOM      8  C   UNL     1       3.104  -0.173   2.355  1.00  0.00     0.014 A 
ATOM      9  C   UNL     1       3.625   1.728   0.952  1.00  0.00     0.014 A 
ATOM     10  C   UNL     1       3.997   0.322   3.310  1.00  0.00     0.010 A 
ATOM     11  C   UNL     1       4.691   2.027   1.745  1.00  0.00     0.010 A 
ATOM     12  C   UNL     1       4.820   1.413   2.980  1.00  0.00    -0.014 A 
BRANCH  12  13
ATOM     13  C   UNL     1       5.879   1.912   3.851  1.00  0.00     0.031 A 
ATOM     14  C   UNL     1       6.746   0.872   4.453  1.00  0.00     0.074 A 
ATOM     15  C   UNL     1       6.179   3.228   3.971  1.00  0.00     0.049 A 
ATOM     16  N   UNL     1       6.738   0.491   5.685  1.00  0.00    -0.248 NA
ATOM     17  C   UNL     1       7.606   0.057   3.582  1.00  0.00     0.031 C 
ATOM     18  C   UNL     1       5.594   4.379   3.261  1.00  0.00     0.029 A 
ATOM     19  N   UNL     1       7.173   3.815   4.688  1.00  0.00    -0.354 N 
ATOM     20  C   UNL     1       7.756  -0.444   5.805  1.00  0.00     0.074 A 
ATOM     21  C   UNL     1       8.114  -0.815   4.458  1.00  0.00     0.031 C 
ATOM     22  C   UNL     1       6.401   5.455   3.379  1.00  0.00     0.029 A 
ATOM     23  C   UNL     1       7.428   5.140   4.348  1.00  0.00     0.049 A 
ATOM     24  H   UNL     1       7.672   3.341   5.392  1.00  0.00     0.167 HD
ATOM     25  C   UNL     1       8.380  -0.652   6.998  1.00  0.00     0.031 A 
ATOM     26  C   UNL     1       8.396   5.945   4.850  1.00  0.00     0.031 A 
ATOM     27  C   UNL     1       7.665  -0.020   8.081  1.00  0.00     0.049 A 
ATOM     28  C   UNL     1       8.755   5.388   6.174  1.00  0.00     0.074 A 
ATOM     29  C   UNL     1       6.390  -0.142   8.595  1.00  0.00     0.029 A 
ATOM     30  N   UNL     1       8.136   1.201   8.509  1.00  0.00    -0.354 N 
ATOM     31  N   UNL     1       7.930   5.368   7.183  1.00  0.00    -0.248 NA
ATOM     32  C   UNL     1       9.855   4.442   6.245  1.00  0.00     0.031 C 
ATOM     33  C   UNL     1       5.986   1.192   8.893  1.00  0.00     0.029 A 
ATOM     34  C   UNL     1       7.063   2.047   8.640  1.00  0.00     0.049 A 
ATOM     35  H   UNL     1       9.077   1.428   8.691  1.00  0.00     0.167 HD
ATOM     36  C   UNL     1       8.127   4.127   7.769  1.00  0.00     0.074 A 
ATOM     37  C   UNL     1       9.399   3.652   7.221  1.00  0.00     0.031 C 
ATOM     38  C   UNL     1       7.113   3.482   8.419  1.00  0.00     0.031 A 
BRANCH  25  39
ATOM     39  C   UNL     1       9.807  -1.109   7.141  1.00  0.00    -0.014 A 
ATOM     40  C   UNL     1      10.737  -1.083   6.083  1.00  0.00     0.010 A 
ATOM     41  C   UNL     1      10.316  -1.361   8.432  1.00  0.00     0.010 A 
ATOM     42  C   UNL     1      12.098  -1.318   6.287  1.00  0.00     0.020 A 
ATOM     43  C   UNL     1      11.686  -1.555   8.655  1.00  0.00     0.020 A 
ATOM     44  C   UNL     1      12.566  -1.543   7.575  1.00  0.00     0.054 A 
BRANCH  44  45
ATOM     45  S   UNL     1      14.346  -1.758   7.808  1.00  0.00     0.124 S 
ATOM     46  O   UNL     1      14.580  -3.039   7.148  1.00  0.00    -0.237 OA
ATOM     47  O   UNL     1      14.892  -0.588   7.126  1.00  0.00    -0.237 OA
ATOM     48  O   UNL     1      14.504  -1.764   9.259  1.00  0.00    -0.744 OA
ENDBRANCH  44  45
ENDBRANCH  25  39
BRANCH  26  49
ATOM     49  C   UNL     1       9.275   6.883   4.111  1.00  0.00    -0.014 A 
ATOM     50  C   UNL     1       9.520   6.687   2.737  1.00  0.00     0.010 A 
ATOM     51  C   UNL     1      10.131   7.752   4.817  1.00  0.00     0.010 A 
ATOM     52  C   UNL     1      10.645   7.242   2.117  1.00  0.00     0.020 A 
ATOM     53  C   UNL     1      11.262   8.311   4.201  1.00  0.00     0.020 A 
ATOM     54  C   UNL     1      11.535   8.012   2.865  1.00  0.00     0.054 A 
BRANCH  54  55
ATOM     55  S   UNL     1      13.099   8.517   2.092  1.00  0.00     0.124 S 
ATOM     56  O   UNL     1      13.789   7.237   1.950  1.00  0.00    -0.237 OA
ATOM     57  O   UNL     1      12.651   9.131   0.845  1.00  0.00    -0.237 OA
ATOM     58  O   UNL     1      13.685   9.438   3.062  1.00  0.00    -0.744 OA
ENDBRANCH  54  55
ENDBRANCH  26  49
BRANCH  38  59
ATOM     59  C   UNL     1       5.838   4.247   8.731  1.00  0.00    -0.014 A 
ATOM     60  C   UNL     1       5.354   4.183  10.051  1.00  0.00     0.010 A 
ATOM     61  C   UNL     1       5.021   4.857   7.755  1.00  0.00     0.010 A 
ATOM     62  C   UNL     1       4.091   4.675  10.385  1.00  0.00     0.020 A 
ATOM     63  C   UNL     1       3.760   5.380   8.090  1.00  0.00     0.020 A 
ATOM     64  C   UNL     1       3.295   5.264   9.402  1.00  0.00     0.054 A 
BRANCH  64  65
ATOM     65  S   UNL     1       1.646   5.852   9.878  1.00  0.00     0.124 S 
ATOM     66  O   UNL     1       0.925   4.603  10.112  1.00  0.00    -0.237 OA
ATOM     67  O   UNL     1       1.920   6.645  11.075  1.00  0.00    -0.237 OA
ATOM     68  O   UNL     1       1.194   6.620   8.720  1.00  0.00    -0.744 OA
ENDBRANCH  64  65
ENDBRANCH  38  59
ENDBRANCH  12  13
ENDBRANCH   5   7
ENDBRANCH   2   3
ENDBRANCH   1   2
BRANCH   1  69
ATOM     69  C   UNL     1       4.294   1.930  -3.524  1.00  0.00     0.002 C 
BRANCH  69  70
ATOM     70  C   UNL     1       4.874   3.197  -2.874  1.00  0.00     0.002 C 
BRANCH  70  71
ATOM     71  C   UNL     1       6.394   3.263  -2.713  1.00  0.00     0.021 C 
BRANCH  71  72
ATOM     72  C   UNL     1       7.207   2.965  -3.970  1.00  0.00     0.116 C 
BRANCH  72  73
ATOM     73  N   UNL     1       6.997   3.936  -5.033  1.00  0.00    -0.351 N 
ATOM     74  C   UNL     1       7.891   4.798  -5.623  1.00  0.00     0.267 C 
ATOM     75  H   UNL     1       6.077   3.983  -5.382  1.00  0.00     0.163 HD
ATOM     76  O   UNL     1       7.462   5.650  -6.397  1.00  0.00    -0.268 OA
BRANCH  74  77
ATOM     77  C   UNL     1       9.286   4.656  -5.293  1.00  0.00     0.105 A 
ATOM     78  C   UNL     1      10.204   5.634  -4.952  1.00  0.00     0.043 A 
ATOM     79  N   UNL     1       9.974   3.464  -5.293  1.00  0.00    -0.350 N 
ATOM     80  C   UNL     1      11.392   4.986  -4.507  1.00  0.00     0.019 A 
ATOM     81  C   UNL     1      11.199   3.618  -4.696  1.00  0.00     0.051 A 
ATOM     82  H   UNL     1       9.635   2.620  -5.669  1.00  0.00     0.167 HD
ATOM     83  C   UNL     1      12.592   5.417  -3.926  1.00  0.00     0.123 A 
ATOM     84  C   UNL     1      12.136   2.671  -4.294  1.00  0.00     0.067 A 
ATOM     85  N   UNL     1      13.533   4.514  -3.549  1.00  0.00    -0.244 NA
ATOM     86  C   UNL     1      13.275   3.202  -3.712  1.00  0.00     0.131 A 
ATOM     87  Cl  UNL     1      14.506   2.155  -3.132  1.00  0.00    -0.062 Cl
ENDBRANCH  74  77
ENDBRANCH  72  73
ENDBRANCH  71  72
ENDBRANCH  70  71
ENDBRANCH  69  70
ENDBRANCH   1  69
TORSDOF 16
