REMARK SMILES CC1(C)CCCC[C@H]1NC(=O)Nc1ccccc1C(=O)NCCCCCCNC(=O)c1ccc(-c2c3nc(c(-c4ccc(S(=O)(=O)[O-])cc4)c4ccc([nH]4)c(-c4ccc(S(=O)(=O)[O-])cc4)c4nc(c(-c5ccc(S(=O)(=O)[O-])cc5)c5ccc2[nH]5)C=C4)C=C3)cc1
REMARK SMILES IDX 25 1 24 2 23 3 22 4 21 5 19 6 20 7 18 9 13 10 14 11 15 12
REMARK SMILES IDX 17 13 16 14 12 15 9 16 10 17 11 19 8 21 1 22 2 23 3 24 4 25
REMARK SMILES IDX 5 26 7 27 6 28 26 29 27 30 28 31 29 32 30 34 31 35 32 36
REMARK SMILES IDX 90 37 33 38 89 39 34 40 35 41 36 42 83 43 37 44 88 45 82 46
REMARK SMILES IDX 84 47 38 48 87 49 81 50 80 51 39 53 69 54 50 55 68 56 51 57
REMARK SMILES IDX 54 58 67 59 85 60 52 61 53 62 66 64 86 65 55 66 40 67 41 68
REMARK SMILES IDX 49 69 42 70 48 71 43 72 44 73 45 74 46 75 47 76 70 77 71 78
REMARK SMILES IDX 79 79 72 80 78 81 73 82 74 83 75 84 76 85 77 86 56 87 57 88
REMARK SMILES IDX 65 89 58 90 64 91 59 92 60 93 61 94 62 95 63 96
REMARK H PARENT 21 8 9 18 12 20 28 33 84 52 54 63
REMARK Flexibility Score: inf
ROOT
ATOM      1  C   UNL     1      -3.588  -4.224   0.162  1.00  0.00     0.002 C 
ENDROOT
BRANCH   1   2
ATOM      2  C   UNL     1      -4.947  -3.526   0.345  1.00  0.00     0.002 C 
BRANCH   2   3
ATOM      3  C   UNL     1      -5.218  -2.852   1.700  1.00  0.00     0.021 C 
BRANCH   3   4
ATOM      4  C   UNL     1      -4.173  -1.830   2.122  1.00  0.00     0.116 C 
BRANCH   4   5
ATOM      5  N   UNL     1      -4.364  -0.511   1.582  1.00  0.00    -0.352 N 
ATOM      6  C   UNL     1      -3.860   0.704   1.967  1.00  0.00     0.253 C 
ATOM      7  O   UNL     1      -4.176   1.657   1.242  1.00  0.00    -0.269 OA
ATOM      8  H   UNL     1      -4.961  -0.474   0.800  1.00  0.00     0.163 HD
BRANCH   6   9
ATOM      9  C   UNL     1      -3.046   0.990   3.203  1.00  0.00     0.063 A 
ATOM     10  C   UNL     1      -2.217   0.157   3.985  1.00  0.00     0.055 A 
ATOM     11  C   UNL     1      -1.746   0.636   5.231  1.00  0.00     0.027 A 
ATOM     12  C   UNL     1      -1.908   1.963   5.622  1.00  0.00     0.002 A 
ATOM     13  C   UNL     1      -3.171   2.344   3.621  1.00  0.00     0.016 A 
ATOM     14  C   UNL     1      -2.586   2.833   4.791  1.00  0.00     0.001 A 
BRANCH  10  15
ATOM     15  N   UNL     1      -1.662  -1.101   3.676  1.00  0.00    -0.307 N 
ATOM     16  N   UNL     1      -0.850  -0.984   1.449  1.00  0.00    -0.335 N 
ATOM     17  C   UNL     1      -1.164  -1.672   2.561  1.00  0.00     0.319 C 
ATOM     18  H   UNL     1      -0.928  -1.482   0.603  1.00  0.00     0.165 HD
ATOM     19  O   UNL     1      -0.966  -2.889   2.570  1.00  0.00    -0.248 OA
ATOM     20  H   UNL     1      -1.631  -1.702   4.455  1.00  0.00     0.171 HD
BRANCH  16  21
ATOM     21  C   UNL     1      -0.412   0.392   1.331  1.00  0.00     0.089 C 
ATOM     22  C   UNL     1       1.786  -0.038   0.057  1.00  0.00     0.013 C 
ATOM     23  C   UNL     1       1.135   0.549   1.326  1.00  0.00    -0.015 C 
ATOM     24  C   UNL     1       1.763  -0.160   2.544  1.00  0.00     0.013 C 
ATOM     25  C   UNL     1       1.416   2.071   1.431  1.00  0.00     0.008 C 
ATOM     26  C   UNL     1       0.692   2.914   0.370  1.00  0.00     0.001 C 
ATOM     27  C   UNL     1      -1.045   1.086   0.124  1.00  0.00     0.025 C 
ATOM     28  C   UNL     1      -0.795   2.587   0.228  1.00  0.00     0.002 C 
ENDBRANCH  16  21
ENDBRANCH  10  15
ENDBRANCH   6   9
ENDBRANCH   4   5
ENDBRANCH   3   4
ENDBRANCH   2   3
ENDBRANCH   1   2
BRANCH   1  29
ATOM     29  C   UNL     1      -3.155  -5.196   1.262  1.00  0.00     0.021 C 
BRANCH  29  30
ATOM     30  C   UNL     1      -4.168  -6.267   1.645  1.00  0.00     0.116 C 
BRANCH  30  31
ATOM     31  N   UNL     1      -4.643  -7.037   0.510  1.00  0.00    -0.352 N 
ATOM     32  C   UNL     1      -4.898  -8.380   0.414  1.00  0.00     0.251 C 
ATOM     33  H   UNL     1      -4.806  -6.519  -0.311  1.00  0.00     0.163 HD
ATOM     34  O   UNL     1      -5.192  -8.863  -0.681  1.00  0.00    -0.269 OA
BRANCH  32  35
ATOM     35  C   UNL     1      -4.798  -9.254   1.603  1.00  0.00     0.039 A 
ATOM     36  C   UNL     1      -4.216 -10.515   1.455  1.00  0.00     0.014 A 
ATOM     37  C   UNL     1      -5.290  -8.856   2.850  1.00  0.00     0.014 A 
ATOM     38  C   UNL     1      -4.096 -11.360   2.560  1.00  0.00     0.010 A 
ATOM     39  C   UNL     1      -5.094  -9.665   3.967  1.00  0.00     0.010 A 
ATOM     40  C   UNL     1      -4.512 -10.933   3.831  1.00  0.00    -0.014 A 
BRANCH  40  41
ATOM     41  C   UNL     1      -4.363 -11.815   5.017  1.00  0.00     0.031 A 
ATOM     42  C   UNL     1      -5.580 -12.304   5.756  1.00  0.00     0.074 A 
ATOM     43  C   UNL     1      -3.129 -12.151   5.445  1.00  0.00     0.049 A 
ATOM     44  N   UNL     1      -5.649 -13.079   6.809  1.00  0.00    -0.248 NA
ATOM     45  C   UNL     1      -6.891 -11.846   5.265  1.00  0.00     0.031 C 
ATOM     46  C   UNL     1      -1.873 -11.705   4.838  1.00  0.00     0.029 A 
ATOM     47  N   UNL     1      -2.728 -12.949   6.486  1.00  0.00    -0.354 N 
ATOM     48  C   UNL     1      -7.002 -13.189   7.111  1.00  0.00     0.074 A 
ATOM     49  C   UNL     1      -7.715 -12.357   6.168  1.00  0.00     0.031 C 
ATOM     50  C   UNL     1      -0.844 -12.268   5.492  1.00  0.00     0.029 A 
ATOM     51  C   UNL     1      -1.363 -13.078   6.590  1.00  0.00     0.049 A 
ATOM     52  H   UNL     1      -3.359 -13.389   7.102  1.00  0.00     0.167 HD
ATOM     53  C   UNL     1      -7.599 -13.935   8.071  1.00  0.00     0.031 A 
ATOM     54  C   UNL     1      -0.612 -13.769   7.468  1.00  0.00     0.031 A 
ATOM     55  C   UNL     1      -6.884 -14.767   9.002  1.00  0.00     0.049 A 
ATOM     56  C   UNL     1      -1.298 -14.584   8.531  1.00  0.00     0.074 A 
ATOM     57  C   UNL     1      -7.396 -15.600   9.982  1.00  0.00     0.029 A 
ATOM     58  N   UNL     1      -5.502 -14.871   9.072  1.00  0.00    -0.354 N 
ATOM     59  N   UNL     1      -2.582 -14.727   8.759  1.00  0.00    -0.248 NA
ATOM     60  C   UNL     1      -0.434 -15.345   9.443  1.00  0.00     0.031 C 
ATOM     61  C   UNL     1      -6.324 -16.160  10.682  1.00  0.00     0.029 A 
ATOM     62  C   UNL     1      -5.144 -15.735  10.092  1.00  0.00     0.049 A 
ATOM     63  H   UNL     1      -4.870 -14.399   8.483  1.00  0.00     0.167 HD
ATOM     64  C   UNL     1      -2.680 -15.623   9.818  1.00  0.00     0.074 A 
ATOM     65  C   UNL     1      -1.327 -15.997  10.175  1.00  0.00     0.031 C 
ATOM     66  C   UNL     1      -3.791 -16.099  10.435  1.00  0.00     0.031 A 
BRANCH  53  67
ATOM     67  C   UNL     1      -9.103 -13.877   8.168  1.00  0.00    -0.014 A 
ATOM     68  C   UNL     1      -9.921 -14.420   7.159  1.00  0.00     0.010 A 
ATOM     69  C   UNL     1      -9.710 -13.309   9.303  1.00  0.00     0.010 A 
ATOM     70  C   UNL     1     -11.313 -14.356   7.263  1.00  0.00     0.020 A 
ATOM     71  C   UNL     1     -11.102 -13.273   9.427  1.00  0.00     0.020 A 
ATOM     72  C   UNL     1     -11.895 -13.782   8.397  1.00  0.00     0.054 A 
BRANCH  72  73
ATOM     73  S   UNL     1     -13.705 -13.737   8.516  1.00  0.00     0.124 S 
ATOM     74  O   UNL     1     -14.047 -12.732   7.513  1.00  0.00    -0.237 OA
ATOM     75  O   UNL     1     -14.081 -15.108   8.184  1.00  0.00    -0.237 OA
ATOM     76  O   UNL     1     -13.953 -13.343   9.900  1.00  0.00    -0.744 OA
ENDBRANCH  72  73
ENDBRANCH  53  67
BRANCH  54  77
ATOM     77  C   UNL     1       0.874 -13.737   7.364  1.00  0.00    -0.014 A 
ATOM     78  C   UNL     1       1.591 -14.882   6.973  1.00  0.00     0.010 A 
ATOM     79  C   UNL     1       1.581 -12.553   7.644  1.00  0.00     0.010 A 
ATOM     80  C   UNL     1       2.987 -14.850   6.886  1.00  0.00     0.020 A 
ATOM     81  C   UNL     1       2.973 -12.508   7.527  1.00  0.00     0.020 A 
ATOM     82  C   UNL     1       3.668 -13.661   7.161  1.00  0.00     0.054 A 
BRANCH  82  83
ATOM     83  S   UNL     1       5.475 -13.631   6.999  1.00  0.00     0.124 S 
ATOM     84  O   UNL     1       5.897 -14.423   8.150  1.00  0.00    -0.237 OA
ATOM     85  O   UNL     1       5.684 -14.250   5.693  1.00  0.00    -0.237 OA
ATOM     86  O   UNL     1       5.801 -12.208   7.065  1.00  0.00    -0.744 OA
ENDBRANCH  82  83
ENDBRANCH  54  77
BRANCH  66  87
ATOM     87  C   UNL     1      -3.596 -17.117  11.528  1.00  0.00    -0.014 A 
ATOM     88  C   UNL     1      -3.039 -16.767  12.771  1.00  0.00     0.010 A 
ATOM     89  C   UNL     1      -4.025 -18.441  11.318  1.00  0.00     0.010 A 
ATOM     90  C   UNL     1      -2.877 -17.733  13.768  1.00  0.00     0.020 A 
ATOM     91  C   UNL     1      -3.896 -19.401  12.324  1.00  0.00     0.020 A 
ATOM     92  C   UNL     1      -3.306 -19.044  13.538  1.00  0.00     0.054 A 
BRANCH  92  93
ATOM     93  S   UNL     1      -3.115 -20.270  14.860  1.00  0.00     0.124 S 
ATOM     94  O   UNL     1      -1.673 -20.497  14.858  1.00  0.00    -0.237 OA
ATOM     95  O   UNL     1      -3.640 -19.566  16.028  1.00  0.00    -0.237 OA
ATOM     96  O   UNL     1      -3.924 -21.399  14.406  1.00  0.00    -0.744 OA
ENDBRANCH  92  93
ENDBRANCH  66  87
ENDBRANCH  40  41
ENDBRANCH  32  35
ENDBRANCH  30  31
ENDBRANCH  29  30
ENDBRANCH   1  29
TORSDOF 18
