REMARK SMILES O=C(NCCCCCCNC(=O)c1ccc(Cl)cc1-c1ccc(O)c(F)c1)c1ccc(-c2c3nc(c(-c4ccc(S(=O)(=O)[O-])cc4)c4ccc([nH]4)c(-c4ccc(S(=O)(=O)[O-])cc4)c4nc(c(-c5ccc(S(=O)(=O)[O-])cc5)c5ccc2[nH]5)C=C4)C=C3)cc1
REMARK SMILES IDX 6 1 5 2 4 3 3 4 1 5 2 6 28 8 29 9 87 10 30 11 86 12 31 13
REMARK SMILES IDX 32 14 33 15 80 16 34 17 85 18 79 19 81 20 35 21 84 22 78 23
REMARK SMILES IDX 77 24 36 26 66 27 47 28 65 29 48 30 51 31 64 32 82 33 49 34
REMARK SMILES IDX 50 35 63 37 83 38 52 39 37 40 38 41 46 42 39 43 45 44 40 45
REMARK SMILES IDX 41 46 42 47 43 48 44 49 67 50 68 51 76 52 69 53 75 54 70 55
REMARK SMILES IDX 71 56 72 57 73 58 74 59 53 60 54 61 62 62 55 63 61 64 56 65
REMARK SMILES IDX 57 66 58 67 59 68 60 69 7 70 8 71 9 72 10 73 11 74 12 76
REMARK SMILES IDX 13 77 14 78 19 79 15 80 18 81 16 82 17 83 20 84 21 85 27 86
REMARK SMILES IDX 22 87 25 88 23 89 26 90 24 91
REMARK H PARENT 3 7 81 25 51 36 10 75 24 92
REMARK Flexibility Score: inf
ROOT
ATOM      1  C   UNL     1       4.198  -3.669  -1.007  1.00  0.00     0.002 C 
ENDROOT
BRANCH   1   2
ATOM      2  C   UNL     1       4.656  -2.594  -0.023  1.00  0.00     0.021 C 
BRANCH   2   3
ATOM      3  C   UNL     1       4.405  -1.159  -0.467  1.00  0.00     0.116 C 
BRANCH   3   4
ATOM      4  N   UNL     1       2.991  -0.842  -0.595  1.00  0.00    -0.352 N 
ATOM      5  O   UNL     1       1.044   0.196  -0.122  1.00  0.00    -0.269 OA
ATOM      6  C   UNL     1       2.265   0.167  -0.003  1.00  0.00     0.251 C 
ATOM      7  H   UNL     1       2.479  -1.434  -1.192  1.00  0.00     0.163 HD
BRANCH   6   8
ATOM      8  C   UNL     1       2.960   1.193   0.807  1.00  0.00     0.039 A 
ATOM      9  C   UNL     1       4.142   1.778   0.351  1.00  0.00     0.014 A 
ATOM     10  C   UNL     1       2.437   1.553   2.051  1.00  0.00     0.014 A 
ATOM     11  C   UNL     1       4.892   2.575   1.209  1.00  0.00     0.010 A 
ATOM     12  C   UNL     1       3.144   2.437   2.873  1.00  0.00     0.010 A 
ATOM     13  C   UNL     1       4.404   2.916   2.481  1.00  0.00    -0.014 A 
BRANCH  13  14
ATOM     14  C   UNL     1       5.222   3.791   3.364  1.00  0.00     0.031 A 
ATOM     15  C   UNL     1       5.744   3.294   4.688  1.00  0.00     0.074 A 
ATOM     16  C   UNL     1       5.535   5.032   2.942  1.00  0.00     0.049 A 
ATOM     17  N   UNL     1       6.520   3.906   5.548  1.00  0.00    -0.248 NA
ATOM     18  C   UNL     1       5.342   1.942   5.107  1.00  0.00     0.031 C 
ATOM     19  C   UNL     1       5.089   5.631   1.680  1.00  0.00     0.029 A 
ATOM     20  N   UNL     1       6.321   6.003   3.508  1.00  0.00    -0.354 N 
ATOM     21  C   UNL     1       6.675   3.031   6.618  1.00  0.00     0.074 A 
ATOM     22  C   UNL     1       5.893   1.853   6.310  1.00  0.00     0.031 C 
ATOM     23  C   UNL     1       5.657   6.837   1.540  1.00  0.00     0.029 A 
ATOM     24  C   UNL     1       6.450   7.129   2.728  1.00  0.00     0.049 A 
ATOM     25  H   UNL     1       6.751   5.904   4.388  1.00  0.00     0.167 HD
ATOM     26  C   UNL     1       7.404   3.191   7.750  1.00  0.00     0.031 A 
ATOM     27  C   UNL     1       7.123   8.274   2.943  1.00  0.00     0.031 A 
ATOM     28  C   UNL     1       8.184   4.365   8.050  1.00  0.00     0.049 A 
ATOM     29  C   UNL     1       7.904   8.434   4.216  1.00  0.00     0.074 A 
ATOM     30  C   UNL     1       8.987   4.605   9.152  1.00  0.00     0.029 A 
ATOM     31  N   UNL     1       8.256   5.497   7.252  1.00  0.00    -0.354 N 
ATOM     32  N   UNL     1       8.068   7.577   5.195  1.00  0.00    -0.248 NA
ATOM     33  C   UNL     1       8.599   9.713   4.407  1.00  0.00     0.031 C 
ATOM     34  C   UNL     1       9.496   5.904   9.050  1.00  0.00     0.029 A 
ATOM     35  C   UNL     1       9.069   6.448   7.849  1.00  0.00     0.049 A 
ATOM     36  H   UNL     1       7.797   5.609   6.388  1.00  0.00     0.167 HD
ATOM     37  C   UNL     1       8.912   8.203   6.105  1.00  0.00     0.074 A 
ATOM     38  C   UNL     1       9.234   9.502   5.551  1.00  0.00     0.031 C 
ATOM     39  C   UNL     1       9.382   7.739   7.290  1.00  0.00     0.031 A 
BRANCH  26  40
ATOM     40  C   UNL     1       7.365   2.083   8.773  1.00  0.00    -0.014 A 
ATOM     41  C   UNL     1       7.981   0.840   8.537  1.00  0.00     0.010 A 
ATOM     42  C   UNL     1       6.739   2.307  10.014  1.00  0.00     0.010 A 
ATOM     43  C   UNL     1       7.932  -0.171   9.502  1.00  0.00     0.020 A 
ATOM     44  C   UNL     1       6.713   1.309  10.994  1.00  0.00     0.020 A 
ATOM     45  C   UNL     1       7.294   0.069  10.723  1.00  0.00     0.054 A 
BRANCH  45  46
ATOM     46  S   UNL     1       7.254  -1.257  11.960  1.00  0.00     0.124 S 
ATOM     47  O   UNL     1       6.298  -2.190  11.369  1.00  0.00    -0.237 OA
ATOM     48  O   UNL     1       8.642  -1.714  11.985  1.00  0.00    -0.237 OA
ATOM     49  O   UNL     1       6.800  -0.586  13.175  1.00  0.00    -0.744 OA
ENDBRANCH  45  46
ENDBRANCH  26  40
BRANCH  27  50
ATOM     50  C   UNL     1       7.088   9.356   1.921  1.00  0.00    -0.014 A 
ATOM     51  C   UNL     1       8.241   9.685   1.188  1.00  0.00     0.010 A 
ATOM     52  C   UNL     1       5.892  10.050   1.663  1.00  0.00     0.010 A 
ATOM     53  C   UNL     1       8.203  10.700   0.228  1.00  0.00     0.020 A 
ATOM     54  C   UNL     1       5.841  11.043   0.682  1.00  0.00     0.020 A 
ATOM     55  C   UNL     1       7.002  11.370  -0.021  1.00  0.00     0.054 A 
BRANCH  55  56
ATOM     56  S   UNL     1       6.964  12.650  -1.306  1.00  0.00     0.124 S 
ATOM     57  O   UNL     1       7.696  13.740  -0.669  1.00  0.00    -0.237 OA
ATOM     58  O   UNL     1       7.645  11.996  -2.421  1.00  0.00    -0.237 OA
ATOM     59  O   UNL     1       5.537  12.887  -1.510  1.00  0.00    -0.744 OA
ENDBRANCH  55  56
ENDBRANCH  27  50
BRANCH  39  60
ATOM     60  C   UNL     1      10.341   8.623   8.043  1.00  0.00    -0.014 A 
ATOM     61  C   UNL     1       9.920   9.815   8.658  1.00  0.00     0.010 A 
ATOM     62  C   UNL     1      11.689   8.233   8.157  1.00  0.00     0.010 A 
ATOM     63  C   UNL     1      10.838  10.625   9.332  1.00  0.00     0.020 A 
ATOM     64  C   UNL     1      12.603   9.023   8.857  1.00  0.00     0.020 A 
ATOM     65  C   UNL     1      12.175  10.225   9.424  1.00  0.00     0.054 A 
BRANCH  65  66
ATOM     66  S   UNL     1      13.345  11.282  10.321  1.00  0.00     0.124 S 
ATOM     67  O   UNL     1      13.530  12.389   9.387  1.00  0.00    -0.237 OA
ATOM     68  O   UNL     1      12.613  11.605  11.543  1.00  0.00    -0.237 OA
ATOM     69  O   UNL     1      14.513  10.424  10.509  1.00  0.00    -0.744 OA
ENDBRANCH  65  66
ENDBRANCH  39  60
ENDBRANCH  13  14
ENDBRANCH   6   8
ENDBRANCH   3   4
ENDBRANCH   2   3
ENDBRANCH   1   2
BRANCH   1  70
ATOM     70  C   UNL     1       4.756  -3.549  -2.428  1.00  0.00     0.002 C 
BRANCH  70  71
ATOM     71  C   UNL     1       6.281  -3.458  -2.542  1.00  0.00     0.021 C 
BRANCH  71  72
ATOM     72  C   UNL     1       7.057  -4.588  -1.871  1.00  0.00     0.116 C 
BRANCH  72  73
ATOM     73  N   UNL     1       6.739  -5.891  -2.433  1.00  0.00    -0.352 N 
ATOM     74  C   UNL     1       7.578  -6.848  -2.946  1.00  0.00     0.251 C 
ATOM     75  H   UNL     1       5.781  -6.120  -2.449  1.00  0.00     0.163 HD
ATOM     76  O   UNL     1       7.121  -7.890  -3.410  1.00  0.00    -0.269 OA
BRANCH  74  77
ATOM     77  C   UNL     1       9.040  -6.620  -2.921  1.00  0.00     0.047 A 
ATOM     78  C   UNL     1       9.649  -6.442  -1.665  1.00  0.00     0.016 A 
ATOM     79  C   UNL     1       9.808  -6.621  -4.104  1.00  0.00    -0.004 A 
ATOM     80  C   UNL     1      11.016  -6.188  -1.576  1.00  0.00     0.021 A 
ATOM     81  C   UNL     1      11.188  -6.361  -3.985  1.00  0.00     0.030 A 
ATOM     82  C   UNL     1      11.778  -6.137  -2.738  1.00  0.00     0.041 A 
ATOM     83  Cl  UNL     1      13.463  -5.807  -2.640  1.00  0.00    -0.084 Cl
BRANCH  79  84
ATOM     84  C   UNL     1       9.250  -6.897  -5.441  1.00  0.00    -0.014 A 
ATOM     85  C   UNL     1       8.294  -6.055  -6.034  1.00  0.00     0.013 A 
ATOM     86  C   UNL     1       9.682  -8.023  -6.163  1.00  0.00     0.052 A 
ATOM     87  C   UNL     1       7.776  -6.332  -7.307  1.00  0.00     0.050 A 
ATOM     88  C   UNL     1       9.169  -8.293  -7.429  1.00  0.00     0.165 A 
ATOM     89  C   UNL     1       8.218  -7.454  -8.001  1.00  0.00     0.151 A 
ATOM     90  F   UNL     1       9.608  -9.374  -8.090  1.00  0.00    -0.203 F 
BRANCH  89  91
ATOM     91  O   UNL     1       7.733  -7.747  -9.243  1.00  0.00    -0.505 OA
ATOM     92  H   UNL     1       7.092  -7.190  -9.639  1.00  0.00     0.293 HD
ENDBRANCH  89  91
ENDBRANCH  79  84
ENDBRANCH  74  77
ENDBRANCH  72  73
ENDBRANCH  71  72
ENDBRANCH  70  71
ENDBRANCH   1  70
TORSDOF 18
