REMARK SMILES Cc1nn(C)c(C)c1CNC(=O)N[C@H]1CC[C@@H](C(=O)NCCCCCCNC(=O)c2ccc(-c3c4nc(c(-c5ccc(S(=O)(=O)[O-])cc5)c5ccc([nH]5)c(-c5ccc(S(=O)(=O)[O-])cc5)c5nc(c(-c6ccc(S(=O)(=O)[O-])cc6)c6ccc3[nH]6)C=C5)C=C4)cc2)C1
REMARK SMILES IDX 23 1 22 2 21 3 20 4 18 5 19 6 17 8 14 9 15 10 90 11 16 12
REMARK SMILES IDX 13 13 10 14 11 15 12 17 9 19 8 20 1 21 2 22 3 23 4 24 6 25
REMARK SMILES IDX 5 26 7 27 24 28 25 29 26 30 27 31 28 32 29 34 30 35 31 36
REMARK SMILES IDX 89 37 32 38 88 39 33 40 34 41 35 42 82 43 36 44 87 45 81 46
REMARK SMILES IDX 83 47 37 48 86 49 80 50 79 51 38 53 68 54 49 55 67 56 50 57
REMARK SMILES IDX 53 58 66 59 84 60 51 61 52 62 65 64 85 65 54 66 39 67 40 68
REMARK SMILES IDX 48 69 41 70 47 71 42 72 43 73 44 74 45 75 46 76 69 77 70 78
REMARK SMILES IDX 78 79 71 80 77 81 72 82 73 83 74 84 75 85 76 86 55 87 56 88
REMARK SMILES IDX 64 89 57 90 63 91 58 92 59 93 60 94 61 95 62 96
REMARK H PARENT 20 7 10 16 13 18 27 33 83 52 53 63
REMARK Flexibility Score: inf
ROOT
ATOM      1  C   UNL     1      -3.782   6.955  -2.954  1.00  0.00     0.002 C 
ENDROOT
BRANCH   1   2
ATOM      2  C   UNL     1      -2.271   6.799  -2.767  1.00  0.00     0.021 C 
BRANCH   2   3
ATOM      3  C   UNL     1      -1.768   5.357  -2.790  1.00  0.00     0.116 C 
BRANCH   3   4
ATOM      4  N   UNL     1      -1.286   4.939  -4.088  1.00  0.00    -0.356 N 
ATOM      5  C   UNL     1      -0.174   4.281  -4.491  1.00  0.00     0.223 C 
ATOM      6  O   UNL     1      -0.159   3.929  -5.679  1.00  0.00    -0.275 OA
ATOM      7  H   UNL     1      -1.888   5.183  -4.828  1.00  0.00     0.163 HD
BRANCH   5   8
ATOM      8  C   UNL     1       1.018   3.894  -3.610  1.00  0.00     0.080 C 
ATOM      9  C   UNL     1       1.208   3.653  -1.170  1.00  0.00     0.084 C 
ATOM     10  C   UNL     1       1.652   2.352  -1.836  1.00  0.00     0.026 C 
ATOM     11  C   UNL     1       1.373   4.657  -2.328  1.00  0.00     0.038 C 
ATOM     12  C   UNL     1       0.982   2.410  -3.211  1.00  0.00     0.015 C 
BRANCH   9  13
ATOM     13  N   UNL     1      -0.166   3.480  -0.698  1.00  0.00    -0.335 N 
ATOM     14  N   UNL     1      -0.456   4.745   1.270  1.00  0.00    -0.334 N 
ATOM     15  C   UNL     1      -0.927   4.011   0.264  1.00  0.00     0.315 C 
ATOM     16  H   UNL     1      -1.057   5.461   1.580  1.00  0.00     0.165 HD
ATOM     17  O   UNL     1      -2.143   3.842   0.171  1.00  0.00    -0.249 OA
ATOM     18  H   UNL     1      -0.652   2.801  -1.219  1.00  0.00     0.165 HD
BRANCH  14  19
ATOM     19  C   UNL     1       0.794   4.653   1.971  1.00  0.00     0.157 C 
BRANCH  19  20
ATOM     20  C   UNL     1       1.437   5.985   2.149  1.00  0.00     0.015 A 
ATOM     21  C   UNL     1       3.050   5.327   4.111  1.00  0.00     0.069 C 
ATOM     22  C   UNL     1       2.440   6.257   3.127  1.00  0.00     0.065 A 
ATOM     23  N   UNL     1       2.829   7.532   3.105  1.00  0.00    -0.178 NA
ATOM     24  N   UNL     1       2.057   8.099   2.167  1.00  0.00    -0.272 N 
ATOM     25  C   UNL     1       1.268   7.200   1.490  1.00  0.00     0.040 A 
ATOM     26  C   UNL     1       2.133   9.534   2.011  1.00  0.00     0.174 C 
ATOM     27  C   UNL     1       0.424   7.602   0.335  1.00  0.00     0.067 C 
ENDBRANCH  19  20
ENDBRANCH  14  19
ENDBRANCH   9  13
ENDBRANCH   5   8
ENDBRANCH   3   4
ENDBRANCH   2   3
ENDBRANCH   1   2
BRANCH   1  28
ATOM     28  C   UNL     1      -4.663   6.154  -1.987  1.00  0.00     0.002 C 
BRANCH  28  29
ATOM     29  C   UNL     1      -4.327   6.292  -0.500  1.00  0.00     0.021 C 
BRANCH  29  30
ATOM     30  C   UNL     1      -4.390   7.702   0.074  1.00  0.00     0.116 C 
BRANCH  30  31
ATOM     31  N   UNL     1      -5.692   8.317  -0.103  1.00  0.00    -0.352 N 
ATOM     32  C   UNL     1      -6.565   8.829   0.819  1.00  0.00     0.251 C 
ATOM     33  H   UNL     1      -5.998   8.375  -1.037  1.00  0.00     0.163 HD
ATOM     34  O   UNL     1      -7.701   9.144   0.458  1.00  0.00    -0.269 OA
BRANCH  32  35
ATOM     35  C   UNL     1      -6.174   9.001   2.237  1.00  0.00     0.039 A 
ATOM     36  C   UNL     1      -7.122   8.726   3.228  1.00  0.00     0.014 A 
ATOM     37  C   UNL     1      -4.912   9.481   2.601  1.00  0.00     0.014 A 
ATOM     38  C   UNL     1      -6.794   8.893   4.576  1.00  0.00     0.010 A 
ATOM     39  C   UNL     1      -4.561   9.576   3.947  1.00  0.00     0.010 A 
ATOM     40  C   UNL     1      -5.503   9.298   4.949  1.00  0.00    -0.014 A 
BRANCH  40  41
ATOM     41  C   UNL     1      -5.136   9.454   6.381  1.00  0.00     0.031 A 
ATOM     42  C   UNL     1      -4.778  10.810   6.932  1.00  0.00     0.074 A 
ATOM     43  C   UNL     1      -5.088   8.370   7.181  1.00  0.00     0.049 A 
ATOM     44  N   UNL     1      -4.408  11.137   8.144  1.00  0.00    -0.248 NA
ATOM     45  C   UNL     1      -4.817  11.942   5.992  1.00  0.00     0.031 C 
ATOM     46  C   UNL     1      -5.370   6.995   6.761  1.00  0.00     0.029 A 
ATOM     47  N   UNL     1      -4.783   8.253   8.514  1.00  0.00    -0.354 N 
ATOM     48  C   UNL     1      -4.158  12.504   8.110  1.00  0.00     0.074 A 
ATOM     49  C   UNL     1      -4.367  12.936   6.745  1.00  0.00     0.031 C 
ATOM     50  C   UNL     1      -5.253   6.179   7.821  1.00  0.00     0.029 A 
ATOM     51  C   UNL     1      -4.856   6.963   8.985  1.00  0.00     0.049 A 
ATOM     52  H   UNL     1      -4.536   9.020   9.079  1.00  0.00     0.167 HD
ATOM     53  C   UNL     1      -3.807  13.332   9.124  1.00  0.00     0.031 A 
ATOM     54  C   UNL     1      -4.628   6.466  10.217  1.00  0.00     0.031 A 
ATOM     55  C   UNL     1      -3.612  12.904  10.484  1.00  0.00     0.049 A 
ATOM     56  C   UNL     1      -4.251   7.405  11.329  1.00  0.00     0.074 A 
ATOM     57  C   UNL     1      -3.301  13.673  11.592  1.00  0.00     0.029 A 
ATOM     58  N   UNL     1      -3.714  11.593  10.923  1.00  0.00    -0.354 N 
ATOM     59  N   UNL     1      -4.073   8.704  11.286  1.00  0.00    -0.248 NA
ATOM     60  C   UNL     1      -4.061   6.812  12.660  1.00  0.00     0.031 C 
ATOM     61  C   UNL     1      -3.173  12.819  12.694  1.00  0.00     0.029 A 
ATOM     62  C   UNL     1      -3.458  11.527  12.283  1.00  0.00     0.049 A 
ATOM     63  H   UNL     1      -3.935  10.822  10.352  1.00  0.00     0.167 HD
ATOM     64  C   UNL     1      -3.776   9.087  12.589  1.00  0.00     0.074 A 
ATOM     65  C   UNL     1      -3.815   7.886  13.398  1.00  0.00     0.031 C 
ATOM     66  C   UNL     1      -3.497  10.323  13.073  1.00  0.00     0.031 A 
BRANCH  53  67
ATOM     67  C   UNL     1      -3.609  14.789   8.794  1.00  0.00    -0.014 A 
ATOM     68  C   UNL     1      -4.701  15.611   8.459  1.00  0.00     0.010 A 
ATOM     69  C   UNL     1      -2.321  15.352   8.847  1.00  0.00     0.010 A 
ATOM     70  C   UNL     1      -4.503  16.956   8.137  1.00  0.00     0.020 A 
ATOM     71  C   UNL     1      -2.123  16.705   8.553  1.00  0.00     0.020 A 
ATOM     72  C   UNL     1      -3.214  17.494   8.181  1.00  0.00     0.054 A 
BRANCH  72  73
ATOM     73  S   UNL     1      -2.986  19.245   7.768  1.00  0.00     0.124 S 
ATOM     74  O   UNL     1      -3.145  19.235   6.316  1.00  0.00    -0.237 OA
ATOM     75  O   UNL     1      -4.063  19.894   8.512  1.00  0.00    -0.237 OA
ATOM     76  O   UNL     1      -1.638  19.542   8.245  1.00  0.00    -0.744 OA
ENDBRANCH  72  73
ENDBRANCH  53  67
BRANCH  54  77
ATOM     77  C   UNL     1      -4.775   5.006  10.465  1.00  0.00    -0.014 A 
ATOM     78  C   UNL     1      -5.857   4.514  11.216  1.00  0.00     0.010 A 
ATOM     79  C   UNL     1      -3.840   4.098   9.937  1.00  0.00     0.010 A 
ATOM     80  C   UNL     1      -5.991   3.142  11.451  1.00  0.00     0.020 A 
ATOM     81  C   UNL     1      -3.985   2.724  10.147  1.00  0.00     0.020 A 
ATOM     82  C   UNL     1      -5.053   2.255  10.914  1.00  0.00     0.054 A 
BRANCH  82  83
ATOM     83  S   UNL     1      -5.273   0.475  11.187  1.00  0.00     0.124 S 
ATOM     84  O   UNL     1      -4.863   0.329  12.580  1.00  0.00    -0.237 OA
ATOM     85  O   UNL     1      -6.698   0.287  10.922  1.00  0.00    -0.237 OA
ATOM     86  O   UNL     1      -4.380  -0.133  10.203  1.00  0.00    -0.744 OA
ENDBRANCH  82  83
ENDBRANCH  54  77
BRANCH  66  87
ATOM     87  C   UNL     1      -3.247  10.444  14.553  1.00  0.00    -0.014 A 
ATOM     88  C   UNL     1      -2.060   9.962  15.134  1.00  0.00     0.010 A 
ATOM     89  C   UNL     1      -4.200  11.082  15.367  1.00  0.00     0.010 A 
ATOM     90  C   UNL     1      -1.850  10.080  16.510  1.00  0.00     0.020 A 
ATOM     91  C   UNL     1      -3.982  11.226  16.739  1.00  0.00     0.020 A 
ATOM     92  C   UNL     1      -2.815  10.707  17.305  1.00  0.00     0.054 A 
BRANCH  92  93
ATOM     93  S   UNL     1      -2.509  10.872  19.085  1.00  0.00     0.124 S 
ATOM     94  O   UNL     1      -2.763   9.516  19.564  1.00  0.00    -0.237 OA
ATOM     95  O   UNL     1      -1.115  11.306  19.134  1.00  0.00    -0.237 OA
ATOM     96  O   UNL     1      -3.482  11.876  19.512  1.00  0.00    -0.744 OA
ENDBRANCH  92  93
ENDBRANCH  66  87
ENDBRANCH  40  41
ENDBRANCH  32  35
ENDBRANCH  30  31
ENDBRANCH  29  30
ENDBRANCH  28  29
ENDBRANCH   1  28
TORSDOF 19
