REMARK SMILES O=C(CN(CC(=O)NCc1ccccc1)c1ccccc1)NCCCCCCNC(=O)c1ccc(-c2c3nc(c(-c4ccc(S(=O)(=O)[O-])cc4)c4ccc([nH]4)c(-c4ccc(S(=O)(=O)[O-])cc4)c4nc(c(-c5ccc(S(=O)(=O)[O-])cc5)c5ccc2[nH]5)C=C4)C=C3)cc1
REMARK SMILES IDX 24 1 23 2 22 3 1 4 2 5 3 7 4 8 5 9 6 10 7 11 8 12 9 14 10 15
REMARK SMILES IDX 11 16 15 17 12 18 14 19 13 20 16 21 17 22 21 23 18 24 20 25
REMARK SMILES IDX 19 26 25 27 26 28 27 29 28 30 29 31 30 32 31 34 32 35 33 36
REMARK SMILES IDX 91 37 34 38 90 39 35 40 36 41 37 42 84 43 38 44 89 45 83 46
REMARK SMILES IDX 85 47 39 48 88 49 82 50 81 51 40 53 70 54 51 55 69 56 52 57
REMARK SMILES IDX 55 58 68 59 86 60 53 61 54 62 67 64 87 65 56 66 41 67 42 68
REMARK SMILES IDX 50 69 43 70 49 71 44 72 45 73 46 74 47 75 48 76 71 77 72 78
REMARK SMILES IDX 80 79 73 80 79 81 74 82 75 83 76 84 77 85 78 86 57 87 58 88
REMARK SMILES IDX 66 89 59 90 65 91 60 92 61 93 62 94 63 95 64 96
REMARK H PARENT 22 6 8 13 29 33 85 52 55 63
REMARK Flexibility Score: inf
ROOT
ATOM      1  C   UNL     1       2.758   0.682   3.246  1.00  0.00     0.021 C 
ENDROOT
BRANCH   1   2
ATOM      2  C   UNL     1       2.204   1.330   1.979  1.00  0.00     0.116 C 
BRANCH   2   3
ATOM      3  N   UNL     1       2.811   0.805   0.774  1.00  0.00    -0.355 N 
ATOM      4  O   UNL     1       1.084  -0.612   0.270  1.00  0.00    -0.273 OA
ATOM      5  C   UNL     1       2.162  -0.099  -0.032  1.00  0.00     0.239 C 
ATOM      6  H   UNL     1       3.716   1.105   0.525  1.00  0.00     0.163 HD
BRANCH   5   7
ATOM      7  C   UNL     1       2.890  -0.492  -1.316  1.00  0.00     0.217 C 
BRANCH   7   8
ATOM      8  N   UNL     1       3.838   0.499  -1.895  1.00  0.00    -0.353 N 
BRANCH   8   9
ATOM      9  C   UNL     1       5.262   0.083  -1.980  1.00  0.00     0.217 C 
BRANCH   9  10
ATOM     10  C   UNL     1       5.813  -0.286  -3.370  1.00  0.00     0.239 C 
ATOM     11  O   UNL     1       6.781   0.324  -3.842  1.00  0.00    -0.273 OA
ATOM     12  N   UNL     1       5.311  -1.298  -4.127  1.00  0.00    -0.350 N 
ATOM     13  H   UNL     1       5.638  -1.321  -5.056  1.00  0.00     0.163 HD
BRANCH  12  14
ATOM     14  C   UNL     1       4.376  -2.344  -3.790  1.00  0.00     0.151 C 
BRANCH  14  15
ATOM     15  C   UNL     1       3.073  -2.283  -4.547  1.00  0.00    -0.029 A 
ATOM     16  C   UNL     1       2.488  -1.073  -4.944  1.00  0.00     0.005 A 
ATOM     17  C   UNL     1       2.362  -3.469  -4.787  1.00  0.00     0.005 A 
ATOM     18  C   UNL     1       1.229  -1.042  -5.548  1.00  0.00     0.000 A 
ATOM     19  C   UNL     1       1.108  -3.442  -5.404  1.00  0.00     0.000 A 
ATOM     20  C   UNL     1       0.539  -2.228  -5.778  1.00  0.00     0.000 A 
ENDBRANCH  14  15
ENDBRANCH  12  14
ENDBRANCH   9  10
ENDBRANCH   8   9
BRANCH   8  21
ATOM     21  C   UNL     1       3.346   1.635  -2.541  1.00  0.00     0.038 A 
ATOM     22  C   UNL     1       3.957   2.200  -3.674  1.00  0.00     0.026 A 
ATOM     23  C   UNL     1       2.173   2.287  -2.119  1.00  0.00     0.026 A 
ATOM     24  C   UNL     1       3.400   3.277  -4.382  1.00  0.00     0.002 A 
ATOM     25  C   UNL     1       1.632   3.395  -2.788  1.00  0.00     0.002 A 
ATOM     26  C   UNL     1       2.235   3.878  -3.937  1.00  0.00     0.000 A 
ENDBRANCH   8  21
ENDBRANCH   7   8
ENDBRANCH   5   7
ENDBRANCH   2   3
ENDBRANCH   1   2
BRANCH   1  27
ATOM     27  C   UNL     1       4.256   0.910   3.469  1.00  0.00     0.002 C 
BRANCH  27  28
ATOM     28  C   UNL     1       4.701   2.376   3.494  1.00  0.00     0.002 C 
BRANCH  28  29
ATOM     29  C   UNL     1       3.995   3.261   4.524  1.00  0.00     0.021 C 
BRANCH  29  30
ATOM     30  C   UNL     1       4.121   2.797   5.973  1.00  0.00     0.116 C 
BRANCH  30  31
ATOM     31  N   UNL     1       5.501   2.773   6.429  1.00  0.00    -0.352 N 
ATOM     32  C   UNL     1       6.062   3.321   7.554  1.00  0.00     0.251 C 
ATOM     33  H   UNL     1       6.127   2.290   5.843  1.00  0.00     0.163 HD
ATOM     34  O   UNL     1       7.288   3.336   7.675  1.00  0.00    -0.269 OA
BRANCH  32  35
ATOM     35  C   UNL     1       5.211   3.913   8.610  1.00  0.00     0.039 A 
ATOM     36  C   UNL     1       5.609   5.117   9.198  1.00  0.00     0.014 A 
ATOM     37  C   UNL     1       4.038   3.284   9.039  1.00  0.00     0.014 A 
ATOM     38  C   UNL     1       4.804   5.716  10.170  1.00  0.00     0.010 A 
ATOM     39  C   UNL     1       3.200   3.920   9.953  1.00  0.00     0.010 A 
ATOM     40  C   UNL     1       3.574   5.140  10.533  1.00  0.00    -0.014 A 
BRANCH  40  41
ATOM     41  C   UNL     1       2.672   5.819  11.500  1.00  0.00     0.031 A 
ATOM     42  C   UNL     1       2.343   5.184  12.825  1.00  0.00     0.074 A 
ATOM     43  C   UNL     1       2.112   6.999  11.164  1.00  0.00     0.049 A 
ATOM     44  N   UNL     1       1.599   5.646  13.798  1.00  0.00    -0.248 NA
ATOM     45  C   UNL     1       2.905   3.849  13.083  1.00  0.00     0.031 C 
ATOM     46  C   UNL     1       2.312   7.699   9.893  1.00  0.00     0.029 A 
ATOM     47  N   UNL     1       1.268   7.824  11.866  1.00  0.00    -0.354 N 
ATOM     48  C   UNL     1       1.587   4.655  14.773  1.00  0.00     0.074 A 
ATOM     49  C   UNL     1       2.360   3.547  14.253  1.00  0.00     0.031 C 
ATOM     50  C   UNL     1       1.654   8.868   9.926  1.00  0.00     0.029 A 
ATOM     51  C   UNL     1       0.952   8.984  11.199  1.00  0.00     0.049 A 
ATOM     52  H   UNL     1       0.923   7.605  12.761  1.00  0.00     0.167 HD
ATOM     53  C   UNL     1       1.002   4.669  15.995  1.00  0.00     0.031 A 
ATOM     54  C   UNL     1       0.189  10.030  11.572  1.00  0.00     0.031 A 
ATOM     55  C   UNL     1       0.235   5.774  16.510  1.00  0.00     0.049 A 
ATOM     56  C   UNL     1      -0.457  10.019  12.930  1.00  0.00     0.074 A 
ATOM     57  C   UNL     1      -0.337   5.916  17.763  1.00  0.00     0.029 A 
ATOM     58  N   UNL     1      -0.079   6.922  15.798  1.00  0.00    -0.354 N 
ATOM     59  N   UNL     1      -0.384   9.110  13.872  1.00  0.00    -0.248 NA
ATOM     60  C   UNL     1      -1.278  11.186  13.278  1.00  0.00     0.031 C 
ATOM     61  C   UNL     1      -1.052   7.119  17.785  1.00  0.00     0.029 A 
ATOM     62  C   UNL     1      -0.869   7.760  16.570  1.00  0.00     0.049 A 
ATOM     63  H   UNL     1       0.215   7.114  14.878  1.00  0.00     0.167 HD
ATOM     64  C   UNL     1      -1.129   9.607  14.936  1.00  0.00     0.074 A 
ATOM     65  C   UNL     1      -1.625  10.905  14.526  1.00  0.00     0.031 C 
ATOM     66  C   UNL     1      -1.376   9.041  16.144  1.00  0.00     0.031 A 
BRANCH  53  67
ATOM     67  C   UNL     1       1.148   3.435  16.851  1.00  0.00    -0.014 A 
ATOM     68  C   UNL     1       2.393   3.056  17.387  1.00  0.00     0.010 A 
ATOM     69  C   UNL     1       0.016   2.652  17.142  1.00  0.00     0.010 A 
ATOM     70  C   UNL     1       2.513   1.888  18.147  1.00  0.00     0.020 A 
ATOM     71  C   UNL     1       0.125   1.501  17.928  1.00  0.00     0.020 A 
ATOM     72  C   UNL     1       1.378   1.114  18.407  1.00  0.00     0.054 A 
BRANCH  72  73
ATOM     73  S   UNL     1       1.563  -0.397  19.393  1.00  0.00     0.124 S 
ATOM     74  O   UNL     1       2.242  -1.287  18.454  1.00  0.00    -0.237 OA
ATOM     75  O   UNL     1       2.369   0.054  20.524  1.00  0.00    -0.237 OA
ATOM     76  O   UNL     1       0.188  -0.769  19.719  1.00  0.00    -0.744 OA
ENDBRANCH  72  73
ENDBRANCH  53  67
BRANCH  54  77
ATOM     77  C   UNL     1       0.030  11.195  10.659  1.00  0.00    -0.014 A 
ATOM     78  C   UNL     1       0.636  12.426  10.970  1.00  0.00     0.010 A 
ATOM     79  C   UNL     1      -0.706  11.078   9.466  1.00  0.00     0.010 A 
ATOM     80  C   UNL     1       0.498  13.521  10.112  1.00  0.00     0.020 A 
ATOM     81  C   UNL     1      -0.821  12.162   8.591  1.00  0.00     0.020 A 
ATOM     82  C   UNL     1      -0.225  13.379   8.924  1.00  0.00     0.054 A 
BRANCH  82  83
ATOM     83  S   UNL     1      -0.334  14.796   7.795  1.00  0.00     0.124 S 
ATOM     84  O   UNL     1      -1.239  15.688   8.513  1.00  0.00    -0.237 OA
ATOM     85  O   UNL     1       1.056  15.238   7.710  1.00  0.00    -0.237 OA
ATOM     86  O   UNL     1      -0.871  14.213   6.567  1.00  0.00    -0.744 OA
ENDBRANCH  82  83
ENDBRANCH  54  77
BRANCH  66  87
ATOM     87  C   UNL     1      -2.205   9.839  17.118  1.00  0.00    -0.014 A 
ATOM     88  C   UNL     1      -3.576  10.066  16.899  1.00  0.00     0.010 A 
ATOM     89  C   UNL     1      -1.604  10.357  18.280  1.00  0.00     0.010 A 
ATOM     90  C   UNL     1      -4.317  10.843  17.794  1.00  0.00     0.020 A 
ATOM     91  C   UNL     1      -2.349  11.105  19.195  1.00  0.00     0.020 A 
ATOM     92  C   UNL     1      -3.696  11.362  18.934  1.00  0.00     0.054 A 
BRANCH  92  93
ATOM     93  S   UNL     1      -4.680  12.360  20.086  1.00  0.00     0.124 S 
ATOM     94  O   UNL     1      -4.831  13.612  19.349  1.00  0.00    -0.237 OA
ATOM     95  O   UNL     1      -5.899  11.569  20.237  1.00  0.00    -0.237 OA
ATOM     96  O   UNL     1      -3.842  12.437  21.281  1.00  0.00    -0.744 OA
ENDBRANCH  92  93
ENDBRANCH  66  87
ENDBRANCH  40  41
ENDBRANCH  32  35
ENDBRANCH  30  31
ENDBRANCH  29  30
ENDBRANCH  28  29
ENDBRANCH  27  28
ENDBRANCH   1  27
TORSDOF 22
