REMARK SMILES Cc1cc2c(c(C)c1Br)C=C(C(=O)NCCCCCCNC(=O)c1ccc(-c3c4nc(c(-c5ccc(S(=O)(=O)[O-])cc5)c5ccc([nH]5)c(-c5ccc(S(=O)(=O)[O-])cc5)c5nc(c(-c6ccc(S(=O)(=O)[O-])cc6)c6ccc3[nH]6)C=C5)C=C4)cc1)[C@@H](C(F)(F)F)O2
REMARK SMILES IDX 18 1 17 2 16 3 15 4 14 5 12 6 13 7 11 9 1 10 2 11 3 12 8 13
REMARK SMILES IDX 4 14 6 15 9 16 5 17 89 18 7 19 10 20 84 21 85 22 86 23 87 24
REMARK SMILES IDX 88 25 19 26 20 27 21 28 22 29 23 31 24 32 25 33 83 34 26 35
REMARK SMILES IDX 82 36 27 37 28 38 29 39 76 40 30 41 81 42 75 43 77 44 31 45
REMARK SMILES IDX 80 46 74 47 73 48 32 50 62 51 43 52 61 53 44 54 47 55 60 56
REMARK SMILES IDX 78 57 45 58 46 59 59 61 79 62 48 63 33 64 34 65 42 66 35 67
REMARK SMILES IDX 41 68 36 69 37 70 38 71 39 72 40 73 63 74 64 75 72 76 65 77
REMARK SMILES IDX 71 78 66 79 67 80 68 81 69 82 70 83 49 84 50 85 58 86 51 87
REMARK SMILES IDX 57 88 52 89 53 90 54 91 55 92 56 93
REMARK H PARENT 14 8 21 30 77 49 47 60
REMARK Flexibility Score: inf
ROOT
ATOM      1  C   UNL     1      -4.206   5.538   9.305  1.00  0.00     0.002 C 
ENDROOT
BRANCH   1   2
ATOM      2  C   UNL     1      -2.680   5.514   9.145  1.00  0.00     0.002 C 
BRANCH   2   3
ATOM      3  C   UNL     1      -2.145   4.443   8.192  1.00  0.00     0.021 C 
BRANCH   3   4
ATOM      4  C   UNL     1      -2.751   4.512   6.794  1.00  0.00     0.116 C 
BRANCH   4   5
ATOM      5  N   UNL     1      -2.074   5.492   5.964  1.00  0.00    -0.352 N 
ATOM      6  C   UNL     1      -1.406   5.502   4.788  1.00  0.00     0.251 C 
ATOM      7  O   UNL     1      -0.995   6.610   4.425  1.00  0.00    -0.270 OA
ATOM      8  H   UNL     1      -2.111   6.391   6.365  1.00  0.00     0.163 HD
BRANCH   6   9
ATOM      9  C   UNL     1      -1.142   4.303   3.935  1.00  0.00     0.067 C 
ATOM     10  C   UNL     1       1.037  -0.160  -0.276  1.00  0.00     0.046 C 
ATOM     11  C   UNL     1       0.701   1.102   0.473  1.00  0.00    -0.033 A 
ATOM     12  C   UNL     1      -0.071   0.985   1.630  1.00  0.00     0.051 A 
ATOM     13  C   UNL     1       1.130   2.384   0.069  1.00  0.00     0.024 A 
ATOM     14  C   UNL     1      -0.404   2.107   2.378  1.00  0.00     0.128 A 
ATOM     15  C   UNL     1       0.798   3.539   0.824  1.00  0.00    -0.026 A 
ATOM     16  Br  UNL     1       2.189   2.521  -1.520  1.00  0.00    -0.050 Br
ATOM     17  C   UNL     1       0.032   3.381   2.007  1.00  0.00     0.021 A 
ATOM     18  O   UNL     1      -1.131   1.848   3.499  1.00  0.00    -0.475 OA
ATOM     19  C   UNL     1       1.242   4.927   0.422  1.00  0.00     0.046 C 
ATOM     20  C   UNL     1      -0.290   4.491   2.910  1.00  0.00     0.026 C 
ATOM     21  C   UNL     1      -1.784   2.965   4.147  1.00  0.00     0.314 C 
BRANCH  21  22
ATOM     22  C   UNL     1      -3.279   2.957   3.785  1.00  0.00     0.429 C 
ATOM     23  F   UNL     1      -3.893   1.877   4.327  1.00  0.00    -0.167 F 
ATOM     24  F   UNL     1      -3.935   4.045   4.253  1.00  0.00    -0.167 F 
ATOM     25  F   UNL     1      -3.487   2.918   2.449  1.00  0.00    -0.167 F 
ENDBRANCH  21  22
ENDBRANCH   6   9
ENDBRANCH   4   5
ENDBRANCH   3   4
ENDBRANCH   2   3
ENDBRANCH   1   2
BRANCH   1  26
ATOM     26  C   UNL     1      -4.852   4.183   9.608  1.00  0.00     0.021 C 
BRANCH  26  27
ATOM     27  C   UNL     1      -4.313   3.496  10.857  1.00  0.00     0.116 C 
BRANCH  27  28
ATOM     28  N   UNL     1      -4.524   4.303  12.047  1.00  0.00    -0.352 N 
ATOM     29  C   UNL     1      -5.253   4.010  13.170  1.00  0.00     0.251 C 
ATOM     30  H   UNL     1      -4.083   5.183  12.046  1.00  0.00     0.163 HD
ATOM     31  O   UNL     1      -5.521   4.895  13.979  1.00  0.00    -0.269 OA
BRANCH  29  32
ATOM     32  C   UNL     1      -5.720   2.627  13.394  1.00  0.00     0.039 A 
ATOM     33  C   UNL     1      -7.039   2.413  13.795  1.00  0.00     0.014 A 
ATOM     34  C   UNL     1      -4.849   1.547  13.213  1.00  0.00     0.014 A 
ATOM     35  C   UNL     1      -7.500   1.109  13.974  1.00  0.00     0.010 A 
ATOM     36  C   UNL     1      -5.330   0.247  13.320  1.00  0.00     0.010 A 
ATOM     37  C   UNL     1      -6.655   0.016  13.717  1.00  0.00    -0.014 A 
BRANCH  37  38
ATOM     38  C   UNL     1      -7.134  -1.376  13.897  1.00  0.00     0.031 A 
ATOM     39  C   UNL     1      -6.535  -2.239  14.975  1.00  0.00     0.074 A 
ATOM     40  C   UNL     1      -8.086  -1.868  13.081  1.00  0.00     0.049 A 
ATOM     41  N   UNL     1      -6.807  -3.481  15.280  1.00  0.00    -0.248 NA
ATOM     42  C   UNL     1      -5.480  -1.634  15.806  1.00  0.00     0.031 C 
ATOM     43  C   UNL     1      -8.726  -1.134  11.987  1.00  0.00     0.029 A 
ATOM     44  N   UNL     1      -8.689  -3.101  13.050  1.00  0.00    -0.354 N 
ATOM     45  C   UNL     1      -5.960  -3.804  16.333  1.00  0.00     0.074 A 
ATOM     46  C   UNL     1      -5.121  -2.652  16.574  1.00  0.00     0.031 C 
ATOM     47  C   UNL     1      -9.659  -1.916  11.420  1.00  0.00     0.029 A 
ATOM     48  C   UNL     1      -9.657  -3.218  12.080  1.00  0.00     0.049 A 
ATOM     49  H   UNL     1      -8.450  -3.833  13.664  1.00  0.00     0.167 HD
ATOM     50  C   UNL     1      -5.906  -4.947  17.056  1.00  0.00     0.031 A 
ATOM     51  C   UNL     1     -10.453  -4.256  11.760  1.00  0.00     0.031 A 
ATOM     52  C   UNL     1      -6.748  -6.088  16.819  1.00  0.00     0.049 A 
ATOM     53  C   UNL     1     -10.340  -5.534  12.548  1.00  0.00     0.074 A 
ATOM     54  C   UNL     1      -6.796  -7.280  17.519  1.00  0.00     0.029 A 
ATOM     55  N   UNL     1      -7.690  -6.179  15.806  1.00  0.00    -0.354 N 
ATOM     56  N   UNL     1      -9.568  -5.802  13.574  1.00  0.00    -0.248 NA
ATOM     57  C   UNL     1     -11.207  -6.647  12.137  1.00  0.00     0.031 C 
ATOM     58  C   UNL     1      -7.727  -8.114  16.894  1.00  0.00     0.029 A 
ATOM     59  C   UNL     1      -8.303  -7.419  15.842  1.00  0.00     0.049 A 
ATOM     60  H   UNL     1      -7.892  -5.466  15.157  1.00  0.00     0.167 HD
ATOM     61  C   UNL     1      -9.868  -7.109  13.942  1.00  0.00     0.074 A 
ATOM     62  C   UNL     1     -10.906  -7.569  13.042  1.00  0.00     0.031 C 
ATOM     63  C   UNL     1      -9.329  -7.862  14.932  1.00  0.00     0.031 A 
BRANCH  50  64
ATOM     64  C   UNL     1      -4.906  -5.015  18.180  1.00  0.00    -0.014 A 
ATOM     65  C   UNL     1      -5.082  -4.252  19.349  1.00  0.00     0.010 A 
ATOM     66  C   UNL     1      -3.807  -5.889  18.092  1.00  0.00     0.010 A 
ATOM     67  C   UNL     1      -4.160  -4.336  20.395  1.00  0.00     0.020 A 
ATOM     68  C   UNL     1      -2.898  -5.998  19.149  1.00  0.00     0.020 A 
ATOM     69  C   UNL     1      -3.075  -5.210  20.289  1.00  0.00     0.054 A 
BRANCH  69  70
ATOM     70  S   UNL     1      -1.916  -5.322  21.680  1.00  0.00     0.124 S 
ATOM     71  O   UNL     1      -1.255  -4.020  21.627  1.00  0.00    -0.237 OA
ATOM     72  O   UNL     1      -2.806  -5.529  22.819  1.00  0.00    -0.237 OA
ATOM     73  O   UNL     1      -1.069  -6.462  21.337  1.00  0.00    -0.744 OA
ENDBRANCH  69  70
ENDBRANCH  50  64
BRANCH  51  74
ATOM     74  C   UNL     1     -11.442  -4.122  10.655  1.00  0.00    -0.014 A 
ATOM     75  C   UNL     1     -12.819  -4.077  10.934  1.00  0.00     0.010 A 
ATOM     76  C   UNL     1     -11.012  -4.017   9.319  1.00  0.00     0.010 A 
ATOM     77  C   UNL     1     -13.748  -3.939   9.899  1.00  0.00     0.020 A 
ATOM     78  C   UNL     1     -11.937  -3.852   8.284  1.00  0.00     0.020 A 
ATOM     79  C   UNL     1     -13.301  -3.822   8.580  1.00  0.00     0.054 A 
BRANCH  79  80
ATOM     80  S   UNL     1     -14.525  -3.587   7.262  1.00  0.00     0.124 S 
ATOM     81  O   UNL     1     -15.183  -4.889   7.222  1.00  0.00    -0.237 OA
ATOM     82  O   UNL     1     -15.333  -2.485   7.778  1.00  0.00    -0.237 OA
ATOM     83  O   UNL     1     -13.712  -3.260   6.093  1.00  0.00    -0.744 OA
ENDBRANCH  79  80
ENDBRANCH  51  74
BRANCH  63  84
ATOM     84  C   UNL     1      -9.848  -9.264  15.103  1.00  0.00    -0.014 A 
ATOM     85  C   UNL     1      -9.514 -10.273  14.183  1.00  0.00     0.010 A 
ATOM     86  C   UNL     1     -10.605  -9.596  16.242  1.00  0.00     0.010 A 
ATOM     87  C   UNL     1      -9.942 -11.586  14.390  1.00  0.00     0.020 A 
ATOM     88  C   UNL     1     -11.010 -10.914  16.468  1.00  0.00     0.020 A 
ATOM     89  C   UNL     1     -10.682 -11.900  15.535  1.00  0.00     0.054 A 
BRANCH  89  90
ATOM     90  S   UNL     1     -11.167 -13.626  15.809  1.00  0.00     0.124 S 
ATOM     91  O   UNL     1     -12.168 -13.830  14.766  1.00  0.00    -0.237 OA
ATOM     92  O   UNL     1      -9.908 -14.343  15.620  1.00  0.00    -0.237 OA
ATOM     93  O   UNL     1     -11.682 -13.630  17.176  1.00  0.00    -0.744 OA
ENDBRANCH  89  90
ENDBRANCH  63  84
ENDBRANCH  37  38
ENDBRANCH  29  32
ENDBRANCH  27  28
ENDBRANCH  26  27
ENDBRANCH   1  26
TORSDOF 17
