REMARK SMILES CC(C)c1nc(N2C[C@H](C)OC(C)(C)C2)sc1C(=O)NCCCCCCNC(=O)c1ccc(-c2c3nc(c(-c4ccc(S(=O)(=O)[O-])cc4)c4ccc([nH]4)c(-c4ccc(S(=O)(=O)[O-])cc4)c4nc(c(-c5ccc(S(=O)(=O)[O-])cc5)c5ccc2[nH]5)C=C4)C=C3)cc1
REMARK SMILES IDX 24 1 23 2 22 3 21 4 20 5 18 6 19 7 17 9 4 10 5 11 6 12 16 13
REMARK SMILES IDX 2 14 1 15 3 16 7 17 8 18 15 19 9 20 12 21 11 22 10 23 13 24
REMARK SMILES IDX 14 25 25 26 26 27 27 28 28 29 29 31 30 32 31 33 89 34 32 35
REMARK SMILES IDX 88 36 33 37 34 38 35 39 82 40 36 41 87 42 81 43 83 44 37 45
REMARK SMILES IDX 86 46 80 47 79 48 38 50 68 51 49 52 67 53 50 54 53 55 66 56
REMARK SMILES IDX 84 57 51 58 52 59 65 61 85 62 54 63 39 64 40 65 48 66 41 67
REMARK SMILES IDX 47 68 42 69 43 70 44 71 45 72 46 73 69 74 70 75 78 76 71 77
REMARK SMILES IDX 77 78 72 79 73 80 74 81 75 82 76 83 55 84 56 85 64 86 57 87
REMARK SMILES IDX 63 88 58 89 59 90 60 91 61 92 62 93
REMARK H PARENT 20 8 27 30 83 49 53 60
REMARK Flexibility Score: inf
ROOT
ATOM      1  C   UNL     1       4.123   4.562   1.552  1.00  0.00     0.002 C 
ENDROOT
BRANCH   1   2
ATOM      2  C   UNL     1       3.036   4.805   0.502  1.00  0.00     0.002 C 
BRANCH   2   3
ATOM      3  C   UNL     1       2.024   3.670   0.324  1.00  0.00     0.021 C 
BRANCH   3   4
ATOM      4  C   UNL     1       1.114   3.388   1.529  1.00  0.00     0.116 C 
BRANCH   4   5
ATOM      5  N   UNL     1      -0.232   3.842   1.249  1.00  0.00    -0.351 N 
ATOM      6  C   UNL     1      -1.460   3.289   1.002  1.00  0.00     0.263 C 
ATOM      7  O   UNL     1      -2.300   4.175   0.777  1.00  0.00    -0.268 OA
ATOM      8  H   UNL     1      -0.277   4.826   1.232  1.00  0.00     0.163 HD
BRANCH   6   9
ATOM      9  C   UNL     1      -1.832   1.873   1.024  1.00  0.00     0.117 A 
ATOM     10  C   UNL     1      -1.258   0.606   0.873  1.00  0.00     0.069 A 
ATOM     11  N   UNL     1      -2.158  -0.459   1.037  1.00  0.00    -0.224 NA
ATOM     12  C   UNL     1      -3.398  -0.060   1.105  1.00  0.00     0.186 A 
ATOM     13  S   UNL     1      -3.565   1.635   1.180  1.00  0.00    -0.091 S 
BRANCH  10  14
ATOM     14  C   UNL     1       0.152   0.172   0.530  1.00  0.00     0.034 C 
ATOM     15  C   UNL     1       0.275  -1.349   0.303  1.00  0.00     0.014 C 
ATOM     16  C   UNL     1       0.677   0.846  -0.736  1.00  0.00     0.014 C 
ENDBRANCH  10  14
BRANCH  12  17
ATOM     17  N   UNL     1      -4.472  -0.886   1.137  1.00  0.00    -0.343 N 
ATOM     18  C   UNL     1      -5.447  -0.869   0.046  1.00  0.00     0.150 C 
ATOM     19  C   UNL     1      -4.454  -2.106   1.943  1.00  0.00     0.153 C 
ATOM     20  C   UNL     1      -5.291  -2.143  -0.807  1.00  0.00     0.135 C 
ATOM     21  C   UNL     1      -4.476  -3.400   1.082  1.00  0.00     0.081 C 
ATOM     22  O   UNL     1      -5.440  -3.321   0.006  1.00  0.00    -0.369 OA
ATOM     23  C   UNL     1      -6.354  -2.209  -1.896  1.00  0.00     0.040 C 
ATOM     24  C   UNL     1      -3.087  -3.750   0.533  1.00  0.00     0.044 C 
ATOM     25  C   UNL     1      -4.953  -4.568   1.960  1.00  0.00     0.044 C 
ENDBRANCH  12  17
ENDBRANCH   6   9
ENDBRANCH   4   5
ENDBRANCH   3   4
ENDBRANCH   2   3
ENDBRANCH   1   2
BRANCH   1  26
ATOM     26  C   UNL     1       4.879   3.234   1.439  1.00  0.00     0.021 C 
BRANCH  26  27
ATOM     27  C   UNL     1       5.541   2.963   0.087  1.00  0.00     0.116 C 
BRANCH  27  28
ATOM     28  N   UNL     1       6.519   3.981  -0.259  1.00  0.00    -0.352 N 
ATOM     29  C   UNL     1       7.885   3.902  -0.339  1.00  0.00     0.251 C 
ATOM     30  H   UNL     1       6.142   4.865  -0.468  1.00  0.00     0.163 HD
ATOM     31  O   UNL     1       8.546   4.941  -0.414  1.00  0.00    -0.269 OA
BRANCH  29  32
ATOM     32  C   UNL     1       8.575   2.594  -0.332  1.00  0.00     0.039 A 
ATOM     33  C   UNL     1       9.745   2.450   0.421  1.00  0.00     0.014 A 
ATOM     34  C   UNL     1       8.113   1.528  -1.109  1.00  0.00     0.014 A 
ATOM     35  C   UNL     1      10.421   1.227   0.434  1.00  0.00     0.010 A 
ATOM     36  C   UNL     1       8.753   0.290  -1.047  1.00  0.00     0.010 A 
ATOM     37  C   UNL     1       9.918   0.128  -0.281  1.00  0.00    -0.014 A 
BRANCH  37  38
ATOM     38  C   UNL     1      10.597  -1.194  -0.242  1.00  0.00     0.031 A 
ATOM     39  C   UNL     1      11.208  -1.771  -1.492  1.00  0.00     0.074 A 
ATOM     40  C   UNL     1      10.612  -1.903   0.905  1.00  0.00     0.049 A 
ATOM     41  N   UNL     1      11.780  -2.935  -1.668  1.00  0.00    -0.248 NA
ATOM     42  C   UNL     1      11.147  -0.943  -2.707  1.00  0.00     0.031 C 
ATOM     43  C   UNL     1      10.026  -1.469   2.176  1.00  0.00     0.029 A 
ATOM     44  N   UNL     1      11.130  -3.142   1.185  1.00  0.00    -0.354 N 
ATOM     45  C   UNL     1      12.130  -2.986  -3.013  1.00  0.00     0.074 A 
ATOM     46  C   UNL     1      11.668  -1.755  -3.616  1.00  0.00     0.031 C 
ATOM     47  C   UNL     1      10.236  -2.418   3.103  1.00  0.00     0.029 A 
ATOM     48  C   UNL     1      10.933  -3.542   2.486  1.00  0.00     0.049 A 
ATOM     49  H   UNL     1      11.599  -3.693   0.517  1.00  0.00     0.167 HD
ATOM     50  C   UNL     1      12.791  -3.962  -3.683  1.00  0.00     0.031 A 
ATOM     51  C   UNL     1      11.268  -4.687   3.113  1.00  0.00     0.031 A 
ATOM     52  C   UNL     1      13.261  -5.180  -3.077  1.00  0.00     0.049 A 
ATOM     53  C   UNL     1      11.996  -5.758   2.347  1.00  0.00     0.074 A 
ATOM     54  C   UNL     1      13.987  -6.205  -3.660  1.00  0.00     0.029 A 
ATOM     55  N   UNL     1      13.056  -5.538  -1.754  1.00  0.00    -0.354 N 
ATOM     56  N   UNL     1      12.368  -5.761   1.089  1.00  0.00    -0.248 NA
ATOM     57  C   UNL     1      12.361  -6.973   3.088  1.00  0.00     0.031 C 
ATOM     58  C   UNL     1      14.178  -7.205  -2.700  1.00  0.00     0.029 A 
ATOM     59  C   UNL     1      13.622  -6.777  -1.505  1.00  0.00     0.049 A 
ATOM     60  H   UNL     1      12.577  -4.992  -1.089  1.00  0.00     0.167 HD
ATOM     61  C   UNL     1      13.037  -6.965   0.896  1.00  0.00     0.074 A 
ATOM     62  C   UNL     1      13.028  -7.658   2.169  1.00  0.00     0.031 C 
ATOM     63  C   UNL     1      13.608  -7.452  -0.233  1.00  0.00     0.031 A 
BRANCH  50  64
ATOM     64  C   UNL     1      13.040  -3.754  -5.154  1.00  0.00    -0.014 A 
ATOM     65  C   UNL     1      13.962  -2.792  -5.607  1.00  0.00     0.010 A 
ATOM     66  C   UNL     1      12.379  -4.562  -6.097  1.00  0.00     0.010 A 
ATOM     67  C   UNL     1      14.187  -2.615  -6.975  1.00  0.00     0.020 A 
ATOM     68  C   UNL     1      12.622  -4.407  -7.465  1.00  0.00     0.020 A 
ATOM     69  C   UNL     1      13.512  -3.421  -7.896  1.00  0.00     0.054 A 
BRANCH  69  70
ATOM     70  S   UNL     1      13.841  -3.184  -9.664  1.00  0.00     0.124 S 
ATOM     71  O   UNL     1      13.146  -1.927  -9.932  1.00  0.00    -0.237 OA
ATOM     72  O   UNL     1      15.299  -3.118  -9.714  1.00  0.00    -0.237 OA
ATOM     73  O   UNL     1      13.252  -4.366 -10.289  1.00  0.00    -0.744 OA
ENDBRANCH  69  70
ENDBRANCH  50  64
BRANCH  51  74
ATOM     74  C   UNL     1      10.927  -4.875   4.550  1.00  0.00    -0.014 A 
ATOM     75  C   UNL     1      11.935  -4.867   5.529  1.00  0.00     0.010 A 
ATOM     76  C   UNL     1       9.589  -5.051   4.947  1.00  0.00     0.010 A 
ATOM     77  C   UNL     1      11.615  -5.051   6.878  1.00  0.00     0.020 A 
ATOM     78  C   UNL     1       9.262  -5.207   6.297  1.00  0.00     0.020 A 
ATOM     79  C   UNL     1      10.279  -5.218   7.253  1.00  0.00     0.054 A 
BRANCH  79  80
ATOM     80  S   UNL     1       9.881  -5.405   9.014  1.00  0.00     0.124 S 
ATOM     81  O   UNL     1      10.316  -6.772   9.280  1.00  0.00    -0.237 OA
ATOM     82  O   UNL     1      10.683  -4.353   9.632  1.00  0.00    -0.237 OA
ATOM     83  O   UNL     1       8.437  -5.185   9.061  1.00  0.00    -0.744 OA
ENDBRANCH  79  80
ENDBRANCH  51  74
BRANCH  63  84
ATOM     84  C   UNL     1      14.308  -8.781  -0.138  1.00  0.00    -0.014 A 
ATOM     85  C   UNL     1      13.585  -9.981  -0.021  1.00  0.00     0.010 A 
ATOM     86  C   UNL     1      15.712  -8.832  -0.226  1.00  0.00     0.010 A 
ATOM     87  C   UNL     1      14.255 -11.206   0.036  1.00  0.00     0.020 A 
ATOM     88  C   UNL     1      16.384 -10.056  -0.197  1.00  0.00     0.020 A 
ATOM     89  C   UNL     1      15.651 -11.236  -0.053  1.00  0.00     0.054 A 
BRANCH  89  90
ATOM     90  S   UNL     1      16.495 -12.841  -0.025  1.00  0.00     0.124 S 
ATOM     91  O   UNL     1      16.392 -13.214   1.384  1.00  0.00    -0.237 OA
ATOM     92  O   UNL     1      15.693 -13.642  -0.947  1.00  0.00    -0.237 OA
ATOM     93  O   UNL     1      17.845 -12.531  -0.490  1.00  0.00    -0.744 OA
ENDBRANCH  89  90
ENDBRANCH  63  84
ENDBRANCH  37  38
ENDBRANCH  29  32
ENDBRANCH  27  28
ENDBRANCH  26  27
ENDBRANCH   1  26
TORSDOF 18
