REMARK SMILES C[C@H](Nc1ccc(F)cc1Br)[C@@H](C)C(=O)NCCCCCCNC(=O)c1ccc(-c2c3nc(c(-c4ccc(S(=O)(=O)[O-])cc4)c4ccc([nH]4)c(-c4ccc(S(=O)(=O)[O-])cc4)c4nc(c(-c5ccc(S(=O)(=O)[O-])cc5)c5ccc2[nH]5)C=C4)C=C3)cc1
REMARK SMILES IDX 19 1 18 2 17 3 16 4 14 5 15 6 12 8 13 9 2 10 1 11 3 12 4 14
REMARK SMILES IDX 5 15 10 16 6 17 9 18 11 19 7 20 8 21 20 22 21 23 22 24 23 25
REMARK SMILES IDX 24 26 25 28 26 29 27 30 85 31 28 32 84 33 29 34 30 35 31 36
REMARK SMILES IDX 78 37 32 38 83 39 77 40 79 41 33 42 82 43 76 44 75 45 34 47
REMARK SMILES IDX 64 48 45 49 63 50 46 51 49 52 62 53 80 54 47 55 48 56 61 58
REMARK SMILES IDX 81 59 50 60 35 61 36 62 44 63 37 64 43 65 38 66 39 67 40 68
REMARK SMILES IDX 41 69 42 70 65 71 66 72 74 73 67 74 73 75 68 76 69 77 70 78
REMARK SMILES IDX 71 79 72 80 51 81 52 82 60 83 53 84 59 85 54 86 55 87 56 88
REMARK SMILES IDX 57 89 58 90
REMARK H PARENT 16 7 3 13 23 27 79 46 49 57
REMARK Flexibility Score: inf
ROOT
ATOM      1  C   UNL     1       0.321  -5.777   2.648  1.00  0.00     0.002 C 
ENDROOT
BRANCH   1   2
ATOM      2  C   UNL     1       0.691  -4.612   1.724  1.00  0.00     0.021 C 
BRANCH   2   3
ATOM      3  C   UNL     1      -0.497  -4.023   0.963  1.00  0.00     0.116 C 
BRANCH   3   4
ATOM      4  N   UNL     1      -1.379  -3.291   1.855  1.00  0.00    -0.356 N 
ATOM      5  C   UNL     1      -1.642  -1.962   1.968  1.00  0.00     0.224 C 
ATOM      6  O   UNL     1      -2.401  -1.607   2.875  1.00  0.00    -0.275 OA
ATOM      7  H   UNL     1      -1.875  -3.857   2.490  1.00  0.00     0.163 HD
BRANCH   5   8
ATOM      8  C   UNL     1      -1.045  -0.929   1.018  1.00  0.00     0.097 C 
ATOM      9  C   UNL     1      -1.605  -1.129  -0.393  1.00  0.00     0.020 C 
BRANCH   8  10
ATOM     10  C   UNL     1       0.492  -0.865   1.138  1.00  0.00     0.088 C 
ATOM     11  C   UNL     1       0.910  -0.345   2.522  1.00  0.00     0.031 C 
BRANCH  10  12
ATOM     12  N   UNL     1       1.060   0.013   0.111  1.00  0.00    -0.381 N 
ATOM     13  H   UNL     1       0.467   0.614  -0.394  1.00  0.00     0.160 HD
BRANCH  12  14
ATOM     14  C   UNL     1       2.429   0.009  -0.162  1.00  0.00     0.049 A 
ATOM     15  C   UNL     1       3.159  -1.188  -0.248  1.00  0.00     0.030 A 
ATOM     16  C   UNL     1       3.140   1.220  -0.297  1.00  0.00     0.044 A 
ATOM     17  C   UNL     1       4.545  -1.177  -0.426  1.00  0.00     0.041 A 
ATOM     18  C   UNL     1       4.525   1.236  -0.470  1.00  0.00     0.057 A 
ATOM     19  Br  UNL     1       2.239   2.894  -0.197  1.00  0.00    -0.048 Br
ATOM     20  C   UNL     1       5.214   0.034  -0.524  1.00  0.00     0.124 A 
ATOM     21  F   UNL     1       6.545   0.043  -0.669  1.00  0.00    -0.207 F 
ENDBRANCH  12  14
ENDBRANCH  10  12
ENDBRANCH   8  10
ENDBRANCH   5   8
ENDBRANCH   3   4
ENDBRANCH   2   3
ENDBRANCH   1   2
BRANCH   1  22
ATOM     22  C   UNL     1      -0.392  -6.944   1.958  1.00  0.00     0.002 C 
BRANCH  22  23
ATOM     23  C   UNL     1       0.334  -7.510   0.735  1.00  0.00     0.021 C 
BRANCH  23  24
ATOM     24  C   UNL     1       1.737  -8.031   1.021  1.00  0.00     0.116 C 
BRANCH  24  25
ATOM     25  N   UNL     1       1.719  -9.145   1.956  1.00  0.00    -0.352 N 
ATOM     26  C   UNL     1       2.219 -10.413   1.801  1.00  0.00     0.251 C 
ATOM     27  H   UNL     1       1.287  -8.964   2.822  1.00  0.00     0.163 HD
ATOM     28  O   UNL     1       1.918 -11.295   2.603  1.00  0.00    -0.269 OA
BRANCH  26  29
ATOM     29  C   UNL     1       3.104 -10.716   0.658  1.00  0.00     0.039 A 
ATOM     30  C   UNL     1       2.891 -11.884  -0.076  1.00  0.00     0.014 A 
ATOM     31  C   UNL     1       4.142  -9.844   0.311  1.00  0.00     0.014 A 
ATOM     32  C   UNL     1       3.682 -12.148  -1.196  1.00  0.00     0.010 A 
ATOM     33  C   UNL     1       4.877 -10.071  -0.848  1.00  0.00     0.010 A 
ATOM     34  C   UNL     1       4.658 -11.227  -1.612  1.00  0.00    -0.014 A 
BRANCH  34  35
ATOM     35  C   UNL     1       5.453 -11.451  -2.846  1.00  0.00     0.031 A 
ATOM     36  C   UNL     1       6.947 -11.619  -2.764  1.00  0.00     0.074 A 
ATOM     37  C   UNL     1       4.838 -11.442  -4.045  1.00  0.00     0.049 A 
ATOM     38  N   UNL     1       7.813 -11.766  -3.734  1.00  0.00    -0.248 NA
ATOM     39  C   UNL     1       7.549 -11.593  -1.421  1.00  0.00     0.031 C 
ATOM     40  C   UNL     1       3.401 -11.253  -4.259  1.00  0.00     0.029 A 
ATOM     41  N   UNL     1       5.343 -11.590  -5.313  1.00  0.00    -0.354 N 
ATOM     42  C   UNL     1       9.059 -11.837  -3.121  1.00  0.00     0.074 A 
ATOM     43  C   UNL     1       8.842 -11.662  -1.702  1.00  0.00     0.031 C 
ATOM     44  C   UNL     1       3.138 -11.325  -5.574  1.00  0.00     0.029 A 
ATOM     45  C   UNL     1       4.389 -11.517  -6.301  1.00  0.00     0.049 A 
ATOM     46  H   UNL     1       6.300 -11.735  -5.498  1.00  0.00     0.167 HD
ATOM     47  C   UNL     1      10.272 -12.047  -3.687  1.00  0.00     0.031 A 
ATOM     48  C   UNL     1       4.506 -11.584  -7.641  1.00  0.00     0.031 A 
ATOM     49  C   UNL     1      10.481 -12.223  -5.099  1.00  0.00     0.049 A 
ATOM     50  C   UNL     1       5.867 -11.791  -8.247  1.00  0.00     0.074 A 
ATOM     51  C   UNL     1      11.664 -12.494  -5.765  1.00  0.00     0.029 A 
ATOM     52  N   UNL     1       9.489 -12.141  -6.065  1.00  0.00    -0.354 N 
ATOM     53  N   UNL     1       7.026 -11.923  -7.645  1.00  0.00    -0.248 NA
ATOM     54  C   UNL     1       5.937 -11.869  -9.713  1.00  0.00     0.031 C 
ATOM     55  C   UNL     1      11.398 -12.512  -7.138  1.00  0.00     0.029 A 
ATOM     56  C   UNL     1      10.038 -12.325  -7.323  1.00  0.00     0.049 A 
ATOM     57  H   UNL     1       8.536 -11.977  -5.883  1.00  0.00     0.167 HD
ATOM     58  C   UNL     1       7.957 -12.129  -8.658  1.00  0.00     0.074 A 
ATOM     59  C   UNL     1       7.224 -12.120  -9.907  1.00  0.00     0.031 C 
ATOM     60  C   UNL     1       9.297 -12.312  -8.560  1.00  0.00     0.031 A 
BRANCH  47  61
ATOM     61  C   UNL     1      11.471 -12.086  -2.774  1.00  0.00    -0.014 A 
ATOM     62  C   UNL     1      11.659 -13.141  -1.861  1.00  0.00     0.010 A 
ATOM     63  C   UNL     1      12.448 -11.078  -2.860  1.00  0.00     0.010 A 
ATOM     64  C   UNL     1      12.777 -13.163  -1.024  1.00  0.00     0.020 A 
ATOM     65  C   UNL     1      13.585 -11.113  -2.046  1.00  0.00     0.020 A 
ATOM     66  C   UNL     1      13.732 -12.148  -1.121  1.00  0.00     0.054 A 
BRANCH  66  67
ATOM     67  S   UNL     1      15.184 -12.216  -0.036  1.00  0.00     0.124 S 
ATOM     68  O   UNL     1      14.602 -11.903   1.266  1.00  0.00    -0.237 OA
ATOM     69  O   UNL     1      15.643 -13.593  -0.204  1.00  0.00    -0.237 OA
ATOM     70  O   UNL     1      16.075 -11.194  -0.582  1.00  0.00    -0.744 OA
ENDBRANCH  66  67
ENDBRANCH  47  61
BRANCH  48  71
ATOM     71  C   UNL     1       3.296 -11.462  -8.501  1.00  0.00    -0.014 A 
ATOM     72  C   UNL     1       2.817 -12.568  -9.225  1.00  0.00     0.010 A 
ATOM     73  C   UNL     1       2.608 -10.237  -8.591  1.00  0.00     0.010 A 
ATOM     74  C   UNL     1       1.685 -12.447 -10.037  1.00  0.00     0.020 A 
ATOM     75  C   UNL     1       1.458 -10.121  -9.377  1.00  0.00     0.020 A 
ATOM     76  C   UNL     1       1.011 -11.224 -10.105  1.00  0.00     0.054 A 
BRANCH  76  77
ATOM     77  S   UNL     1      -0.484 -11.105 -11.126  1.00  0.00     0.124 S 
ATOM     78  O   UNL     1       0.067 -11.151 -12.477  1.00  0.00    -0.237 OA
ATOM     79  O   UNL     1      -1.243 -12.283 -10.710  1.00  0.00    -0.237 OA
ATOM     80  O   UNL     1      -1.068  -9.826 -10.730  1.00  0.00    -0.744 OA
ENDBRANCH  76  77
ENDBRANCH  48  71
BRANCH  60  81
ATOM     81  C   UNL     1      10.061 -12.555  -9.836  1.00  0.00    -0.014 A 
ATOM     82  C   UNL     1      10.267 -11.527 -10.774  1.00  0.00     0.010 A 
ATOM     83  C   UNL     1      10.634 -13.819 -10.069  1.00  0.00     0.010 A 
ATOM     84  C   UNL     1      11.007 -11.768 -11.934  1.00  0.00     0.020 A 
ATOM     85  C   UNL     1      11.402 -14.055 -11.212  1.00  0.00     0.020 A 
ATOM     86  C   UNL     1      11.572 -13.030 -12.145  1.00  0.00     0.054 A 
BRANCH  86  87
ATOM     87  S   UNL     1      12.570 -13.301 -13.634  1.00  0.00     0.124 S 
ATOM     88  O   UNL     1      11.554 -13.315 -14.683  1.00  0.00    -0.237 OA
ATOM     89  O   UNL     1      13.460 -12.143 -13.637  1.00  0.00    -0.237 OA
ATOM     90  O   UNL     1      13.225 -14.583 -13.385  1.00  0.00    -0.744 OA
ENDBRANCH  86  87
ENDBRANCH  60  81
ENDBRANCH  34  35
ENDBRANCH  26  29
ENDBRANCH  24  25
ENDBRANCH  23  24
ENDBRANCH  22  23
ENDBRANCH   1  22
TORSDOF 19
