REMARK SMILES COCCCN1C(=O)CC[C@@H](C(=O)NCCCCCCNC(=O)c2ccc(-c3c4nc(c(-c5ccc(S(=O)(=O)[O-])cc5)c5ccc([nH]5)c(-c5ccc(S(=O)(=O)[O-])cc5)c5nc(c(-c6ccc(S(=O)(=O)[O-])cc6)c6ccc3[nH]6)C=C5)C=C4)cc2)[C@@H]1c1ccc(F)cc1
REMARK SMILES IDX 17 1 16 2 15 3 14 4 12 5 13 6 11 8 6 9 7 10 84 11 8 12 9 13
REMARK SMILES IDX 10 14 5 15 4 16 3 17 2 18 1 19 85 20 86 21 91 22 87 23 90 24
REMARK SMILES IDX 88 25 89 26 18 27 19 28 20 29 21 30 22 31 23 33 24 34 25 35
REMARK SMILES IDX 83 36 26 37 82 38 27 39 28 40 29 41 76 42 30 43 81 44 75 45
REMARK SMILES IDX 77 46 31 47 80 48 74 49 73 50 32 52 62 53 43 54 61 55 44 56
REMARK SMILES IDX 47 57 60 58 78 59 45 60 46 61 59 63 79 64 48 65 33 66 34 67
REMARK SMILES IDX 42 68 35 69 41 70 36 71 37 72 38 73 39 74 40 75 63 76 64 77
REMARK SMILES IDX 72 78 65 79 71 80 66 81 67 82 68 83 69 84 70 85 49 86 50 87
REMARK SMILES IDX 58 88 51 89 57 90 52 91 53 92 54 93 55 94 56 95
REMARK H PARENT 14 7 21 32 77 51 47 62
REMARK Flexibility Score: inf
ROOT
ATOM      1  C   UNL     1       4.744   2.438  -6.012  1.00  0.00     0.002 C 
ENDROOT
BRANCH   1   2
ATOM      2  C   UNL     1       4.935   2.412  -4.492  1.00  0.00     0.021 C 
BRANCH   2   3
ATOM      3  C   UNL     1       4.014   1.449  -3.747  1.00  0.00     0.116 C 
BRANCH   3   4
ATOM      4  N   UNL     1       4.217   0.074  -4.162  1.00  0.00    -0.356 N 
ATOM      5  C   UNL     1       4.628  -1.011  -3.449  1.00  0.00     0.225 C 
ATOM      6  O   UNL     1       4.838  -2.053  -4.069  1.00  0.00    -0.275 OA
ATOM      7  H   UNL     1       4.028  -0.103  -5.112  1.00  0.00     0.163 HD
BRANCH   5   8
ATOM      8  C   UNL     1       4.800  -0.906  -1.935  1.00  0.00     0.106 C 
ATOM      9  N   UNL     1       2.665  -2.074  -1.308  1.00  0.00    -0.335 N 
ATOM     10  C   UNL     1       3.280  -3.317  -1.349  1.00  0.00     0.223 C 
ATOM     11  C   UNL     1       3.429  -0.813  -1.246  1.00  0.00     0.128 C 
ATOM     12  O   UNL     1       2.637  -4.368  -1.394  1.00  0.00    -0.275 OA
ATOM     13  C   UNL     1       4.796  -3.390  -1.382  1.00  0.00     0.101 C 
ATOM     14  C   UNL     1       5.577  -2.086  -1.361  1.00  0.00     0.026 C 
BRANCH   9  15
ATOM     15  C   UNL     1       1.223  -1.998  -1.604  1.00  0.00     0.122 C 
BRANCH  15  16
ATOM     16  C   UNL     1       0.253  -2.665  -0.620  1.00  0.00     0.050 C 
BRANCH  16  17
ATOM     17  C   UNL     1       0.108  -2.017   0.752  1.00  0.00     0.161 C 
BRANCH  17  18
ATOM     18  O   UNL     1      -0.799  -0.918   0.783  1.00  0.00    -0.385 OA
ATOM     19  C   UNL     1      -0.281   0.299   0.276  1.00  0.00     0.194 C 
ENDBRANCH  17  18
ENDBRANCH  16  17
ENDBRANCH  15  16
ENDBRANCH   9  15
BRANCH  11  20
ATOM     20  C   UNL     1       3.543  -0.238   0.169  1.00  0.00    -0.024 A 
ATOM     21  C   UNL     1       3.531  -1.044   1.319  1.00  0.00     0.009 A 
ATOM     22  C   UNL     1       3.642   1.158   0.339  1.00  0.00     0.009 A 
ATOM     23  C   UNL     1       3.531  -0.471   2.594  1.00  0.00     0.039 A 
ATOM     24  C   UNL     1       3.664   1.729   1.613  1.00  0.00     0.039 A 
ATOM     25  C   UNL     1       3.589   0.909   2.729  1.00  0.00     0.123 A 
ATOM     26  F   UNL     1       3.567   1.456   3.951  1.00  0.00    -0.207 F 
ENDBRANCH  11  20
ENDBRANCH   5   8
ENDBRANCH   3   4
ENDBRANCH   2   3
ENDBRANCH   1   2
BRANCH   1  27
ATOM     27  C   UNL     1       3.318   2.725  -6.492  1.00  0.00     0.002 C 
BRANCH  27  28
ATOM     28  C   UNL     1       2.694   4.021  -5.966  1.00  0.00     0.021 C 
BRANCH  28  29
ATOM     29  C   UNL     1       3.488   5.289  -6.260  1.00  0.00     0.116 C 
BRANCH  29  30
ATOM     30  N   UNL     1       3.639   5.532  -7.683  1.00  0.00    -0.352 N 
ATOM     31  C   UNL     1       3.485   6.699  -8.389  1.00  0.00     0.251 C 
ATOM     32  H   UNL     1       3.889   4.746  -8.219  1.00  0.00     0.163 HD
ATOM     33  O   UNL     1       3.499   6.668  -9.616  1.00  0.00    -0.269 OA
BRANCH  31  34
ATOM     34  C   UNL     1       3.286   7.987  -7.683  1.00  0.00     0.039 A 
ATOM     35  C   UNL     1       2.367   8.901  -8.206  1.00  0.00     0.014 A 
ATOM     36  C   UNL     1       4.026   8.318  -6.543  1.00  0.00     0.014 A 
ATOM     37  C   UNL     1       2.173  10.132  -7.574  1.00  0.00     0.010 A 
ATOM     38  C   UNL     1       3.778   9.514  -5.872  1.00  0.00     0.010 A 
ATOM     39  C   UNL     1       2.868  10.445  -6.394  1.00  0.00    -0.014 A 
BRANCH  39  40
ATOM     40  C   UNL     1       2.689  11.762  -5.731  1.00  0.00     0.031 A 
ATOM     41  C   UNL     1       3.838  12.735  -5.664  1.00  0.00     0.074 A 
ATOM     42  C   UNL     1       1.506  12.076  -5.167  1.00  0.00     0.049 A 
ATOM     43  N   UNL     1       3.879  13.928  -5.127  1.00  0.00    -0.248 NA
ATOM     44  C   UNL     1       5.115  12.300  -6.253  1.00  0.00     0.031 C 
ATOM     45  C   UNL     1       0.329  11.206  -5.123  1.00  0.00     0.029 A 
ATOM     46  N   UNL     1       1.099  13.217  -4.523  1.00  0.00    -0.354 N 
ATOM     47  C   UNL     1       5.184  14.377  -5.299  1.00  0.00     0.074 A 
ATOM     48  C   UNL     1       5.917  13.306  -5.939  1.00  0.00     0.031 C 
ATOM     49  C   UNL     1      -0.677  11.857  -4.516  1.00  0.00     0.029 A 
ATOM     50  C   UNL     1      -0.210  13.177  -4.104  1.00  0.00     0.049 A 
ATOM     51  H   UNL     1       1.688  13.992  -4.375  1.00  0.00     0.167 HD
ATOM     52  C   UNL     1       5.722  15.578  -4.978  1.00  0.00     0.031 A 
ATOM     53  C   UNL     1      -0.954  14.103  -3.468  1.00  0.00     0.031 A 
ATOM     54  C   UNL     1       4.988  16.651  -4.360  1.00  0.00     0.049 A 
ATOM     55  C   UNL     1      -0.344  15.441  -3.147  1.00  0.00     0.074 A 
ATOM     56  C   UNL     1       5.428  17.923  -4.039  1.00  0.00     0.029 A 
ATOM     57  N   UNL     1       3.658  16.578  -3.976  1.00  0.00    -0.354 N 
ATOM     58  N   UNL     1       0.877  15.865  -3.369  1.00  0.00    -0.248 NA
ATOM     59  C   UNL     1      -1.223  16.431  -2.511  1.00  0.00     0.031 C 
ATOM     60  C   UNL     1       4.372  18.608  -3.425  1.00  0.00     0.029 A 
ATOM     61  C   UNL     1       3.262  17.780  -3.412  1.00  0.00     0.049 A 
ATOM     62  H   UNL     1       3.080  15.789  -4.087  1.00  0.00     0.167 HD
ATOM     63  C   UNL     1       0.904  17.184  -2.929  1.00  0.00     0.074 A 
ATOM     64  C   UNL     1      -0.427  17.489  -2.444  1.00  0.00     0.031 C 
ATOM     65  C   UNL     1       1.935  18.066  -2.930  1.00  0.00     0.031 A 
BRANCH  52  66
ATOM     66  C   UNL     1       7.180  15.790  -5.293  1.00  0.00    -0.014 A 
ATOM     67  C   UNL     1       7.628  15.902  -6.622  1.00  0.00     0.010 A 
ATOM     68  C   UNL     1       8.114  15.900  -4.247  1.00  0.00     0.010 A 
ATOM     69  C   UNL     1       8.986  16.069  -6.902  1.00  0.00     0.020 A 
ATOM     70  C   UNL     1       9.471  16.097  -4.521  1.00  0.00     0.020 A 
ATOM     71  C   UNL     1       9.901  16.160  -5.848  1.00  0.00     0.054 A 
BRANCH  71  72
ATOM     72  S   UNL     1      11.658  16.386  -6.238  1.00  0.00     0.124 S 
ATOM     73  O   UNL     1      12.036  15.053  -6.702  1.00  0.00    -0.237 OA
ATOM     74  O   UNL     1      11.629  17.424  -7.265  1.00  0.00    -0.237 OA
ATOM     75  O   UNL     1      12.246  16.791  -4.963  1.00  0.00    -0.744 OA
ENDBRANCH  71  72
ENDBRANCH  52  66
BRANCH  53  76
ATOM     76  C   UNL     1      -2.373  13.811  -3.128  1.00  0.00    -0.014 A 
ATOM     77  C   UNL     1      -3.418  14.441  -3.827  1.00  0.00     0.010 A 
ATOM     78  C   UNL     1      -2.686  12.894  -2.108  1.00  0.00     0.010 A 
ATOM     79  C   UNL     1      -4.750  14.177  -3.497  1.00  0.00     0.020 A 
ATOM     80  C   UNL     1      -4.018  12.608  -1.794  1.00  0.00     0.020 A 
ATOM     81  C   UNL     1      -5.042  13.261  -2.483  1.00  0.00     0.054 A 
BRANCH  81  82
ATOM     82  S   UNL     1      -6.779  12.895  -2.105  1.00  0.00     0.124 S 
ATOM     83  O   UNL     1      -7.188  14.090  -1.374  1.00  0.00    -0.237 OA
ATOM     84  O   UNL     1      -7.364  12.733  -3.434  1.00  0.00    -0.237 OA
ATOM     85  O   UNL     1      -6.703  11.670  -1.313  1.00  0.00    -0.744 OA
ENDBRANCH  81  82
ENDBRANCH  53  76
BRANCH  65  86
ATOM     86  C   UNL     1       1.649  19.456  -2.428  1.00  0.00    -0.014 A 
ATOM     87  C   UNL     1       1.423  19.710  -1.064  1.00  0.00     0.010 A 
ATOM     88  C   UNL     1       1.622  20.528  -3.340  1.00  0.00     0.010 A 
ATOM     89  C   UNL     1       1.119  21.003  -0.628  1.00  0.00     0.020 A 
ATOM     90  C   UNL     1       1.348  21.826  -2.904  1.00  0.00     0.020 A 
ATOM     91  C   UNL     1       1.075  22.051  -1.553  1.00  0.00     0.054 A 
BRANCH  91  92
ATOM     92  S   UNL     1       0.682  23.722  -0.966  1.00  0.00     0.124 S 
ATOM     93  O   UNL     1      -0.763  23.642  -0.773  1.00  0.00    -0.237 OA
ATOM     94  O   UNL     1       1.475  23.830   0.256  1.00  0.00    -0.237 OA
ATOM     95  O   UNL     1       1.119  24.584  -2.062  1.00  0.00    -0.744 OA
ENDBRANCH  91  92
ENDBRANCH  65  86
ENDBRANCH  39  40
ENDBRANCH  31  34
ENDBRANCH  29  30
ENDBRANCH  28  29
ENDBRANCH  27  28
ENDBRANCH   1  27
TORSDOF 21
