REMARK SMILES O=C(NCCCCCCNC(=O)c1ccc(-c2c3nc(c(-c4ccc(S(=O)(=O)[O-])cc4)c4ccc([nH]4)c(-c4ccc(S(=O)(=O)[O-])cc4)c4nc(c(-c5ccc(S(=O)(=O)[O-])cc5)c5ccc2[nH]5)C=C4)C=C3)cc1)C1=Cc2cc(Cl)ccc2O[C@@H]1C(F)(F)F
REMARK SMILES IDX 7 1 6 2 5 3 4 4 3 5 1 6 2 7 73 9 74 10 83 11 75 12 82 13
REMARK SMILES IDX 76 14 81 15 77 16 80 17 78 18 79 19 84 20 85 21 86 22 87 23
REMARK SMILES IDX 8 24 9 25 10 26 11 27 12 29 13 30 14 31 72 32 15 33 71 34
REMARK SMILES IDX 16 35 17 36 18 37 65 38 19 39 70 40 64 41 66 42 20 43 69 44
REMARK SMILES IDX 63 45 62 46 21 48 51 49 32 50 50 51 33 52 36 53 49 54 67 55
REMARK SMILES IDX 34 56 35 57 48 59 68 60 37 61 22 62 23 63 31 64 24 65 30 66
REMARK SMILES IDX 25 67 26 68 27 69 28 70 29 71 52 72 53 73 61 74 54 75 60 76
REMARK SMILES IDX 55 77 56 78 57 79 58 80 59 81 38 82 39 83 47 84 40 85 46 86
REMARK SMILES IDX 41 87 42 88 43 89 44 90 45 91
REMARK H PARENT 3 8 10 28 66 47 36 58
REMARK Flexibility Score: inf
ROOT
ATOM      1  C   UNL     1       4.591   3.296  -3.364  1.00  0.00     0.002 C 
ENDROOT
BRANCH   1   2
ATOM      2  C   UNL     1       3.894   2.071  -3.970  1.00  0.00     0.002 C 
BRANCH   2   3
ATOM      3  C   UNL     1       4.221   0.717  -3.344  1.00  0.00     0.021 C 
BRANCH   3   4
ATOM      4  C   UNL     1       3.951   0.582  -1.850  1.00  0.00     0.116 C 
BRANCH   4   5
ATOM      5  N   UNL     1       2.647   0.058  -1.489  1.00  0.00    -0.352 N 
ATOM      6  O   UNL     1       1.053  -0.809  -0.169  1.00  0.00    -0.270 OA
ATOM      7  C   UNL     1       2.249  -0.572  -0.342  1.00  0.00     0.251 C 
ATOM      8  H   UNL     1       1.945   0.172  -2.171  1.00  0.00     0.163 HD
BRANCH   7   9
ATOM      9  C   UNL     1       3.195  -0.913   0.764  1.00  0.00     0.067 C 
ATOM     10  C   UNL     1       4.418  -1.434   0.547  1.00  0.00     0.025 C 
ATOM     11  C   UNL     1       2.987  -0.056   1.994  1.00  0.00     0.314 C 
ATOM     12  C   UNL     1       5.469  -0.402   0.766  1.00  0.00     0.019 A 
ATOM     13  O   UNL     1       3.951   1.032   2.042  1.00  0.00    -0.475 OA
ATOM     14  C   UNL     1       6.681  -0.534   0.077  1.00  0.00     0.032 A 
ATOM     15  C   UNL     1       5.146   0.810   1.402  1.00  0.00     0.128 A 
ATOM     16  C   UNL     1       7.506   0.579  -0.067  1.00  0.00     0.041 A 
ATOM     17  C   UNL     1       6.000   1.905   1.284  1.00  0.00     0.048 A 
ATOM     18  Cl  UNL     1       8.883   0.482  -1.093  1.00  0.00    -0.084 Cl
ATOM     19  C   UNL     1       7.166   1.797   0.523  1.00  0.00     0.024 A 
BRANCH  11  20
ATOM     20  C   UNL     1       2.993  -0.870   3.298  1.00  0.00     0.429 C 
ATOM     21  F   UNL     1       2.645  -0.102   4.359  1.00  0.00    -0.167 F 
ATOM     22  F   UNL     1       2.107  -1.895   3.250  1.00  0.00    -0.167 F 
ATOM     23  F   UNL     1       4.205  -1.407   3.572  1.00  0.00    -0.167 F 
ENDBRANCH  11  20
ENDBRANCH   7   9
ENDBRANCH   4   5
ENDBRANCH   3   4
ENDBRANCH   2   3
ENDBRANCH   1   2
BRANCH   1  24
ATOM     24  C   UNL     1       6.111   3.218  -3.193  1.00  0.00     0.021 C 
BRANCH  24  25
ATOM     25  C   UNL     1       6.916   2.887  -4.447  1.00  0.00     0.116 C 
BRANCH  25  26
ATOM     26  N   UNL     1       6.707   3.843  -5.520  1.00  0.00    -0.352 N 
ATOM     27  C   UNL     1       7.611   4.595  -6.233  1.00  0.00     0.251 C 
ATOM     28  H   UNL     1       5.766   3.974  -5.779  1.00  0.00     0.163 HD
ATOM     29  O   UNL     1       7.198   5.463  -6.995  1.00  0.00    -0.269 OA
BRANCH  27  30
ATOM     30  C   UNL     1       9.070   4.386  -6.076  1.00  0.00     0.039 A 
ATOM     31  C   UNL     1       9.908   5.505  -6.055  1.00  0.00     0.014 A 
ATOM     32  C   UNL     1       9.624   3.106  -5.990  1.00  0.00     0.014 A 
ATOM     33  C   UNL     1      11.287   5.343  -5.893  1.00  0.00     0.010 A 
ATOM     34  C   UNL     1      10.989   2.949  -5.748  1.00  0.00     0.010 A 
ATOM     35  C   UNL     1      11.838   4.065  -5.705  1.00  0.00    -0.014 A 
BRANCH  35  36
ATOM     36  C   UNL     1      13.297   3.882  -5.474  1.00  0.00     0.031 A 
ATOM     37  C   UNL     1      14.132   3.106  -6.459  1.00  0.00     0.074 A 
ATOM     38  C   UNL     1      13.864   4.378  -4.356  1.00  0.00     0.049 A 
ATOM     39  N   UNL     1      15.404   2.802  -6.403  1.00  0.00    -0.248 NA
ATOM     40  C   UNL     1      13.445   2.584  -7.653  1.00  0.00     0.031 C 
ATOM     41  C   UNL     1      13.160   5.116  -3.304  1.00  0.00     0.029 A 
ATOM     42  N   UNL     1      15.163   4.332  -3.912  1.00  0.00    -0.354 N 
ATOM     43  C   UNL     1      15.666   2.051  -7.543  1.00  0.00     0.074 A 
ATOM     44  C   UNL     1      14.410   1.895  -8.243  1.00  0.00     0.031 C 
ATOM     45  C   UNL     1      14.037   5.472  -2.352  1.00  0.00     0.029 A 
ATOM     46  C   UNL     1      15.356   4.952  -2.699  1.00  0.00     0.049 A 
ATOM     47  H   UNL     1      15.889   3.896  -4.415  1.00  0.00     0.167 HD
ATOM     48  C   UNL     1      16.848   1.556  -7.983  1.00  0.00     0.031 A 
ATOM     49  C   UNL     1      16.464   5.079  -1.943  1.00  0.00     0.031 A 
ATOM     50  C   UNL     1      18.098   1.715  -7.287  1.00  0.00     0.049 A 
ATOM     51  C   UNL     1      17.762   4.500  -2.441  1.00  0.00     0.074 A 
ATOM     52  C   UNL     1      19.356   1.282  -7.670  1.00  0.00     0.029 A 
ATOM     53  N   UNL     1      18.250   2.356  -6.067  1.00  0.00    -0.354 N 
ATOM     54  N   UNL     1      17.998   3.843  -3.551  1.00  0.00    -0.248 NA
ATOM     55  C   UNL     1      18.945   4.692  -1.591  1.00  0.00     0.031 C 
ATOM     56  C   UNL     1      20.259   1.613  -6.655  1.00  0.00     0.029 A 
ATOM     57  C   UNL     1      19.577   2.313  -5.673  1.00  0.00     0.049 A 
ATOM     58  H   UNL     1      17.523   2.780  -5.557  1.00  0.00     0.167 HD
ATOM     59  C   UNL     1      19.361   3.568  -3.546  1.00  0.00     0.074 A 
ATOM     60  C   UNL     1      19.899   4.147  -2.332  1.00  0.00     0.031 C 
ATOM     61  C   UNL     1      20.100   2.896  -4.463  1.00  0.00     0.031 A 
BRANCH  48  62
ATOM     62  C   UNL     1      16.847   0.796  -9.286  1.00  0.00    -0.014 A 
ATOM     63  C   UNL     1      16.617   1.455 -10.508  1.00  0.00     0.010 A 
ATOM     64  C   UNL     1      17.132  -0.581  -9.297  1.00  0.00     0.010 A 
ATOM     65  C   UNL     1      16.634   0.745 -11.711  1.00  0.00     0.020 A 
ATOM     66  C   UNL     1      17.181  -1.290 -10.502  1.00  0.00     0.020 A 
ATOM     67  C   UNL     1      16.917  -0.624 -11.700  1.00  0.00     0.054 A 
BRANCH  67  68
ATOM     68  S   UNL     1      16.965  -1.511 -13.281  1.00  0.00     0.124 S 
ATOM     69  O   UNL     1      15.553  -1.537 -13.655  1.00  0.00    -0.237 OA
ATOM     70  O   UNL     1      17.816  -0.654 -14.103  1.00  0.00    -0.237 OA
ATOM     71  O   UNL     1      17.539  -2.809 -12.935  1.00  0.00    -0.744 OA
ENDBRANCH  67  68
ENDBRANCH  48  62
BRANCH  49  72
ATOM     72  C   UNL     1      16.395   5.780  -0.630  1.00  0.00    -0.014 A 
ATOM     73  C   UNL     1      17.035   7.016  -0.436  1.00  0.00     0.010 A 
ATOM     74  C   UNL     1      15.682   5.207   0.440  1.00  0.00     0.010 A 
ATOM     75  C   UNL     1      16.987   7.653   0.808  1.00  0.00     0.020 A 
ATOM     76  C   UNL     1      15.603   5.856   1.675  1.00  0.00     0.020 A 
ATOM     77  C   UNL     1      16.270   7.069   1.856  1.00  0.00     0.054 A 
BRANCH  77  78
ATOM     78  S   UNL     1      16.188   7.931   3.450  1.00  0.00     0.124 S 
ATOM     79  O   UNL     1      17.539   7.740   3.968  1.00  0.00    -0.237 OA
ATOM     80  O   UNL     1      15.848   9.295   3.054  1.00  0.00    -0.237 OA
ATOM     81  O   UNL     1      15.134   7.219   4.170  1.00  0.00    -0.744 OA
ENDBRANCH  77  78
ENDBRANCH  49  72
BRANCH  61  82
ATOM     82  C   UNL     1      21.582   2.781  -4.213  1.00  0.00    -0.014 A 
ATOM     83  C   UNL     1      22.092   1.958  -3.193  1.00  0.00     0.010 A 
ATOM     84  C   UNL     1      22.479   3.467  -5.053  1.00  0.00     0.010 A 
ATOM     85  C   UNL     1      23.471   1.850  -2.997  1.00  0.00     0.020 A 
ATOM     86  C   UNL     1      23.859   3.336  -4.880  1.00  0.00     0.020 A 
ATOM     87  C   UNL     1      24.347   2.539  -3.843  1.00  0.00     0.054 A 
BRANCH  87  88
ATOM     88  S   UNL     1      26.133   2.346  -3.594  1.00  0.00     0.124 S 
ATOM     89  O   UNL     1      26.352   3.101  -2.364  1.00  0.00    -0.237 OA
ATOM     90  O   UNL     1      26.284   0.897  -3.478  1.00  0.00    -0.237 OA
ATOM     91  O   UNL     1      26.717   2.932  -4.798  1.00  0.00    -0.744 OA
ENDBRANCH  87  88
ENDBRANCH  61  82
ENDBRANCH  35  36
ENDBRANCH  27  30
ENDBRANCH  25  26
ENDBRANCH  24  25
ENDBRANCH   1  24
TORSDOF 17
