REMARK SMILES O=C(NCCCCCCNC(=O)[C@]1(NC(=O)C2CCN(C(=O)C3CC3)CC2)CCCc2ccccc21)c1ccc(-c2c3nc(c(-c4ccc(S(=O)(=O)[O-])cc4)c4ccc([nH]4)c(-c4ccc(S(=O)(=O)[O-])cc4)c4nc(c(-c5ccc(S(=O)(=O)[O-])cc5)c5ccc2[nH]5)C=C4)C=C3)cc1
REMARK SMILES IDX 6 1 5 2 4 3 3 4 1 5 2 6 37 8 38 9 96 10 39 11 95 12 40 13
REMARK SMILES IDX 41 14 42 15 89 16 43 17 94 18 88 19 90 20 44 21 93 22 87 23
REMARK SMILES IDX 86 24 45 26 75 27 56 28 74 29 57 30 60 31 73 32 91 33 58 34
REMARK SMILES IDX 59 35 72 37 92 38 61 39 46 40 47 41 55 42 48 43 54 44 49 45
REMARK SMILES IDX 50 46 51 47 52 48 53 49 76 50 77 51 85 52 78 53 84 54 79 55
REMARK SMILES IDX 80 56 81 57 82 58 83 59 62 60 63 61 71 62 64 63 70 64 65 65
REMARK SMILES IDX 66 66 67 67 68 68 69 69 7 70 8 71 9 72 10 73 11 74 12 76
REMARK SMILES IDX 13 77 28 78 36 79 29 80 31 81 35 82 30 83 32 84 34 85 33 86
REMARK SMILES IDX 14 87 15 88 16 90 17 91 18 92 27 93 19 94 26 95 20 96 21 97
REMARK SMILES IDX 22 98 23 99 24 100 25 101
REMARK H PARENT 3 7 90 25 60 36 10 75 14 89
REMARK Flexibility Score: inf
ROOT
ATOM      1  C   UNL     1       3.835  -3.477  -1.400  1.00  0.00     0.002 C 
ENDROOT
BRANCH   1   2
ATOM      2  C   UNL     1       4.292  -2.607  -0.229  1.00  0.00     0.021 C 
BRANCH   2   3
ATOM      3  C   UNL     1       4.202  -1.108  -0.469  1.00  0.00     0.116 C 
BRANCH   3   4
ATOM      4  N   UNL     1       2.834  -0.653  -0.634  1.00  0.00    -0.352 N 
ATOM      5  O   UNL     1       0.967   0.500  -0.101  1.00  0.00    -0.269 OA
ATOM      6  C   UNL     1       2.175   0.344   0.045  1.00  0.00     0.251 C 
ATOM      7  H   UNL     1       2.308  -1.120  -1.324  1.00  0.00     0.163 HD
BRANCH   6   8
ATOM      8  C   UNL     1       2.937   1.205   0.976  1.00  0.00     0.039 A 
ATOM      9  C   UNL     1       4.161   1.754   0.588  1.00  0.00     0.014 A 
ATOM     10  C   UNL     1       2.436   1.434   2.259  1.00  0.00     0.014 A 
ATOM     11  C   UNL     1       4.952   2.402   1.528  1.00  0.00     0.010 A 
ATOM     12  C   UNL     1       3.195   2.166   3.177  1.00  0.00     0.010 A 
ATOM     13  C   UNL     1       4.476   2.625   2.831  1.00  0.00    -0.014 A 
BRANCH  13  14
ATOM     14  C   UNL     1       5.321   3.379   3.792  1.00  0.00     0.031 A 
ATOM     15  C   UNL     1       5.847   2.731   5.045  1.00  0.00     0.074 A 
ATOM     16  C   UNL     1       5.645   4.655   3.503  1.00  0.00     0.049 A 
ATOM     17  N   UNL     1       6.635   3.236   5.961  1.00  0.00    -0.248 NA
ATOM     18  C   UNL     1       5.434   1.344   5.311  1.00  0.00     0.031 C 
ATOM     19  C   UNL     1       5.188   5.393   2.321  1.00  0.00     0.029 A 
ATOM     20  N   UNL     1       6.453   5.548   4.158  1.00  0.00    -0.354 N 
ATOM     21  C   UNL     1       6.787   2.246   6.925  1.00  0.00     0.074 A 
ATOM     22  C   UNL     1       5.996   1.114   6.491  1.00  0.00     0.031 C 
ATOM     23  C   UNL     1       5.772   6.599   2.303  1.00  0.00     0.029 A 
ATOM     24  C   UNL     1       6.591   6.747   3.500  1.00  0.00     0.049 A 
ATOM     25  H   UNL     1       6.892   5.349   5.016  1.00  0.00     0.167 HD
ATOM     26  C   UNL     1       7.518   2.277   8.066  1.00  0.00     0.031 A 
ATOM     27  C   UNL     1       7.292   7.849   3.823  1.00  0.00     0.031 A 
ATOM     28  C   UNL     1       8.312   3.403   8.488  1.00  0.00     0.049 A 
ATOM     29  C   UNL     1       8.094   7.855   5.091  1.00  0.00     0.074 A 
ATOM     30  C   UNL     1       9.115   3.518   9.610  1.00  0.00     0.029 A 
ATOM     31  N   UNL     1       8.403   4.608   7.808  1.00  0.00    -0.354 N 
ATOM     32  N   UNL     1       8.245   6.897   5.973  1.00  0.00    -0.248 NA
ATOM     33  C   UNL     1       8.823   9.091   5.404  1.00  0.00     0.031 C 
ATOM     34  C   UNL     1       9.656   4.809   9.631  1.00  0.00     0.029 A 
ATOM     35  C   UNL     1       9.234   5.479   8.494  1.00  0.00     0.049 A 
ATOM     36  H   UNL     1       7.944   4.815   6.961  1.00  0.00     0.167 HD
ATOM     37  C   UNL     1       9.106   7.406   6.938  1.00  0.00     0.074 A 
ATOM     38  C   UNL     1       9.454   8.750   6.520  1.00  0.00     0.031 C 
ATOM     39  C   UNL     1       9.567   6.814   8.067  1.00  0.00     0.031 A 
BRANCH  26  40
ATOM     40  C   UNL     1       7.471   1.065   8.960  1.00  0.00    -0.014 A 
ATOM     41  C   UNL     1       8.114  -0.134   8.604  1.00  0.00     0.010 A 
ATOM     42  C   UNL     1       6.806   1.141  10.198  1.00  0.00     0.010 A 
ATOM     43  C   UNL     1       8.057  -1.246   9.450  1.00  0.00     0.020 A 
ATOM     44  C   UNL     1       6.768   0.039  11.058  1.00  0.00     0.020 A 
ATOM     45  C   UNL     1       7.379  -1.155  10.669  1.00  0.00     0.054 A 
BRANCH  45  46
ATOM     46  S   UNL     1       7.330  -2.609  11.752  1.00  0.00     0.124 S 
ATOM     47  O   UNL     1       6.363  -3.462  11.064  1.00  0.00    -0.237 OA
ATOM     48  O   UNL     1       8.712  -3.079  11.722  1.00  0.00    -0.237 OA
ATOM     49  O   UNL     1       6.885  -2.072  13.035  1.00  0.00    -0.744 OA
ENDBRANCH  45  46
ENDBRANCH  26  40
BRANCH  27  50
ATOM     50  C   UNL     1       7.267   9.029   2.920  1.00  0.00    -0.014 A 
ATOM     51  C   UNL     1       8.405   9.381   2.173  1.00  0.00     0.010 A 
ATOM     52  C   UNL     1       6.091   9.788   2.776  1.00  0.00     0.010 A 
ATOM     53  C   UNL     1       8.371  10.479   1.309  1.00  0.00     0.020 A 
ATOM     54  C   UNL     1       6.045  10.869   1.892  1.00  0.00     0.020 A 
ATOM     55  C   UNL     1       7.190  11.214   1.172  1.00  0.00     0.054 A 
BRANCH  55  56
ATOM     56  S   UNL     1       7.149  12.598   0.001  1.00  0.00     0.124 S 
ATOM     57  O   UNL     1       7.881  13.631   0.727  1.00  0.00    -0.237 OA
ATOM     58  O   UNL     1       7.827  12.044  -1.169  1.00  0.00    -0.237 OA
ATOM     59  O   UNL     1       5.721  12.850  -0.179  1.00  0.00    -0.744 OA
ENDBRANCH  55  56
ENDBRANCH  27  50
BRANCH  39  60
ATOM     60  C   UNL     1      10.531   7.606   8.907  1.00  0.00    -0.014 A 
ATOM     61  C   UNL     1      10.101   8.701   9.677  1.00  0.00     0.010 A 
ATOM     62  C   UNL     1      11.886   7.230   8.941  1.00  0.00     0.010 A 
ATOM     63  C   UNL     1      11.019   9.435  10.432  1.00  0.00     0.020 A 
ATOM     64  C   UNL     1      12.802   7.945   9.716  1.00  0.00     0.020 A 
ATOM     65  C   UNL     1      12.365   9.056  10.442  1.00  0.00     0.054 A 
BRANCH  65  66
ATOM     66  S   UNL     1      13.537  10.009  11.445  1.00  0.00     0.124 S 
ATOM     67  O   UNL     1      13.736  11.202  10.626  1.00  0.00    -0.237 OA
ATOM     68  O   UNL     1      12.803  10.217  12.690  1.00  0.00    -0.237 OA
ATOM     69  O   UNL     1      14.697   9.127  11.553  1.00  0.00    -0.744 OA
ENDBRANCH  65  66
ENDBRANCH  39  60
ENDBRANCH  13  14
ENDBRANCH   6   8
ENDBRANCH   3   4
ENDBRANCH   2   3
ENDBRANCH   1   2
BRANCH   1  70
ATOM     70  C   UNL     1       4.515  -3.197  -2.745  1.00  0.00     0.002 C 
BRANCH  70  71
ATOM     71  C   UNL     1       6.045  -3.115  -2.716  1.00  0.00     0.021 C 
BRANCH  71  72
ATOM     72  C   UNL     1       6.726  -4.289  -2.029  1.00  0.00     0.116 C 
BRANCH  72  73
ATOM     73  N   UNL     1       6.593  -5.518  -2.778  1.00  0.00    -0.354 N 
ATOM     74  C   UNL     1       7.491  -6.456  -3.171  1.00  0.00     0.250 C 
ATOM     75  H   UNL     1       5.670  -5.712  -3.058  1.00  0.00     0.163 HD
ATOM     76  O   UNL     1       6.972  -7.572  -3.314  1.00  0.00    -0.272 OA
BRANCH  74  77
ATOM     77  C   UNL     1       9.041  -6.242  -3.405  1.00  0.00     0.145 C 
ATOM     78  C   UNL     1       9.712  -7.160  -2.333  1.00  0.00     0.044 C 
ATOM     79  C   UNL     1       9.544  -4.800  -3.232  1.00  0.00    -0.010 A 
ATOM     80  C   UNL     1       9.602  -6.585  -0.932  1.00  0.00     0.008 C 
ATOM     81  C   UNL     1      10.153  -4.365  -2.026  1.00  0.00    -0.042 A 
ATOM     82  C   UNL     1       9.349  -3.854  -4.259  1.00  0.00     0.007 A 
ATOM     83  C   UNL     1      10.388  -5.286  -0.851  1.00  0.00     0.036 C 
ATOM     84  C   UNL     1      10.535  -3.020  -1.880  1.00  0.00     0.004 A 
ATOM     85  C   UNL     1       9.726  -2.519  -4.091  1.00  0.00     0.000 A 
ATOM     86  C   UNL     1      10.311  -2.102  -2.901  1.00  0.00     0.000 A 
BRANCH  77  87
ATOM     87  N   UNL     1       9.607  -6.776  -4.696  1.00  0.00    -0.338 N 
ATOM     88  C   UNL     1       9.156  -6.942  -5.966  1.00  0.00     0.224 C 
ATOM     89  H   UNL     1      10.537  -7.082  -4.592  1.00  0.00     0.164 HD
ATOM     90  O   UNL     1       9.999  -6.893  -6.867  1.00  0.00    -0.275 OA
BRANCH  88  91
ATOM     91  C   UNL     1       7.710  -7.305  -6.263  1.00  0.00     0.082 C 
ATOM     92  C   UNL     1       7.418  -8.738  -5.762  1.00  0.00     0.035 C 
ATOM     93  C   UNL     1       7.373  -7.151  -7.769  1.00  0.00     0.035 C 
ATOM     94  C   UNL     1       7.858  -9.832  -6.724  1.00  0.00     0.120 C 
ATOM     95  C   UNL     1       7.831  -8.344  -8.615  1.00  0.00     0.120 C 
ATOM     96  N   UNL     1       7.297  -9.570  -8.039  1.00  0.00    -0.342 N 
ATOM     97  C   UNL     1       6.201 -10.338  -8.431  1.00  0.00     0.225 C 
ATOM     98  O   UNL     1       5.761 -11.228  -7.702  1.00  0.00    -0.275 OA
BRANCH  97  99
ATOM     99  C   UNL     1       5.493 -10.198  -9.738  1.00  0.00     0.079 C 
ATOM    100  C   UNL     1       5.319  -8.993 -10.611  1.00  0.00     0.014 C 
ATOM    101  C   UNL     1       6.245 -10.102 -11.039  1.00  0.00     0.014 C 
ENDBRANCH  97  99
ENDBRANCH  88  91
ENDBRANCH  77  87
ENDBRANCH  74  77
ENDBRANCH  72  73
ENDBRANCH  71  72
ENDBRANCH  70  71
ENDBRANCH   1  70
TORSDOF 19
