REMARK SMILES C[NH+]1CCC(C(=O)N2C[C@@H](C(=O)NCCCCCCNC(=O)c3ccc(-c4c5nc(c(-c6ccc(S(=O)(=O)[O-])cc6)c6ccc([nH]6)c(-c6ccc(S(=O)(=O)[O-])cc6)c6nc(c(-c7ccc(S(=O)(=O)[O-])cc7)c7ccc4[nH]7)C=C6)C=C5)cc3)[C@H](c3ccc4c(c3)OCO4)C2)CC1
REMARK SMILES IDX 17 1 16 2 15 3 14 4 13 5 11 6 12 7 10 9 8 10 9 11 93 12
REMARK SMILES IDX 83 13 6 14 7 15 5 16 1 17 2 18 3 19 95 20 4 22 94 23 84 24
REMARK SMILES IDX 85 25 89 26 86 27 88 28 87 29 90 30 92 31 91 32 18 33 19 34
REMARK SMILES IDX 20 35 21 36 22 38 23 39 24 40 82 41 25 42 81 43 26 44 27 45
REMARK SMILES IDX 28 46 75 47 29 48 80 49 74 50 76 51 30 52 79 53 73 54 72 55
REMARK SMILES IDX 31 57 61 58 42 59 60 60 43 61 46 62 59 63 77 64 44 65 45 66
REMARK SMILES IDX 58 68 78 69 47 70 32 71 33 72 41 73 34 74 40 75 35 76 36 77
REMARK SMILES IDX 37 78 38 79 39 80 62 81 63 82 71 83 64 84 70 85 65 86 66 87
REMARK SMILES IDX 67 88 68 89 69 90 48 91 49 92 57 93 50 94 56 95 51 96 52 97
REMARK SMILES IDX 53 98 54 99 55 100
REMARK H PARENT 13 8 2 21 20 37 76 56 46 67
REMARK Flexibility Score: inf
ROOT
ATOM      1  C   UNL     1       1.204   0.673   9.402  1.00  0.00     0.002 C 
ENDROOT
BRANCH   1   2
ATOM      2  C   UNL     1       0.278  -0.017   8.394  1.00  0.00     0.002 C 
BRANCH   2   3
ATOM      3  C   UNL     1       0.251   0.581   6.982  1.00  0.00     0.021 C 
BRANCH   3   4
ATOM      4  C   UNL     1       1.612   0.726   6.307  1.00  0.00     0.116 C 
BRANCH   4   5
ATOM      5  N   UNL     1       2.277  -0.550   6.092  1.00  0.00    -0.356 N 
ATOM      6  C   UNL     1       3.021  -0.980   5.033  1.00  0.00     0.225 C 
ATOM      7  O   UNL     1       3.595  -2.067   5.124  1.00  0.00    -0.275 OA
ATOM      8  H   UNL     1       2.174  -1.202   6.822  1.00  0.00     0.163 HD
BRANCH   6   9
ATOM      9  C   UNL     1       3.126  -0.127   3.789  1.00  0.00     0.107 C 
ATOM     10  N   UNL     1       3.613  -0.071   1.533  1.00  0.00    -0.341 N 
ATOM     11  C   UNL     1       3.152  -0.994   2.547  1.00  0.00     0.133 C 
ATOM     12  C   UNL     1       4.607   0.827   2.121  1.00  0.00     0.128 C 
ATOM     13  C   UNL     1       4.461   0.640   3.653  1.00  0.00     0.053 C 
BRANCH  10  14
ATOM     14  C   UNL     1       3.277   0.032   0.207  1.00  0.00     0.226 C 
ATOM     15  O   UNL     1       4.103   0.466  -0.605  1.00  0.00    -0.275 OA
BRANCH  14  16
ATOM     16  C   UNL     1       1.815  -0.092  -0.241  1.00  0.00     0.090 C 
ATOM     17  C   UNL     1      -2.482   0.029  -0.268  1.00  0.00     0.332 C 
ATOM     18  N   UNL     1      -1.074  -0.044   0.115  1.00  0.00    -0.337 N 
ATOM     19  C   UNL     1      -0.371   1.187  -0.265  1.00  0.00     0.262 C 
ATOM     20  C   UNL     1      -0.425  -1.224  -0.476  1.00  0.00     0.262 C 
ATOM     21  H   UNL     1      -1.027  -0.139   1.130  1.00  0.00     0.347 HD
ATOM     22  C   UNL     1       1.067   1.159   0.244  1.00  0.00     0.075 C 
ATOM     23  C   UNL     1       1.004  -1.348   0.065  1.00  0.00     0.075 C 
ENDBRANCH  14  16
ENDBRANCH  10  14
BRANCH  13  24
ATOM     24  C   UNL     1       4.453   1.871   4.538  1.00  0.00    -0.038 A 
ATOM     25  C   UNL     1       3.824   3.080   4.161  1.00  0.00     0.008 A 
ATOM     26  C   UNL     1       4.942   1.738   5.853  1.00  0.00     0.054 A 
ATOM     27  C   UNL     1       3.649   4.121   5.082  1.00  0.00     0.051 A 
ATOM     28  C   UNL     1       4.721   2.764   6.746  1.00  0.00     0.166 A 
ATOM     29  C   UNL     1       4.083   3.920   6.373  1.00  0.00     0.165 A 
ATOM     30  O   UNL     1       5.008   2.733   8.075  1.00  0.00    -0.454 OA
ATOM     31  O   UNL     1       3.895   4.767   7.419  1.00  0.00    -0.454 OA
ATOM     32  C   UNL     1       4.401   3.969   8.508  1.00  0.00     0.468 C 
ENDBRANCH  13  24
ENDBRANCH   6   9
ENDBRANCH   4   5
ENDBRANCH   3   4
ENDBRANCH   2   3
ENDBRANCH   1   2
BRANCH   1  33
ATOM     33  C   UNL     1       1.002   2.180   9.572  1.00  0.00     0.021 C 
BRANCH  33  34
ATOM     34  C   UNL     1      -0.386   2.610  10.035  1.00  0.00     0.116 C 
BRANCH  34  35
ATOM     35  N   UNL     1      -0.667   2.204  11.402  1.00  0.00    -0.352 N 
ATOM     36  C   UNL     1      -1.021   2.959  12.493  1.00  0.00     0.251 C 
ATOM     37  H   UNL     1      -0.592   1.237  11.573  1.00  0.00     0.163 HD
ATOM     38  O   UNL     1      -1.042   2.430  13.608  1.00  0.00    -0.269 OA
BRANCH  36  39
ATOM     39  C   UNL     1      -1.354   4.397  12.359  1.00  0.00     0.039 A 
ATOM     40  C   UNL     1      -0.913   5.287  13.344  1.00  0.00     0.014 A 
ATOM     41  C   UNL     1      -2.125   4.875  11.296  1.00  0.00     0.014 A 
ATOM     42  C   UNL     1      -1.192   6.654  13.232  1.00  0.00     0.010 A 
ATOM     43  C   UNL     1      -2.338   6.245  11.146  1.00  0.00     0.010 A 
ATOM     44  C   UNL     1      -1.881   7.151  12.115  1.00  0.00    -0.014 A 
BRANCH  44  45
ATOM     45  C   UNL     1      -2.142   8.607  11.947  1.00  0.00     0.031 A 
ATOM     46  C   UNL     1      -3.558   9.125  11.908  1.00  0.00     0.074 A 
ATOM     47  C   UNL     1      -1.112   9.457  11.757  1.00  0.00     0.049 A 
ATOM     48  N   UNL     1      -3.984  10.342  11.682  1.00  0.00    -0.248 NA
ATOM     49  C   UNL     1      -4.636   8.144  12.120  1.00  0.00     0.031 C 
ATOM     50  C   UNL     1       0.304   9.082  11.720  1.00  0.00     0.029 A 
ATOM     51  N   UNL     1      -1.097  10.814  11.540  1.00  0.00    -0.354 N 
ATOM     52  C   UNL     1      -5.373  10.266  11.691  1.00  0.00     0.074 A 
ATOM     53  C   UNL     1      -5.719   8.880  11.913  1.00  0.00     0.031 C 
ATOM     54  C   UNL     1       1.047  10.180  11.507  1.00  0.00     0.029 A 
ATOM     55  C   UNL     1       0.164  11.332  11.355  1.00  0.00     0.049 A 
ATOM     56  H   UNL     1      -1.913  11.364  11.520  1.00  0.00     0.167 HD
ATOM     57  C   UNL     1      -6.278  11.262  11.543  1.00  0.00     0.031 A 
ATOM     58  C   UNL     1       0.567  12.589  11.081  1.00  0.00     0.031 A 
ATOM     59  C   UNL     1      -5.936  12.649  11.369  1.00  0.00     0.049 A 
ATOM     60  C   UNL     1      -0.460  13.682  10.958  1.00  0.00     0.074 A 
ATOM     61  C   UNL     1      -6.785  13.740  11.303  1.00  0.00     0.029 A 
ATOM     62  N   UNL     1      -4.646  13.137  11.239  1.00  0.00    -0.354 N 
ATOM     63  N   UNL     1      -1.766  13.600  11.055  1.00  0.00    -0.248 NA
ATOM     64  C   UNL     1       0.041  15.041  10.703  1.00  0.00     0.031 C 
ATOM     65  C   UNL     1      -6.011  14.884  11.086  1.00  0.00     0.029 A 
ATOM     66  C   UNL     1      -4.677  14.510  11.069  1.00  0.00     0.049 A 
ATOM     67  H   UNL     1      -3.828  12.589  11.263  1.00  0.00     0.167 HD
ATOM     68  C   UNL     1      -2.238  14.899  10.899  1.00  0.00     0.074 A 
ATOM     69  C   UNL     1      -1.080  15.749  10.719  1.00  0.00     0.031 C 
ATOM     70  C   UNL     1      -3.517  15.346  10.903  1.00  0.00     0.031 A 
BRANCH  57  71
ATOM     71  C   UNL     1      -7.739  10.900  11.565  1.00  0.00    -0.014 A 
ATOM     72  C   UNL     1      -8.381  10.540  12.763  1.00  0.00     0.010 A 
ATOM     73  C   UNL     1      -8.499  11.006  10.385  1.00  0.00     0.010 A 
ATOM     74  C   UNL     1      -9.753  10.273  12.777  1.00  0.00     0.020 A 
ATOM     75  C   UNL     1      -9.875  10.763  10.399  1.00  0.00     0.020 A 
ATOM     76  C   UNL     1     -10.492  10.388  11.595  1.00  0.00     0.054 A 
BRANCH  76  77
ATOM     77  S   UNL     1     -12.281  10.092  11.655  1.00  0.00     0.124 S 
ATOM     78  O   UNL     1     -12.341   8.639  11.785  1.00  0.00    -0.237 OA
ATOM     79  O   UNL     1     -12.691  10.846  12.836  1.00  0.00    -0.237 OA
ATOM     80  O   UNL     1     -12.763  10.623  10.382  1.00  0.00    -0.744 OA
ENDBRANCH  76  77
ENDBRANCH  57  71
BRANCH  58  81
ATOM     81  C   UNL     1       2.013  12.889  10.895  1.00  0.00    -0.014 A 
ATOM     82  C   UNL     1       2.717  13.646  11.848  1.00  0.00     0.010 A 
ATOM     83  C   UNL     1       2.689  12.437   9.747  1.00  0.00     0.010 A 
ATOM     84  C   UNL     1       4.060  13.976  11.639  1.00  0.00     0.020 A 
ATOM     85  C   UNL     1       4.039  12.740   9.549  1.00  0.00     0.020 A 
ATOM     86  C   UNL     1       4.711  13.525  10.488  1.00  0.00     0.054 A 
BRANCH  86  87
ATOM     87  S   UNL     1       6.459  13.944  10.243  1.00  0.00     0.124 S 
ATOM     88  O   UNL     1       6.378  15.336   9.812  1.00  0.00    -0.237 OA
ATOM     89  O   UNL     1       7.027  13.725  11.571  1.00  0.00    -0.237 OA
ATOM     90  O   UNL     1       6.897  12.995   9.223  1.00  0.00    -0.744 OA
ENDBRANCH  86  87
ENDBRANCH  58  81
BRANCH  70  91
ATOM     91  C   UNL     1      -3.737  16.826  10.747  1.00  0.00    -0.014 A 
ATOM     92  C   UNL     1      -3.560  17.462   9.506  1.00  0.00     0.010 A 
ATOM     93  C   UNL     1      -4.185  17.580  11.847  1.00  0.00     0.010 A 
ATOM     94  C   UNL     1      -3.799  18.832   9.375  1.00  0.00     0.020 A 
ATOM     95  C   UNL     1      -4.450  18.945  11.714  1.00  0.00     0.020 A 
ATOM     96  C   UNL     1      -4.242  19.565  10.480  1.00  0.00     0.054 A 
BRANCH  96  97
ATOM     97  S   UNL     1      -4.591  21.333  10.275  1.00  0.00     0.124 S 
ATOM     98  O   UNL     1      -3.248  21.905  10.237  1.00  0.00    -0.237 OA
ATOM     99  O   UNL     1      -5.326  21.373   9.014  1.00  0.00    -0.237 OA
ATOM    100  O   UNL     1      -5.378  21.670  11.459  1.00  0.00    -0.744 OA
ENDBRANCH  96  97
ENDBRANCH  70  91
ENDBRANCH  44  45
ENDBRANCH  36  39
ENDBRANCH  34  35
ENDBRANCH  33  34
ENDBRANCH   1  33
TORSDOF 19
