REMARK SMILES C[C@]12C(=O)N(c3ccc(C(=O)NCCCCCCNC(=O)c4ccc(-c5c6nc(c(-c7ccc(S(=O)(=O)[O-])cc7)c7ccc([nH]7)c(-c7ccc(S(=O)(=O)[O-])cc7)c7nc(c(-c8ccc(S(=O)(=O)[O-])cc8)c8ccc5[nH]8)C=C7)C=C6)cc4)cc3)C(=O)[C@H]1[C@H]1c3ccccc3[C@@H]2c2ccccc21
REMARK SMILES IDX 16 1 15 2 14 3 13 4 12 5 10 6 11 7 9 9 6 10 7 11 83 12 8 13
REMARK SMILES IDX 82 14 5 15 1 16 2 17 3 18 86 19 94 20 4 21 84 22 87 23 93 24
REMARK SMILES IDX 95 25 85 26 88 27 100 28 92 29 96 30 89 31 99 32 91 33 97 34
REMARK SMILES IDX 90 35 98 36 17 37 18 38 19 39 20 40 21 42 22 43 23 44 81 45
REMARK SMILES IDX 24 46 80 47 25 48 26 49 27 50 74 51 28 52 79 53 73 54 75 55
REMARK SMILES IDX 29 56 78 57 72 58 71 59 30 61 60 62 41 63 59 64 42 65 45 66
REMARK SMILES IDX 58 67 76 68 43 69 44 70 57 72 77 73 46 74 31 75 32 76 40 77
REMARK SMILES IDX 33 78 39 79 34 80 35 81 36 82 37 83 38 84 61 85 62 86 70 87
REMARK SMILES IDX 63 88 69 89 64 90 65 91 66 92 67 93 68 94 47 95 48 96 56 97
REMARK SMILES IDX 49 98 55 99 50 100 51 101 52 102 53 103 54 104
REMARK H PARENT 12 8 19 41 75 60 45 71
REMARK Flexibility Score: inf
ROOT
ATOM      1  C   UNL     1      -7.209  -0.632  10.277  1.00  0.00     0.002 C 
ENDROOT
BRANCH   1   2
ATOM      2  C   UNL     1      -7.608  -0.028   8.928  1.00  0.00     0.002 C 
BRANCH   2   3
ATOM      3  C   UNL     1      -6.472   0.388   7.991  1.00  0.00     0.021 C 
BRANCH   3   4
ATOM      4  C   UNL     1      -5.387  -0.650   7.735  1.00  0.00     0.116 C 
BRANCH   4   5
ATOM      5  N   UNL     1      -5.860  -1.814   7.015  1.00  0.00    -0.352 N 
ATOM      6  C   UNL     1      -5.426  -2.360   5.835  1.00  0.00     0.251 C 
ATOM      7  O   UNL     1      -6.016  -3.336   5.372  1.00  0.00    -0.269 OA
ATOM      8  H   UNL     1      -6.611  -2.287   7.440  1.00  0.00     0.163 HD
BRANCH   6   9
ATOM      9  C   UNL     1      -4.300  -1.765   5.073  1.00  0.00     0.039 A 
ATOM     10  C   UNL     1      -2.215  -0.672   3.476  1.00  0.00     0.052 A 
ATOM     11  C   UNL     1      -3.412  -1.147   2.907  1.00  0.00     0.027 A 
ATOM     12  C   UNL     1      -2.091  -0.757   4.871  1.00  0.00     0.027 A 
ATOM     13  C   UNL     1      -4.437  -1.690   3.689  1.00  0.00     0.016 A 
ATOM     14  C   UNL     1      -3.106  -1.333   5.656  1.00  0.00     0.016 A 
BRANCH  10  15
ATOM     15  N   UNL     1      -1.079  -0.360   2.654  1.00  0.00    -0.250 N 
ATOM     16  C   UNL     1       1.046  -0.180   0.167  1.00  0.00     0.024 C 
ATOM     17  C   UNL     1       0.389  -1.244   1.071  1.00  0.00     0.071 C 
ATOM     18  C   UNL     1      -1.019  -0.781   1.336  1.00  0.00     0.241 C 
ATOM     19  C   UNL     1       1.014  -1.274   2.491  1.00  0.00     0.107 C 
ATOM     20  C   UNL     1       0.419  -2.692   0.490  1.00  0.00     0.066 C 
ATOM     21  O   UNL     1      -1.884  -0.770   0.471  1.00  0.00    -0.273 OA
ATOM     22  C   UNL     1       0.224  -0.181   3.169  1.00  0.00     0.238 C 
ATOM     23  C   UNL     1       1.960  -2.519   2.654  1.00  0.00     0.063 C 
ATOM     24  C   UNL     1       0.011  -3.675   1.609  1.00  0.00    -0.036 A 
ATOM     25  C   UNL     1       1.894  -2.969   0.216  1.00  0.00    -0.036 A 
ATOM     26  O   UNL     1       0.624   0.589   4.024  1.00  0.00    -0.274 OA
ATOM     27  C   UNL     1       0.903  -3.684   2.734  1.00  0.00    -0.036 A 
ATOM     28  C   UNL     1       2.726  -2.822   1.361  1.00  0.00    -0.036 A 
ATOM     29  C   UNL     1      -1.199  -4.350   1.676  1.00  0.00     0.005 A 
ATOM     30  C   UNL     1       2.404  -3.390  -1.004  1.00  0.00     0.005 A 
ATOM     31  C   UNL     1       0.584  -4.369   3.900  1.00  0.00     0.004 A 
ATOM     32  C   UNL     1       4.077  -3.126   1.270  1.00  0.00     0.004 A 
ATOM     33  C   UNL     1      -1.519  -5.028   2.857  1.00  0.00     0.000 A 
ATOM     34  C   UNL     1       3.762  -3.685  -1.087  1.00  0.00     0.000 A 
ATOM     35  C   UNL     1      -0.638  -5.042   3.952  1.00  0.00     0.000 A 
ATOM     36  C   UNL     1       4.590  -3.557   0.040  1.00  0.00     0.000 A 
ENDBRANCH  10  15
ENDBRANCH   6   9
ENDBRANCH   4   5
ENDBRANCH   3   4
ENDBRANCH   2   3
ENDBRANCH   1   2
BRANCH   1  37
ATOM     37  C   UNL     1      -6.144   0.115  11.080  1.00  0.00     0.021 C 
BRANCH  37  38
ATOM     38  C   UNL     1      -6.406   1.593  11.329  1.00  0.00     0.116 C 
BRANCH  38  39
ATOM     39  N   UNL     1      -7.551   1.841  12.187  1.00  0.00    -0.352 N 
ATOM     40  C   UNL     1      -7.631   2.611  13.326  1.00  0.00     0.251 C 
ATOM     41  H   UNL     1      -8.387   1.397  11.917  1.00  0.00     0.163 HD
ATOM     42  O   UNL     1      -8.665   2.625  13.988  1.00  0.00    -0.269 OA
BRANCH  40  43
ATOM     43  C   UNL     1      -6.449   3.381  13.777  1.00  0.00     0.039 A 
ATOM     44  C   UNL     1      -5.705   4.150  12.879  1.00  0.00     0.014 A 
ATOM     45  C   UNL     1      -6.051   3.288  15.114  1.00  0.00     0.014 A 
ATOM     46  C   UNL     1      -4.472   4.666  13.270  1.00  0.00     0.010 A 
ATOM     47  C   UNL     1      -4.853   3.881  15.525  1.00  0.00     0.010 A 
ATOM     48  C   UNL     1      -4.023   4.524  14.593  1.00  0.00    -0.014 A 
BRANCH  48  49
ATOM     49  C   UNL     1      -2.674   5.022  14.976  1.00  0.00     0.031 A 
ATOM     50  C   UNL     1      -1.599   4.060  15.414  1.00  0.00     0.074 A 
ATOM     51  C   UNL     1      -2.395   6.337  14.876  1.00  0.00     0.049 A 
ATOM     52  N   UNL     1      -0.367   4.314  15.778  1.00  0.00    -0.248 NA
ATOM     53  C   UNL     1      -1.945   2.629  15.448  1.00  0.00     0.031 C 
ATOM     54  C   UNL     1      -3.339   7.363  14.428  1.00  0.00     0.029 A 
ATOM     55  N   UNL     1      -1.236   7.033  15.114  1.00  0.00    -0.354 N 
ATOM     56  C   UNL     1       0.201   3.085  16.094  1.00  0.00     0.074 A 
ATOM     57  C   UNL     1      -0.828   2.086  15.914  1.00  0.00     0.031 C 
ATOM     58  C   UNL     1      -2.707   8.544  14.369  1.00  0.00     0.029 A 
ATOM     59  C   UNL     1      -1.335   8.377  14.842  1.00  0.00     0.049 A 
ATOM     60  H   UNL     1      -0.412   6.610  15.448  1.00  0.00     0.167 HD
ATOM     61  C   UNL     1       1.469   2.812  16.482  1.00  0.00     0.031 A 
ATOM     62  C   UNL     1      -0.434   9.373  14.965  1.00  0.00     0.031 A 
ATOM     63  C   UNL     1       2.495   3.809  16.646  1.00  0.00     0.049 A 
ATOM     64  C   UNL     1       0.948   9.056  15.461  1.00  0.00     0.074 A 
ATOM     65  C   UNL     1       3.812   3.624  17.031  1.00  0.00     0.029 A 
ATOM     66  N   UNL     1       2.329   5.168  16.429  1.00  0.00    -0.354 N 
ATOM     67  N   UNL     1       1.461   7.888  15.764  1.00  0.00    -0.248 NA
ATOM     68  C   UNL     1       1.873  10.184  15.635  1.00  0.00     0.031 C 
ATOM     69  C   UNL     1       4.424   4.877  17.108  1.00  0.00     0.029 A 
ATOM     70  C   UNL     1       3.512   5.836  16.698  1.00  0.00     0.049 A 
ATOM     71  H   UNL     1       1.494   5.595  16.129  1.00  0.00     0.167 HD
ATOM     72  C   UNL     1       2.772   8.138  16.152  1.00  0.00     0.074 A 
ATOM     73  C   UNL     1       2.980   9.566  16.029  1.00  0.00     0.031 C 
ATOM     74  C   UNL     1       3.713   7.259  16.573  1.00  0.00     0.031 A 
BRANCH  61  75
ATOM     75  C   UNL     1       1.842   1.377  16.760  1.00  0.00    -0.014 A 
ATOM     76  C   UNL     1       2.166   0.980  18.071  1.00  0.00     0.010 A 
ATOM     77  C   UNL     1       1.988   0.452  15.711  1.00  0.00     0.010 A 
ATOM     78  C   UNL     1       2.658  -0.304  18.325  1.00  0.00     0.020 A 
ATOM     79  C   UNL     1       2.453  -0.843  15.965  1.00  0.00     0.020 A 
ATOM     80  C   UNL     1       2.806  -1.204  17.268  1.00  0.00     0.054 A 
BRANCH  80  81
ATOM     81  S   UNL     1       3.465  -2.860  17.611  1.00  0.00     0.124 S 
ATOM     82  O   UNL     1       4.888  -2.595  17.793  1.00  0.00    -0.237 OA
ATOM     83  O   UNL     1       2.734  -3.252  18.814  1.00  0.00    -0.237 OA
ATOM     84  O   UNL     1       3.118  -3.619  16.410  1.00  0.00    -0.744 OA
ENDBRANCH  80  81
ENDBRANCH  61  75
BRANCH  62  85
ATOM     85  C   UNL     1      -0.832  10.757  14.585  1.00  0.00    -0.014 A 
ATOM     86  C   UNL     1      -1.814  11.444  15.324  1.00  0.00     0.010 A 
ATOM     87  C   UNL     1      -0.308  11.355  13.426  1.00  0.00     0.010 A 
ATOM     88  C   UNL     1      -2.315  12.668  14.874  1.00  0.00     0.020 A 
ATOM     89  C   UNL     1      -0.784  12.595  12.989  1.00  0.00     0.020 A 
ATOM     90  C   UNL     1      -1.809  13.226  13.698  1.00  0.00     0.054 A 
BRANCH  90  91
ATOM     91  S   UNL     1      -2.526  14.779  13.094  1.00  0.00     0.124 S 
ATOM     92  O   UNL     1      -3.795  14.323  12.533  1.00  0.00    -0.237 OA
ATOM     93  O   UNL     1      -2.627  15.580  14.311  1.00  0.00    -0.237 OA
ATOM     94  O   UNL     1      -1.545  15.252  12.120  1.00  0.00    -0.744 OA
ENDBRANCH  90  91
ENDBRANCH  62  85
BRANCH  74  95
ATOM     95  C   UNL     1       5.075   7.789  16.941  1.00  0.00    -0.014 A 
ATOM     96  C   UNL     1       6.191   7.446  16.155  1.00  0.00     0.010 A 
ATOM     97  C   UNL     1       5.272   8.490  18.143  1.00  0.00     0.010 A 
ATOM     98  C   UNL     1       7.483   7.751  16.586  1.00  0.00     0.020 A 
ATOM     99  C   UNL     1       6.564   8.823  18.564  1.00  0.00     0.020 A 
ATOM    100  C   UNL     1       7.662   8.425  17.797  1.00  0.00     0.054 A 
BRANCH 100 101
ATOM    101  S   UNL     1       9.350   8.761  18.370  1.00  0.00     0.124 S 
ATOM    102  O   UNL     1       9.780   7.449  18.844  1.00  0.00    -0.237 OA
ATOM    103  O   UNL     1      10.011   9.240  17.158  1.00  0.00    -0.237 OA
ATOM    104  O   UNL     1       9.165   9.771  19.409  1.00  0.00    -0.744 OA
ENDBRANCH 100 101
ENDBRANCH  74  95
ENDBRANCH  48  49
ENDBRANCH  40  43
ENDBRANCH  38  39
ENDBRANCH  37  38
ENDBRANCH   1  37
TORSDOF 17
