REMARK SMILES CN(CC(=O)NCC(=O)NCCCCCCNC(=O)c1ccc(-c2c3nc(c(-c4ccc(S(=O)(=O)[O-])cc4)c4ccc([nH]4)c(-c4ccc(S(=O)(=O)[O-])cc4)c4nc(c(-c5ccc(S(=O)(=O)[O-])cc5)c5ccc2[nH]5)C=C4)C=C3)cc1)c1ncccn1
REMARK SMILES IDX 13 1 12 2 11 3 10 4 8 5 9 6 7 8 6 9 4 10 5 11 3 13 2 14 1 15
REMARK SMILES IDX 80 16 81 17 85 18 82 19 84 20 83 21 14 22 15 23 16 24 17 25
REMARK SMILES IDX 18 26 19 28 20 29 21 30 79 31 22 32 78 33 23 34 24 35 25 36
REMARK SMILES IDX 72 37 26 38 77 39 71 40 73 41 27 42 76 43 70 44 69 45 28 47
REMARK SMILES IDX 58 48 39 49 57 50 40 51 43 52 56 53 74 54 41 55 42 56 55 58
REMARK SMILES IDX 75 59 44 60 29 61 30 62 38 63 31 64 37 65 32 66 33 67 34 68
REMARK SMILES IDX 35 69 36 70 59 71 60 72 68 73 61 74 67 75 62 76 63 77 64 78
REMARK SMILES IDX 65 79 66 80 45 81 46 82 54 83 47 84 53 85 48 86 49 87 50 88
REMARK SMILES IDX 51 89 52 90
REMARK H PARENT 10 7 6 12 17 27 73 46 43 57
REMARK Flexibility Score: inf
ROOT
ATOM      1  C   UNL     1      -0.653  -3.249  -4.673  1.00  0.00     0.002 C 
ENDROOT
BRANCH   1   2
ATOM      2  C   UNL     1      -1.005  -3.112  -3.188  1.00  0.00     0.021 C 
BRANCH   2   3
ATOM      3  C   UNL     1      -0.613  -1.779  -2.560  1.00  0.00     0.116 C 
BRANCH   3   4
ATOM      4  N   UNL     1      -1.552  -0.719  -2.869  1.00  0.00    -0.355 N 
ATOM      5  C   UNL     1      -2.205   0.116  -2.008  1.00  0.00     0.239 C 
ATOM      6  O   UNL     1      -2.808   1.083  -2.484  1.00  0.00    -0.273 OA
ATOM      7  H   UNL     1      -1.745  -0.583  -3.825  1.00  0.00     0.163 HD
BRANCH   5   8
ATOM      8  C   UNL     1      -2.062  -0.044  -0.487  1.00  0.00     0.216 C 
BRANCH   8   9
ATOM      9  N   UNL     1      -2.343  -1.376   0.019  1.00  0.00    -0.345 N 
ATOM     10  C   UNL     1      -1.667  -2.104   0.961  1.00  0.00     0.240 C 
ATOM     11  O   UNL     1      -2.182  -3.163   1.328  1.00  0.00    -0.273 OA
ATOM     12  H   UNL     1      -3.132  -1.818  -0.371  1.00  0.00     0.164 HD
BRANCH  10  13
ATOM     13  C   UNL     1      -0.375  -1.555   1.594  1.00  0.00     0.219 C 
BRANCH  13  14
ATOM     14  N   UNL     1       0.755  -1.459   0.667  1.00  0.00    -0.335 N 
ATOM     15  C   UNL     1       1.486  -0.220   0.509  1.00  0.00     0.147 C 
BRANCH  14  16
ATOM     16  C   UNL     1       1.389  -2.622   0.268  1.00  0.00     0.225 A 
ATOM     17  N   UNL     1       0.767  -3.795   0.445  1.00  0.00    -0.221 NA
ATOM     18  N   UNL     1       2.599  -2.535  -0.310  1.00  0.00    -0.221 NA
ATOM     19  C   UNL     1       1.409  -4.918   0.066  1.00  0.00     0.117 A 
ATOM     20  C   UNL     1       3.221  -3.683  -0.651  1.00  0.00     0.117 A 
ATOM     21  C   UNL     1       2.662  -4.922  -0.487  1.00  0.00     0.040 A 
ENDBRANCH  14  16
ENDBRANCH  13  14
ENDBRANCH  10  13
ENDBRANCH   8   9
ENDBRANCH   5   8
ENDBRANCH   3   4
ENDBRANCH   2   3
ENDBRANCH   1   2
BRANCH   1  22
ATOM     22  C   UNL     1       0.827  -3.069  -5.032  1.00  0.00     0.002 C 
BRANCH  22  23
ATOM     23  C   UNL     1       1.832  -3.864  -4.191  1.00  0.00     0.021 C 
BRANCH  23  24
ATOM     24  C   UNL     1       1.672  -5.384  -4.207  1.00  0.00     0.116 C 
BRANCH  24  25
ATOM     25  N   UNL     1       1.904  -5.947  -5.524  1.00  0.00    -0.352 N 
ATOM     26  C   UNL     1       2.723  -6.965  -5.940  1.00  0.00     0.251 C 
ATOM     27  H   UNL     1       1.383  -5.525  -6.244  1.00  0.00     0.163 HD
ATOM     28  O   UNL     1       2.864  -7.137  -7.153  1.00  0.00    -0.269 OA
BRANCH  26  29
ATOM     29  C   UNL     1       3.451  -7.850  -4.994  1.00  0.00     0.039 A 
ATOM     30  C   UNL     1       4.716  -8.311  -5.378  1.00  0.00     0.014 A 
ATOM     31  C   UNL     1       2.894  -8.315  -3.797  1.00  0.00     0.014 A 
ATOM     32  C   UNL     1       5.426  -9.201  -4.565  1.00  0.00     0.010 A 
ATOM     33  C   UNL     1       3.628  -9.167  -2.957  1.00  0.00     0.010 A 
ATOM     34  C   UNL     1       4.899  -9.627  -3.336  1.00  0.00    -0.014 A 
BRANCH  34  35
ATOM     35  C   UNL     1       5.692 -10.537  -2.462  1.00  0.00     0.031 A 
ATOM     36  C   UNL     1       5.265 -11.961  -2.218  1.00  0.00     0.074 A 
ATOM     37  C   UNL     1       6.824 -10.081  -1.887  1.00  0.00     0.049 A 
ATOM     38  N   UNL     1       5.887 -12.903  -1.553  1.00  0.00    -0.248 NA
ATOM     39  C   UNL     1       3.971 -12.378  -2.777  1.00  0.00     0.031 C 
ATOM     40  C   UNL     1       7.340  -8.715  -2.003  1.00  0.00     0.029 A 
ATOM     41  N   UNL     1       7.751 -10.720  -1.101  1.00  0.00    -0.354 N 
ATOM     42  C   UNL     1       5.063 -14.022  -1.611  1.00  0.00     0.074 A 
ATOM     43  C   UNL     1       3.876 -13.626  -2.339  1.00  0.00     0.031 C 
ATOM     44  C   UNL     1       8.507  -8.630  -1.343  1.00  0.00     0.029 A 
ATOM     45  C   UNL     1       8.812  -9.924  -0.740  1.00  0.00     0.049 A 
ATOM     46  H   UNL     1       7.664 -11.661  -0.821  1.00  0.00     0.167 HD
ATOM     47  C   UNL     1       5.277 -15.268  -1.120  1.00  0.00     0.031 A 
ATOM     48  C   UNL     1       9.916 -10.199  -0.018  1.00  0.00     0.031 A 
ATOM     49  C   UNL     1       6.457 -15.674  -0.399  1.00  0.00     0.049 A 
ATOM     50  C   UNL     1      10.136 -11.589   0.508  1.00  0.00     0.074 A 
ATOM     51  C   UNL     1       6.783 -16.932   0.081  1.00  0.00     0.029 A 
ATOM     52  N   UNL     1       7.501 -14.834  -0.047  1.00  0.00    -0.354 N 
ATOM     53  N   UNL     1       9.377 -12.650   0.375  1.00  0.00    -0.248 NA
ATOM     54  C   UNL     1      11.373 -11.821   1.268  1.00  0.00     0.031 C 
ATOM     55  C   UNL     1       8.003 -16.842   0.762  1.00  0.00     0.029 A 
ATOM     56  C   UNL     1       8.459 -15.539   0.665  1.00  0.00     0.049 A 
ATOM     57  H   UNL     1       7.555 -13.876  -0.270  1.00  0.00     0.167 HD
ATOM     58  C   UNL     1      10.052 -13.679   1.022  1.00  0.00     0.074 A 
ATOM     59  C   UNL     1      11.289 -13.119   1.526  1.00  0.00     0.031 C 
ATOM     60  C   UNL     1       9.678 -14.973   1.183  1.00  0.00     0.031 A 
BRANCH  47  61
ATOM     61  C   UNL     1       4.200 -16.297  -1.344  1.00  0.00    -0.014 A 
ATOM     62  C   UNL     1       3.984 -16.852  -2.618  1.00  0.00     0.010 A 
ATOM     63  C   UNL     1       3.428 -16.752  -0.259  1.00  0.00     0.010 A 
ATOM     64  C   UNL     1       2.988 -17.814  -2.812  1.00  0.00     0.020 A 
ATOM     65  C   UNL     1       2.447 -17.730  -0.444  1.00  0.00     0.020 A 
ATOM     66  C   UNL     1       2.221 -18.242  -1.724  1.00  0.00     0.054 A 
BRANCH  66  67
ATOM     67  S   UNL     1       0.947 -19.504  -2.000  1.00  0.00     0.124 S 
ATOM     68  O   UNL     1      -0.109 -18.727  -2.646  1.00  0.00    -0.237 OA
ATOM     69  O   UNL     1       1.627 -20.471  -2.852  1.00  0.00    -0.237 OA
ATOM     70  O   UNL     1       0.633 -19.978  -0.651  1.00  0.00    -0.744 OA
ENDBRANCH  66  67
ENDBRANCH  47  61
BRANCH  48  71
ATOM     71  C   UNL     1      10.918  -9.129   0.230  1.00  0.00    -0.014 A 
ATOM     72  C   UNL     1      12.152  -9.138  -0.443  1.00  0.00     0.010 A 
ATOM     73  C   UNL     1      10.632  -8.085   1.128  1.00  0.00     0.010 A 
ATOM     74  C   UNL     1      13.090  -8.127  -0.213  1.00  0.00     0.020 A 
ATOM     75  C   UNL     1      11.557  -7.060   1.342  1.00  0.00     0.020 A 
ATOM     76  C   UNL     1      12.785  -7.093   0.677  1.00  0.00     0.054 A 
BRANCH  76  77
ATOM     77  S   UNL     1      13.985  -5.753   0.912  1.00  0.00     0.124 S 
ATOM     78  O   UNL     1      14.959  -6.371   1.805  1.00  0.00    -0.237 OA
ATOM     79  O   UNL     1      14.446  -5.496  -0.451  1.00  0.00    -0.237 OA
ATOM     80  O   UNL     1      13.184  -4.681   1.500  1.00  0.00    -0.744 OA
ENDBRANCH  76  77
ENDBRANCH  48  71
BRANCH  60  81
ATOM     81  C   UNL     1      10.626 -15.872   1.932  1.00  0.00    -0.014 A 
ATOM     82  C   UNL     1      10.789 -15.754   3.324  1.00  0.00     0.010 A 
ATOM     83  C   UNL     1      11.354 -16.855   1.238  1.00  0.00     0.010 A 
ATOM     84  C   UNL     1      11.697 -16.572   4.002  1.00  0.00     0.020 A 
ATOM     85  C   UNL     1      12.245 -17.692   1.916  1.00  0.00     0.020 A 
ATOM     86  C   UNL     1      12.426 -17.530   3.292  1.00  0.00     0.054 A 
BRANCH  86  87
ATOM     87  S   UNL     1      13.593 -18.590   4.191  1.00  0.00     0.124 S 
ATOM     88  O   UNL     1      14.733 -17.695   4.376  1.00  0.00    -0.237 OA
ATOM     89  O   UNL     1      12.855 -18.926   5.407  1.00  0.00    -0.237 OA
ATOM     90  O   UNL     1      13.819 -19.707   3.278  1.00  0.00    -0.744 OA
ENDBRANCH  86  87
ENDBRANCH  60  81
ENDBRANCH  34  35
ENDBRANCH  26  29
ENDBRANCH  24  25
ENDBRANCH  23  24
ENDBRANCH  22  23
ENDBRANCH   1  22
TORSDOF 20
