REMARK SMILES CC(C)CSc1cc2c(cc1Cl)C=C(C(=O)NCCCCCCNC(=O)c1ccc(-c3c4nc(c(-c5ccc(S(=O)(=O)[O-])cc5)c5ccc([nH]5)c(-c5ccc(S(=O)(=O)[O-])cc5)c5nc(c(-c6ccc(S(=O)(=O)[O-])cc6)c6ccc3[nH]6)C=C5)C=C4)cc1)[C@H](C(F)(F)F)O2
REMARK SMILES IDX 20 1 19 2 18 3 17 4 15 5 16 6 14 8 6 9 7 10 11 11 8 12 10 13
REMARK SMILES IDX 12 14 9 15 92 16 13 17 87 18 5 19 4 20 2 21 1 22 3 23 88 24
REMARK SMILES IDX 89 25 90 26 91 27 21 28 22 29 23 30 24 31 25 32 26 34 27 35
REMARK SMILES IDX 28 36 86 37 29 38 85 39 30 40 31 41 32 42 79 43 33 44 84 45
REMARK SMILES IDX 78 46 80 47 34 48 83 49 77 50 76 51 35 53 65 54 46 55 64 56
REMARK SMILES IDX 47 57 50 58 63 59 81 60 48 61 49 62 62 64 82 65 51 66 36 67
REMARK SMILES IDX 37 68 45 69 38 70 44 71 39 72 40 73 41 74 42 75 43 76 66 77
REMARK SMILES IDX 67 78 75 79 68 80 74 81 69 82 70 83 71 84 72 85 73 86 52 87
REMARK SMILES IDX 53 88 61 89 54 90 60 91 55 92 56 93 57 94 58 95 59 96
REMARK H PARENT 17 7 24 33 80 52 50 63
REMARK Flexibility Score: inf
ROOT
ATOM      1  C   UNL     1      -2.211  11.287   2.856  1.00  0.00     0.002 C 
ENDROOT
BRANCH   1   2
ATOM      2  C   UNL     1      -2.424   9.976   2.093  1.00  0.00     0.021 C 
BRANCH   2   3
ATOM      3  C   UNL     1      -1.149   9.353   1.526  1.00  0.00     0.116 C 
BRANCH   3   4
ATOM      4  N   UNL     1      -0.432   8.577   2.522  1.00  0.00    -0.352 N 
ATOM      5  C   UNL     1      -0.165   7.273   2.764  1.00  0.00     0.251 C 
ATOM      6  O   UNL     1       0.492   7.057   3.788  1.00  0.00    -0.270 OA
ATOM      7  H   UNL     1      -0.031   9.158   3.209  1.00  0.00     0.163 HD
BRANCH   5   8
ATOM      8  C   UNL     1      -0.588   6.122   1.910  1.00  0.00     0.067 C 
ATOM      9  C   UNL     1      -1.450   1.494   0.061  1.00  0.00     0.030 A 
ATOM     10  C   UNL     1      -1.399   2.787  -0.493  1.00  0.00     0.063 A 
ATOM     11  C   UNL     1      -1.178   1.360   1.435  1.00  0.00     0.055 A 
ATOM     12  C   UNL     1      -1.062   3.891   0.289  1.00  0.00     0.129 A 
ATOM     13  C   UNL     1      -0.758   2.466   2.193  1.00  0.00     0.033 A 
ATOM     14  Cl  UNL     1      -1.400  -0.100   2.330  1.00  0.00    -0.083 Cl
ATOM     15  C   UNL     1      -0.702   3.734   1.622  1.00  0.00     0.019 A 
ATOM     16  O   UNL     1      -1.094   5.120  -0.309  1.00  0.00    -0.475 OA
ATOM     17  C   UNL     1      -0.284   4.900   2.389  1.00  0.00     0.025 C 
ATOM     18  C   UNL     1      -1.327   6.236   0.603  1.00  0.00     0.314 C 
BRANCH   9  19
ATOM     19  S   UNL     1      -1.945   0.229  -1.110  1.00  0.00    -0.124 SA
BRANCH  19  20
ATOM     20  C   UNL     1      -0.933  -1.248  -0.743  1.00  0.00     0.078 C 
BRANCH  20  21
ATOM     21  C   UNL     1       0.572  -1.227  -1.067  1.00  0.00    -0.007 C 
ATOM     22  C   UNL     1       1.379  -0.121  -0.392  1.00  0.00     0.008 C 
ATOM     23  C   UNL     1       1.164  -2.585  -0.662  1.00  0.00     0.008 C 
ENDBRANCH  20  21
ENDBRANCH  19  20
ENDBRANCH   9  19
BRANCH  18  24
ATOM     24  C   UNL     1      -2.841   6.465   0.802  1.00  0.00     0.429 C 
ATOM     25  F   UNL     1      -3.560   5.322   0.749  1.00  0.00    -0.167 F 
ATOM     26  F   UNL     1      -3.121   7.039   1.996  1.00  0.00    -0.167 F 
ATOM     27  F   UNL     1      -3.329   7.297  -0.150  1.00  0.00    -0.167 F 
ENDBRANCH  18  24
ENDBRANCH   5   8
ENDBRANCH   3   4
ENDBRANCH   2   3
ENDBRANCH   1   2
BRANCH   1  28
ATOM     28  C   UNL     1      -1.539  12.416   2.066  1.00  0.00     0.002 C 
BRANCH  28  29
ATOM     29  C   UNL     1      -2.120  12.693   0.678  1.00  0.00     0.021 C 
BRANCH  29  30
ATOM     30  C   UNL     1      -3.608  13.025   0.657  1.00  0.00     0.116 C 
BRANCH  30  31
ATOM     31  N   UNL     1      -3.907  14.271   1.345  1.00  0.00    -0.352 N 
ATOM     32  C   UNL     1      -4.538  15.396   0.870  1.00  0.00     0.251 C 
ATOM     33  H   UNL     1      -3.617  14.315   2.285  1.00  0.00     0.163 HD
ATOM     34  O   UNL     1      -4.554  16.424   1.539  1.00  0.00    -0.269 OA
BRANCH  32  35
ATOM     35  C   UNL     1      -5.169  15.367  -0.468  1.00  0.00     0.039 A 
ATOM     36  C   UNL     1      -5.987  14.299  -0.843  1.00  0.00     0.014 A 
ATOM     37  C   UNL     1      -4.916  16.409  -1.364  1.00  0.00     0.014 A 
ATOM     38  C   UNL     1      -6.419  14.194  -2.161  1.00  0.00     0.010 A 
ATOM     39  C   UNL     1      -5.419  16.340  -2.666  1.00  0.00     0.010 A 
ATOM     40  C   UNL     1      -6.136  15.209  -3.089  1.00  0.00    -0.014 A 
BRANCH  40  41
ATOM     41  C   UNL     1      -6.597  15.069  -4.495  1.00  0.00     0.031 A 
ATOM     42  C   UNL     1      -5.605  14.933  -5.619  1.00  0.00     0.074 A 
ATOM     43  C   UNL     1      -7.919  15.010  -4.751  1.00  0.00     0.049 A 
ATOM     44  N   UNL     1      -5.832  14.787  -6.900  1.00  0.00    -0.248 NA
ATOM     45  C   UNL     1      -4.176  14.961  -5.267  1.00  0.00     0.031 C 
ATOM     46  C   UNL     1      -8.974  15.100  -3.739  1.00  0.00     0.029 A 
ATOM     47  N   UNL     1      -8.603  14.830  -5.927  1.00  0.00    -0.354 N 
ATOM     48  C   UNL     1      -4.583  14.719  -7.505  1.00  0.00     0.074 A 
ATOM     49  C   UNL     1      -3.597  14.870  -6.457  1.00  0.00     0.031 C 
ATOM     50  C   UNL     1     -10.164  14.915  -4.328  1.00  0.00     0.029 A 
ATOM     51  C   UNL     1      -9.967  14.765  -5.767  1.00  0.00     0.049 A 
ATOM     52  H   UNL     1      -8.159  14.754  -6.803  1.00  0.00     0.167 HD
ATOM     53  C   UNL     1      -4.287  14.533  -8.813  1.00  0.00     0.031 A 
ATOM     54  C   UNL     1     -10.956  14.614  -6.670  1.00  0.00     0.031 A 
ATOM     55  C   UNL     1      -5.274  14.369  -9.848  1.00  0.00     0.049 A 
ATOM     56  C   UNL     1     -10.604  14.468  -8.122  1.00  0.00     0.074 A 
ATOM     57  C   UNL     1      -5.067  14.165 -11.201  1.00  0.00     0.029 A 
ATOM     58  N   UNL     1      -6.647  14.384  -9.650  1.00  0.00    -0.354 N 
ATOM     59  N   UNL     1      -9.415  14.413  -8.674  1.00  0.00    -0.248 NA
ATOM     60  C   UNL     1     -11.718  14.371  -9.075  1.00  0.00     0.031 C 
ATOM     61  C   UNL     1      -6.313  14.117 -11.830  1.00  0.00     0.029 A 
ATOM     62  C   UNL     1      -7.298  14.221 -10.861  1.00  0.00     0.049 A 
ATOM     63  H   UNL     1      -7.091  14.495  -8.779  1.00  0.00     0.167 HD
ATOM     64  C   UNL     1      -9.637  14.267 -10.038  1.00  0.00     0.074 A 
ATOM     65  C   UNL     1     -11.073  14.223 -10.226  1.00  0.00     0.031 C 
ATOM     66  C   UNL     1      -8.729  14.184 -11.040  1.00  0.00     0.031 A 
BRANCH  53  67
ATOM     67  C   UNL     1      -2.836  14.492  -9.221  1.00  0.00    -0.014 A 
ATOM     68  C   UNL     1      -2.306  15.524 -10.019  1.00  0.00     0.010 A 
ATOM     69  C   UNL     1      -2.032  13.378  -8.922  1.00  0.00     0.010 A 
ATOM     70  C   UNL     1      -1.010  15.430 -10.534  1.00  0.00     0.020 A 
ATOM     71  C   UNL     1      -0.726  13.293  -9.414  1.00  0.00     0.020 A 
ATOM     72  C   UNL     1      -0.232  14.309 -10.236  1.00  0.00     0.054 A 
BRANCH  72  73
ATOM     73  S   UNL     1       1.441  14.192 -10.930  1.00  0.00     0.124 S 
ATOM     74  O   UNL     1       1.175  13.819 -12.315  1.00  0.00    -0.237 OA
ATOM     75  O   UNL     1       1.967  15.540 -10.727  1.00  0.00    -0.237 OA
ATOM     76  O   UNL     1       2.076  13.159 -10.113  1.00  0.00    -0.744 OA
ENDBRANCH  72  73
ENDBRANCH  53  67
BRANCH  54  77
ATOM     77  C   UNL     1     -12.367  14.580  -6.196  1.00  0.00    -0.014 A 
ATOM     78  C   UNL     1     -12.954  15.729  -5.632  1.00  0.00     0.010 A 
ATOM     79  C   UNL     1     -13.093  13.377  -6.208  1.00  0.00     0.010 A 
ATOM     80  C   UNL     1     -14.211  15.660  -5.028  1.00  0.00     0.020 A 
ATOM     81  C   UNL     1     -14.366  13.312  -5.631  1.00  0.00     0.020 A 
ATOM     82  C   UNL     1     -14.901  14.446  -5.015  1.00  0.00     0.054 A 
BRANCH  82  83
ATOM     83  S   UNL     1     -16.502  14.361  -4.165  1.00  0.00     0.124 S 
ATOM     84  O   UNL     1     -16.092  14.306  -2.764  1.00  0.00    -0.237 OA
ATOM     85  O   UNL     1     -17.152  15.601  -4.581  1.00  0.00    -0.237 OA
ATOM     86  O   UNL     1     -17.103  13.139  -4.691  1.00  0.00    -0.744 OA
ENDBRANCH  82  83
ENDBRANCH  54  77
BRANCH  66  87
ATOM     87  C   UNL     1      -9.236  14.042 -12.450  1.00  0.00    -0.014 A 
ATOM     88  C   UNL     1      -9.020  12.841 -13.151  1.00  0.00     0.010 A 
ATOM     89  C   UNL     1      -9.789  15.143 -13.127  1.00  0.00     0.010 A 
ATOM     90  C   UNL     1      -9.306  12.756 -14.516  1.00  0.00     0.020 A 
ATOM     91  C   UNL     1     -10.101  15.053 -14.486  1.00  0.00     0.020 A 
ATOM     92  C   UNL     1      -9.831  13.869 -15.178  1.00  0.00     0.054 A 
BRANCH  92  93
ATOM     93  S   UNL     1     -10.145  13.758 -16.961  1.00  0.00     0.124 S 
ATOM     94  O   UNL     1      -8.801  13.874 -17.517  1.00  0.00    -0.237 OA
ATOM     95  O   UNL     1     -10.771  12.444 -17.096  1.00  0.00    -0.237 OA
ATOM     96  O   UNL     1     -11.031  14.890 -17.223  1.00  0.00    -0.744 OA
ENDBRANCH  92  93
ENDBRANCH  66  87
ENDBRANCH  40  41
ENDBRANCH  32  35
ENDBRANCH  30  31
ENDBRANCH  29  30
ENDBRANCH  28  29
ENDBRANCH   1  28
TORSDOF 20
