REMARK SMILES C[N@H+]1CCO[C@H](c2noc(-c3ccccc3C(=O)NCCCCCCNC(=O)c3ccc(-c4c5nc(c(-c6ccc(S(=O)(=O)[O-])cc6)c6ccc([nH]6)c(-c6ccc(S(=O)(=O)[O-])cc6)c6nc(c(-c7ccc(S(=O)(=O)[O-])cc7)c7ccc4[nH]7)C=C6)C=C5)cc3)n2)C1
REMARK SMILES IDX 23 1 22 2 21 3 20 4 19 5 17 6 18 7 16 9 11 10 12 11 13 12
REMARK SMILES IDX 15 13 14 14 10 15 7 16 8 17 89 18 9 19 6 20 1 21 2 22 3 23
REMARK SMILES IDX 90 24 4 26 5 27 24 28 25 29 26 30 27 31 28 33 29 34 30 35
REMARK SMILES IDX 88 36 31 37 87 38 32 39 33 40 34 41 81 42 35 43 86 44 80 45
REMARK SMILES IDX 82 46 36 47 85 48 79 49 78 50 37 52 67 53 48 54 66 55 49 56
REMARK SMILES IDX 52 57 65 58 83 59 50 60 51 61 64 63 84 64 53 65 38 66 39 67
REMARK SMILES IDX 47 68 40 69 46 70 41 71 42 72 43 73 44 74 45 75 68 76 69 77
REMARK SMILES IDX 77 78 70 79 76 80 71 81 72 82 73 83 74 84 75 85 54 86 55 87
REMARK SMILES IDX 63 88 56 89 62 90 57 91 58 92 59 93 60 94 61 95
REMARK H PARENT 19 8 2 25 26 32 82 51 52 62
REMARK Flexibility Score: inf
ROOT
ATOM      1  C   UNL     1       3.932  -0.463  -4.181  1.00  0.00     0.002 C 
ENDROOT
BRANCH   1   2
ATOM      2  C   UNL     1       4.062  -1.147  -5.546  1.00  0.00     0.002 C 
BRANCH   2   3
ATOM      3  C   UNL     1       3.935  -2.678  -5.584  1.00  0.00     0.021 C 
BRANCH   3   4
ATOM      4  C   UNL     1       2.807  -3.317  -4.775  1.00  0.00     0.116 C 
BRANCH   4   5
ATOM      5  N   UNL     1       1.477  -3.176  -5.339  1.00  0.00    -0.352 N 
ATOM      6  C   UNL     1       0.411  -4.052  -5.316  1.00  0.00     0.252 C 
ATOM      7  O   UNL     1      -0.662  -3.698  -5.804  1.00  0.00    -0.269 OA
ATOM      8  H   UNL     1       1.310  -2.328  -5.809  1.00  0.00     0.163 HD
BRANCH   6   9
ATOM      9  C   UNL     1       0.541  -5.461  -4.842  1.00  0.00     0.052 A 
ATOM     10  C   UNL     1       1.038  -5.859  -3.587  1.00  0.00     0.053 A 
ATOM     11  C   UNL     1       1.182  -7.235  -3.318  1.00  0.00     0.015 A 
ATOM     12  C   UNL     1       0.762  -8.197  -4.238  1.00  0.00     0.001 A 
ATOM     13  C   UNL     1       0.079  -6.441  -5.741  1.00  0.00     0.014 A 
ATOM     14  C   UNL     1       0.183  -7.800  -5.439  1.00  0.00     0.001 A 
BRANCH  10  15
ATOM     15  C   UNL     1       1.337  -4.902  -2.540  1.00  0.00     0.258 A 
ATOM     16  C   UNL     1       1.561  -3.243  -1.282  1.00  0.00     0.206 A 
ATOM     17  N   UNL     1       2.618  -4.009  -0.968  1.00  0.00    -0.059 NA
ATOM     18  N   UNL     1       0.733  -3.780  -2.239  1.00  0.00    -0.189 NA
ATOM     19  O   UNL     1       2.465  -5.122  -1.801  1.00  0.00    -0.334 OA
BRANCH  16  20
ATOM     20  C   UNL     1       1.381  -1.845  -0.766  1.00  0.00     0.245 C 
ATOM     21  C   UNL     1      -0.219   0.243   0.942  1.00  0.00     0.332 C 
ATOM     22  N   UNL     1      -0.373   0.004  -0.492  1.00  0.00    -0.333 N 
ATOM     23  C   UNL     1       0.541   0.850  -1.285  1.00  0.00     0.290 C 
ATOM     24  C   UNL     1      -0.109  -1.416  -0.837  1.00  0.00     0.303 C 
ATOM     25  H   UNL     1      -1.340   0.239  -0.719  1.00  0.00     0.348 HD
ATOM     26  C   UNL     1       2.010   0.427  -1.167  1.00  0.00     0.222 C 
ATOM     27  O   UNL     1       2.181  -0.938  -1.551  1.00  0.00    -0.358 OA
ENDBRANCH  16  20
ENDBRANCH  10  15
ENDBRANCH   6   9
ENDBRANCH   4   5
ENDBRANCH   3   4
ENDBRANCH   2   3
ENDBRANCH   1   2
BRANCH   1  28
ATOM     28  C   UNL     1       4.864  -0.972  -3.074  1.00  0.00     0.021 C 
BRANCH  28  29
ATOM     29  C   UNL     1       6.283  -0.421  -3.104  1.00  0.00     0.116 C 
BRANCH  29  30
ATOM     30  N   UNL     1       6.330   1.002  -2.782  1.00  0.00    -0.352 N 
ATOM     31  C   UNL     1       6.751   1.707  -1.679  1.00  0.00     0.251 C 
ATOM     32  H   UNL     1       5.989   1.577  -3.505  1.00  0.00     0.163 HD
ATOM     33  O   UNL     1       6.454   2.901  -1.619  1.00  0.00    -0.269 OA
BRANCH  31  34
ATOM     34  C   UNL     1       7.530   1.101  -0.565  1.00  0.00     0.039 A 
ATOM     35  C   UNL     1       7.480   1.713   0.698  1.00  0.00     0.014 A 
ATOM     36  C   UNL     1       8.371   0.004  -0.734  1.00  0.00     0.014 A 
ATOM     37  C   UNL     1       8.221   1.202   1.773  1.00  0.00     0.010 A 
ATOM     38  C   UNL     1       9.014  -0.577   0.361  1.00  0.00     0.010 A 
ATOM     39  C   UNL     1       8.970   0.026   1.625  1.00  0.00    -0.014 A 
BRANCH  39  40
ATOM     40  C   UNL     1       9.745  -0.571   2.751  1.00  0.00     0.031 A 
ATOM     41  C   UNL     1      11.235  -0.788   2.616  1.00  0.00     0.074 A 
ATOM     42  C   UNL     1       9.108  -0.994   3.862  1.00  0.00     0.049 A 
ATOM     43  N   UNL     1      12.058  -1.408   3.424  1.00  0.00    -0.248 NA
ATOM     44  C   UNL     1      11.876  -0.276   1.393  1.00  0.00     0.031 C 
ATOM     45  C   UNL     1       7.668  -0.888   4.109  1.00  0.00     0.029 A 
ATOM     46  N   UNL     1       9.589  -1.611   4.992  1.00  0.00    -0.354 N 
ATOM     47  C   UNL     1      13.297  -1.396   2.789  1.00  0.00     0.074 A 
ATOM     48  C   UNL     1      13.107  -0.753   1.508  1.00  0.00     0.031 C 
ATOM     49  C   UNL     1       7.389  -1.392   5.322  1.00  0.00     0.029 A 
ATOM     50  C   UNL     1       8.617  -1.902   5.920  1.00  0.00     0.049 A 
ATOM     51  H   UNL     1      10.541  -1.825   5.124  1.00  0.00     0.167 HD
ATOM     52  C   UNL     1      14.490  -1.858   3.236  1.00  0.00     0.031 A 
ATOM     53  C   UNL     1       8.698  -2.520   7.116  1.00  0.00     0.031 A 
ATOM     54  C   UNL     1      14.688  -2.456   4.529  1.00  0.00     0.049 A 
ATOM     55  C   UNL     1      10.037  -3.000   7.604  1.00  0.00     0.074 A 
ATOM     56  C   UNL     1      15.869  -2.888   5.106  1.00  0.00     0.029 A 
ATOM     57  N   UNL     1      13.680  -2.697   5.451  1.00  0.00    -0.354 N 
ATOM     58  N   UNL     1      11.204  -2.931   7.009  1.00  0.00    -0.248 NA
ATOM     59  C   UNL     1      10.073  -3.631   8.931  1.00  0.00     0.031 C 
ATOM     60  C   UNL     1      15.570  -3.431   6.360  1.00  0.00     0.029 A 
ATOM     61  C   UNL     1      14.210  -3.287   6.586  1.00  0.00     0.049 A 
ATOM     62  H   UNL     1      12.729  -2.482   5.318  1.00  0.00     0.167 HD
ATOM     63  C   UNL     1      12.116  -3.487   7.899  1.00  0.00     0.074 A 
ATOM     64  C   UNL     1      11.368  -3.872   9.079  1.00  0.00     0.031 C 
ATOM     65  C   UNL     1      13.453  -3.662   7.753  1.00  0.00     0.031 A 
BRANCH  52  66
ATOM     66  C   UNL     1      15.680  -1.730   2.317  1.00  0.00    -0.014 A 
ATOM     67  C   UNL     1      16.233  -0.472   2.012  1.00  0.00     0.010 A 
ATOM     68  C   UNL     1      16.277  -2.885   1.781  1.00  0.00     0.010 A 
ATOM     69  C   UNL     1      17.328  -0.370   1.149  1.00  0.00     0.020 A 
ATOM     70  C   UNL     1      17.392  -2.789   0.942  1.00  0.00     0.020 A 
ATOM     71  C   UNL     1      17.898  -1.529   0.616  1.00  0.00     0.054 A 
BRANCH  71  72
ATOM     72  S   UNL     1      19.331  -1.371  -0.486  1.00  0.00     0.124 S 
ATOM     73  O   UNL     1      18.712  -0.856  -1.708  1.00  0.00    -0.237 OA
ATOM     74  O   UNL     1      20.181  -0.418   0.230  1.00  0.00    -0.237 OA
ATOM     75  O   UNL     1      19.855  -2.724  -0.575  1.00  0.00    -0.744 OA
ENDBRANCH  71  72
ENDBRANCH  52  66
BRANCH  53  76
ATOM     76  C   UNL     1       7.473  -2.701   7.943  1.00  0.00    -0.014 A 
ATOM     77  C   UNL     1       7.291  -1.951   9.118  1.00  0.00     0.010 A 
ATOM     78  C   UNL     1       6.472  -3.608   7.550  1.00  0.00     0.010 A 
ATOM     79  C   UNL     1       6.139  -2.115   9.893  1.00  0.00     0.020 A 
ATOM     80  C   UNL     1       5.306  -3.754   8.307  1.00  0.00     0.020 A 
ATOM     81  C   UNL     1       5.152  -3.014   9.481  1.00  0.00     0.054 A 
BRANCH  81  82
ATOM     82  S   UNL     1       3.638  -3.166  10.470  1.00  0.00     0.124 S 
ATOM     83  O   UNL     1       4.107  -3.922  11.627  1.00  0.00    -0.237 OA
ATOM     84  O   UNL     1       3.285  -1.771  10.725  1.00  0.00    -0.237 OA
ATOM     85  O   UNL     1       2.721  -3.880   9.584  1.00  0.00    -0.744 OA
ENDBRANCH  81  82
ENDBRANCH  53  76
BRANCH  65  86
ATOM     86  C   UNL     1      14.203  -4.265   8.909  1.00  0.00    -0.014 A 
ATOM     87  C   UNL     1      14.085  -5.630   9.223  1.00  0.00     0.010 A 
ATOM     88  C   UNL     1      15.084  -3.462   9.657  1.00  0.00     0.010 A 
ATOM     89  C   UNL     1      14.813  -6.175  10.284  1.00  0.00     0.020 A 
ATOM     90  C   UNL     1      15.833  -4.009  10.701  1.00  0.00     0.020 A 
ATOM     91  C   UNL     1      15.682  -5.361  11.016  1.00  0.00     0.054 A 
BRANCH  91  92
ATOM     92  S   UNL     1      16.649  -6.102  12.360  1.00  0.00     0.124 S 
ATOM     93  O   UNL     1      15.639  -6.281  13.399  1.00  0.00    -0.237 OA
ATOM     94  O   UNL     1      17.152  -7.332  11.753  1.00  0.00    -0.237 OA
ATOM     95  O   UNL     1      17.669  -5.096  12.649  1.00  0.00    -0.744 OA
ENDBRANCH  91  92
ENDBRANCH  65  86
ENDBRANCH  39  40
ENDBRANCH  31  34
ENDBRANCH  29  30
ENDBRANCH  28  29
ENDBRANCH   1  28
TORSDOF 18
