REMARK SMILES Cc1ccc(O)c(C(=O)NCc2ccc(C(=O)NCCCCCCNC(=O)c3ccc(-c4c5nc(c(-c6ccc(S(=O)(=O)[O-])cc6)c6ccc([nH]6)c(-c6ccc(S(=O)(=O)[O-])cc6)c6nc(c(-c7ccc(S(=O)(=O)[O-])cc7)c7ccc4[nH]7)C=C6)C=C5)cc3)o2)c1
REMARK SMILES IDX 21 1 20 2 19 3 18 4 16 5 17 6 15 8 12 9 13 10 88 11 14 12
REMARK SMILES IDX 11 13 10 14 8 15 9 16 7 18 1 19 2 20 3 21 89 22 4 23 5 24
REMARK SMILES IDX 6 25 22 27 23 28 24 29 25 30 26 31 27 33 28 34 29 35 87 36
REMARK SMILES IDX 30 37 86 38 31 39 32 40 33 41 80 42 34 43 85 44 79 45 81 46
REMARK SMILES IDX 35 47 84 48 78 49 77 50 36 52 66 53 47 54 65 55 48 56 51 57
REMARK SMILES IDX 64 58 82 59 49 60 50 61 63 63 83 64 52 65 37 66 38 67 46 68
REMARK SMILES IDX 39 69 45 70 40 71 41 72 42 73 43 74 44 75 67 76 68 77 76 78
REMARK SMILES IDX 69 79 75 80 70 81 71 82 72 83 73 84 74 85 53 86 54 87 62 88
REMARK SMILES IDX 55 89 61 90 56 91 57 92 58 93 59 94 60 95
REMARK H PARENT 18 7 10 17 6 26 25 32 81 51 51 62
REMARK Flexibility Score: inf
ROOT
ATOM      1  C   UNL     1       2.020  -7.985   7.341  1.00  0.00     0.002 C 
ENDROOT
BRANCH   1   2
ATOM      2  C   UNL     1       1.963  -6.728   6.464  1.00  0.00     0.021 C 
BRANCH   2   3
ATOM      3  C   UNL     1       2.879  -6.809   5.245  1.00  0.00     0.116 C 
BRANCH   3   4
ATOM      4  N   UNL     1       2.286  -7.624   4.209  1.00  0.00    -0.349 N 
ATOM      5  C   UNL     1       1.744  -7.319   2.987  1.00  0.00     0.286 C 
ATOM      6  O   UNL     1       1.309  -8.290   2.353  1.00  0.00    -0.266 OA
ATOM      7  H   UNL     1       2.268  -8.585   4.421  1.00  0.00     0.163 HD
BRANCH   5   8
ATOM      8  C   UNL     1       1.699  -5.966   2.464  1.00  0.00     0.191 A 
ATOM      9  C   UNL     1       1.255  -4.525   0.829  1.00  0.00     0.124 A 
ATOM     10  C   UNL     1       1.740  -3.783   1.879  1.00  0.00     0.048 A 
ATOM     11  O   UNL     1       1.245  -5.842   1.170  1.00  0.00    -0.454 OA
ATOM     12  C   UNL     1       1.986  -4.695   2.932  1.00  0.00     0.056 A 
BRANCH   9  13
ATOM     13  C   UNL     1       0.708  -4.199  -0.509  1.00  0.00     0.191 C 
BRANCH  13  14
ATOM     14  N   UNL     1      -0.640  -3.704  -0.330  1.00  0.00    -0.345 N 
ATOM     15  C   UNL     1      -1.212  -2.474  -0.169  1.00  0.00     0.255 C 
ATOM     16  O   UNL     1      -2.442  -2.468  -0.031  1.00  0.00    -0.269 OA
ATOM     17  H   UNL     1      -1.306  -4.429  -0.322  1.00  0.00     0.164 HD
BRANCH  15  18
ATOM     18  C   UNL     1      -0.505  -1.154  -0.149  1.00  0.00     0.081 A 
ATOM     19  C   UNL     1       2.984   0.408   0.057  1.00  0.00     0.044 C 
ATOM     20  C   UNL     1       1.490   0.275  -0.035  1.00  0.00    -0.050 A 
ATOM     21  C   UNL     1       0.687   1.415  -0.032  1.00  0.00     0.007 A 
ATOM     22  C   UNL     1       0.886  -0.993  -0.106  1.00  0.00     0.021 A 
ATOM     23  C   UNL     1      -0.697   1.288  -0.082  1.00  0.00     0.047 A 
ATOM     24  C   UNL     1      -1.284   0.021  -0.129  1.00  0.00     0.128 A 
BRANCH  24  25
ATOM     25  O   UNL     1      -2.657   0.025  -0.145  1.00  0.00    -0.507 OA
ATOM     26  H   UNL     1      -3.123   0.837  -0.130  1.00  0.00     0.293 HD
ENDBRANCH  24  25
ENDBRANCH  15  18
ENDBRANCH  13  14
ENDBRANCH   9  13
ENDBRANCH   5   8
ENDBRANCH   3   4
ENDBRANCH   2   3
ENDBRANCH   1   2
BRANCH   1  27
ATOM     27  C   UNL     1       3.423  -8.350   7.846  1.00  0.00     0.002 C 
BRANCH  27  28
ATOM     28  C   UNL     1       4.170  -7.210   8.546  1.00  0.00     0.021 C 
BRANCH  28  29
ATOM     29  C   UNL     1       3.465  -6.676   9.786  1.00  0.00     0.116 C 
BRANCH  29  30
ATOM     30  N   UNL     1       3.339  -7.703  10.807  1.00  0.00    -0.352 N 
ATOM     31  C   UNL     1       3.749  -7.680  12.113  1.00  0.00     0.251 C 
ATOM     32  H   UNL     1       2.894  -8.533  10.518  1.00  0.00     0.163 HD
ATOM     33  O   UNL     1       3.791  -8.726  12.757  1.00  0.00    -0.269 OA
BRANCH  31  34
ATOM     34  C   UNL     1       4.143  -6.402  12.742  1.00  0.00     0.039 A 
ATOM     35  C   UNL     1       5.235  -6.385  13.611  1.00  0.00     0.014 A 
ATOM     36  C   UNL     1       3.413  -5.232  12.507  1.00  0.00     0.014 A 
ATOM     37  C   UNL     1       5.606  -5.190  14.229  1.00  0.00     0.010 A 
ATOM     38  C   UNL     1       3.837  -4.026  13.054  1.00  0.00     0.010 A 
ATOM     39  C   UNL     1       4.919  -3.998  13.946  1.00  0.00    -0.014 A 
BRANCH  39  40
ATOM     40  C   UNL     1       5.288  -2.726  14.617  1.00  0.00     0.031 A 
ATOM     41  C   UNL     1       4.306  -2.048  15.537  1.00  0.00     0.074 A 
ATOM     42  C   UNL     1       6.491  -2.169  14.380  1.00  0.00     0.049 A 
ATOM     43  N   UNL     1       4.440  -0.935  16.211  1.00  0.00    -0.248 NA
ATOM     44  C   UNL     1       2.991  -2.691  15.703  1.00  0.00     0.031 C 
ATOM     45  C   UNL     1       7.512  -2.708  13.478  1.00  0.00     0.029 A 
ATOM     46  N   UNL     1       7.062  -1.028  14.883  1.00  0.00    -0.354 N 
ATOM     47  C   UNL     1       3.228  -0.739  16.865  1.00  0.00     0.074 A 
ATOM     48  C   UNL     1       2.350  -1.812  16.458  1.00  0.00     0.031 C 
ATOM     49  C   UNL     1       8.597  -1.918  13.521  1.00  0.00     0.029 A 
ATOM     50  C   UNL     1       8.337  -0.799  14.422  1.00  0.00     0.049 A 
ATOM     51  H   UNL     1       6.602  -0.428  15.515  1.00  0.00     0.167 HD
ATOM     52  C   UNL     1       2.884   0.231  17.746  1.00  0.00     0.031 A 
ATOM     53  C   UNL     1       9.201   0.197  14.697  1.00  0.00     0.031 A 
ATOM     54  C   UNL     1       3.766   1.291  18.157  1.00  0.00     0.049 A 
ATOM     55  C   UNL     1       8.796   1.263  15.678  1.00  0.00     0.074 A 
ATOM     56  C   UNL     1       3.533   2.296  19.080  1.00  0.00     0.029 A 
ATOM     57  N   UNL     1       5.051   1.484  17.671  1.00  0.00    -0.354 N 
ATOM     58  N   UNL     1       7.666   1.397  16.333  1.00  0.00    -0.248 NA
ATOM     59  C   UNL     1       9.792   2.300  15.974  1.00  0.00     0.031 C 
ATOM     60  C   UNL     1       4.656   3.129  19.110  1.00  0.00     0.029 A 
ATOM     61  C   UNL     1       5.616   2.603  18.259  1.00  0.00     0.049 A 
ATOM     62  H   UNL     1       5.495   0.910  17.006  1.00  0.00     0.167 HD
ATOM     63  C   UNL     1       7.830   2.515  17.145  1.00  0.00     0.074 A 
ATOM     64  C   UNL     1       9.174   3.005  16.910  1.00  0.00     0.031 C 
ATOM     65  C   UNL     1       6.952   3.083  18.009  1.00  0.00     0.031 A 
BRANCH  52  66
ATOM     66  C   UNL     1       1.490   0.189  18.319  1.00  0.00    -0.014 A 
ATOM     67  C   UNL     1       1.092  -0.837  19.197  1.00  0.00     0.010 A 
ATOM     68  C   UNL     1       0.572   1.206  18.000  1.00  0.00     0.010 A 
ATOM     69  C   UNL     1      -0.208  -0.870  19.707  1.00  0.00     0.020 A 
ATOM     70  C   UNL     1      -0.720   1.195  18.535  1.00  0.00     0.020 A 
ATOM     71  C   UNL     1      -1.107   0.147  19.372  1.00  0.00     0.054 A 
BRANCH  71  72
ATOM     72  S   UNL     1      -2.781   0.090  20.068  1.00  0.00     0.124 S 
ATOM     73  O   UNL     1      -3.375  -1.023  19.333  1.00  0.00    -0.237 OA
ATOM     74  O   UNL     1      -2.529  -0.156  21.486  1.00  0.00    -0.237 OA
ATOM     75  O   UNL     1      -3.331   1.407  19.756  1.00  0.00    -0.744 OA
ENDBRANCH  71  72
ENDBRANCH  52  66
BRANCH  53  76
ATOM     76  C   UNL     1      10.544   0.218  14.053  1.00  0.00    -0.014 A 
ATOM     77  C   UNL     1      11.706  -0.011  14.811  1.00  0.00     0.010 A 
ATOM     78  C   UNL     1      10.666   0.462  12.673  1.00  0.00     0.010 A 
ATOM     79  C   UNL     1      12.966   0.031  14.207  1.00  0.00     0.020 A 
ATOM     80  C   UNL     1      11.922   0.472  12.060  1.00  0.00     0.020 A 
ATOM     81  C   UNL     1      13.066   0.270  12.834  1.00  0.00     0.054 A 
BRANCH  81  82
ATOM     82  S   UNL     1      14.708   0.274  12.063  1.00  0.00     0.124 S 
ATOM     83  O   UNL     1      15.273   1.524  12.559  1.00  0.00    -0.237 OA
ATOM     84  O   UNL     1      15.307  -0.948  12.593  1.00  0.00    -0.237 OA
ATOM     85  O   UNL     1      14.413   0.244  10.632  1.00  0.00    -0.744 OA
ENDBRANCH  81  82
ENDBRANCH  53  76
BRANCH  65  86
ATOM     86  C   UNL     1       7.435   4.272  18.799  1.00  0.00    -0.014 A 
ATOM     87  C   UNL     1       7.698   5.509  18.183  1.00  0.00     0.010 A 
ATOM     88  C   UNL     1       7.615   4.149  20.189  1.00  0.00     0.010 A 
ATOM     89  C   UNL     1       8.190   6.581  18.933  1.00  0.00     0.020 A 
ATOM     90  C   UNL     1       8.071   5.229  20.948  1.00  0.00     0.020 A 
ATOM     91  C   UNL     1       8.379   6.431  20.310  1.00  0.00     0.054 A 
BRANCH  91  92
ATOM     92  S   UNL     1       9.019   7.836  21.262  1.00  0.00     0.124 S 
ATOM     93  O   UNL     1      10.421   7.863  20.856  1.00  0.00    -0.237 OA
ATOM     94  O   UNL     1       8.203   8.948  20.780  1.00  0.00    -0.237 OA
ATOM     95  O   UNL     1       8.779   7.452  22.651  1.00  0.00    -0.744 OA
ENDBRANCH  91  92
ENDBRANCH  65  86
ENDBRANCH  39  40
ENDBRANCH  31  34
ENDBRANCH  29  30
ENDBRANCH  28  29
ENDBRANCH  27  28
ENDBRANCH   1  27
TORSDOF 20
