REMARK SMILES O=C(NCCCCCCNC(=O)c1cccc(Oc2ncc([N+](=O)[O-])cc2Br)c1)c1ccc(-c2c3nc(c(-c4ccc(S(=O)(=O)[O-])cc4)c4ccc([nH]4)c(-c4ccc(S(=O)(=O)[O-])cc4)c4nc(c(-c5ccc(S(=O)(=O)[O-])cc5)c5ccc2[nH]5)C=C4)C=C3)cc1
REMARK SMILES IDX 6 1 5 2 4 3 3 4 1 5 2 6 30 8 31 9 89 10 32 11 88 12 33 13
REMARK SMILES IDX 34 14 35 15 82 16 36 17 87 18 81 19 83 20 37 21 86 22 80 23
REMARK SMILES IDX 79 24 38 26 68 27 49 28 67 29 50 30 53 31 66 32 84 33 51 34
REMARK SMILES IDX 52 35 65 37 85 38 54 39 39 40 40 41 48 42 41 43 47 44 42 45
REMARK SMILES IDX 43 46 44 47 45 48 46 49 69 50 70 51 78 52 71 53 77 54 72 55
REMARK SMILES IDX 73 56 74 57 75 58 76 59 55 60 56 61 64 62 57 63 63 64 58 65
REMARK SMILES IDX 59 66 60 67 61 68 62 69 7 70 8 71 9 72 10 73 11 74 12 76
REMARK SMILES IDX 13 77 14 78 29 79 15 80 17 81 16 82 18 83 19 84 20 85 27 86
REMARK SMILES IDX 21 87 26 88 28 89 22 90 23 91 24 92 25 93
REMARK H PARENT 3 7 83 25 53 36 10 75
REMARK Flexibility Score: inf
ROOT
ATOM      1  C   UNL     1       4.178   3.508   1.684  1.00  0.00     0.002 C 
ENDROOT
BRANCH   1   2
ATOM      2  C   UNL     1       4.672   2.660   0.512  1.00  0.00     0.021 C 
BRANCH   2   3
ATOM      3  C   UNL     1       4.388   1.170   0.645  1.00  0.00     0.116 C 
BRANCH   3   4
ATOM      4  N   UNL     1       2.965   0.881   0.662  1.00  0.00    -0.352 N 
ATOM      5  O   UNL     1       1.037   0.007  -0.118  1.00  0.00    -0.269 OA
ATOM      6  C   UNL     1       2.265   0.003  -0.127  1.00  0.00     0.251 C 
ATOM      7  H   UNL     1       2.434   1.379   1.325  1.00  0.00     0.163 HD
BRANCH   6   8
ATOM      8  C   UNL     1       3.006  -0.938  -0.992  1.00  0.00     0.039 A 
ATOM      9  C   UNL     1       4.092  -1.657  -0.483  1.00  0.00     0.014 A 
ATOM     10  C   UNL     1       2.601  -1.115  -2.317  1.00  0.00     0.014 A 
ATOM     11  C   UNL     1       4.833  -2.477  -1.324  1.00  0.00     0.010 A 
ATOM     12  C   UNL     1       3.297  -2.004  -3.139  1.00  0.00     0.010 A 
ATOM     13  C   UNL     1       4.419  -2.691  -2.648  1.00  0.00    -0.014 A 
BRANCH  13  14
ATOM     14  C   UNL     1       5.077  -3.751  -3.450  1.00  0.00     0.031 A 
ATOM     15  C   UNL     1       5.857  -3.431  -4.692  1.00  0.00     0.074 A 
ATOM     16  C   UNL     1       4.936  -5.027  -3.036  1.00  0.00     0.049 A 
ATOM     17  N   UNL     1       6.463  -4.254  -5.508  1.00  0.00    -0.248 NA
ATOM     18  C   UNL     1       5.972  -2.014  -5.074  1.00  0.00     0.031 C 
ATOM     19  C   UNL     1       4.181  -5.449  -1.850  1.00  0.00     0.029 A 
ATOM     20  N   UNL     1       5.414  -6.202  -3.554  1.00  0.00    -0.354 N 
ATOM     21  C   UNL     1       7.009  -3.465  -6.513  1.00  0.00     0.074 A 
ATOM     22  C   UNL     1       6.659  -2.094  -6.208  1.00  0.00     0.031 C 
ATOM     23  C   UNL     1       4.268  -6.779  -1.720  1.00  0.00     0.029 A 
ATOM     24  C   UNL     1       5.019  -7.313  -2.848  1.00  0.00     0.049 A 
ATOM     25  H   UNL     1       5.985  -6.245  -4.355  1.00  0.00     0.167 HD
ATOM     26  C   UNL     1       7.730  -3.858  -7.590  1.00  0.00     0.031 A 
ATOM     27  C   UNL     1       5.200  -8.623  -3.098  1.00  0.00     0.031 A 
ATOM     28  C   UNL     1       8.073  -5.229  -7.874  1.00  0.00     0.049 A 
ATOM     29  C   UNL     1       5.967  -9.023  -4.325  1.00  0.00     0.074 A 
ATOM     30  C   UNL     1       8.863  -5.718  -8.901  1.00  0.00     0.029 A 
ATOM     31  N   UNL     1       7.636  -6.327  -7.149  1.00  0.00    -0.354 N 
ATOM     32  N   UNL     1       6.551  -8.255  -5.213  1.00  0.00    -0.248 NA
ATOM     33  C   UNL     1       6.095 -10.462  -4.588  1.00  0.00     0.031 C 
ATOM     34  C   UNL     1       8.842  -7.115  -8.840  1.00  0.00     0.029 A 
ATOM     35  C   UNL     1       8.095  -7.494  -7.737  1.00  0.00     0.049 A 
ATOM     36  H   UNL     1       7.082  -6.284  -6.336  1.00  0.00     0.167 HD
ATOM     37  C   UNL     1       7.121  -9.120  -6.139  1.00  0.00     0.074 A 
ATOM     38  C   UNL     1       6.843 -10.466  -5.682  1.00  0.00     0.031 C 
ATOM     39  C   UNL     1       7.803  -8.826  -7.272  1.00  0.00     0.031 A 
BRANCH  26  40
ATOM     40  C   UNL     1       8.183  -2.812  -8.574  1.00  0.00    -0.014 A 
ATOM     41  C   UNL     1       9.245  -1.941  -8.279  1.00  0.00     0.010 A 
ATOM     42  C   UNL     1       7.619  -2.791  -9.865  1.00  0.00     0.010 A 
ATOM     43  C   UNL     1       9.732  -1.065  -9.255  1.00  0.00     0.020 A 
ATOM     44  C   UNL     1       8.117  -1.932 -10.849  1.00  0.00     0.020 A 
ATOM     45  C   UNL     1       9.169  -1.071 -10.536  1.00  0.00     0.054 A 
BRANCH  45  46
ATOM     46  S   UNL     1       9.876   0.021 -11.802  1.00  0.00     0.124 S 
ATOM     47  O   UNL     1       9.453   1.339 -11.335  1.00  0.00    -0.237 OA
ATOM     48  O   UNL     1      11.307  -0.253 -11.695  1.00  0.00    -0.237 OA
ATOM     49  O   UNL     1       9.249  -0.431 -13.041  1.00  0.00    -0.744 OA
ENDBRANCH  45  46
ENDBRANCH  26  40
BRANCH  27  50
ATOM     50  C   UNL     1       4.584  -9.645  -2.209  1.00  0.00    -0.014 A 
ATOM     51  C   UNL     1       5.380 -10.509  -1.440  1.00  0.00     0.010 A 
ATOM     52  C   UNL     1       3.182  -9.764  -2.141  1.00  0.00     0.010 A 
ATOM     53  C   UNL     1       4.788 -11.498  -0.649  1.00  0.00     0.020 A 
ATOM     54  C   UNL     1       2.586 -10.726  -1.324  1.00  0.00     0.020 A 
ATOM     55  C   UNL     1       3.394 -11.602  -0.600  1.00  0.00     0.054 A 
BRANCH  55  56
ATOM     56  S   UNL     1       2.646 -12.887   0.438  1.00  0.00     0.124 S 
ATOM     57  O   UNL     1       2.904 -14.092  -0.342  1.00  0.00    -0.237 OA
ATOM     58  O   UNL     1       3.400 -12.765   1.684  1.00  0.00    -0.237 OA
ATOM     59  O   UNL     1       1.244 -12.483   0.525  1.00  0.00    -0.744 OA
ENDBRANCH  55  56
ENDBRANCH  27  50
BRANCH  39  60
ATOM     60  C   UNL     1       8.302  -9.983  -8.093  1.00  0.00    -0.014 A 
ATOM     61  C   UNL     1       7.411 -10.773  -8.841  1.00  0.00     0.010 A 
ATOM     62  C   UNL     1       9.681 -10.248  -8.163  1.00  0.00     0.010 A 
ATOM     63  C   UNL     1       7.889 -11.823  -9.628  1.00  0.00     0.020 A 
ATOM     64  C   UNL     1      10.166 -11.278  -8.973  1.00  0.00     0.020 A 
ATOM     65  C   UNL     1       9.265 -12.065  -9.692  1.00  0.00     0.054 A 
BRANCH  65  66
ATOM     66  S   UNL     1       9.863 -13.396 -10.769  1.00  0.00     0.124 S 
ATOM     67  O   UNL     1       9.450 -14.589 -10.037  1.00  0.00    -0.237 OA
ATOM     68  O   UNL     1       9.146 -13.143 -12.017  1.00  0.00    -0.237 OA
ATOM     69  O   UNL     1      11.306 -13.171 -10.829  1.00  0.00    -0.744 OA
ENDBRANCH  65  66
ENDBRANCH  39  60
ENDBRANCH  13  14
ENDBRANCH   6   8
ENDBRANCH   3   4
ENDBRANCH   2   3
ENDBRANCH   1   2
BRANCH   1  70
ATOM     70  C   UNL     1       4.668   3.061   3.065  1.00  0.00     0.002 C 
BRANCH  70  71
ATOM     71  C   UNL     1       6.185   2.907   3.204  1.00  0.00     0.021 C 
BRANCH  71  72
ATOM     72  C   UNL     1       6.987   4.157   2.859  1.00  0.00     0.116 C 
BRANCH  72  73
ATOM     73  N   UNL     1       6.692   5.251   3.770  1.00  0.00    -0.352 N 
ATOM     74  C   UNL     1       7.563   6.011   4.509  1.00  0.00     0.251 C 
ATOM     75  H   UNL     1       5.739   5.477   3.870  1.00  0.00     0.163 HD
ATOM     76  O   UNL     1       7.148   6.744   5.401  1.00  0.00    -0.269 OA
BRANCH  74  77
ATOM     77  C   UNL     1       9.009   5.963   4.209  1.00  0.00     0.043 A 
ATOM     78  C   UNL     1       9.930   5.864   5.250  1.00  0.00     0.014 A 
ATOM     79  C   UNL     1       9.445   6.088   2.886  1.00  0.00     0.061 A 
ATOM     80  C   UNL     1      11.294   5.838   4.958  1.00  0.00     0.005 A 
ATOM     81  C   UNL     1      10.808   6.072   2.588  1.00  0.00     0.130 A 
ATOM     82  C   UNL     1      11.729   5.937   3.631  1.00  0.00     0.047 A 
BRANCH  81  83
ATOM     83  O   UNL     1      11.343   6.224   1.323  1.00  0.00    -0.438 OA
BRANCH  83  84
ATOM     84  C   UNL     1      10.465   6.212   0.260  1.00  0.00     0.234 A 
ATOM     85  N   UNL     1      10.321   5.012  -0.359  1.00  0.00    -0.214 NA
ATOM     86  C   UNL     1       9.778   7.364  -0.129  1.00  0.00     0.087 A 
ATOM     87  C   UNL     1       9.433   4.945  -1.384  1.00  0.00     0.200 A 
ATOM     88  C   UNL     1       8.835   7.261  -1.151  1.00  0.00     0.108 A 
ATOM     89  Br  UNL     1      10.027   9.042   0.712  1.00  0.00    -0.045 Br
ATOM     90  C   UNL     1       8.663   6.027  -1.784  1.00  0.00     0.288 A 
BRANCH  90  91
ATOM     91  N   UNL     1       7.661   5.859  -2.826  1.00  0.00     0.064 N 
ATOM     92  O   UNL     1       7.639   4.783  -3.435  1.00  0.00    -0.258 OA
ATOM     93  O   UNL     1       6.875   6.798  -3.014  1.00  0.00    -0.258 OA
ENDBRANCH  90  91
ENDBRANCH  83  84
ENDBRANCH  81  83
ENDBRANCH  74  77
ENDBRANCH  72  73
ENDBRANCH  71  72
ENDBRANCH  70  71
ENDBRANCH   1  70
TORSDOF 19
