REMARK SMILES [NH3+]Cc1c(-c2ccccc2)c(C(=O)NCCCCCCNC(=O)c2ccc(-c3c4nc(c(-c5ccc(S(=O)(=O)[O-])cc5)c5ccc([nH]5)c(-c5ccc(S(=O)(=O)[O-])cc5)c5nc(c(-c6ccc(S(=O)(=O)[O-])cc6)c6ccc3[nH]6)C=C5)C=C4)cc2)c2ccccn12
REMARK SMILES IDX 18 1 17 2 16 3 15 4 14 5 12 6 13 7 11 9 3 10 4 11 89 12
REMARK SMILES IDX 84 13 88 14 85 15 87 16 86 17 2 18 1 19 5 23 6 24 10 25 7 26
REMARK SMILES IDX 9 27 8 28 19 29 20 30 21 31 22 32 23 34 24 35 25 36 83 37
REMARK SMILES IDX 26 38 82 39 27 40 28 41 29 42 76 43 30 44 81 45 75 46 77 47
REMARK SMILES IDX 31 48 80 49 74 50 73 51 32 53 62 54 43 55 61 56 44 57 47 58
REMARK SMILES IDX 60 59 78 60 45 61 46 62 59 64 79 65 48 66 33 67 34 68 42 69
REMARK SMILES IDX 35 70 41 71 36 72 37 73 38 74 39 75 40 76 63 77 64 78 72 79
REMARK SMILES IDX 65 80 71 81 66 82 67 83 68 84 69 85 70 86 49 87 50 88 58 89
REMARK SMILES IDX 51 90 57 91 52 92 53 93 54 94 55 95 56 96
REMARK H PARENT 14 8 1 20 1 21 1 22 21 33 77 52 47 63
REMARK Flexibility Score: inf
ROOT
ATOM      1  C   UNL     1       2.727   6.605  -7.593  1.00  0.00     0.002 C 
ENDROOT
BRANCH   1   2
ATOM      2  C   UNL     1       3.972   6.021  -6.921  1.00  0.00     0.002 C 
BRANCH   2   3
ATOM      3  C   UNL     1       3.948   5.843  -5.399  1.00  0.00     0.021 C 
BRANCH   3   4
ATOM      4  C   UNL     1       2.725   5.157  -4.793  1.00  0.00     0.116 C 
BRANCH   4   5
ATOM      5  N   UNL     1       2.465   3.823  -5.288  1.00  0.00    -0.352 N 
ATOM      6  C   UNL     1       1.839   2.745  -4.700  1.00  0.00     0.254 C 
ATOM      7  O   UNL     1       1.713   1.741  -5.403  1.00  0.00    -0.269 OA
ATOM      8  H   UNL     1       2.790   3.657  -6.202  1.00  0.00     0.163 HD
BRANCH   6   9
ATOM      9  C   UNL     1       1.411   2.759  -3.294  1.00  0.00     0.073 A 
ATOM     10  C   UNL     1       1.010   2.020  -1.135  1.00  0.00     0.086 A 
ATOM     11  C   UNL     1       1.442   1.621  -2.401  1.00  0.00     0.022 A 
ATOM     12  N   UNL     1       0.704   3.374  -1.236  1.00  0.00    -0.314 N 
ATOM     13  C   UNL     1       0.780   3.764  -2.574  1.00  0.00     0.059 A 
ATOM     14  C   UNL     1       0.345   4.271  -0.217  1.00  0.00     0.092 A 
ATOM     15  C   UNL     1       0.236   5.048  -2.893  1.00  0.00     0.027 A 
ATOM     16  C   UNL     1      -0.004   5.530  -0.520  1.00  0.00     0.018 A 
ATOM     17  C   UNL     1      -0.103   5.906  -1.913  1.00  0.00     0.004 A 
BRANCH  10  18
ATOM     18  C   UNL     1       0.786   1.309   0.170  1.00  0.00     0.315 C 
BRANCH  18  19
ATOM     19  N   UNL     1       1.429   0.012   0.295  1.00  0.00    -0.353 N 
ATOM     20  H   UNL     1       1.218  -0.385   1.210  1.00  0.00     0.344 HD
ATOM     21  H   UNL     1       2.438   0.123   0.197  1.00  0.00     0.344 HD
ATOM     22  H   UNL     1       1.083  -0.611  -0.434  1.00  0.00     0.344 HD
ENDBRANCH  18  19
ENDBRANCH  10  18
BRANCH  11  23
ATOM     23  C   UNL     1       1.830   0.258  -2.732  1.00  0.00    -0.016 A 
ATOM     24  C   UNL     1       3.179  -0.078  -2.878  1.00  0.00     0.009 A 
ATOM     25  C   UNL     1       0.847  -0.724  -2.914  1.00  0.00     0.009 A 
ATOM     26  C   UNL     1       3.542  -1.392  -3.184  1.00  0.00     0.001 A 
ATOM     27  C   UNL     1       1.214  -2.038  -3.208  1.00  0.00     0.001 A 
ATOM     28  C   UNL     1       2.561  -2.371  -3.342  1.00  0.00     0.000 A 
ENDBRANCH  11  23
ENDBRANCH   6   9
ENDBRANCH   4   5
ENDBRANCH   3   4
ENDBRANCH   2   3
ENDBRANCH   1   2
BRANCH   1  29
ATOM     29  C   UNL     1       2.184   7.932  -7.054  1.00  0.00     0.021 C 
BRANCH  29  30
ATOM     30  C   UNL     1       3.177   9.082  -6.908  1.00  0.00     0.116 C 
BRANCH  30  31
ATOM     31  N   UNL     1       3.859   9.420  -8.143  1.00  0.00    -0.352 N 
ATOM     32  C   UNL     1       4.106  10.642  -8.719  1.00  0.00     0.251 C 
ATOM     33  H   UNL     1       4.200   8.648  -8.649  1.00  0.00     0.163 HD
ATOM     34  O   UNL     1       4.638  10.677  -9.827  1.00  0.00    -0.269 OA
BRANCH  32  35
ATOM     35  C   UNL     1       3.717  11.912  -8.055  1.00  0.00     0.039 A 
ATOM     36  C   UNL     1       3.205  12.941  -8.854  1.00  0.00     0.014 A 
ATOM     37  C   UNL     1       3.888  12.129  -6.684  1.00  0.00     0.014 A 
ATOM     38  C   UNL     1       2.819  14.154  -8.278  1.00  0.00     0.010 A 
ATOM     39  C   UNL     1       3.442  13.319  -6.099  1.00  0.00     0.010 A 
ATOM     40  C   UNL     1       2.906  14.346  -6.889  1.00  0.00    -0.014 A 
BRANCH  40  41
ATOM     41  C   UNL     1       2.420  15.611  -6.274  1.00  0.00     0.031 A 
ATOM     42  C   UNL     1       3.374  16.568  -5.611  1.00  0.00     0.074 A 
ATOM     43  C   UNL     1       1.101  15.892  -6.297  1.00  0.00     0.049 A 
ATOM     44  N   UNL     1       3.127  17.737  -5.073  1.00  0.00    -0.248 NA
ATOM     45  C   UNL     1       4.783  16.154  -5.522  1.00  0.00     0.031 C 
ATOM     46  C   UNL     1       0.062  15.025  -6.859  1.00  0.00     0.029 A 
ATOM     47  N   UNL     1       0.409  16.989  -5.846  1.00  0.00    -0.354 N 
ATOM     48  C   UNL     1       4.343  18.194  -4.577  1.00  0.00     0.074 A 
ATOM     49  C   UNL     1       5.317  17.155  -4.835  1.00  0.00     0.031 C 
ATOM     50  C   UNL     1      -1.127  15.639  -6.753  1.00  0.00     0.029 A 
ATOM     51  C   UNL     1      -0.942  16.929  -6.096  1.00  0.00     0.049 A 
ATOM     52  H   UNL     1       0.840  17.746  -5.388  1.00  0.00     0.167 HD
ATOM     53  C   UNL     1       4.629  19.377  -3.980  1.00  0.00     0.031 A 
ATOM     54  C   UNL     1      -1.923  17.815  -5.837  1.00  0.00     0.031 A 
ATOM     55  C   UNL     1       3.663  20.414  -3.728  1.00  0.00     0.049 A 
ATOM     56  C   UNL     1      -1.578  19.129  -5.194  1.00  0.00     0.074 A 
ATOM     57  C   UNL     1       3.868  21.670  -3.182  1.00  0.00     0.029 A 
ATOM     58  N   UNL     1       2.307  20.317  -4.003  1.00  0.00    -0.354 N 
ATOM     59  N   UNL     1      -0.407  19.573  -4.803  1.00  0.00    -0.248 NA
ATOM     60  C   UNL     1      -2.686  20.069  -4.975  1.00  0.00     0.031 C 
ATOM     61  C   UNL     1       2.630  22.315  -3.085  1.00  0.00     0.029 A 
ATOM     62  C   UNL     1       1.661  21.481  -3.618  1.00  0.00     0.049 A 
ATOM     63  H   UNL     1       1.868  19.537  -4.411  1.00  0.00     0.167 HD
ATOM     64  C   UNL     1      -0.635  20.852  -4.308  1.00  0.00     0.074 A 
ATOM     65  C   UNL     1      -2.050  21.118  -4.470  1.00  0.00     0.031 C 
ATOM     66  C   UNL     1       0.249  21.727  -3.768  1.00  0.00     0.031 A 
BRANCH  53  67
ATOM     67  C   UNL     1       6.055  19.611  -3.551  1.00  0.00    -0.014 A 
ATOM     68  C   UNL     1       7.071  19.826  -4.500  1.00  0.00     0.010 A 
ATOM     69  C   UNL     1       6.378  19.655  -2.183  1.00  0.00     0.010 A 
ATOM     70  C   UNL     1       8.391  20.036  -4.091  1.00  0.00     0.020 A 
ATOM     71  C   UNL     1       7.693  19.890  -1.768  1.00  0.00     0.020 A 
ATOM     72  C   UNL     1       8.694  20.060  -2.726  1.00  0.00     0.054 A 
BRANCH  72  73
ATOM     73  S   UNL     1      10.413  20.347  -2.221  1.00  0.00     0.124 S 
ATOM     74  O   UNL     1      11.034  19.059  -2.525  1.00  0.00    -0.237 OA
ATOM     75  O   UNL     1      10.820  21.457  -3.079  1.00  0.00    -0.237 OA
ATOM     76  O   UNL     1      10.308  20.668  -0.800  1.00  0.00    -0.744 OA
ENDBRANCH  72  73
ENDBRANCH  53  67
BRANCH  54  77
ATOM     77  C   UNL     1      -3.325  17.498  -6.221  1.00  0.00    -0.014 A 
ATOM     78  C   UNL     1      -3.934  18.153  -7.306  1.00  0.00     0.010 A 
ATOM     79  C   UNL     1      -4.051  16.522  -5.515  1.00  0.00     0.010 A 
ATOM     80  C   UNL     1      -5.248  17.848  -7.670  1.00  0.00     0.020 A 
ATOM     81  C   UNL     1      -5.357  16.196  -5.891  1.00  0.00     0.020 A 
ATOM     82  C   UNL     1      -5.951  16.869  -6.961  1.00  0.00     0.054 A 
BRANCH  82  83
ATOM     83  S   UNL     1      -7.634  16.441  -7.489  1.00  0.00     0.124 S 
ATOM     84  O   UNL     1      -8.407  17.567  -6.976  1.00  0.00    -0.237 OA
ATOM     85  O   UNL     1      -7.503  16.371  -8.942  1.00  0.00    -0.237 OA
ATOM     86  O   UNL     1      -7.880  15.159  -6.832  1.00  0.00    -0.744 OA
ENDBRANCH  82  83
ENDBRANCH  54  77
BRANCH  66  87
ATOM     87  C   UNL     1      -0.292  23.061  -3.326  1.00  0.00    -0.014 A 
ATOM     88  C   UNL     1      -1.103  23.174  -2.183  1.00  0.00     0.010 A 
ATOM     89  C   UNL     1       0.029  24.220  -4.057  1.00  0.00     0.010 A 
ATOM     90  C   UNL     1      -1.622  24.415  -1.804  1.00  0.00     0.020 A 
ATOM     91  C   UNL     1      -0.467  25.467  -3.666  1.00  0.00     0.020 A 
ATOM     92  C   UNL     1      -1.306  25.553  -2.553  1.00  0.00     0.054 A 
BRANCH  92  93
ATOM     93  S   UNL     1      -1.981  27.156  -2.038  1.00  0.00     0.124 S 
ATOM     94  O   UNL     1      -3.363  27.066  -2.502  1.00  0.00    -0.237 OA
ATOM     95  O   UNL     1      -1.803  27.131  -0.588  1.00  0.00    -0.237 OA
ATOM     96  O   UNL     1      -1.147  28.125  -2.745  1.00  0.00    -0.744 OA
ENDBRANCH  92  93
ENDBRANCH  66  87
ENDBRANCH  40  41
ENDBRANCH  32  35
ENDBRANCH  30  31
ENDBRANCH  29  30
ENDBRANCH   1  29
TORSDOF 19
