REMARK SMILES C[NH2+][C@]1(C(=O)NCCCCCCNC(=O)c2ccc(-c3c4nc(c(-c5ccc(S(=O)(=O)[O-])cc5)c5ccc([nH]5)c(-c5ccc(S(=O)(=O)[O-])cc5)c5nc(c(-c6ccc(S(=O)(=O)[O-])cc6)c6ccc3[nH]6)C=C5)C=C4)cc2)CC[C@@H](OCCCc2ccccc2)C1
REMARK SMILES IDX 8 1 7 2 6 3 4 4 5 5 3 7 76 8 89 9 77 10 78 11 2 12 1 13
REMARK SMILES IDX 79 16 80 17 81 18 82 19 83 20 84 21 88 22 85 23 87 24 86 25
REMARK SMILES IDX 9 26 10 27 11 28 12 29 13 30 14 31 15 33 16 34 17 35 75 36
REMARK SMILES IDX 18 37 74 38 19 39 20 40 21 41 68 42 22 43 73 44 67 45 69 46
REMARK SMILES IDX 23 47 72 48 66 49 65 50 24 52 54 53 35 54 53 55 36 56 39 57
REMARK SMILES IDX 52 58 70 59 37 60 38 61 51 63 71 64 40 65 25 66 26 67 34 68
REMARK SMILES IDX 27 69 33 70 28 71 29 72 30 73 31 74 32 75 55 76 56 77 64 78
REMARK SMILES IDX 57 79 63 80 58 81 59 82 60 83 61 84 62 85 41 86 42 87 50 88
REMARK SMILES IDX 43 89 49 90 44 91 45 92 46 93 47 94 48 95
REMARK H PARENT 6 6 2 14 2 15 13 32 69 51 39 62
REMARK Flexibility Score: inf
ROOT
ATOM      1  C   UNL     1       1.616   1.155  -3.040  1.00  0.00     0.021 C 
ENDROOT
BRANCH   1   2
ATOM      2  C   UNL     1       1.082  -0.274  -2.950  1.00  0.00     0.116 C 
BRANCH   2   3
ATOM      3  N   UNL     1       1.104  -0.761  -1.423  1.00  0.00    -0.351 N 
ATOM      4  C   UNL     1       0.081  -1.485   0.083  1.00  0.00     0.281 C 
ATOM      5  O   UNL     1       0.572  -1.945   1.176  1.00  0.00    -0.268 OA
ATOM      6  H   UNL     1       2.030  -0.649  -1.106  1.00  0.00     0.163 HD
BRANCH   4   7
ATOM      7  C   UNL     1      -1.754  -1.646   0.393  1.00  0.00     0.177 C 
ATOM      8  C   UNL     1      -2.728  -0.409   0.441  1.00  0.00     0.082 C 
ATOM      9  C   UNL     1      -2.550  -2.766  -0.354  1.00  0.00     0.111 C 
ATOM     10  C   UNL     1      -4.087  -0.878  -0.086  1.00  0.00     0.039 C 
ATOM     11  C   UNL     1      -3.865  -2.171  -0.862  1.00  0.00     0.125 C 
BRANCH   7  12
ATOM     12  N   UNL     1      -1.852  -1.980   1.907  1.00  0.00    -0.336 N 
ATOM     13  C   UNL     1      -1.446  -3.296   2.371  1.00  0.00     0.331 C 
ATOM     14  H   UNL     1      -1.276  -1.299   2.400  1.00  0.00     0.346 HD
ATOM     15  H   UNL     1      -2.854  -1.956   2.095  1.00  0.00     0.346 HD
ENDBRANCH   7  12
BRANCH  11  16
ATOM     16  O   UNL     1      -4.146  -1.959  -2.239  1.00  0.00    -0.378 OA
BRANCH  16  17
ATOM     17  C   UNL     1      -3.173  -2.156  -3.241  1.00  0.00     0.161 C 
BRANCH  17  18
ATOM     18  C   UNL     1      -2.495  -0.857  -3.646  1.00  0.00     0.033 C 
BRANCH  18  19
ATOM     19  C   UNL     1      -1.934   0.002  -2.518  1.00  0.00     0.038 C 
BRANCH  19  20
ATOM     20  C   UNL     1      -0.873  -0.601  -1.590  1.00  0.00    -0.048 A 
ATOM     21  C   UNL     1      -0.126  -2.266  -1.871  1.00  0.00     0.004 A 
ATOM     22  C   UNL     1      -0.022   0.553  -0.426  1.00  0.00     0.004 A 
ATOM     23  C   UNL     1       1.437  -2.730  -1.051  1.00  0.00     0.000 A 
ATOM     24  C   UNL     1       1.547   0.071   0.378  1.00  0.00     0.000 A 
ATOM     25  C   UNL     1       2.303  -1.569   0.054  1.00  0.00     0.000 A 
ENDBRANCH  19  20
ENDBRANCH  18  19
ENDBRANCH  17  18
ENDBRANCH  16  17
ENDBRANCH  11  16
ENDBRANCH   4   7
ENDBRANCH   2   3
ENDBRANCH   1   2
BRANCH   1  26
ATOM     26  C   UNL     1       3.136   1.191  -3.199  1.00  0.00     0.002 C 
BRANCH  26  27
ATOM     27  C   UNL     1       3.652   0.401  -4.407  1.00  0.00     0.002 C 
BRANCH  27  28
ATOM     28  C   UNL     1       2.863   0.652  -5.694  1.00  0.00     0.021 C 
BRANCH  28  29
ATOM     29  C   UNL     1       2.745   2.128  -6.042  1.00  0.00     0.116 C 
BRANCH  29  30
ATOM     30  N   UNL     1       4.058   2.729  -6.181  1.00  0.00    -0.352 N 
ATOM     31  C   UNL     1       4.559   3.375  -7.276  1.00  0.00     0.251 C 
ATOM     32  H   UNL     1       4.655   2.663  -5.401  1.00  0.00     0.163 HD
ATOM     33  O   UNL     1       5.761   3.570  -7.403  1.00  0.00    -0.269 OA
BRANCH  31  34
ATOM     34  C   UNL     1       3.597   3.821  -8.296  1.00  0.00     0.039 A 
ATOM     35  C   UNL     1       3.818   3.490  -9.630  1.00  0.00     0.014 A 
ATOM     36  C   UNL     1       2.442   4.507  -7.899  1.00  0.00     0.014 A 
ATOM     37  C   UNL     1       2.861   3.841 -10.577  1.00  0.00     0.010 A 
ATOM     38  C   UNL     1       1.450   4.771  -8.830  1.00  0.00     0.010 A 
ATOM     39  C   UNL     1       1.666   4.468 -10.181  1.00  0.00    -0.014 A 
BRANCH  39  40
ATOM     40  C   UNL     1       0.647   4.855 -11.182  1.00  0.00     0.031 A 
ATOM     41  C   UNL     1       0.322   6.309 -11.386  1.00  0.00     0.074 A 
ATOM     42  C   UNL     1       0.004   3.899 -11.879  1.00  0.00     0.049 A 
ATOM     43  N   UNL     1      -0.540   6.851 -12.206  1.00  0.00    -0.248 NA
ATOM     44  C   UNL     1       1.040   7.282 -10.543  1.00  0.00     0.031 C 
ATOM     45  C   UNL     1       0.216   2.456 -11.734  1.00  0.00     0.029 A 
ATOM     46  N   UNL     1      -0.953   3.998 -12.855  1.00  0.00    -0.354 N 
ATOM     47  C   UNL     1      -0.474   8.219 -11.971  1.00  0.00     0.074 A 
ATOM     48  C   UNL     1       0.461   8.421 -10.888  1.00  0.00     0.031 C 
ATOM     49  C   UNL     1      -0.556   1.808 -12.621  1.00  0.00     0.029 A 
ATOM     50  C   UNL     1      -1.351   2.783 -13.361  1.00  0.00     0.049 A 
ATOM     51  H   UNL     1      -1.321   4.857 -13.164  1.00  0.00     0.167 HD
ATOM     52  C   UNL     1      -1.115   9.219 -12.618  1.00  0.00     0.031 A 
ATOM     53  C   UNL     1      -2.257   2.490 -14.313  1.00  0.00     0.031 A 
ATOM     54  C   UNL     1      -2.040   9.005 -13.698  1.00  0.00     0.049 A 
ATOM     55  C   UNL     1      -2.980   3.619 -14.996  1.00  0.00     0.074 A 
ATOM     56  C   UNL     1      -2.711   9.949 -14.454  1.00  0.00     0.029 A 
ATOM     57  N   UNL     1      -2.428   7.760 -14.171  1.00  0.00    -0.354 N 
ATOM     58  N   UNL     1      -2.855   4.911 -14.807  1.00  0.00    -0.248 NA
ATOM     59  C   UNL     1      -3.956   3.250 -16.029  1.00  0.00     0.031 C 
ATOM     60  C   UNL     1      -3.557   9.274 -15.339  1.00  0.00     0.029 A 
ATOM     61  C   UNL     1      -3.354   7.910 -15.189  1.00  0.00     0.049 A 
ATOM     62  H   UNL     1      -2.094   6.898 -13.834  1.00  0.00     0.167 HD
ATOM     63  C   UNL     1      -3.715   5.512 -15.720  1.00  0.00     0.074 A 
ATOM     64  C   UNL     1      -4.338   4.440 -16.471  1.00  0.00     0.031 C 
ATOM     65  C   UNL     1      -3.965   6.830 -15.922  1.00  0.00     0.031 A 
BRANCH  52  66
ATOM     66  C   UNL     1      -0.844  10.631 -12.166  1.00  0.00    -0.014 A 
ATOM     67  C   UNL     1       0.415  11.231 -12.356  1.00  0.00     0.010 A 
ATOM     68  C   UNL     1      -1.877  11.385 -11.579  1.00  0.00     0.010 A 
ATOM     69  C   UNL     1       0.647  12.542 -11.932  1.00  0.00     0.020 A 
ATOM     70  C   UNL     1      -1.659  12.708 -11.185  1.00  0.00     0.020 A 
ATOM     71  C   UNL     1      -0.393  13.273 -11.351  1.00  0.00     0.054 A 
BRANCH  71  72
ATOM     72  S   UNL     1      -0.071  14.984 -10.844  1.00  0.00     0.124 S 
ATOM     73  O   UNL     1       0.817  14.796  -9.699  1.00  0.00    -0.237 OA
ATOM     74  O   UNL     1       0.551  15.557 -12.034  1.00  0.00    -0.237 OA
ATOM     75  O   UNL     1      -1.397  15.507 -10.522  1.00  0.00    -0.744 OA
ENDBRANCH  71  72
ENDBRANCH  52  66
BRANCH  53  76
ATOM     76  C   UNL     1      -2.520   1.071 -14.680  1.00  0.00    -0.014 A 
ATOM     77  C   UNL     1      -2.156   0.577 -15.945  1.00  0.00     0.010 A 
ATOM     78  C   UNL     1      -3.130   0.201 -13.758  1.00  0.00     0.010 A 
ATOM     79  C   UNL     1      -2.418  -0.752 -16.290  1.00  0.00     0.020 A 
ATOM     80  C   UNL     1      -3.363  -1.137 -14.085  1.00  0.00     0.020 A 
ATOM     81  C   UNL     1      -3.017  -1.602 -15.355  1.00  0.00     0.054 A 
BRANCH  81  82
ATOM     82  S   UNL     1      -3.307  -3.334 -15.809  1.00  0.00     0.124 S 
ATOM     83  O   UNL     1      -4.382  -3.216 -16.789  1.00  0.00    -0.237 OA
ATOM     84  O   UNL     1      -2.008  -3.741 -16.338  1.00  0.00    -0.237 OA
ATOM     85  O   UNL     1      -3.680  -3.961 -14.543  1.00  0.00    -0.744 OA
ENDBRANCH  81  82
ENDBRANCH  53  76
BRANCH  65  86
ATOM     86  C   UNL     1      -4.925   7.192 -17.024  1.00  0.00    -0.014 A 
ATOM     87  C   UNL     1      -6.301   6.926 -16.915  1.00  0.00     0.010 A 
ATOM     88  C   UNL     1      -4.445   7.865 -18.163  1.00  0.00     0.010 A 
ATOM     89  C   UNL     1      -7.175   7.295 -17.941  1.00  0.00     0.020 A 
ATOM     90  C   UNL     1      -5.320   8.268 -19.174  1.00  0.00     0.020 A 
ATOM     91  C   UNL     1      -6.678   7.967 -19.063  1.00  0.00     0.054 A 
BRANCH  91  92
ATOM     92  S   UNL     1      -7.840   8.475 -20.358  1.00  0.00     0.124 S 
ATOM     93  O   UNL     1      -8.204   7.195 -20.959  1.00  0.00    -0.237 OA
ATOM     94  O   UNL     1      -8.897   9.135 -19.596  1.00  0.00    -0.237 OA
ATOM     95  O   UNL     1      -7.048   9.360 -21.209  1.00  0.00    -0.744 OA
ENDBRANCH  91  92
ENDBRANCH  65  86
ENDBRANCH  39  40
ENDBRANCH  31  34
ENDBRANCH  29  30
ENDBRANCH  28  29
ENDBRANCH  27  28
ENDBRANCH  26  27
ENDBRANCH   1  26
TORSDOF 22
