REMARK SMILES Cc1ccc(/C=C/C(=O)N[C@](C)(C(=O)NCCCCCCNC(=O)c2ccc(-c3c4nc(c(-c5ccc(S(=O)(=O)[O-])cc5)c5ccc([nH]5)c(-c5ccc(S(=O)(=O)[O-])cc5)c5nc(c(-c6ccc(S(=O)(=O)[O-])cc6)c6ccc3[nH]6)C=C5)C=C4)cc2)C(F)(F)F)o1
REMARK SMILES IDX 18 1 17 2 16 3 15 4 13 5 14 6 11 8 12 9 10 10 8 11 9 12 7 14
REMARK SMILES IDX 6 15 5 16 1 17 2 18 3 19 89 20 4 21 85 22 86 23 87 24 88 25
REMARK SMILES IDX 19 26 20 27 21 28 22 29 23 30 24 32 25 33 26 34 84 35 27 36
REMARK SMILES IDX 83 37 28 38 29 39 30 40 77 41 31 42 82 43 76 44 78 45 32 46
REMARK SMILES IDX 81 47 75 48 74 49 33 51 63 52 44 53 62 54 45 55 48 56 61 57
REMARK SMILES IDX 79 58 46 59 47 60 60 62 80 63 49 64 34 65 35 66 43 67 36 68
REMARK SMILES IDX 42 69 37 70 38 71 39 72 40 73 41 74 64 75 65 76 73 77 66 78
REMARK SMILES IDX 72 79 67 80 68 81 69 82 70 83 71 84 50 85 51 86 59 87 52 88
REMARK SMILES IDX 58 89 53 90 54 91 55 92 56 93 57 94
REMARK H PARENT 15 7 10 13 22 31 78 50 48 61
REMARK Flexibility Score: inf
ROOT
ATOM      1  C   UNL     1      -9.200   4.042  -2.500  1.00  0.00     0.002 C 
ENDROOT
BRANCH   1   2
ATOM      2  C   UNL     1      -8.114   4.104  -1.425  1.00  0.00     0.021 C 
BRANCH   2   3
ATOM      3  C   UNL     1      -7.787   2.758  -0.762  1.00  0.00     0.116 C 
BRANCH   3   4
ATOM      4  N   UNL     1      -6.696   2.094  -1.462  1.00  0.00    -0.354 N 
ATOM      5  C   UNL     1      -5.401   1.785  -1.187  1.00  0.00     0.254 C 
ATOM      6  O   UNL     1      -4.778   1.367  -2.174  1.00  0.00    -0.272 OA
ATOM      7  H   UNL     1      -6.964   1.792  -2.360  1.00  0.00     0.163 HD
BRANCH   5   8
ATOM      8  C   UNL     1      -4.652   2.016   0.156  1.00  0.00     0.212 C 
ATOM      9  C   UNL     1      -3.531   3.057  -0.050  1.00  0.00     0.056 C 
BRANCH   8  10
ATOM     10  N   UNL     1      -5.504   2.280   1.369  1.00  0.00    -0.331 N 
ATOM     11  C   UNL     1      -5.913   3.322   2.128  1.00  0.00     0.245 C 
ATOM     12  O   UNL     1      -6.514   3.053   3.168  1.00  0.00    -0.270 OA
ATOM     13  H   UNL     1      -5.877   1.437   1.716  1.00  0.00     0.165 HD
BRANCH  11  14
ATOM     14  C   UNL     1      -5.701   4.745   1.796  1.00  0.00     0.075 C 
ATOM     15  C   UNL     1      -5.664   5.202   0.544  1.00  0.00     0.053 C 
BRANCH  15  16
ATOM     16  C   UNL     1      -5.581   6.571   0.200  1.00  0.00     0.127 A 
ATOM     17  C   UNL     1      -6.488   9.987   0.820  1.00  0.00     0.087 C 
ATOM     18  C   UNL     1      -5.928   8.755   0.231  1.00  0.00     0.101 A 
ATOM     19  C   UNL     1      -5.264   8.497  -0.944  1.00  0.00     0.046 A 
ATOM     20  O   UNL     1      -6.096   7.606   0.941  1.00  0.00    -0.462 OA
ATOM     21  C   UNL     1      -5.049   7.104  -0.967  1.00  0.00     0.050 A 
ENDBRANCH  15  16
ENDBRANCH  11  14
ENDBRANCH   8  10
BRANCH   8  22
ATOM     22  C   UNL     1      -3.921   0.655   0.389  1.00  0.00     0.420 C 
ATOM     23  F   UNL     1      -3.048   0.305  -0.578  1.00  0.00    -0.168 F 
ATOM     24  F   UNL     1      -3.206   0.704   1.546  1.00  0.00    -0.168 F 
ATOM     25  F   UNL     1      -4.812  -0.357   0.536  1.00  0.00    -0.168 F 
ENDBRANCH   8  22
ENDBRANCH   5   8
ENDBRANCH   3   4
ENDBRANCH   2   3
ENDBRANCH   1   2
BRANCH   1  26
ATOM     26  C   UNL     1     -10.608   3.739  -1.979  1.00  0.00     0.002 C 
BRANCH  26  27
ATOM     27  C   UNL     1     -11.137   4.684  -0.893  1.00  0.00     0.021 C 
BRANCH  27  28
ATOM     28  C   UNL     1     -11.165   6.168  -1.262  1.00  0.00     0.116 C 
BRANCH  28  29
ATOM     29  N   UNL     1     -11.998   6.426  -2.424  1.00  0.00    -0.352 N 
ATOM     30  C   UNL     1     -13.077   7.258  -2.574  1.00  0.00     0.251 C 
ATOM     31  H   UNL     1     -11.748   5.924  -3.232  1.00  0.00     0.163 HD
ATOM     32  O   UNL     1     -13.766   7.164  -3.591  1.00  0.00    -0.269 OA
BRANCH  30  33
ATOM     33  C   UNL     1     -13.431   8.259  -1.541  1.00  0.00     0.039 A 
ATOM     34  C   UNL     1     -14.783   8.476  -1.259  1.00  0.00     0.014 A 
ATOM     35  C   UNL     1     -12.458   9.034  -0.902  1.00  0.00     0.014 A 
ATOM     36  C   UNL     1     -15.157   9.439  -0.318  1.00  0.00     0.010 A 
ATOM     37  C   UNL     1     -12.829   9.955   0.082  1.00  0.00     0.010 A 
ATOM     38  C   UNL     1     -14.182  10.176   0.376  1.00  0.00    -0.014 A 
BRANCH  38  39
ATOM     39  C   UNL     1     -14.582  11.173   1.404  1.00  0.00     0.031 A 
ATOM     40  C   UNL     1     -14.329  12.644   1.192  1.00  0.00     0.074 A 
ATOM     41  C   UNL     1     -15.151  10.749   2.551  1.00  0.00     0.049 A 
ATOM     42  N   UNL     1     -14.636  13.652   1.969  1.00  0.00    -0.248 NA
ATOM     43  C   UNL     1     -13.618  13.033  -0.037  1.00  0.00     0.031 C 
ATOM     44  C   UNL     1     -15.390   9.348   2.910  1.00  0.00     0.029 A 
ATOM     45  N   UNL     1     -15.630  11.452   3.628  1.00  0.00    -0.354 N 
ATOM     46  C   UNL     1     -14.140  14.787   1.337  1.00  0.00     0.074 A 
ATOM     47  C   UNL     1     -13.481  14.342   0.129  1.00  0.00     0.031 C 
ATOM     48  C   UNL     1     -15.989   9.297   4.111  1.00  0.00     0.029 A 
ATOM     49  C   UNL     1     -16.160  10.655   4.617  1.00  0.00     0.049 A 
ATOM     50  H   UNL     1     -15.598  12.434   3.688  1.00  0.00     0.167 HD
ATOM     51  C   UNL     1     -14.238  16.083   1.720  1.00  0.00     0.031 A 
ATOM     52  C   UNL     1     -16.724  10.980   5.796  1.00  0.00     0.031 A 
ATOM     53  C   UNL     1     -14.924  16.529   2.905  1.00  0.00     0.049 A 
ATOM     54  C   UNL     1     -16.875  12.431   6.163  1.00  0.00     0.074 A 
ATOM     55  C   UNL     1     -15.155  17.828   3.327  1.00  0.00     0.029 A 
ATOM     56  N   UNL     1     -15.490  15.695   3.855  1.00  0.00    -0.354 N 
ATOM     57  N   UNL     1     -16.488  13.494   5.499  1.00  0.00    -0.248 NA
ATOM     58  C   UNL     1     -17.562  12.725   7.428  1.00  0.00     0.031 C 
ATOM     59  C   UNL     1     -15.822  17.778   4.555  1.00  0.00     0.029 A 
ATOM     60  C   UNL     1     -16.051  16.450   4.872  1.00  0.00     0.049 A 
ATOM     61  H   UNL     1     -15.494  14.712   3.813  1.00  0.00     0.167 HD
ATOM     62  C   UNL     1     -16.907  14.583   6.256  1.00  0.00     0.074 A 
ATOM     63  C   UNL     1     -17.598  14.049   7.411  1.00  0.00     0.031 C 
ATOM     64  C   UNL     1     -16.732  15.906   6.018  1.00  0.00     0.031 A 
BRANCH  51  65
ATOM     65  C   UNL     1     -13.590  17.128   0.850  1.00  0.00    -0.014 A 
ATOM     66  C   UNL     1     -14.146  17.488  -0.390  1.00  0.00     0.010 A 
ATOM     67  C   UNL     1     -12.459  17.821   1.321  1.00  0.00     0.010 A 
ATOM     68  C   UNL     1     -13.570  18.508  -1.154  1.00  0.00     0.020 A 
ATOM     69  C   UNL     1     -11.895  18.857   0.570  1.00  0.00     0.020 A 
ATOM     70  C   UNL     1     -12.449  19.187  -0.668  1.00  0.00     0.054 A 
BRANCH  70  71
ATOM     71  S   UNL     1     -11.758  20.546  -1.653  1.00  0.00     0.124 S 
ATOM     72  O   UNL     1     -11.090  19.824  -2.733  1.00  0.00    -0.237 OA
ATOM     73  O   UNL     1     -12.948  21.298  -2.041  1.00  0.00    -0.237 OA
ATOM     74  O   UNL     1     -10.868  21.232  -0.720  1.00  0.00    -0.744 OA
ENDBRANCH  70  71
ENDBRANCH  51  65
BRANCH  52  75
ATOM     75  C   UNL     1     -17.206   9.913   6.715  1.00  0.00    -0.014 A 
ATOM     76  C   UNL     1     -18.582   9.714   6.926  1.00  0.00     0.010 A 
ATOM     77  C   UNL     1     -16.285   9.104   7.404  1.00  0.00     0.010 A 
ATOM     78  C   UNL     1     -19.027   8.755   7.840  1.00  0.00     0.020 A 
ATOM     79  C   UNL     1     -16.727   8.124   8.296  1.00  0.00     0.020 A 
ATOM     80  C   UNL     1     -18.095   7.969   8.524  1.00  0.00     0.054 A 
BRANCH  80  81
ATOM     81  S   UNL     1     -18.690   6.715   9.692  1.00  0.00     0.124 S 
ATOM     82  O   UNL     1     -19.029   7.525  10.858  1.00  0.00    -0.237 OA
ATOM     83  O   UNL     1     -19.821   6.126   8.980  1.00  0.00    -0.237 OA
ATOM     84  O   UNL     1     -17.539   5.830   9.855  1.00  0.00    -0.744 OA
ENDBRANCH  80  81
ENDBRANCH  52  75
BRANCH  64  85
ATOM     85  C   UNL     1     -17.329  16.864   7.013  1.00  0.00    -0.014 A 
ATOM     86  C   UNL     1     -16.781  17.012   8.301  1.00  0.00     0.010 A 
ATOM     87  C   UNL     1     -18.453  17.630   6.653  1.00  0.00     0.010 A 
ATOM     88  C   UNL     1     -17.383  17.865   9.230  1.00  0.00     0.020 A 
ATOM     89  C   UNL     1     -19.040  18.505   7.570  1.00  0.00     0.020 A 
ATOM     90  C   UNL     1     -18.515  18.598   8.861  1.00  0.00     0.054 A 
BRANCH  90  91
ATOM     91  S   UNL     1     -19.286  19.695  10.082  1.00  0.00     0.124 S 
ATOM     92  O   UNL     1     -20.032  18.751  10.909  1.00  0.00    -0.237 OA
ATOM     93  O   UNL     1     -18.135  20.323  10.727  1.00  0.00    -0.237 OA
ATOM     94  O   UNL     1     -20.103  20.595   9.270  1.00  0.00    -0.744 OA
ENDBRANCH  90  91
ENDBRANCH  64  85
ENDBRANCH  38  39
ENDBRANCH  30  33
ENDBRANCH  28  29
ENDBRANCH  27  28
ENDBRANCH  26  27
ENDBRANCH   1  26
TORSDOF 20
