REMARK SMILES [NH3+]Cc1ccc(C(=O)N2[C@@H](C(=O)NCCCCCCNC(=O)c3ccc(-c4c5nc(c(-c6ccc(S(=O)(=O)[O-])cc6)c6ccc([nH]6)c(-c6ccc(S(=O)(=O)[O-])cc6)c6nc(c(-c7ccc(S(=O)(=O)[O-])cc7)c7ccc4[nH]7)C=C6)C=C5)cc3)C[C@H]3CCCC[C@@H]32)o1
REMARK SMILES IDX 16 1 15 2 14 3 13 4 11 5 12 6 10 8 9 9 89 10 83 11 84 12
REMARK SMILES IDX 88 13 85 14 87 15 86 16 7 17 8 18 6 19 3 20 4 21 90 22 5 23
REMARK SMILES IDX 2 24 1 25 17 29 18 30 19 31 20 32 21 33 22 35 23 36 24 37
REMARK SMILES IDX 82 38 25 39 81 40 26 41 27 42 28 43 75 44 29 45 80 46 74 47
REMARK SMILES IDX 76 48 30 49 79 50 73 51 72 52 31 54 61 55 42 56 60 57 43 58
REMARK SMILES IDX 46 59 59 60 77 61 44 62 45 63 58 65 78 66 47 67 32 68 33 69
REMARK SMILES IDX 41 70 34 71 40 72 35 73 36 74 37 75 38 76 39 77 62 78 63 79
REMARK SMILES IDX 71 80 64 81 70 82 65 83 66 84 67 85 68 86 69 87 48 88 49 89
REMARK SMILES IDX 57 90 50 91 56 92 51 93 52 94 53 95 54 96 55 97
REMARK H PARENT 13 7 1 26 1 27 1 28 20 34 76 53 46 64
REMARK Flexibility Score: inf
ROOT
ATOM      1  C   UNL     1       8.465   0.833  -9.190  1.00  0.00     0.002 C 
ENDROOT
BRANCH   1   2
ATOM      2  C   UNL     1       7.356   1.618  -8.490  1.00  0.00     0.021 C 
BRANCH   2   3
ATOM      3  C   UNL     1       5.961   1.010  -8.507  1.00  0.00     0.116 C 
BRANCH   3   4
ATOM      4  N   UNL     1       5.770  -0.134  -7.636  1.00  0.00    -0.354 N 
ATOM      5  C   UNL     1       4.624  -0.559  -7.004  1.00  0.00     0.242 C 
ATOM      6  O   UNL     1       4.692  -1.621  -6.379  1.00  0.00    -0.273 OA
ATOM      7  H   UNL     1       6.572  -0.683  -7.475  1.00  0.00     0.163 HD
BRANCH   5   8
ATOM      8  C   UNL     1       3.348   0.343  -6.964  1.00  0.00     0.175 C 
ATOM      9  N   UNL     1       2.127  -0.418  -6.587  1.00  0.00    -0.321 N 
ATOM     10  C   UNL     1       1.311  -0.666  -7.761  1.00  0.00     0.089 C 
ATOM     11  C   UNL     1       2.979   0.913  -8.350  1.00  0.00     0.041 C 
ATOM     12  C   UNL     1       1.490   0.671  -8.476  1.00  0.00     0.014 C 
ATOM     13  C   UNL     1      -0.188  -0.929  -7.619  1.00  0.00     0.025 C 
ATOM     14  C   UNL     1       0.940   0.644  -9.887  1.00  0.00     0.006 C 
ATOM     15  C   UNL     1      -0.862  -0.919  -9.002  1.00  0.00     0.002 C 
ATOM     16  C   UNL     1      -0.556   0.339  -9.825  1.00  0.00     0.000 C 
BRANCH   9  17
ATOM     17  C   UNL     1       1.717  -0.813  -5.321  1.00  0.00     0.290 C 
ATOM     18  O   UNL     1       1.202  -1.917  -5.152  1.00  0.00    -0.265 OA
BRANCH  17  19
ATOM     19  C   UNL     1       1.706   0.210  -4.278  1.00  0.00     0.192 A 
ATOM     20  C   UNL     1       1.194   0.961  -2.253  1.00  0.00     0.159 A 
ATOM     21  C   UNL     1       1.547   2.064  -2.996  1.00  0.00     0.052 A 
ATOM     22  O   UNL     1       1.311  -0.167  -3.014  1.00  0.00    -0.450 OA
ATOM     23  C   UNL     1       1.847   1.588  -4.295  1.00  0.00     0.057 A 
BRANCH  20  24
ATOM     24  C   UNL     1       0.672   0.804  -0.869  1.00  0.00     0.335 C 
BRANCH  24  25
ATOM     25  N   UNL     1       1.264  -0.341  -0.183  1.00  0.00    -0.351 N 
ATOM     26  H   UNL     1       0.879  -0.410   0.759  1.00  0.00     0.344 HD
ATOM     27  H   UNL     1       2.275  -0.219  -0.129  1.00  0.00     0.344 HD
ATOM     28  H   UNL     1       1.052  -1.194  -0.701  1.00  0.00     0.344 HD
ENDBRANCH  24  25
ENDBRANCH  20  24
ENDBRANCH  17  19
ENDBRANCH   9  17
ENDBRANCH   5   8
ENDBRANCH   3   4
ENDBRANCH   2   3
ENDBRANCH   1   2
BRANCH   1  29
ATOM     29  C   UNL     1       8.218   0.398 -10.638  1.00  0.00     0.002 C 
BRANCH  29  30
ATOM     30  C   UNL     1       7.709   1.457 -11.620  1.00  0.00     0.021 C 
BRANCH  30  31
ATOM     31  C   UNL     1       8.495   2.763 -11.696  1.00  0.00     0.116 C 
BRANCH  31  32
ATOM     32  N   UNL     1       9.893   2.575 -12.034  1.00  0.00    -0.352 N 
ATOM     33  C   UNL     1      10.664   3.222 -12.970  1.00  0.00     0.251 C 
ATOM     34  H   UNL     1      10.359   1.880 -11.516  1.00  0.00     0.163 HD
ATOM     35  O   UNL     1      11.812   2.838 -13.176  1.00  0.00    -0.269 OA
BRANCH  33  36
ATOM     36  C   UNL     1      10.114   4.355 -13.751  1.00  0.00     0.039 A 
ATOM     37  C   UNL     1      10.361   4.400 -15.126  1.00  0.00     0.014 A 
ATOM     38  C   UNL     1       9.385   5.380 -13.141  1.00  0.00     0.014 A 
ATOM     39  C   UNL     1       9.830   5.437 -15.898  1.00  0.00     0.010 A 
ATOM     40  C   UNL     1       8.802   6.379 -13.921  1.00  0.00     0.010 A 
ATOM     41  C   UNL     1       9.021   6.421 -15.307  1.00  0.00    -0.014 A 
BRANCH  41  42
ATOM     42  C   UNL     1       8.395   7.493 -16.123  1.00  0.00     0.031 A 
ATOM     43  C   UNL     1       8.784   8.932 -15.920  1.00  0.00     0.074 A 
ATOM     44  C   UNL     1       7.424   7.178 -17.004  1.00  0.00     0.049 A 
ATOM     45  N   UNL     1       8.312  10.004 -16.503  1.00  0.00    -0.248 NA
ATOM     46  C   UNL     1       9.821   9.202 -14.912  1.00  0.00     0.031 C 
ATOM     47  C   UNL     1       6.920   5.827 -17.261  1.00  0.00     0.029 A 
ATOM     48  N   UNL     1       6.678   7.975 -17.837  1.00  0.00    -0.354 N 
ATOM     49  C   UNL     1       8.974  11.077 -15.917  1.00  0.00     0.074 A 
ATOM     50  C   UNL     1       9.850  10.527 -14.905  1.00  0.00     0.031 C 
ATOM     51  C   UNL     1       5.962   5.887 -18.199  1.00  0.00     0.029 A 
ATOM     52  C   UNL     1       5.758   7.280 -18.586  1.00  0.00     0.049 A 
ATOM     53  H   UNL     1       6.792   8.951 -17.893  1.00  0.00     0.167 HD
ATOM     54  C   UNL     1       8.874  12.398 -16.203  1.00  0.00     0.031 A 
ATOM     55  C   UNL     1       4.847   7.712 -19.480  1.00  0.00     0.031 A 
ATOM     56  C   UNL     1       8.010  12.941 -17.218  1.00  0.00     0.049 A 
ATOM     57  C   UNL     1       4.763   9.178 -19.797  1.00  0.00     0.074 A 
ATOM     58  C   UNL     1       7.889  14.256 -17.633  1.00  0.00     0.029 A 
ATOM     59  N   UNL     1       7.113  12.200 -17.974  1.00  0.00    -0.354 N 
ATOM     60  N   UNL     1       5.454  10.169 -19.287  1.00  0.00    -0.248 NA
ATOM     61  C   UNL     1       3.789   9.582 -20.820  1.00  0.00     0.031 C 
ATOM     62  C   UNL     1       6.883  14.318 -18.604  1.00  0.00     0.029 A 
ATOM     63  C   UNL     1       6.416  13.033 -18.834  1.00  0.00     0.049 A 
ATOM     64  H   UNL     1       6.990  11.226 -17.909  1.00  0.00     0.167 HD
ATOM     65  C   UNL     1       5.011  11.314 -19.940  1.00  0.00     0.074 A 
ATOM     66  C   UNL     1       4.004  10.889 -20.891  1.00  0.00     0.031 C 
ATOM     67  C   UNL     1       5.407  12.600 -19.767  1.00  0.00     0.031 A 
BRANCH  54  68
ATOM     68  C   UNL     1       9.711  13.347 -15.386  1.00  0.00    -0.014 A 
ATOM     69  C   UNL     1      11.112  13.384 -15.517  1.00  0.00     0.010 A 
ATOM     70  C   UNL     1       9.088  14.220 -14.476  1.00  0.00     0.010 A 
ATOM     71  C   UNL     1      11.877  14.230 -14.710  1.00  0.00     0.020 A 
ATOM     72  C   UNL     1       9.847  15.089 -13.688  1.00  0.00     0.020 A 
ATOM     73  C   UNL     1      11.239  15.070 -13.792  1.00  0.00     0.054 A 
BRANCH  73  74
ATOM     74  S   UNL     1      12.255  16.147 -12.744  1.00  0.00     0.124 S 
ATOM     75  O   UNL     1      12.790  15.199 -11.770  1.00  0.00    -0.237 OA
ATOM     76  O   UNL     1      13.227  16.693 -13.688  1.00  0.00    -0.237 OA
ATOM     77  O   UNL     1      11.298  17.114 -12.211  1.00  0.00    -0.744 OA
ENDBRANCH  73  74
ENDBRANCH  54  68
BRANCH  55  78
ATOM     78  C   UNL     1       3.958   6.725 -20.149  1.00  0.00    -0.014 A 
ATOM     79  C   UNL     1       4.175   6.363 -21.490  1.00  0.00     0.010 A 
ATOM     80  C   UNL     1       2.927   6.096 -19.427  1.00  0.00     0.010 A 
ATOM     81  C   UNL     1       3.378   5.388 -22.097  1.00  0.00     0.020 A 
ATOM     82  C   UNL     1       2.144   5.104 -20.024  1.00  0.00     0.020 A 
ATOM     83  C   UNL     1       2.373   4.758 -21.357  1.00  0.00     0.054 A 
BRANCH  83  84
ATOM     84  S   UNL     1       1.415   3.428 -22.135  1.00  0.00     0.124 S 
ATOM     85  O   UNL     1       0.527   4.171 -23.023  1.00  0.00    -0.237 OA
ATOM     86  O   UNL     1       2.451   2.635 -22.792  1.00  0.00    -0.237 OA
ATOM     87  O   UNL     1       0.764   2.770 -21.003  1.00  0.00    -0.744 OA
ENDBRANCH  83  84
ENDBRANCH  55  78
BRANCH  67  88
ATOM     88  C   UNL     1       4.763  13.645 -20.639  1.00  0.00    -0.014 A 
ATOM     89  C   UNL     1       3.437  14.058 -20.419  1.00  0.00     0.010 A 
ATOM     90  C   UNL     1       5.515  14.262 -21.655  1.00  0.00     0.010 A 
ATOM     91  C   UNL     1       2.865  15.051 -21.219  1.00  0.00     0.020 A 
ATOM     92  C   UNL     1       4.955  15.273 -22.440  1.00  0.00     0.020 A 
ATOM     93  C   UNL     1       3.629  15.652 -22.226  1.00  0.00     0.054 A 
BRANCH  93  94
ATOM     94  S   UNL     1       2.881  16.972 -23.221  1.00  0.00     0.124 S 
ATOM     95  O   UNL     1       1.995  16.220 -24.105  1.00  0.00    -0.237 OA
ATOM     96  O   UNL     1       2.213  17.794 -22.214  1.00  0.00    -0.237 OA
ATOM     97  O   UNL     1       4.025  17.604 -23.873  1.00  0.00    -0.744 OA
ENDBRANCH  93  94
ENDBRANCH  67  88
ENDBRANCH  41  42
ENDBRANCH  33  36
ENDBRANCH  31  32
ENDBRANCH  30  31
ENDBRANCH  29  30
ENDBRANCH   1  29
TORSDOF 20
