REMARK SMILES C/C=C/c1cncc(-c2ccc([C@@H](C)C(=O)NCCCCCCNC(=O)c3ccc(-c4c5nc(c(-c6ccc(S(=O)(=O)[O-])cc6)c6ccc([nH]6)c(-c6ccc(S(=O)(=O)[O-])cc6)c6nc(c(-c7ccc(S(=O)(=O)[O-])cc7)c7ccc4[nH]7)C=C6)C=C5)cc3)cc2)c1
REMARK SMILES IDX 20 1 19 2 18 3 17 4 15 5 16 6 13 8 14 9 12 10 9 11 10 12
REMARK SMILES IDX 88 13 11 14 87 15 8 16 4 17 5 18 89 19 6 20 7 21 3 22 1 23
REMARK SMILES IDX 2 24 21 25 22 26 23 27 24 28 25 29 26 31 27 32 28 33 86 34
REMARK SMILES IDX 29 35 85 36 30 37 31 38 32 39 79 40 33 41 84 42 78 43 80 44
REMARK SMILES IDX 34 45 83 46 77 47 76 48 35 50 65 51 46 52 64 53 47 54 50 55
REMARK SMILES IDX 63 56 81 57 48 58 49 59 62 61 82 62 51 63 36 64 37 65 45 66
REMARK SMILES IDX 38 67 44 68 39 69 40 70 41 71 42 72 43 73 66 74 67 75 75 76
REMARK SMILES IDX 68 77 74 78 69 79 70 80 71 81 72 82 73 83 52 84 53 85 61 86
REMARK SMILES IDX 54 87 60 88 55 89 56 90 57 91 58 92 59 93
REMARK H PARENT 17 7 24 30 80 49 50 60
REMARK Flexibility Score: inf
ROOT
ATOM      1  C   UNL     1       0.182   8.290   7.121  1.00  0.00     0.002 C 
ENDROOT
BRANCH   1   2
ATOM      2  C   UNL     1       0.155   8.696   5.644  1.00  0.00     0.021 C 
BRANCH   2   3
ATOM      3  C   UNL     1       0.805  10.053   5.365  1.00  0.00     0.116 C 
BRANCH   3   4
ATOM      4  N   UNL     1       2.225   9.923   5.112  1.00  0.00    -0.356 N 
ATOM      5  C   UNL     1       2.937   9.916   3.954  1.00  0.00     0.227 C 
ATOM      6  O   UNL     1       4.149   9.683   4.054  1.00  0.00    -0.274 OA
ATOM      7  H   UNL     1       2.772   9.821   5.924  1.00  0.00     0.163 HD
BRANCH   5   8
ATOM      8  C   UNL     1       2.326  10.200   2.573  1.00  0.00     0.105 C 
ATOM      9  C   UNL     1       1.687  11.585   2.450  1.00  0.00     0.023 C 
BRANCH   8  10
ATOM     10  C   UNL     1       1.517   9.042   2.007  1.00  0.00    -0.036 A 
ATOM     11  C   UNL     1       0.082   6.789   0.976  1.00  0.00    -0.017 A 
ATOM     12  C   UNL     1      -0.544   7.770   1.760  1.00  0.00     0.009 A 
ATOM     13  C   UNL     1       1.447   6.970   0.709  1.00  0.00     0.009 A 
ATOM     14  C   UNL     1       0.149   8.889   2.234  1.00  0.00     0.005 A 
ATOM     15  C   UNL     1       2.156   8.065   1.228  1.00  0.00     0.005 A 
BRANCH  11  16
ATOM     16  C   UNL     1      -0.684   5.638   0.449  1.00  0.00     0.001 A 
ATOM     17  C   UNL     1      -0.894   3.293  -0.205  1.00  0.00    -0.007 A 
ATOM     18  C   UNL     1      -2.218   3.561  -0.536  1.00  0.00     0.119 A 
ATOM     19  C   UNL     1      -0.128   4.357   0.293  1.00  0.00     0.020 A 
ATOM     20  N   UNL     1      -2.803   4.770  -0.412  1.00  0.00    -0.263 NA
ATOM     21  C   UNL     1      -2.025   5.767   0.069  1.00  0.00     0.119 A 
BRANCH  17  22
ATOM     22  C   UNL     1      -0.349   1.955  -0.456  1.00  0.00     0.005 C 
ATOM     23  C   UNL     1       0.989  -0.076   0.102  1.00  0.00     0.035 C 
ATOM     24  C   UNL     1       0.473   1.300   0.378  1.00  0.00    -0.030 C 
ENDBRANCH  17  22
ENDBRANCH  11  16
ENDBRANCH   8  10
ENDBRANCH   5   8
ENDBRANCH   3   4
ENDBRANCH   2   3
ENDBRANCH   1   2
BRANCH   1  25
ATOM     25  C   UNL     1      -0.604   9.212   8.062  1.00  0.00     0.002 C 
BRANCH  25  26
ATOM     26  C   UNL     1      -2.074   9.433   7.691  1.00  0.00     0.021 C 
BRANCH  26  27
ATOM     27  C   UNL     1      -2.920   8.162   7.654  1.00  0.00     0.116 C 
BRANCH  27  28
ATOM     28  N   UNL     1      -2.980   7.519   8.957  1.00  0.00    -0.352 N 
ATOM     29  C   UNL     1      -4.068   7.255   9.752  1.00  0.00     0.251 C 
ATOM     30  H   UNL     1      -2.113   7.229   9.322  1.00  0.00     0.163 HD
ATOM     31  O   UNL     1      -3.903   6.931  10.924  1.00  0.00    -0.269 OA
BRANCH  29  32
ATOM     32  C   UNL     1      -5.434   7.370   9.198  1.00  0.00     0.039 A 
ATOM     33  C   UNL     1      -6.428   7.987   9.962  1.00  0.00     0.014 A 
ATOM     34  C   UNL     1      -5.741   6.843   7.940  1.00  0.00     0.014 A 
ATOM     35  C   UNL     1      -7.716   8.124   9.441  1.00  0.00     0.010 A 
ATOM     36  C   UNL     1      -7.008   7.040   7.396  1.00  0.00     0.010 A 
ATOM     37  C   UNL     1      -8.009   7.677   8.142  1.00  0.00    -0.014 A 
BRANCH  37  38
ATOM     38  C   UNL     1      -9.357   7.867   7.547  1.00  0.00     0.031 A 
ATOM     39  C   UNL     1     -10.207   6.673   7.203  1.00  0.00     0.074 A 
ATOM     40  C   UNL     1      -9.792   9.111   7.266  1.00  0.00     0.049 A 
ATOM     41  N   UNL     1     -11.380   6.637   6.624  1.00  0.00    -0.248 NA
ATOM     42  C   UNL     1      -9.659   5.347   7.532  1.00  0.00     0.031 C 
ATOM     43  C   UNL     1      -9.050  10.347   7.525  1.00  0.00     0.029 A 
ATOM     44  N   UNL     1     -10.964   9.542   6.696  1.00  0.00    -0.354 N 
ATOM     45  C   UNL     1     -11.704   5.290   6.510  1.00  0.00     0.074 A 
ATOM     46  C   UNL     1     -10.583   4.540   7.032  1.00  0.00     0.031 C 
ATOM     47  C   UNL     1      -9.796  11.396   7.144  1.00  0.00     0.029 A 
ATOM     48  C   UNL     1     -11.049  10.909   6.575  1.00  0.00     0.049 A 
ATOM     49  H   UNL     1     -11.677   8.930   6.402  1.00  0.00     0.167 HD
ATOM     50  C   UNL     1     -12.841   4.727   6.034  1.00  0.00     0.031 A 
ATOM     51  C   UNL     1     -12.023  11.684   6.061  1.00  0.00     0.031 A 
ATOM     52  C   UNL     1     -13.957   5.476   5.519  1.00  0.00     0.049 A 
ATOM     53  C   UNL     1     -13.266  11.037   5.516  1.00  0.00     0.074 A 
ATOM     54  C   UNL     1     -15.168   5.001   5.047  1.00  0.00     0.029 A 
ATOM     55  N   UNL     1     -14.001   6.858   5.411  1.00  0.00    -0.354 N 
ATOM     56  N   UNL     1     -13.571   9.762   5.456  1.00  0.00    -0.248 NA
ATOM     57  C   UNL     1     -14.300  11.932   4.980  1.00  0.00     0.031 C 
ATOM     58  C   UNL     1     -15.925   6.092   4.610  1.00  0.00     0.029 A 
ATOM     59  C   UNL     1     -15.210   7.252   4.864  1.00  0.00     0.049 A 
ATOM     60  H   UNL     1     -13.278   7.469   5.683  1.00  0.00     0.167 HD
ATOM     61  C   UNL     1     -14.844   9.704   4.901  1.00  0.00     0.074 A 
ATOM     62  C   UNL     1     -15.256  11.072   4.655  1.00  0.00     0.031 C 
ATOM     63  C   UNL     1     -15.605   8.617   4.623  1.00  0.00     0.031 A 
BRANCH  50  64
ATOM     64  C   UNL     1     -12.932   3.223   6.048  1.00  0.00    -0.014 A 
ATOM     65  C   UNL     1     -13.052   2.517   7.259  1.00  0.00     0.010 A 
ATOM     66  C   UNL     1     -12.938   2.508   4.837  1.00  0.00     0.010 A 
ATOM     67  C   UNL     1     -13.136   1.123   7.261  1.00  0.00     0.020 A 
ATOM     68  C   UNL     1     -13.051   1.114   4.833  1.00  0.00     0.020 A 
ATOM     69  C   UNL     1     -13.132   0.429   6.047  1.00  0.00     0.054 A 
BRANCH  69  70
ATOM     70  S   UNL     1     -13.267  -1.379   6.080  1.00  0.00     0.124 S 
ATOM     71  O   UNL     1     -11.946  -1.771   6.567  1.00  0.00    -0.237 OA
ATOM     72  O   UNL     1     -14.370  -1.602   7.012  1.00  0.00    -0.237 OA
ATOM     73  O   UNL     1     -13.548  -1.732   4.691  1.00  0.00    -0.744 OA
ENDBRANCH  69  70
ENDBRANCH  50  64
BRANCH  51  74
ATOM     74  C   UNL     1     -11.868  13.165   6.060  1.00  0.00    -0.014 A 
ATOM     75  C   UNL     1     -12.641  13.961   6.923  1.00  0.00     0.010 A 
ATOM     76  C   UNL     1     -10.930  13.785   5.214  1.00  0.00     0.010 A 
ATOM     77  C   UNL     1     -12.489  15.350   6.933  1.00  0.00     0.020 A 
ATOM     78  C   UNL     1     -10.756  15.172   5.240  1.00  0.00     0.020 A 
ATOM     79  C   UNL     1     -11.544  15.947   6.093  1.00  0.00     0.054 A 
BRANCH  79  80
ATOM     80  S   UNL     1     -11.320  17.746   6.168  1.00  0.00     0.124 S 
ATOM     81  O   UNL     1     -12.522  18.229   5.496  1.00  0.00    -0.237 OA
ATOM     82  O   UNL     1     -11.253  17.996   7.606  1.00  0.00    -0.237 OA
ATOM     83  O   UNL     1     -10.068  17.964   5.447  1.00  0.00    -0.744 OA
ENDBRANCH  79  80
ENDBRANCH  51  74
BRANCH  63  84
ATOM     84  C   UNL     1     -16.977   8.858   4.051  1.00  0.00    -0.014 A 
ATOM     85  C   UNL     1     -17.149   9.293   2.725  1.00  0.00     0.010 A 
ATOM     86  C   UNL     1     -18.111   8.591   4.839  1.00  0.00     0.010 A 
ATOM     87  C   UNL     1     -18.433   9.485   2.207  1.00  0.00     0.020 A 
ATOM     88  C   UNL     1     -19.396   8.755   4.316  1.00  0.00     0.020 A 
ATOM     89  C   UNL     1     -19.548   9.214   3.006  1.00  0.00     0.054 A 
BRANCH  89  90
ATOM     90  S   UNL     1     -21.203   9.427   2.296  1.00  0.00     0.124 S 
ATOM     91  O   UNL     1     -21.333  10.881   2.259  1.00  0.00    -0.237 OA
ATOM     92  O   UNL     1     -21.080   8.774   0.994  1.00  0.00    -0.237 OA
ATOM     93  O   UNL     1     -22.080   8.747   3.247  1.00  0.00    -0.744 OA
ENDBRANCH  89  90
ENDBRANCH  63  84
ENDBRANCH  37  38
ENDBRANCH  29  32
ENDBRANCH  27  28
ENDBRANCH  26  27
ENDBRANCH  25  26
ENDBRANCH   1  25
TORSDOF 19
