REMARK SMILES COCC[C@]1(C(=O)NCCCCCCNC(=O)c2ccc(-c3c4nc(c(-c5ccc(S(=O)(=O)[O-])cc5)c5ccc([nH]5)c(-c5ccc(S(=O)(=O)[O-])cc5)c5nc(c(-c6ccc(S(=O)(=O)[O-])cc6)c6ccc3[nH]6)C=C5)C=C4)cc2)CCC[N@@H+](Cc2ccc(C(F)(F)F)nc2)C1
REMARK SMILES IDX 11 1 10 2 9 3 8 4 6 5 7 6 5 8 78 9 93 10 79 11 81 12 80 13
REMARK SMILES IDX 4 15 3 16 2 17 1 18 82 19 83 20 84 21 92 22 85 23 91 24
REMARK SMILES IDX 86 25 87 26 88 27 89 28 90 29 12 30 13 31 14 32 15 33 16 34
REMARK SMILES IDX 17 36 18 37 19 38 77 39 20 40 76 41 21 42 22 43 23 44 70 45
REMARK SMILES IDX 24 46 75 47 69 48 71 49 25 50 74 51 68 52 67 53 26 55 56 56
REMARK SMILES IDX 37 57 55 58 38 59 41 60 54 61 72 62 39 63 40 64 53 66 73 67
REMARK SMILES IDX 42 68 27 69 28 70 36 71 29 72 35 73 30 74 31 75 32 76 33 77
REMARK SMILES IDX 34 78 57 79 58 80 66 81 59 82 65 83 60 84 61 85 62 86 63 87
REMARK SMILES IDX 64 88 43 89 44 90 52 91 45 92 51 93 46 94 47 95 48 96 49 97
REMARK SMILES IDX 50 98
REMARK H PARENT 8 7 81 14 15 35 71 54 41 65
REMARK Flexibility Score: inf
ROOT
ATOM      1  C   UNL     1       5.104   0.106   4.590  1.00  0.00     0.002 C 
ENDROOT
BRANCH   1   2
ATOM      2  C   UNL     1       3.810  -0.268   3.862  1.00  0.00     0.021 C 
BRANCH   2   3
ATOM      3  C   UNL     1       2.697   0.759   4.047  1.00  0.00     0.116 C 
BRANCH   3   4
ATOM      4  N   UNL     1       2.899   1.900   3.167  1.00  0.00    -0.355 N 
ATOM      5  C   UNL     1       2.221   2.342   2.071  1.00  0.00     0.232 C 
ATOM      6  O   UNL     1       2.690   3.338   1.512  1.00  0.00    -0.274 OA
ATOM      7  H   UNL     1       3.672   2.460   3.410  1.00  0.00     0.163 HD
BRANCH   5   8
ATOM      8  C   UNL     1       0.912   1.678   1.581  1.00  0.00     0.100 C 
ATOM      9  C   UNL     1       1.113   0.185   1.252  1.00  0.00     0.029 C 
ATOM     10  C   UNL     1      -0.133   1.879   2.721  1.00  0.00     0.279 C 
ATOM     11  C   UNL     1      -0.219  -0.540   1.107  1.00  0.00     0.063 C 
ATOM     12  N   UNL     1      -1.330   1.029   2.675  1.00  0.00    -0.330 N 
ATOM     13  C   UNL     1      -1.047  -0.379   2.376  1.00  0.00     0.262 C 
ATOM     14  H   UNL     1      -1.871   1.367   1.879  1.00  0.00     0.348 HD
BRANCH   8  15
ATOM     15  C   UNL     1       0.392   2.433   0.307  1.00  0.00     0.051 C 
BRANCH  15  16
ATOM     16  C   UNL     1       1.307   2.371  -0.928  1.00  0.00     0.161 C 
BRANCH  16  17
ATOM     17  O   UNL     1       0.693   1.658  -2.005  1.00  0.00    -0.385 OA
ATOM     18  C   UNL     1       1.213   0.354  -2.219  1.00  0.00     0.194 C 
ENDBRANCH  16  17
ENDBRANCH  15  16
ENDBRANCH   8  15
BRANCH  12  19
ATOM     19  C   UNL     1      -2.181   1.192   3.879  1.00  0.00     0.300 C 
BRANCH  19  20
ATOM     20  C   UNL     1      -1.716   0.471   5.128  1.00  0.00     0.025 A 
ATOM     21  C   UNL     1      -0.714   0.970   5.963  1.00  0.00     0.013 A 
ATOM     22  C   UNL     1      -2.244  -0.772   5.459  1.00  0.00     0.121 A 
ATOM     23  C   UNL     1      -0.236   0.197   7.022  1.00  0.00     0.034 A 
ATOM     24  N   UNL     1      -1.806  -1.540   6.482  1.00  0.00    -0.251 NA
ATOM     25  C   UNL     1      -0.786  -1.065   7.250  1.00  0.00     0.144 A 
BRANCH  25  26
ATOM     26  C   UNL     1      -0.241  -1.929   8.383  1.00  0.00     0.433 C 
ATOM     27  F   UNL     1      -1.003  -1.871   9.509  1.00  0.00    -0.165 F 
ATOM     28  F   UNL     1      -0.126  -3.246   8.055  1.00  0.00    -0.165 F 
ATOM     29  F   UNL     1       1.016  -1.546   8.770  1.00  0.00    -0.165 F 
ENDBRANCH  25  26
ENDBRANCH  19  20
ENDBRANCH  12  19
ENDBRANCH   5   8
ENDBRANCH   3   4
ENDBRANCH   2   3
ENDBRANCH   1   2
BRANCH   1  30
ATOM     30  C   UNL     1       4.958   0.275   6.107  1.00  0.00     0.002 C 
BRANCH  30  31
ATOM     31  C   UNL     1       4.302  -0.906   6.829  1.00  0.00     0.021 C 
BRANCH  31  32
ATOM     32  C   UNL     1       5.034  -2.232   6.650  1.00  0.00     0.116 C 
BRANCH  32  33
ATOM     33  N   UNL     1       6.383  -2.175   7.191  1.00  0.00    -0.352 N 
ATOM     34  C   UNL     1       6.973  -2.994   8.116  1.00  0.00     0.251 C 
ATOM     35  H   UNL     1       6.949  -1.448   6.845  1.00  0.00     0.163 HD
ATOM     36  O   UNL     1       8.039  -2.663   8.638  1.00  0.00    -0.269 OA
BRANCH  34  37
ATOM     37  C   UNL     1       6.327  -4.268   8.488  1.00  0.00     0.039 A 
ATOM     38  C   UNL     1       6.273  -4.638   9.833  1.00  0.00     0.014 A 
ATOM     39  C   UNL     1       5.788  -5.104   7.504  1.00  0.00     0.014 A 
ATOM     40  C   UNL     1       5.643  -5.829  10.196  1.00  0.00     0.010 A 
ATOM     41  C   UNL     1       5.096  -6.252   7.875  1.00  0.00     0.010 A 
ATOM     42  C   UNL     1       5.031  -6.636   9.222  1.00  0.00    -0.014 A 
BRANCH  42  43
ATOM     43  C   UNL     1       4.348  -7.902   9.587  1.00  0.00     0.031 A 
ATOM     44  C   UNL     1       4.885  -9.215   9.081  1.00  0.00     0.074 A 
ATOM     45  C   UNL     1       3.224  -7.868  10.330  1.00  0.00     0.049 A 
ATOM     46  N   UNL     1       4.399 -10.419   9.234  1.00  0.00    -0.248 NA
ATOM     47  C   UNL     1       6.119  -9.165   8.278  1.00  0.00     0.031 C 
ATOM     48  C   UNL     1       2.589  -6.657  10.855  1.00  0.00     0.029 A 
ATOM     49  N   UNL     1       2.412  -8.883  10.769  1.00  0.00    -0.354 N 
ATOM     50  C   UNL     1       5.256 -11.265   8.539  1.00  0.00     0.074 A 
ATOM     51  C   UNL     1       6.260 -10.431   7.916  1.00  0.00     0.031 C 
ATOM     52  C   UNL     1       1.506  -7.002  11.570  1.00  0.00     0.029 A 
ATOM     53  C   UNL     1       1.343  -8.451  11.518  1.00  0.00     0.049 A 
ATOM     54  H   UNL     1       2.580  -9.832  10.567  1.00  0.00     0.167 HD
ATOM     55  C   UNL     1       5.226 -12.616   8.447  1.00  0.00     0.031 A 
ATOM     56  C   UNL     1       0.342  -9.145  12.094  1.00  0.00     0.031 A 
ATOM     57  C   UNL     1       4.232 -13.442   9.078  1.00  0.00     0.049 A 
ATOM     58  C   UNL     1       0.318 -10.644  11.956  1.00  0.00     0.074 A 
ATOM     59  C   UNL     1       4.132 -14.822   9.074  1.00  0.00     0.029 A 
ATOM     60  N   UNL     1       3.170 -12.966   9.832  1.00  0.00    -0.354 N 
ATOM     61  N   UNL     1       1.164 -11.429  11.332  1.00  0.00    -0.248 NA
ATOM     62  C   UNL     1      -0.789 -11.352  12.613  1.00  0.00     0.031 C 
ATOM     63  C   UNL     1       2.983 -15.179   9.787  1.00  0.00     0.029 A 
ATOM     64  C   UNL     1       2.402 -14.024  10.287  1.00  0.00     0.049 A 
ATOM     65  H   UNL     1       2.989 -12.016  10.016  1.00  0.00     0.167 HD
ATOM     66  C   UNL     1       0.712 -12.726  11.555  1.00  0.00     0.074 A 
ATOM     67  C   UNL     1      -0.474 -12.619  12.380  1.00  0.00     0.031 C 
ATOM     68  C   UNL     1       1.233 -13.900  11.120  1.00  0.00     0.031 A 
BRANCH  55  69
ATOM     69  C   UNL     1       6.307 -13.284   7.638  1.00  0.00    -0.014 A 
ATOM     70  C   UNL     1       7.640 -13.306   8.088  1.00  0.00     0.010 A 
ATOM     71  C   UNL     1       5.982 -13.939   6.436  1.00  0.00     0.010 A 
ATOM     72  C   UNL     1       8.633 -13.935   7.335  1.00  0.00     0.020 A 
ATOM     73  C   UNL     1       6.968 -14.596   5.693  1.00  0.00     0.020 A 
ATOM     74  C   UNL     1       8.290 -14.577   6.141  1.00  0.00     0.054 A 
BRANCH  74  75
ATOM     75  S   UNL     1       9.596 -15.413   5.200  1.00  0.00     0.124 S 
ATOM     76  O   UNL     1      10.348 -14.284   4.660  1.00  0.00    -0.237 OA
ATOM     77  O   UNL     1      10.283 -16.190   6.228  1.00  0.00    -0.237 OA
ATOM     78  O   UNL     1       8.863 -16.201   4.213  1.00  0.00    -0.744 OA
ENDBRANCH  74  75
ENDBRANCH  55  69
BRANCH  56  79
ATOM     79  C   UNL     1      -0.714  -8.437  12.871  1.00  0.00    -0.014 A 
ATOM     80  C   UNL     1      -0.802  -8.600  14.265  1.00  0.00     0.010 A 
ATOM     81  C   UNL     1      -1.647  -7.609  12.221  1.00  0.00     0.010 A 
ATOM     82  C   UNL     1      -1.825  -7.979  14.989  1.00  0.00     0.020 A 
ATOM     83  C   UNL     1      -2.652  -6.961  12.946  1.00  0.00     0.020 A 
ATOM     84  C   UNL     1      -2.746  -7.166  14.324  1.00  0.00     0.054 A 
BRANCH  84  85
ATOM     85  S   UNL     1      -4.053  -6.357  15.287  1.00  0.00     0.124 S 
ATOM     86  O   UNL     1      -4.937  -7.476  15.598  1.00  0.00    -0.237 OA
ATOM     87  O   UNL     1      -3.314  -5.801  16.418  1.00  0.00    -0.237 OA
ATOM     88  O   UNL     1      -4.598  -5.367  14.361  1.00  0.00    -0.744 OA
ENDBRANCH  84  85
ENDBRANCH  56  79
BRANCH  68  89
ATOM     89  C   UNL     1       0.561 -15.168  11.574  1.00  0.00    -0.014 A 
ATOM     90  C   UNL     1      -0.697 -15.553  11.078  1.00  0.00     0.010 A 
ATOM     91  C   UNL     1       1.231 -16.016  12.477  1.00  0.00     0.010 A 
ATOM     92  C   UNL     1      -1.288 -16.745  11.504  1.00  0.00     0.020 A 
ATOM     93  C   UNL     1       0.656 -17.223  12.881  1.00  0.00     0.020 A 
ATOM     94  C   UNL     1      -0.608 -17.573  12.403  1.00  0.00     0.054 A 
BRANCH  94  95
ATOM     95  S   UNL     1      -1.379 -19.134  12.908  1.00  0.00     0.124 S 
ATOM     96  O   UNL     1      -2.434 -18.676  13.808  1.00  0.00    -0.237 OA
ATOM     97  O   UNL     1      -1.835 -19.692  11.637  1.00  0.00    -0.237 OA
ATOM     98  O   UNL     1      -0.289 -19.869  13.547  1.00  0.00    -0.744 OA
ENDBRANCH  94  95
ENDBRANCH  68  89
ENDBRANCH  42  43
ENDBRANCH  34  37
ENDBRANCH  32  33
ENDBRANCH  31  32
ENDBRANCH  30  31
ENDBRANCH   1  30
TORSDOF 22
