REMARK SMILES C[C@@H](C(=O)NCCCCCCNC(=O)c1ccc(-c2c3nc(c(-c4ccc(S(=O)(=O)[O-])cc4)c4ccc([nH]4)c(-c4ccc(S(=O)(=O)[O-])cc4)c4nc(c(-c5ccc(S(=O)(=O)[O-])cc5)c5ccc2[nH]5)C=C4)C=C3)cc1)c1ccc(C[C@H]2CCCC2=O)cc1I
REMARK SMILES IDX 8 1 7 2 6 3 5 4 3 5 4 6 2 8 1 9 75 10 76 11 87 12 77 13
REMARK SMILES IDX 86 14 88 15 78 16 79 17 80 18 81 19 84 20 82 21 83 22 85 23
REMARK SMILES IDX 9 24 10 25 11 26 12 27 13 28 14 30 15 31 16 32 74 33 17 34
REMARK SMILES IDX 73 35 18 36 19 37 20 38 67 39 21 40 72 41 66 42 68 43 22 44
REMARK SMILES IDX 71 45 65 46 64 47 23 49 53 50 34 51 52 52 35 53 38 54 51 55
REMARK SMILES IDX 69 56 36 57 37 58 50 60 70 61 39 62 24 63 25 64 33 65 26 66
REMARK SMILES IDX 32 67 27 68 28 69 29 70 30 71 31 72 54 73 55 74 63 75 56 76
REMARK SMILES IDX 62 77 57 78 58 79 59 80 60 81 61 82 40 83 41 84 49 85 42 86
REMARK SMILES IDX 48 87 43 88 44 89 45 90 46 91 47 92
REMARK H PARENT 5 7 12 29 68 48 38 59
REMARK Flexibility Score: inf
ROOT
ATOM      1  C   UNL     1       5.030   1.518   2.375  1.00  0.00     0.002 C 
ENDROOT
BRANCH   1   2
ATOM      2  C   UNL     1       4.282   0.685   1.324  1.00  0.00     0.021 C 
BRANCH   2   3
ATOM      3  C   UNL     1       3.477  -0.477   1.911  1.00  0.00     0.116 C 
BRANCH   3   4
ATOM      4  N   UNL     1       2.380   0.027   2.710  1.00  0.00    -0.356 N 
ATOM      5  C   UNL     1       1.050   0.106   2.425  1.00  0.00     0.227 C 
ATOM      6  O   UNL     1       0.349   0.718   3.236  1.00  0.00    -0.274 OA
ATOM      7  H   UNL     1       2.635   0.367   3.598  1.00  0.00     0.163 HD
BRANCH   5   8
ATOM      8  C   UNL     1       0.485  -0.587   1.169  1.00  0.00     0.106 C 
ATOM      9  C   UNL     1       0.907   0.101  -0.137  1.00  0.00     0.023 C 
BRANCH   8  10
ATOM     10  C   UNL     1      -1.041  -0.690   1.228  1.00  0.00    -0.022 A 
ATOM     11  C   UNL     1      -1.785   0.503   1.116  1.00  0.00     0.006 A 
ATOM     12  C   UNL     1      -1.755  -1.886   1.414  1.00  0.00     0.017 A 
ATOM     13  C   UNL     1      -3.175   0.511   1.185  1.00  0.00     0.004 A 
ATOM     14  C   UNL     1      -3.157  -1.871   1.508  1.00  0.00     0.018 A 
ATOM     15  I   UNL     1      -0.852  -3.778   1.573  1.00  0.00    -0.044 I 
ATOM     16  C   UNL     1      -3.876  -0.672   1.413  1.00  0.00    -0.046 A 
BRANCH  16  17
ATOM     17  C   UNL     1      -5.375  -0.649   1.578  1.00  0.00     0.047 C 
BRANCH  17  18
ATOM     18  C   UNL     1      -5.903  -0.088   2.905  1.00  0.00     0.060 C 
ATOM     19  C   UNL     1      -5.375  -0.748   4.182  1.00  0.00     0.012 C 
ATOM     20  C   UNL     1      -5.531   1.361   3.123  1.00  0.00     0.136 C 
ATOM     21  C   UNL     1      -4.244   0.137   4.692  1.00  0.00     0.009 C 
ATOM     22  C   UNL     1      -4.627   1.560   4.312  1.00  0.00     0.076 C 
ATOM     23  O   UNL     1      -5.938   2.280   2.420  1.00  0.00    -0.299 OA
ENDBRANCH  17  18
ENDBRANCH  16  17
ENDBRANCH   8  10
ENDBRANCH   5   8
ENDBRANCH   3   4
ENDBRANCH   2   3
ENDBRANCH   1   2
BRANCH   1  24
ATOM     24  C   UNL     1       6.017   0.730   3.243  1.00  0.00     0.002 C 
BRANCH  24  25
ATOM     25  C   UNL     1       7.061  -0.072   2.463  1.00  0.00     0.021 C 
BRANCH  25  26
ATOM     26  C   UNL     1       7.944   0.765   1.543  1.00  0.00     0.116 C 
BRANCH  26  27
ATOM     27  N   UNL     1       8.769   1.705   2.287  1.00  0.00    -0.352 N 
ATOM     28  C   UNL     1      10.136   1.830   2.310  1.00  0.00     0.251 C 
ATOM     29  H   UNL     1       8.277   2.342   2.855  1.00  0.00     0.163 HD
ATOM     30  O   UNL     1      10.678   2.540   3.153  1.00  0.00    -0.269 OA
BRANCH  28  31
ATOM     31  C   UNL     1      10.952   1.084   1.329  1.00  0.00     0.039 A 
ATOM     32  C   UNL     1      12.050   0.348   1.780  1.00  0.00     0.014 A 
ATOM     33  C   UNL     1      10.617   1.091  -0.028  1.00  0.00     0.014 A 
ATOM     34  C   UNL     1      12.761  -0.451   0.882  1.00  0.00     0.010 A 
ATOM     35  C   UNL     1      11.286   0.246  -0.909  1.00  0.00     0.010 A 
ATOM     36  C   UNL     1      12.354  -0.547  -0.460  1.00  0.00    -0.014 A 
BRANCH  36  37
ATOM     37  C   UNL     1      12.985  -1.518  -1.390  1.00  0.00     0.031 A 
ATOM     38  C   UNL     1      13.725  -1.038  -2.609  1.00  0.00     0.074 A 
ATOM     39  C   UNL     1      12.806  -2.839  -1.182  1.00  0.00     0.049 A 
ATOM     40  N   UNL     1      14.255  -1.742  -3.576  1.00  0.00    -0.248 NA
ATOM     41  C   UNL     1      13.870   0.417  -2.777  1.00  0.00     0.031 C 
ATOM     42  C   UNL     1      12.068  -3.428  -0.060  1.00  0.00     0.029 A 
ATOM     43  N   UNL     1      13.211  -3.928  -1.914  1.00  0.00    -0.354 N 
ATOM     44  C   UNL     1      14.774  -0.819  -4.477  1.00  0.00     0.074 A 
ATOM     45  C   UNL     1      14.473   0.496  -3.956  1.00  0.00     0.031 C 
ATOM     46  C   UNL     1      12.079  -4.765  -0.176  1.00  0.00     0.029 A 
ATOM     47  C   UNL     1      12.780  -5.131  -1.402  1.00  0.00     0.049 A 
ATOM     48  H   UNL     1      13.758  -3.855  -2.729  1.00  0.00     0.167 HD
ATOM     49  C   UNL     1      15.445  -1.051  -5.630  1.00  0.00     0.031 A 
ATOM     50  C   UNL     1      12.906  -6.386  -1.877  1.00  0.00     0.031 A 
ATOM     51  C   UNL     1      15.759  -2.363  -6.131  1.00  0.00     0.049 A 
ATOM     52  C   UNL     1      13.641  -6.609  -3.172  1.00  0.00     0.074 A 
ATOM     53  C   UNL     1      16.520  -2.696  -7.239  1.00  0.00     0.029 A 
ATOM     54  N   UNL     1      15.319  -3.554  -5.576  1.00  0.00    -0.354 N 
ATOM     55  N   UNL     1      14.225  -5.727  -3.948  1.00  0.00    -0.248 NA
ATOM     56  C   UNL     1      13.736  -7.993  -3.656  1.00  0.00     0.031 C 
ATOM     57  C   UNL     1      16.479  -4.083  -7.395  1.00  0.00     0.029 A 
ATOM     58  C   UNL     1      15.748  -4.620  -6.348  1.00  0.00     0.049 A 
ATOM     59  H   UNL     1      14.782  -3.631  -4.754  1.00  0.00     0.167 HD
ATOM     60  C   UNL     1      14.767  -6.453  -5.002  1.00  0.00     0.074 A 
ATOM     61  C   UNL     1      14.468  -7.846  -4.752  1.00  0.00     0.031 C 
ATOM     62  C   UNL     1      15.444  -6.003  -6.087  1.00  0.00     0.031 A 
BRANCH  49  63
ATOM     63  C   UNL     1      15.884   0.131  -6.452  1.00  0.00    -0.014 A 
ATOM     64  C   UNL     1      16.950   0.950  -6.041  1.00  0.00     0.010 A 
ATOM     65  C   UNL     1      15.293   0.355  -7.709  1.00  0.00     0.010 A 
ATOM     66  C   UNL     1      17.409   1.979  -6.869  1.00  0.00     0.020 A 
ATOM     67  C   UNL     1      15.765   1.367  -8.550  1.00  0.00     0.020 A 
ATOM     68  C   UNL     1      16.818   2.176  -8.121  1.00  0.00     0.054 A 
BRANCH  68  69
ATOM     69  S   UNL     1      17.485   3.472  -9.202  1.00  0.00     0.124 S 
ATOM     70  O   UNL     1      17.056   4.688  -8.515  1.00  0.00    -0.237 OA
ATOM     71  O   UNL     1      18.921   3.205  -9.169  1.00  0.00    -0.237 OA
ATOM     72  O   UNL     1      16.836   3.221 -10.486  1.00  0.00    -0.744 OA
ENDBRANCH  68  69
ENDBRANCH  49  63
BRANCH  50  73
ATOM     73  C   UNL     1      12.286  -7.531  -1.152  1.00  0.00    -0.014 A 
ATOM     74  C   UNL     1      13.083  -8.524  -0.555  1.00  0.00     0.010 A 
ATOM     75  C   UNL     1      10.885  -7.647  -1.082  1.00  0.00     0.010 A 
ATOM     76  C   UNL     1      12.491  -9.629   0.064  1.00  0.00     0.020 A 
ATOM     77  C   UNL     1      10.290  -8.733  -0.435  1.00  0.00     0.020 A 
ATOM     78  C   UNL     1      11.098  -9.728   0.117  1.00  0.00     0.054 A 
BRANCH  78  79
ATOM     79  S   UNL     1      10.350 -11.164   0.935  1.00  0.00     0.124 S 
ATOM     80  O   UNL     1      10.592 -12.226  -0.037  1.00  0.00    -0.237 OA
ATOM     81  O   UNL     1      11.114 -11.254   2.176  1.00  0.00    -0.237 OA
ATOM     82  O   UNL     1       8.952 -10.772   1.100  1.00  0.00    -0.744 OA
ENDBRANCH  78  79
ENDBRANCH  50  73
BRANCH  62  83
ATOM     83  C   UNL     1      15.921  -7.024  -7.084  1.00  0.00    -0.014 A 
ATOM     84  C   UNL     1      15.017  -7.672  -7.943  1.00  0.00     0.010 A 
ATOM     85  C   UNL     1      17.299  -7.277  -7.220  1.00  0.00     0.010 A 
ATOM     86  C   UNL     1      15.479  -8.567  -8.911  1.00  0.00     0.020 A 
ATOM     87  C   UNL     1      17.768  -8.149  -8.207  1.00  0.00     0.020 A 
ATOM     88  C   UNL     1      16.853  -8.794  -9.041  1.00  0.00     0.054 A 
BRANCH  88  89
ATOM     89  S   UNL     1      17.430  -9.904 -10.354  1.00  0.00     0.124 S 
ATOM     90  O   UNL     1      17.014 -11.211  -9.853  1.00  0.00    -0.237 OA
ATOM     91  O   UNL     1      16.703  -9.419 -11.524  1.00  0.00    -0.237 OA
ATOM     92  O   UNL     1      18.874  -9.681 -10.388  1.00  0.00    -0.744 OA
ENDBRANCH  88  89
ENDBRANCH  62  83
ENDBRANCH  36  37
ENDBRANCH  28  31
ENDBRANCH  26  27
ENDBRANCH  25  26
ENDBRANCH  24  25
ENDBRANCH   1  24
TORSDOF 19
