REMARK SMILES COc1cc2c(cc1OC)[C@H](C(=O)NCCCCCCNC(=O)c1ccc(-c3c4nc(c(-c5ccc(S(=O)(=O)[O-])cc5)c5ccc([nH]5)c(-c5ccc(S(=O)(=O)[O-])cc5)c5nc(c(-c6ccc(S(=O)(=O)[O-])cc6)c6ccc3[nH]6)C=C5)C=C4)cc1)[C@H](c1cccc(Cl)c1)N(C)C2=O
REMARK SMILES IDX 18 1 17 2 16 3 15 4 14 5 12 6 13 7 11 9 3 10 4 11 8 12 5 13
REMARK SMILES IDX 7 14 6 15 94 16 92 17 95 18 84 19 93 20 2 21 1 22 9 23 10 24
REMARK SMILES IDX 85 25 86 26 91 27 87 28 89 29 88 30 90 31 19 32 20 33 21 34
REMARK SMILES IDX 22 35 23 37 24 38 25 39 83 40 26 41 82 42 27 43 28 44 29 45
REMARK SMILES IDX 76 46 30 47 81 48 75 49 77 50 31 51 80 52 74 53 73 54 32 56
REMARK SMILES IDX 62 57 43 58 61 59 44 60 47 61 60 62 78 63 45 64 46 65 59 67
REMARK SMILES IDX 79 68 48 69 33 70 34 71 42 72 35 73 41 74 36 75 37 76 38 77
REMARK SMILES IDX 39 78 40 79 63 80 64 81 72 82 65 83 71 84 66 85 67 86 68 87
REMARK SMILES IDX 69 88 70 89 49 90 50 91 58 92 51 93 57 94 52 95 53 96 54 97
REMARK SMILES IDX 55 98 56 99
REMARK H PARENT 14 8 21 36 77 55 47 66
REMARK Flexibility Score: inf
ROOT
ATOM      1  C   UNL     1      -1.838   6.172  -3.897  1.00  0.00     0.002 C 
ENDROOT
BRANCH   1   2
ATOM      2  C   UNL     1      -2.245   5.809  -2.468  1.00  0.00     0.002 C 
BRANCH   2   3
ATOM      3  C   UNL     1      -1.156   5.155  -1.623  1.00  0.00     0.021 C 
BRANCH   3   4
ATOM      4  C   UNL     1       0.076   6.017  -1.382  1.00  0.00     0.116 C 
BRANCH   4   5
ATOM      5  N   UNL     1      -0.124   6.955  -0.288  1.00  0.00    -0.355 N 
ATOM      6  C   UNL     1       0.509   7.079   0.914  1.00  0.00     0.230 C 
ATOM      7  O   UNL     1       0.195   8.056   1.605  1.00  0.00    -0.274 OA
ATOM      8  H   UNL     1      -0.838   7.615  -0.442  1.00  0.00     0.163 HD
BRANCH   6   9
ATOM      9  C   UNL     1       1.609   6.134   1.406  1.00  0.00     0.136 C 
ATOM     10  C   UNL     1       1.014   2.032   0.290  1.00  0.00     0.161 A 
ATOM     11  C   UNL     1       2.306   2.513   0.532  1.00  0.00     0.064 A 
ATOM     12  C   UNL     1      -0.095   2.792   0.673  1.00  0.00     0.161 A 
ATOM     13  C   UNL     1       2.486   3.807   1.035  1.00  0.00     0.048 A 
ATOM     14  C   UNL     1       0.107   4.075   1.200  1.00  0.00     0.056 A 
ATOM     15  C   UNL     1       1.384   4.647   1.218  1.00  0.00    -0.016 A 
ATOM     16  C   UNL     1       3.850   4.287   1.401  1.00  0.00     0.254 C 
ATOM     17  N   UNL     1       4.029   5.668   1.480  1.00  0.00    -0.333 N 
ATOM     18  O   UNL     1       4.739   3.475   1.626  1.00  0.00    -0.269 OA
ATOM     19  C   UNL     1       3.023   6.589   0.918  1.00  0.00     0.132 C 
ATOM     20  C   UNL     1       5.336   6.184   1.846  1.00  0.00     0.147 C 
BRANCH  10  21
ATOM     21  O   UNL     1       0.850   0.881  -0.430  1.00  0.00    -0.493 OA
ATOM     22  C   UNL     1       1.236  -0.280   0.296  1.00  0.00     0.278 C 
ENDBRANCH  10  21
BRANCH  12  23
ATOM     23  O   UNL     1      -1.417   2.448   0.580  1.00  0.00    -0.493 OA
ATOM     24  C   UNL     1      -1.789   1.594  -0.496  1.00  0.00     0.278 C 
ENDBRANCH  12  23
BRANCH  19  25
ATOM     25  C   UNL     1       3.232   6.797  -0.592  1.00  0.00    -0.023 A 
ATOM     26  C   UNL     1       2.731   7.955  -1.219  1.00  0.00     0.006 A 
ATOM     27  C   UNL     1       3.909   5.868  -1.407  1.00  0.00     0.026 A 
ATOM     28  C   UNL     1       2.816   8.124  -2.607  1.00  0.00     0.002 A 
ATOM     29  C   UNL     1       4.008   6.049  -2.788  1.00  0.00     0.041 A 
ATOM     30  C   UNL     1       3.444   7.163  -3.395  1.00  0.00     0.020 A 
ATOM     31  Cl  UNL     1       4.822   4.871  -3.740  1.00  0.00    -0.084 Cl
ENDBRANCH  19  25
ENDBRANCH   6   9
ENDBRANCH   4   5
ENDBRANCH   3   4
ENDBRANCH   2   3
ENDBRANCH   1   2
BRANCH   1  32
ATOM     32  C   UNL     1      -1.163   5.055  -4.697  1.00  0.00     0.021 C 
BRANCH  32  33
ATOM     33  C   UNL     1      -1.906   3.722  -4.718  1.00  0.00     0.116 C 
BRANCH  33  34
ATOM     34  N   UNL     1      -3.266   3.850  -5.218  1.00  0.00    -0.352 N 
ATOM     35  C   UNL     1      -3.852   3.267  -6.313  1.00  0.00     0.251 C 
ATOM     36  H   UNL     1      -3.851   4.443  -4.693  1.00  0.00     0.163 HD
ATOM     37  O   UNL     1      -4.963   3.631  -6.684  1.00  0.00    -0.269 OA
BRANCH  35  38
ATOM     38  C   UNL     1      -3.124   2.220  -7.056  1.00  0.00     0.039 A 
ATOM     39  C   UNL     1      -3.011   2.332  -8.443  1.00  0.00     0.014 A 
ATOM     40  C   UNL     1      -2.531   1.148  -6.381  1.00  0.00     0.014 A 
ATOM     41  C   UNL     1      -2.233   1.412  -9.147  1.00  0.00     0.010 A 
ATOM     42  C   UNL     1      -1.702   0.271  -7.075  1.00  0.00     0.010 A 
ATOM     43  C   UNL     1      -1.535   0.403  -8.462  1.00  0.00    -0.014 A 
BRANCH  43  44
ATOM     44  C   UNL     1      -0.582  -0.488  -9.171  1.00  0.00     0.031 A 
ATOM     45  C   UNL     1      -0.835  -1.968  -9.248  1.00  0.00     0.074 A 
ATOM     46  C   UNL     1       0.554   0.033  -9.677  1.00  0.00     0.049 A 
ATOM     47  N   UNL     1      -0.079  -2.905  -9.759  1.00  0.00    -0.248 NA
ATOM     48  C   UNL     1      -2.090  -2.461  -8.658  1.00  0.00     0.031 C 
ATOM     49  C   UNL     1       0.930   1.449  -9.631  1.00  0.00     0.029 A 
ATOM     50  N   UNL     1       1.610  -0.567 -10.317  1.00  0.00    -0.354 N 
ATOM     51  C   UNL     1      -0.758  -4.098  -9.543  1.00  0.00     0.074 A 
ATOM     52  C   UNL     1      -1.966  -3.771  -8.816  1.00  0.00     0.031 C 
ATOM     53  C   UNL     1       2.118   1.609 -10.234  1.00  0.00     0.029 A 
ATOM     54  C   UNL     1       2.614   0.306 -10.665  1.00  0.00     0.049 A 
ATOM     55  H   UNL     1       1.645  -1.532 -10.509  1.00  0.00     0.167 HD
ATOM     56  C   UNL     1      -0.412  -5.351  -9.927  1.00  0.00     0.031 A 
ATOM     57  C   UNL     1       3.809   0.085 -11.246  1.00  0.00     0.031 A 
ATOM     58  C   UNL     1       0.793  -5.668 -10.648  1.00  0.00     0.049 A 
ATOM     59  C   UNL     1       4.189  -1.320 -11.624  1.00  0.00     0.074 A 
ATOM     60  C   UNL     1       1.204  -6.896 -11.135  1.00  0.00     0.029 A 
ATOM     61  N   UNL     1       1.788  -4.757 -10.972  1.00  0.00    -0.354 N 
ATOM     62  N   UNL     1       3.496  -2.425 -11.485  1.00  0.00    -0.248 NA
ATOM     63  C   UNL     1       5.511  -1.509 -12.238  1.00  0.00     0.031 C 
ATOM     64  C   UNL     1       2.475  -6.741 -11.696  1.00  0.00     0.029 A 
ATOM     65  C   UNL     1       2.830  -5.403 -11.616  1.00  0.00     0.049 A 
ATOM     66  H   UNL     1       1.757  -3.793 -10.774  1.00  0.00     0.167 HD
ATOM     67  C   UNL     1       4.291  -3.438 -12.007  1.00  0.00     0.074 A 
ATOM     68  C   UNL     1       5.507  -2.812 -12.485  1.00  0.00     0.031 C 
ATOM     69  C   UNL     1       4.038  -4.768 -12.079  1.00  0.00     0.031 A 
BRANCH  56  70
ATOM     70  C   UNL     1      -1.343  -6.478  -9.563  1.00  0.00    -0.014 A 
ATOM     71  C   UNL     1      -2.603  -6.607 -10.173  1.00  0.00     0.010 A 
ATOM     72  C   UNL     1      -0.931  -7.451  -8.634  1.00  0.00     0.010 A 
ATOM     73  C   UNL     1      -3.450  -7.665  -9.833  1.00  0.00     0.020 A 
ATOM     74  C   UNL     1      -1.764  -8.528  -8.312  1.00  0.00     0.020 A 
ATOM     75  C   UNL     1      -3.025  -8.618  -8.903  1.00  0.00     0.054 A 
BRANCH  75  76
ATOM     76  S   UNL     1      -4.138  -9.993  -8.499  1.00  0.00     0.124 S 
ATOM     77  O   UNL     1      -5.176  -9.321  -7.721  1.00  0.00    -0.237 OA
ATOM     78  O   UNL     1      -4.550 -10.468  -9.817  1.00  0.00    -0.237 OA
ATOM     79  O   UNL     1      -3.292 -10.914  -7.743  1.00  0.00    -0.744 OA
ENDBRANCH  75  76
ENDBRANCH  56  70
BRANCH  57  80
ATOM     80  C   UNL     1       4.735   1.224 -11.496  1.00  0.00    -0.014 A 
ATOM     81  C   UNL     1       4.997   1.658 -12.807  1.00  0.00     0.010 A 
ATOM     82  C   UNL     1       5.346   1.895 -10.420  1.00  0.00     0.010 A 
ATOM     83  C   UNL     1       5.862   2.732 -13.039  1.00  0.00     0.020 A 
ATOM     84  C   UNL     1       6.188   2.987 -10.645  1.00  0.00     0.020 A 
ATOM     85  C   UNL     1       6.448   3.393 -11.955  1.00  0.00     0.054 A 
BRANCH  85  86
ATOM     86  S   UNL     1       7.519   4.821 -12.279  1.00  0.00     0.124 S 
ATOM     87  O   UNL     1       8.714   4.187 -12.828  1.00  0.00    -0.237 OA
ATOM     88  O   UNL     1       6.726   5.602 -13.225  1.00  0.00    -0.237 OA
ATOM     89  O   UNL     1       7.682   5.433 -10.962  1.00  0.00    -0.744 OA
ENDBRANCH  85  86
ENDBRANCH  57  80
BRANCH  69  90
ATOM     90  C   UNL     1       5.092  -5.644 -12.704  1.00  0.00    -0.014 A 
ATOM     91  C   UNL     1       6.290  -5.930 -12.025  1.00  0.00     0.010 A 
ATOM     92  C   UNL     1       4.846  -6.252 -13.948  1.00  0.00     0.010 A 
ATOM     93  C   UNL     1       7.230  -6.798 -12.587  1.00  0.00     0.020 A 
ATOM     94  C   UNL     1       5.771  -7.142 -14.501  1.00  0.00     0.020 A 
ATOM     95  C   UNL     1       6.961  -7.404 -13.819  1.00  0.00     0.054 A 
BRANCH  95  96
ATOM     96  S   UNL     1       8.166  -8.582 -14.489  1.00  0.00     0.124 S 
ATOM     97  O   UNL     1       9.264  -7.704 -14.884  1.00  0.00    -0.237 OA
ATOM     98  O   UNL     1       8.435  -9.450 -13.345  1.00  0.00    -0.237 OA
ATOM     99  O   UNL     1       7.452  -9.220 -15.593  1.00  0.00    -0.744 OA
ENDBRANCH  95  96
ENDBRANCH  69  90
ENDBRANCH  43  44
ENDBRANCH  35  38
ENDBRANCH  33  34
ENDBRANCH  32  33
ENDBRANCH   1  32
TORSDOF 19
