REMARK SMILES COc1cc(NS(=O)(=O)c2cc(C(=O)NCCCCCCNC(=O)c3ccc(-c4c5nc(c(-c6ccc(S(=O)(=O)[O-])cc6)c6ccc([nH]6)c(-c6ccc(S(=O)(=O)[O-])cc6)c6nc(c(-c7ccc(S(=O)(=O)[O-])cc7)c7ccc4[nH]7)C=C6)C=C5)cc3)cc(C)c2C)ccc1N1CCCC1=O
REMARK SMILES IDX 18 1 17 2 16 3 15 4 13 5 14 6 12 8 10 9 11 10 88 11 86 12
REMARK SMILES IDX 89 13 85 14 87 15 7 16 8 17 9 18 6 19 5 21 3 22 4 23 92 24
REMARK SMILES IDX 91 25 90 26 2 27 1 28 93 29 94 30 97 31 95 32 96 33 98 34
REMARK SMILES IDX 19 35 20 36 21 37 22 38 23 39 24 41 25 42 26 43 84 44 27 45
REMARK SMILES IDX 83 46 28 47 29 48 30 49 77 50 31 51 82 52 76 53 78 54 32 55
REMARK SMILES IDX 81 56 75 57 74 58 33 60 63 61 44 62 62 63 45 64 48 65 61 66
REMARK SMILES IDX 79 67 46 68 47 69 60 71 80 72 49 73 34 74 35 75 43 76 36 77
REMARK SMILES IDX 42 78 37 79 38 80 39 81 40 82 41 83 64 84 65 85 73 86 66 87
REMARK SMILES IDX 72 88 67 89 68 90 69 91 70 92 71 93 50 94 51 95 59 96 52 97
REMARK SMILES IDX 58 98 53 99 54 100 55 101 56 102 57 103
REMARK H PARENT 15 7 6 20 22 40 78 59 48 70
REMARK Flexibility Score: inf
ROOT
ATOM      1  C   UNL     1      -2.094   3.709   1.204  1.00  0.00     0.002 C 
ENDROOT
BRANCH   1   2
ATOM      2  C   UNL     1      -1.447   2.348   0.960  1.00  0.00     0.021 C 
BRANCH   2   3
ATOM      3  C   UNL     1      -2.331   1.108   1.086  1.00  0.00     0.116 C 
BRANCH   3   4
ATOM      4  N   UNL     1      -3.396   1.025   0.102  1.00  0.00    -0.352 N 
ATOM      5  C   UNL     1      -3.935  -0.059  -0.560  1.00  0.00     0.251 C 
ATOM      6  O   UNL     1      -4.847   0.140  -1.361  1.00  0.00    -0.269 OA
ATOM      7  H   UNL     1      -3.802   1.890  -0.134  1.00  0.00     0.163 HD
BRANCH   5   8
ATOM      8  C   UNL     1      -3.392  -1.440  -0.413  1.00  0.00     0.041 A 
ATOM      9  C   UNL     1      -2.591  -3.451  -1.559  1.00  0.00     0.091 A 
ATOM     10  C   UNL     1      -3.326  -2.241  -1.557  1.00  0.00     0.036 A 
ATOM     11  C   UNL     1      -1.970  -3.917  -0.372  1.00  0.00    -0.028 A 
ATOM     12  C   UNL     1      -2.106  -3.123   0.799  1.00  0.00    -0.046 A 
ATOM     13  C   UNL     1      -1.062  -5.119  -0.307  1.00  0.00     0.046 C 
ATOM     14  C   UNL     1      -2.859  -1.931   0.773  1.00  0.00     0.017 A 
ATOM     15  C   UNL     1      -1.328  -3.377   2.072  1.00  0.00     0.044 C 
BRANCH   9  16
ATOM     16  S   UNL     1      -2.379  -4.200  -3.171  1.00  0.00     0.262 S 
ATOM     17  O   UNL     1      -3.425  -3.694  -4.037  1.00  0.00    -0.201 OA
ATOM     18  O   UNL     1      -2.249  -5.636  -3.026  1.00  0.00    -0.201 OA
BRANCH  16  19
ATOM     19  N   UNL     1      -0.915  -3.658  -3.868  1.00  0.00    -0.279 N 
ATOM     20  H   UNL     1      -0.837  -3.692  -4.849  1.00  0.00     0.180 HD
BRANCH  19  21
ATOM     21  C   UNL     1       0.211  -3.154  -3.125  1.00  0.00     0.053 A 
ATOM     22  C   UNL     1       1.211  -1.761  -1.404  1.00  0.00     0.144 A 
ATOM     23  C   UNL     1       0.098  -2.214  -2.110  1.00  0.00     0.075 A 
ATOM     24  C   UNL     1       2.495  -2.068  -1.854  1.00  0.00     0.086 A 
ATOM     25  C   UNL     1       2.631  -2.859  -2.998  1.00  0.00     0.032 A 
ATOM     26  C   UNL     1       1.497  -3.425  -3.606  1.00  0.00     0.029 A 
BRANCH  22  27
ATOM     27  O   UNL     1       0.946  -1.111  -0.230  1.00  0.00    -0.494 OA
ATOM     28  C   UNL     1       1.111   0.294  -0.310  1.00  0.00     0.278 C 
ENDBRANCH  22  27
BRANCH  24  29
ATOM     29  N   UNL     1       3.644  -1.549  -1.231  1.00  0.00    -0.309 N 
ATOM     30  C   UNL     1       4.379  -0.474  -1.849  1.00  0.00     0.126 C 
ATOM     31  C   UNL     1       3.878  -1.633   0.142  1.00  0.00     0.227 C 
ATOM     32  C   UNL     1       5.457  -0.138  -0.839  1.00  0.00     0.032 C 
ATOM     33  C   UNL     1       4.867  -0.553   0.501  1.00  0.00     0.102 C 
ATOM     34  O   UNL     1       3.366  -2.397   0.945  1.00  0.00    -0.275 OA
ENDBRANCH  24  29
ENDBRANCH  19  21
ENDBRANCH  16  19
ENDBRANCH   9  16
ENDBRANCH   5   8
ENDBRANCH   3   4
ENDBRANCH   2   3
ENDBRANCH   1   2
BRANCH   1  35
ATOM     35  C   UNL     1      -2.836   3.886   2.528  1.00  0.00     0.002 C 
BRANCH  35  36
ATOM     36  C   UNL     1      -2.075   3.513   3.804  1.00  0.00     0.021 C 
BRANCH  36  37
ATOM     37  C   UNL     1      -0.709   4.165   4.003  1.00  0.00     0.116 C 
BRANCH  37  38
ATOM     38  N   UNL     1      -0.765   5.615   4.021  1.00  0.00    -0.352 N 
ATOM     39  C   UNL     1      -0.283   6.513   4.942  1.00  0.00     0.251 C 
ATOM     40  H   UNL     1      -1.222   6.021   3.249  1.00  0.00     0.163 HD
ATOM     41  O   UNL     1      -0.557   7.704   4.815  1.00  0.00    -0.269 OA
BRANCH  39  42
ATOM     42  C   UNL     1       0.538   6.068   6.094  1.00  0.00     0.039 A 
ATOM     43  C   UNL     1       0.302   6.652   7.343  1.00  0.00     0.014 A 
ATOM     44  C   UNL     1       1.561   5.125   5.957  1.00  0.00     0.014 A 
ATOM     45  C   UNL     1       1.048   6.255   8.456  1.00  0.00     0.010 A 
ATOM     46  C   UNL     1       2.261   4.681   7.081  1.00  0.00     0.010 A 
ATOM     47  C   UNL     1       2.016   5.244   8.343  1.00  0.00    -0.014 A 
BRANCH  47  48
ATOM     48  C   UNL     1       2.764   4.769   9.539  1.00  0.00     0.031 A 
ATOM     49  C   UNL     1       4.252   4.973   9.648  1.00  0.00     0.074 A 
ATOM     50  C   UNL     1       2.104   4.117  10.518  1.00  0.00     0.049 A 
ATOM     51  N   UNL     1       5.063   4.623  10.615  1.00  0.00    -0.248 NA
ATOM     52  C   UNL     1       4.920   5.636   8.517  1.00  0.00     0.031 C 
ATOM     53  C   UNL     1       0.671   3.813  10.516  1.00  0.00     0.029 A 
ATOM     54  N   UNL     1       2.551   3.593  11.706  1.00  0.00    -0.354 N 
ATOM     55  C   UNL     1       6.334   5.011  10.206  1.00  0.00     0.074 A 
ATOM     56  C   UNL     1       6.194   5.580   8.883  1.00  0.00     0.031 C 
ATOM     57  C   UNL     1       0.353   3.183  11.659  1.00  0.00     0.029 A 
ATOM     58  C   UNL     1       1.560   3.007  12.459  1.00  0.00     0.049 A 
ATOM     59  H   UNL     1       3.492   3.632  11.992  1.00  0.00     0.167 HD
ATOM     60  C   UNL     1       7.509   4.919  10.875  1.00  0.00     0.031 A 
ATOM     61  C   UNL     1       1.613   2.396  13.659  1.00  0.00     0.031 A 
ATOM     62  C   UNL     1       7.648   4.362  12.196  1.00  0.00     0.049 A 
ATOM     63  C   UNL     1       2.927   2.312  14.385  1.00  0.00     0.074 A 
ATOM     64  C   UNL     1       8.786   4.280  12.980  1.00  0.00     0.029 A 
ATOM     65  N   UNL     1       6.618   3.790  12.928  1.00  0.00    -0.354 N 
ATOM     66  N   UNL     1       4.105   2.752  14.010  1.00  0.00    -0.248 NA
ATOM     67  C   UNL     1       2.916   1.665  15.704  1.00  0.00     0.031 C 
ATOM     68  C   UNL     1       8.456   3.613  14.164  1.00  0.00     0.029 A 
ATOM     69  C   UNL     1       7.099   3.332  14.143  1.00  0.00     0.049 A 
ATOM     70  H   UNL     1       5.683   3.720  12.628  1.00  0.00     0.167 HD
ATOM     71  C   UNL     1       4.970   2.456  15.058  1.00  0.00     0.074 A 
ATOM     72  C   UNL     1       4.176   1.818  16.089  1.00  0.00     0.031 C 
ATOM     73  C   UNL     1       6.301   2.692  15.158  1.00  0.00     0.031 A 
BRANCH  60  74
ATOM     74  C   UNL     1       8.748   5.430  10.185  1.00  0.00    -0.014 A 
ATOM     75  C   UNL     1       8.950   6.806   9.978  1.00  0.00     0.010 A 
ATOM     76  C   UNL     1       9.748   4.525   9.782  1.00  0.00     0.010 A 
ATOM     77  C   UNL     1      10.108   7.266   9.344  1.00  0.00     0.020 A 
ATOM     78  C   UNL     1      10.920   4.982   9.173  1.00  0.00     0.020 A 
ATOM     79  C   UNL     1      11.085   6.349   8.942  1.00  0.00     0.054 A 
BRANCH  79  80
ATOM     80  S   UNL     1      12.586   6.975   8.139  1.00  0.00     0.124 S 
ATOM     81  O   UNL     1      12.086   7.354   6.820  1.00  0.00    -0.237 OA
ATOM     82  O   UNL     1      12.975   8.085   9.005  1.00  0.00    -0.237 OA
ATOM     83  O   UNL     1      13.492   5.829   8.156  1.00  0.00    -0.744 OA
ENDBRANCH  79  80
ENDBRANCH  60  74
BRANCH  61  84
ATOM     84  C   UNL     1       0.373   1.829  14.259  1.00  0.00    -0.014 A 
ATOM     85  C   UNL     1      -0.220   2.432  15.382  1.00  0.00     0.010 A 
ATOM     86  C   UNL     1      -0.226   0.685  13.700  1.00  0.00     0.010 A 
ATOM     87  C   UNL     1      -1.377   1.891  15.948  1.00  0.00     0.020 A 
ATOM     88  C   UNL     1      -1.399   0.158  14.246  1.00  0.00     0.020 A 
ATOM     89  C   UNL     1      -1.961   0.757  15.375  1.00  0.00     0.054 A 
BRANCH  89  90
ATOM     90  S   UNL     1      -3.492   0.101  16.095  1.00  0.00     0.124 S 
ATOM     91  O   UNL     1      -3.004  -0.543  17.310  1.00  0.00    -0.237 OA
ATOM     92  O   UNL     1      -4.290   1.308  16.294  1.00  0.00    -0.237 OA
ATOM     93  O   UNL     1      -3.993  -0.804  15.063  1.00  0.00    -0.744 OA
ENDBRANCH  89  90
ENDBRANCH  61  84
BRANCH  73  94
ATOM     94  C   UNL     1       6.980   2.284  16.439  1.00  0.00    -0.014 A 
ATOM     95  C   UNL     1       7.194   0.930  16.754  1.00  0.00     0.010 A 
ATOM     96  C   UNL     1       7.441   3.274  17.326  1.00  0.00     0.010 A 
ATOM     97  C   UNL     1       7.819   0.573  17.952  1.00  0.00     0.020 A 
ATOM     98  C   UNL     1       8.092   2.922  18.511  1.00  0.00     0.020 A 
ATOM     99  C   UNL     1       8.261   1.572  18.825  1.00  0.00     0.054 A 
BRANCH  99 100
ATOM    100  S   UNL     1       9.092   1.085  20.362  1.00  0.00     0.124 S 
ATOM    101  O   UNL     1       7.974   0.617  21.176  1.00  0.00    -0.237 OA
ATOM    102  O   UNL     1      10.019   0.049  19.912  1.00  0.00    -0.237 OA
ATOM    103  O   UNL     1       9.723   2.320  20.821  1.00  0.00    -0.744 OA
ENDBRANCH  99 100
ENDBRANCH  73  94
ENDBRANCH  47  48
ENDBRANCH  39  42
ENDBRANCH  37  38
ENDBRANCH  36  37
ENDBRANCH  35  36
ENDBRANCH   1  35
TORSDOF 21
