REMARK SMILES Cc1ccc(Cl)c(Nc2ccccc2C(=O)N[C@@H](C)C(=O)NCCCCCCNC(=O)c2ccc(-c3c4nc(c(-c5ccc(S(=O)(=O)[O-])cc5)c5ccc([nH]5)c(-c5ccc(S(=O)(=O)[O-])cc5)c5nc(c(-c6ccc(S(=O)(=O)[O-])cc6)c6ccc3[nH]6)C=C5)C=C4)cc2)c1Cl
REMARK SMILES IDX 25 1 24 2 23 3 22 4 20 5 21 6 18 8 19 9 17 10 15 11 16 12
REMARK SMILES IDX 14 14 9 15 10 16 11 17 13 18 12 19 8 20 7 22 1 23 2 24 3 25
REMARK SMILES IDX 92 26 4 27 93 28 5 29 6 30 26 31 27 32 28 33 29 34 30 35
REMARK SMILES IDX 31 37 32 38 33 39 91 40 34 41 90 42 35 43 36 44 37 45 84 46
REMARK SMILES IDX 38 47 89 48 83 49 85 50 39 51 88 52 82 53 81 54 40 56 70 57
REMARK SMILES IDX 51 58 69 59 52 60 55 61 68 62 86 63 53 64 54 65 67 67 87 68
REMARK SMILES IDX 56 69 41 70 42 71 50 72 43 73 49 74 44 75 45 76 46 77 47 78
REMARK SMILES IDX 48 79 71 80 72 81 80 82 73 83 79 84 74 85 75 86 76 87 77 88
REMARK SMILES IDX 78 89 57 90 58 91 66 92 59 93 65 94 60 95 61 96 62 97 63 98
REMARK SMILES IDX 64 99
REMARK H PARENT 22 7 17 13 8 21 29 36 85 55 55 66
REMARK Flexibility Score: inf
ROOT
ATOM      1  C   UNL     1      -0.326   3.785   2.461  1.00  0.00     0.002 C 
ENDROOT
BRANCH   1   2
ATOM      2  C   UNL     1      -0.381   2.564   3.389  1.00  0.00     0.021 C 
BRANCH   2   3
ATOM      3  C   UNL     1      -1.575   1.624   3.171  1.00  0.00     0.116 C 
BRANCH   3   4
ATOM      4  N   UNL     1      -1.604   1.054   1.842  1.00  0.00    -0.354 N 
ATOM      5  C   UNL     1      -0.666   0.096   1.588  1.00  0.00     0.242 C 
ATOM      6  O   UNL     1       0.460   0.478   1.273  1.00  0.00    -0.273 OA
ATOM      7  H   UNL     1      -2.258   1.340   1.163  1.00  0.00     0.163 HD
BRANCH   5   8
ATOM      8  C   UNL     1      -1.047  -1.392   1.751  1.00  0.00     0.168 C 
ATOM      9  C   UNL     1      -2.354  -1.665   2.478  1.00  0.00     0.041 C 
BRANCH   8  10
ATOM     10  N   UNL     1       0.105  -1.960   2.429  1.00  0.00    -0.340 N 
ATOM     11  C   UNL     1       1.306  -2.309   1.850  1.00  0.00     0.254 C 
ATOM     12  O   UNL     1       2.321  -2.049   2.505  1.00  0.00    -0.269 OA
ATOM     13  H   UNL     1       0.019  -2.112   3.398  1.00  0.00     0.164 HD
BRANCH  11  14
ATOM     14  C   UNL     1       1.427  -3.224   0.669  1.00  0.00     0.063 A 
ATOM     15  C   UNL     1       0.790  -3.212  -0.591  1.00  0.00     0.051 A 
ATOM     16  C   UNL     1       1.008  -4.316  -1.453  1.00  0.00     0.027 A 
ATOM     17  C   UNL     1       1.883  -5.354  -1.138  1.00  0.00     0.002 A 
ATOM     18  C   UNL     1       2.332  -4.280   0.953  1.00  0.00     0.016 A 
ATOM     19  C   UNL     1       2.570  -5.322   0.060  1.00  0.00     0.001 A 
BRANCH  15  20
ATOM     20  N   UNL     1       0.025  -2.184  -1.179  1.00  0.00    -0.352 N 
ATOM     21  H   UNL     1      -0.863  -2.489  -1.473  1.00  0.00     0.167 HD
BRANCH  20  22
ATOM     22  C   UNL     1       0.250  -0.806  -1.441  1.00  0.00     0.077 A 
ATOM     23  C   UNL     1       2.816   1.991  -0.912  1.00  0.00     0.046 C 
ATOM     24  C   UNL     1       1.556   1.273  -1.321  1.00  0.00    -0.030 A 
ATOM     25  C   UNL     1       0.399   2.027  -1.565  1.00  0.00     0.006 A 
ATOM     26  C   UNL     1       1.490  -0.143  -1.327  1.00  0.00     0.069 A 
ATOM     27  C   UNL     1      -0.816   1.392  -1.792  1.00  0.00     0.023 A 
ATOM     28  Cl  UNL     1       2.985  -1.028  -1.259  1.00  0.00    -0.082 Cl
ATOM     29  C   UNL     1      -0.888   0.000  -1.711  1.00  0.00     0.066 A 
ATOM     30  Cl  UNL     1      -2.460  -0.720  -1.886  1.00  0.00    -0.082 Cl
ENDBRANCH  20  22
ENDBRANCH  15  20
ENDBRANCH  11  14
ENDBRANCH   8  10
ENDBRANCH   5   8
ENDBRANCH   3   4
ENDBRANCH   2   3
ENDBRANCH   1   2
BRANCH   1  31
ATOM     31  C   UNL     1      -1.609   4.618   2.393  1.00  0.00     0.002 C 
BRANCH  31  32
ATOM     32  C   UNL     1      -2.246   4.943   3.743  1.00  0.00     0.021 C 
BRANCH  32  33
ATOM     33  C   UNL     1      -1.306   5.585   4.748  1.00  0.00     0.116 C 
BRANCH  33  34
ATOM     34  N   UNL     1      -0.994   6.956   4.401  1.00  0.00    -0.352 N 
ATOM     35  C   UNL     1      -1.101   8.070   5.199  1.00  0.00     0.251 C 
ATOM     36  H   UNL     1      -0.665   7.107   3.485  1.00  0.00     0.163 HD
ATOM     37  O   UNL     1      -0.997   9.189   4.719  1.00  0.00    -0.269 OA
BRANCH  35  38
ATOM     38  C   UNL     1      -1.380   7.888   6.642  1.00  0.00     0.039 A 
ATOM     39  C   UNL     1      -2.389   8.648   7.234  1.00  0.00     0.014 A 
ATOM     40  C   UNL     1      -0.672   6.943   7.394  1.00  0.00     0.014 A 
ATOM     41  C   UNL     1      -2.712   8.434   8.575  1.00  0.00     0.010 A 
ATOM     42  C   UNL     1      -1.058   6.670   8.703  1.00  0.00     0.010 A 
ATOM     43  C   UNL     1      -2.067   7.428   9.315  1.00  0.00    -0.014 A 
BRANCH  43  44
ATOM     44  C   UNL     1      -2.418   7.183  10.737  1.00  0.00     0.031 A 
ATOM     45  C   UNL     1      -1.388   7.399  11.815  1.00  0.00     0.074 A 
ATOM     46  C   UNL     1      -3.651   6.742  11.058  1.00  0.00     0.049 A 
ATOM     47  N   UNL     1      -1.504   7.243  13.109  1.00  0.00    -0.248 NA
ATOM     48  C   UNL     1      -0.045   7.822  11.383  1.00  0.00     0.031 C 
ATOM     49  C   UNL     1      -4.723   6.453  10.102  1.00  0.00     0.029 A 
ATOM     50  N   UNL     1      -4.213   6.464  12.279  1.00  0.00    -0.354 N 
ATOM     51  C   UNL     1      -0.253   7.536  13.640  1.00  0.00     0.074 A 
ATOM     52  C   UNL     1       0.624   7.818  12.526  1.00  0.00     0.031 C 
ATOM     53  C   UNL     1      -5.822   6.077  10.774  1.00  0.00     0.029 A 
ATOM     54  C   UNL     1      -5.525   6.057  12.203  1.00  0.00     0.049 A 
ATOM     55  H   UNL     1      -3.723   6.548  13.129  1.00  0.00     0.167 HD
ATOM     56  C   UNL     1       0.128   7.590  14.938  1.00  0.00     0.031 A 
ATOM     57  C   UNL     1      -6.391   5.707  13.174  1.00  0.00     0.031 A 
ATOM     58  C   UNL     1      -0.750   7.316  16.044  1.00  0.00     0.049 A 
ATOM     59  C   UNL     1      -5.942   5.762  14.609  1.00  0.00     0.074 A 
ATOM     60  C   UNL     1      -0.478   7.397  17.398  1.00  0.00     0.029 A 
ATOM     61  N   UNL     1      -2.070   6.905  15.925  1.00  0.00    -0.354 N 
ATOM     62  N   UNL     1      -4.774   6.114  15.094  1.00  0.00    -0.248 NA
ATOM     63  C   UNL     1      -6.931   5.389  15.629  1.00  0.00     0.031 C 
ATOM     64  C   UNL     1      -1.613   6.973  18.097  1.00  0.00     0.029 A 
ATOM     65  C   UNL     1      -2.616   6.699  17.180  1.00  0.00     0.049 A 
ATOM     66  H   UNL     1      -2.547   6.779  15.073  1.00  0.00     0.167 HD
ATOM     67  C   UNL     1      -4.899   6.031  16.477  1.00  0.00     0.074 A 
ATOM     68  C   UNL     1      -6.260   5.615  16.749  1.00  0.00     0.031 C 
ATOM     69  C   UNL     1      -3.971   6.281  17.435  1.00  0.00     0.031 A 
BRANCH  56  70
ATOM     70  C   UNL     1       1.562   7.952  15.231  1.00  0.00    -0.014 A 
ATOM     71  C   UNL     1       2.055   9.245  14.973  1.00  0.00     0.010 A 
ATOM     72  C   UNL     1       2.420   6.998  15.808  1.00  0.00     0.010 A 
ATOM     73  C   UNL     1       3.389   9.563  15.246  1.00  0.00     0.020 A 
ATOM     74  C   UNL     1       3.745   7.321  16.112  1.00  0.00     0.020 A 
ATOM     75  C   UNL     1       4.226   8.598  15.813  1.00  0.00     0.054 A 
BRANCH  75  76
ATOM     76  S   UNL     1       5.944   9.047  16.180  1.00  0.00     0.124 S 
ATOM     77  O   UNL     1       6.524   9.138  14.842  1.00  0.00    -0.237 OA
ATOM     78  O   UNL     1       5.798  10.316  16.888  1.00  0.00    -0.237 OA
ATOM     79  O   UNL     1       6.429   7.935  16.993  1.00  0.00    -0.744 OA
ENDBRANCH  75  76
ENDBRANCH  56  70
BRANCH  57  80
ATOM     80  C   UNL     1      -7.776   5.287  12.820  1.00  0.00    -0.014 A 
ATOM     81  C   UNL     1      -8.879   6.095  13.149  1.00  0.00     0.010 A 
ATOM     82  C   UNL     1      -7.998   4.075  12.138  1.00  0.00     0.010 A 
ATOM     83  C   UNL     1     -10.177   5.691  12.821  1.00  0.00     0.020 A 
ATOM     84  C   UNL     1      -9.291   3.684  11.781  1.00  0.00     0.020 A 
ATOM     85  C   UNL     1     -10.374   4.489  12.135  1.00  0.00     0.054 A 
BRANCH  85  86
ATOM     86  S   UNL     1     -12.063   4.011  11.675  1.00  0.00     0.124 S 
ATOM     87  O   UNL     1     -12.638   3.647  12.965  1.00  0.00    -0.237 OA
ATOM     88  O   UNL     1     -12.582   5.235  11.071  1.00  0.00    -0.237 OA
ATOM     89  O   UNL     1     -11.862   2.903  10.743  1.00  0.00    -0.744 OA
ENDBRANCH  85  86
ENDBRANCH  57  80
BRANCH  69  90
ATOM     90  C   UNL     1      -4.404   6.146  18.872  1.00  0.00    -0.014 A 
ATOM     91  C   UNL     1      -4.677   4.889  19.441  1.00  0.00     0.010 A 
ATOM     92  C   UNL     1      -4.489   7.296  19.679  1.00  0.00     0.010 A 
ATOM     93  C   UNL     1      -5.064   4.790  20.780  1.00  0.00     0.020 A 
ATOM     94  C   UNL     1      -4.843   7.197  21.026  1.00  0.00     0.020 A 
ATOM     95  C   UNL     1      -5.144   5.946  21.564  1.00  0.00     0.054 A 
BRANCH  95  96
ATOM     96  S   UNL     1      -5.613   5.785  23.309  1.00  0.00     0.124 S 
ATOM     97  O   UNL     1      -7.035   5.466  23.213  1.00  0.00    -0.237 OA
ATOM     98  O   UNL     1      -4.755   4.697  23.772  1.00  0.00    -0.237 OA
ATOM     99  O   UNL     1      -5.305   7.097  23.874  1.00  0.00    -0.744 OA
ENDBRANCH  95  96
ENDBRANCH  69  90
ENDBRANCH  43  44
ENDBRANCH  35  38
ENDBRANCH  33  34
ENDBRANCH  32  33
ENDBRANCH  31  32
ENDBRANCH   1  31
TORSDOF 20
