REMARK SMILES CCc1ncc(C[N@H+]2CCC[C@@H](c3cccc(C(=O)NCCCCCCNC(=O)c4ccc(-c5c6nc(c(-c7ccc(S(=O)(=O)[O-])cc7)c7ccc([nH]7)c(-c7ccc(S(=O)(=O)[O-])cc7)c7nc(c(-c8ccc(S(=O)(=O)[O-])cc8)c8ccc5[nH]8)C=C7)C=C6)cc4)c3)C2)cn1
REMARK SMILES IDX 23 1 22 2 21 3 20 4 18 5 19 6 17 8 13 9 14 10 90 11 15 12
REMARK SMILES IDX 16 13 12 14 8 15 9 16 91 17 10 19 11 20 7 21 6 22 3 23 4 24
REMARK SMILES IDX 93 25 5 26 92 27 2 28 1 29 24 30 25 31 26 32 27 33 28 34
REMARK SMILES IDX 29 36 30 37 31 38 89 39 32 40 88 41 33 42 34 43 35 44 82 45
REMARK SMILES IDX 36 46 87 47 81 48 83 49 37 50 86 51 80 52 79 53 38 55 68 56
REMARK SMILES IDX 49 57 67 58 50 59 53 60 66 61 84 62 51 63 52 64 65 66 85 67
REMARK SMILES IDX 54 68 39 69 40 70 48 71 41 72 47 73 42 74 43 75 44 76 45 77
REMARK SMILES IDX 46 78 69 79 70 80 78 81 71 82 77 83 72 84 73 85 74 86 75 87
REMARK SMILES IDX 76 88 55 89 56 90 64 91 57 92 63 93 58 94 59 95 60 96 61 97
REMARK SMILES IDX 62 98
REMARK H PARENT 20 7 8 18 27 35 83 54 53 65
REMARK Flexibility Score: inf
ROOT
ATOM      1  C   UNL     1       4.035   4.181  14.108  1.00  0.00     0.002 C 
ENDROOT
BRANCH   1   2
ATOM      2  C   UNL     1       2.919   3.680  13.193  1.00  0.00     0.021 C 
BRANCH   2   3
ATOM      3  C   UNL     1       3.345   3.036  11.881  1.00  0.00     0.116 C 
BRANCH   3   4
ATOM      4  N   UNL     1       4.155   1.837  12.021  1.00  0.00    -0.352 N 
ATOM      5  C   UNL     1       4.155   0.672  11.280  1.00  0.00     0.251 C 
ATOM      6  O   UNL     1       4.927  -0.234  11.589  1.00  0.00    -0.269 OA
ATOM      7  H   UNL     1       4.805   1.858  12.760  1.00  0.00     0.163 HD
BRANCH   5   8
ATOM      8  C   UNL     1       3.197   0.465  10.160  1.00  0.00     0.040 A 
ATOM      9  C   UNL     1       1.686   1.365   8.476  1.00  0.00    -0.039 A 
ATOM     10  C   UNL     1       1.161   0.084   8.278  1.00  0.00     0.004 A 
ATOM     11  C   UNL     1       2.780   1.512   9.339  1.00  0.00     0.018 A 
ATOM     12  C   UNL     1       1.672  -1.006   8.990  1.00  0.00     0.001 A 
ATOM     13  C   UNL     1       2.668  -0.812   9.950  1.00  0.00     0.014 A 
BRANCH   9  14
ATOM     14  C   UNL     1       1.125   2.619   7.829  1.00  0.00     0.074 C 
ATOM     15  N   UNL     1       1.233   4.048   5.792  1.00  0.00    -0.331 N 
ATOM     16  C   UNL     1      -0.234   4.115   5.735  1.00  0.00     0.262 C 
ATOM     17  C   UNL     1       1.704   2.807   6.423  1.00  0.00     0.270 C 
ATOM     18  H   UNL     1       1.529   4.816   6.394  1.00  0.00     0.348 HD
ATOM     19  C   UNL     1      -0.862   3.969   7.123  1.00  0.00     0.062 C 
ATOM     20  C   UNL     1      -0.409   2.676   7.797  1.00  0.00     0.020 C 
BRANCH  15  21
ATOM     21  C   UNL     1       1.877   4.299   4.484  1.00  0.00     0.302 C 
BRANCH  21  22
ATOM     22  C   UNL     1       1.651   3.234   3.450  1.00  0.00     0.043 A 
ATOM     23  C   UNL     1       1.014   1.132   1.864  1.00  0.00     0.127 A 
ATOM     24  N   UNL     1       0.240   2.230   1.784  1.00  0.00    -0.241 NA
ATOM     25  N   UNL     1       2.126   1.027   2.614  1.00  0.00    -0.241 NA
ATOM     26  C   UNL     1       0.584   3.263   2.578  1.00  0.00     0.124 A 
ATOM     27  C   UNL     1       2.423   2.091   3.383  1.00  0.00     0.124 A 
BRANCH  23  28
ATOM     28  C   UNL     1       0.580  -0.081   1.094  1.00  0.00     0.074 C 
ATOM     29  C   UNL     1       1.116  -0.057  -0.324  1.00  0.00     0.012 C 
ENDBRANCH  23  28
ENDBRANCH  21  22
ENDBRANCH  15  21
ENDBRANCH   9  14
ENDBRANCH   5   8
ENDBRANCH   3   4
ENDBRANCH   2   3
ENDBRANCH   1   2
BRANCH   1  30
ATOM     30  C   UNL     1       5.076   5.110  13.481  1.00  0.00     0.002 C 
BRANCH  30  31
ATOM     31  C   UNL     1       4.546   6.324  12.714  1.00  0.00     0.021 C 
BRANCH  31  32
ATOM     32  C   UNL     1       3.551   7.209  13.458  1.00  0.00     0.116 C 
BRANCH  32  33
ATOM     33  N   UNL     1       4.106   7.815  14.652  1.00  0.00    -0.352 N 
ATOM     34  C   UNL     1       4.079   9.137  15.048  1.00  0.00     0.251 C 
ATOM     35  H   UNL     1       4.566   7.198  15.267  1.00  0.00     0.163 HD
ATOM     36  O   UNL     1       4.698   9.497  16.039  1.00  0.00    -0.269 OA
BRANCH  34  37
ATOM     37  C   UNL     1       3.323  10.122  14.242  1.00  0.00     0.039 A 
ATOM     38  C   UNL     1       3.957  11.304  13.851  1.00  0.00     0.014 A 
ATOM     39  C   UNL     1       2.005   9.868  13.855  1.00  0.00     0.014 A 
ATOM     40  C   UNL     1       3.296  12.199  13.003  1.00  0.00     0.010 A 
ATOM     41  C   UNL     1       1.371  10.729  12.963  1.00  0.00     0.010 A 
ATOM     42  C   UNL     1       2.012  11.898  12.521  1.00  0.00    -0.014 A 
BRANCH  42  43
ATOM     43  C   UNL     1       1.311  12.776  11.550  1.00  0.00     0.031 A 
ATOM     44  C   UNL     1       0.029  13.456  11.947  1.00  0.00     0.074 A 
ATOM     45  C   UNL     1       1.770  12.887  10.287  1.00  0.00     0.049 A 
ATOM     46  N   UNL     1      -0.816  14.124  11.205  1.00  0.00    -0.248 NA
ATOM     47  C   UNL     1      -0.364  13.344  13.360  1.00  0.00     0.031 C 
ATOM     48  C   UNL     1       2.995  12.273   9.771  1.00  0.00     0.029 A 
ATOM     49  N   UNL     1       1.246  13.543   9.200  1.00  0.00    -0.354 N 
ATOM     50  C   UNL     1      -1.853  14.491  12.054  1.00  0.00     0.074 A 
ATOM     51  C   UNL     1      -1.548  13.938  13.357  1.00  0.00     0.031 C 
ATOM     52  C   UNL     1       3.135  12.593   8.474  1.00  0.00     0.029 A 
ATOM     53  C   UNL     1       1.987  13.391   8.052  1.00  0.00     0.049 A 
ATOM     54  H   UNL     1       0.417  14.072   9.239  1.00  0.00     0.167 HD
ATOM     55  C   UNL     1      -2.954  15.230  11.778  1.00  0.00     0.031 A 
ATOM     56  C   UNL     1       1.761  13.826   6.797  1.00  0.00     0.031 A 
ATOM     57  C   UNL     1      -3.250  15.785  10.485  1.00  0.00     0.049 A 
ATOM     58  C   UNL     1       0.515  14.616   6.505  1.00  0.00     0.074 A 
ATOM     59  C   UNL     1      -4.324  16.575  10.113  1.00  0.00     0.029 A 
ATOM     60  N   UNL     1      -2.468  15.613   9.354  1.00  0.00    -0.354 N 
ATOM     61  N   UNL     1      -0.444  14.972   7.326  1.00  0.00    -0.248 NA
ATOM     62  C   UNL     1       0.320  15.063   5.118  1.00  0.00     0.031 C 
ATOM     63  C   UNL     1      -4.211  16.848   8.745  1.00  0.00     0.029 A 
ATOM     64  C   UNL     1      -3.041  16.269   8.278  1.00  0.00     0.049 A 
ATOM     65  H   UNL     1      -1.628  15.100   9.320  1.00  0.00     0.167 HD
ATOM     66  C   UNL     1      -1.339  15.714   6.562  1.00  0.00     0.074 A 
ATOM     67  C   UNL     1      -0.808  15.755   5.215  1.00  0.00     0.031 C 
ATOM     68  C   UNL     1      -2.493  16.311   6.946  1.00  0.00     0.031 A 
BRANCH  55  69
ATOM     69  C   UNL     1      -3.928  15.462  12.903  1.00  0.00    -0.014 A 
ATOM     70  C   UNL     1      -3.602  16.305  13.981  1.00  0.00     0.010 A 
ATOM     71  C   UNL     1      -5.187  14.836  12.879  1.00  0.00     0.010 A 
ATOM     72  C   UNL     1      -4.496  16.473  15.042  1.00  0.00     0.020 A 
ATOM     73  C   UNL     1      -6.095  15.024  13.925  1.00  0.00     0.020 A 
ATOM     74  C   UNL     1      -5.733  15.823  15.011  1.00  0.00     0.054 A 
BRANCH  74  75
ATOM     75  S   UNL     1      -6.871  16.049  16.405  1.00  0.00     0.124 S 
ATOM     76  O   UNL     1      -6.265  15.198  17.427  1.00  0.00    -0.237 OA
ATOM     77  O   UNL     1      -6.791  17.486  16.657  1.00  0.00    -0.237 OA
ATOM     78  O   UNL     1      -8.153  15.581  15.885  1.00  0.00    -0.744 OA
ENDBRANCH  74  75
ENDBRANCH  55  69
BRANCH  56  79
ATOM     79  C   UNL     1       2.745  13.532   5.721  1.00  0.00    -0.014 A 
ATOM     80  C   UNL     1       3.563  14.556   5.211  1.00  0.00     0.010 A 
ATOM     81  C   UNL     1       2.885  12.227   5.214  1.00  0.00     0.010 A 
ATOM     82  C   UNL     1       4.495  14.284   4.206  1.00  0.00     0.020 A 
ATOM     83  C   UNL     1       3.833  11.947   4.226  1.00  0.00     0.020 A 
ATOM     84  C   UNL     1       4.626  12.979   3.721  1.00  0.00     0.054 A 
BRANCH  84  85
ATOM     85  S   UNL     1       5.882  12.636   2.457  1.00  0.00     0.124 S 
ATOM     86  O   UNL     1       5.269  13.201   1.260  1.00  0.00    -0.237 OA
ATOM     87  O   UNL     1       7.049  13.351   2.970  1.00  0.00    -0.237 OA
ATOM     88  O   UNL     1       5.995  11.180   2.478  1.00  0.00    -0.744 OA
ENDBRANCH  84  85
ENDBRANCH  56  79
BRANCH  68  89
ATOM     89  C   UNL     1      -3.246  17.106   5.914  1.00  0.00    -0.014 A 
ATOM     90  C   UNL     1      -4.013  16.471   4.923  1.00  0.00     0.010 A 
ATOM     91  C   UNL     1      -3.255  18.511   5.999  1.00  0.00     0.010 A 
ATOM     92  C   UNL     1      -4.772  17.230   4.027  1.00  0.00     0.020 A 
ATOM     93  C   UNL     1      -4.029  19.271   5.119  1.00  0.00     0.020 A 
ATOM     94  C   UNL     1      -4.779  18.625   4.134  1.00  0.00     0.054 A 
BRANCH  94  95
ATOM     95  S   UNL     1      -5.836  19.583   3.013  1.00  0.00     0.124 S 
ATOM     96  O   UNL     1      -5.088  19.518   1.761  1.00  0.00    -0.237 OA
ATOM     97  O   UNL     1      -7.090  18.834   3.037  1.00  0.00    -0.237 OA
ATOM     98  O   UNL     1      -5.895  20.903   3.637  1.00  0.00    -0.744 OA
ENDBRANCH  94  95
ENDBRANCH  68  89
ENDBRANCH  42  43
ENDBRANCH  34  37
ENDBRANCH  32  33
ENDBRANCH  31  32
ENDBRANCH  30  31
ENDBRANCH   1  30
TORSDOF 20
