REMARK SMILES CC(C)[C@@H](NC(=O)[C@@H]1CC[C@H]2CCCC[C@@H]2[NH2+]1)C(=O)NCCCCCCNC(=O)c1ccc(-c2c3nc(c(-c4ccc(S(=O)(=O)[O-])cc4)c4ccc([nH]4)c(-c4ccc(S(=O)(=O)[O-])cc4)c4nc(c(-c5ccc(S(=O)(=O)[O-])cc5)c5ccc2[nH]5)C=C4)C=C3)cc1
REMARK SMILES IDX 24 1 23 2 22 3 21 4 20 5 18 6 19 7 4 9 2 10 1 11 3 12 5 13
REMARK SMILES IDX 6 14 7 16 8 17 9 18 17 19 10 20 16 21 11 24 15 25 12 26
REMARK SMILES IDX 14 27 13 28 25 29 26 30 27 31 28 32 29 34 30 35 31 36 89 37
REMARK SMILES IDX 32 38 88 39 33 40 34 41 35 42 82 43 36 44 87 45 81 46 83 47
REMARK SMILES IDX 37 48 86 49 80 50 79 51 38 53 68 54 49 55 67 56 50 57 53 58
REMARK SMILES IDX 66 59 84 60 51 61 52 62 65 64 85 65 54 66 39 67 40 68 48 69
REMARK SMILES IDX 41 70 47 71 42 72 43 73 44 74 45 75 46 76 69 77 70 78 78 79
REMARK SMILES IDX 71 80 77 81 72 82 73 83 74 84 75 85 76 86 55 87 56 88 64 89
REMARK SMILES IDX 57 90 63 91 58 92 59 93 60 94 61 95 62 96
REMARK H PARENT 20 8 5 15 17 22 17 23 27 33 83 52 53 63
REMARK Flexibility Score: inf
ROOT
ATOM      1  C   UNL     1      -1.158  -2.805   6.968  1.00  0.00     0.002 C 
ENDROOT
BRANCH   1   2
ATOM      2  C   UNL     1      -1.594  -4.200   6.514  1.00  0.00     0.002 C 
BRANCH   2   3
ATOM      3  C   UNL     1      -3.073  -4.389   6.158  1.00  0.00     0.021 C 
BRANCH   3   4
ATOM      4  C   UNL     1      -3.672  -3.356   5.211  1.00  0.00     0.116 C 
BRANCH   4   5
ATOM      5  N   UNL     1      -2.995  -3.302   3.924  1.00  0.00    -0.354 N 
ATOM      6  C   UNL     1      -3.323  -2.732   2.731  1.00  0.00     0.242 C 
ATOM      7  O   UNL     1      -2.434  -2.726   1.868  1.00  0.00    -0.273 OA
ATOM      8  H   UNL     1      -2.128  -3.769   3.914  1.00  0.00     0.163 HD
BRANCH   6   9
ATOM      9  C   UNL     1      -4.702  -2.094   2.407  1.00  0.00     0.174 C 
BRANCH   9  10
ATOM     10  C   UNL     1      -5.860  -3.114   2.669  1.00  0.00     0.015 C 
ATOM     11  C   UNL     1      -7.240  -2.649   2.191  1.00  0.00     0.010 C 
ATOM     12  C   UNL     1      -5.578  -4.492   2.047  1.00  0.00     0.010 C 
ENDBRANCH   9  10
BRANCH   9  13
ATOM     13  N   UNL     1      -4.971  -0.767   3.014  1.00  0.00    -0.339 N 
ATOM     14  C   UNL     1      -4.252   0.411   2.934  1.00  0.00     0.278 C 
ATOM     15  H   UNL     1      -5.789  -0.719   3.559  1.00  0.00     0.164 HD
ATOM     16  O   UNL     1      -4.915   1.444   2.801  1.00  0.00    -0.268 OA
BRANCH  14  17
ATOM     17  C   UNL     1      -2.702   0.405   3.123  1.00  0.00     0.272 C 
ATOM     18  C   UNL     1      -2.355  -0.270   4.448  1.00  0.00     0.076 C 
ATOM     19  N   UNL     1      -2.099   1.746   2.957  1.00  0.00    -0.333 N 
ATOM     20  C   UNL     1      -2.116   0.599   5.668  1.00  0.00     0.016 C 
ATOM     21  C   UNL     1      -1.867   2.530   4.183  1.00  0.00     0.186 C 
ATOM     22  H   UNL     1      -2.718   2.290   2.356  1.00  0.00     0.347 HD
ATOM     23  H   UNL     1      -1.170   1.574   2.571  1.00  0.00     0.347 HD
ATOM     24  C   UNL     1      -2.605   2.008   5.422  1.00  0.00     0.048 C 
ATOM     25  C   UNL     1      -2.193   4.005   3.932  1.00  0.00     0.065 C 
ATOM     26  C   UNL     1      -2.363   2.870   6.664  1.00  0.00     0.010 C 
ATOM     27  C   UNL     1      -1.957   4.856   5.183  1.00  0.00     0.006 C 
ATOM     28  C   UNL     1      -2.719   4.324   6.392  1.00  0.00     0.001 C 
ENDBRANCH  14  17
ENDBRANCH   9  13
ENDBRANCH   6   9
ENDBRANCH   4   5
ENDBRANCH   3   4
ENDBRANCH   2   3
ENDBRANCH   1   2
BRANCH   1  29
ATOM     29  C   UNL     1      -1.972  -2.163   8.090  1.00  0.00     0.021 C 
BRANCH  29  30
ATOM     30  C   UNL     1      -2.071  -2.990   9.359  1.00  0.00     0.116 C 
BRANCH  30  31
ATOM     31  N   UNL     1      -0.772  -3.251   9.951  1.00  0.00    -0.352 N 
ATOM     32  C   UNL     1      -0.406  -3.214  11.274  1.00  0.00     0.251 C 
ATOM     33  H   UNL     1      -0.056  -3.486   9.318  1.00  0.00     0.163 HD
ATOM     34  O   UNL     1       0.776  -3.298  11.585  1.00  0.00    -0.269 OA
BRANCH  32  35
ATOM     35  C   UNL     1      -1.445  -3.043  12.314  1.00  0.00     0.039 A 
ATOM     36  C   UNL     1      -1.196  -2.171  13.376  1.00  0.00     0.014 A 
ATOM     37  C   UNL     1      -2.659  -3.731  12.237  1.00  0.00     0.014 A 
ATOM     38  C   UNL     1      -2.187  -1.955  14.335  1.00  0.00     0.010 A 
ATOM     39  C   UNL     1      -3.676  -3.445  13.141  1.00  0.00     0.010 A 
ATOM     40  C   UNL     1      -3.445  -2.566  14.208  1.00  0.00    -0.014 A 
BRANCH  40  41
ATOM     41  C   UNL     1      -4.528  -2.310  15.189  1.00  0.00     0.031 A 
ATOM     42  C   UNL     1      -5.071  -3.440  16.022  1.00  0.00     0.074 A 
ATOM     43  C   UNL     1      -5.059  -1.075  15.287  1.00  0.00     0.049 A 
ATOM     44  N   UNL     1      -6.044  -3.426  16.896  1.00  0.00    -0.248 NA
ATOM     45  C   UNL     1      -4.461  -4.767  15.828  1.00  0.00     0.031 C 
ATOM     46  C   UNL     1      -4.646   0.089  14.498  1.00  0.00     0.029 A 
ATOM     47  N   UNL     1      -6.063  -0.593  16.087  1.00  0.00    -0.354 N 
ATOM     48  C   UNL     1      -6.173  -4.737  17.339  1.00  0.00     0.074 A 
ATOM     49  C   UNL     1      -5.220  -5.531  16.598  1.00  0.00     0.031 C 
ATOM     50  C   UNL     1      -5.368   1.156  14.878  1.00  0.00     0.029 A 
ATOM     51  C   UNL     1      -6.324   0.744  15.900  1.00  0.00     0.049 A 
ATOM     52  H   UNL     1      -6.552  -1.152  16.733  1.00  0.00     0.167 HD
ATOM     53  C   UNL     1      -6.997  -5.231  18.293  1.00  0.00     0.031 A 
ATOM     54  C   UNL     1      -7.234   1.548  16.483  1.00  0.00     0.031 A 
ATOM     55  C   UNL     1      -7.935  -4.431  19.034  1.00  0.00     0.049 A 
ATOM     56  C   UNL     1      -8.144   0.974  17.535  1.00  0.00     0.074 A 
ATOM     57  C   UNL     1      -8.774  -4.820  20.063  1.00  0.00     0.029 A 
ATOM     58  N   UNL     1      -8.162  -3.078  18.823  1.00  0.00    -0.354 N 
ATOM     59  N   UNL     1      -8.201  -0.254  17.993  1.00  0.00    -0.248 NA
ATOM     60  C   UNL     1      -9.101   1.897  18.158  1.00  0.00     0.031 C 
ATOM     61  C   UNL     1      -9.551  -3.718  20.432  1.00  0.00     0.029 A 
ATOM     62  C   UNL     1      -9.148  -2.625  19.682  1.00  0.00     0.049 A 
ATOM     63  H   UNL     1      -7.691  -2.523  18.160  1.00  0.00     0.167 HD
ATOM     64  C   UNL     1      -9.182  -0.245  18.978  1.00  0.00     0.074 A 
ATOM     65  C   UNL     1      -9.678   1.115  19.060  1.00  0.00     0.031 C 
ATOM     66  C   UNL     1      -9.631  -1.268  19.747  1.00  0.00     0.031 A 
BRANCH  53  67
ATOM     67  C   UNL     1      -6.926  -6.709  18.582  1.00  0.00    -0.014 A 
ATOM     68  C   UNL     1      -5.793  -7.281  19.188  1.00  0.00     0.010 A 
ATOM     69  C   UNL     1      -8.025  -7.533  18.276  1.00  0.00     0.010 A 
ATOM     70  C   UNL     1      -5.741  -8.654  19.442  1.00  0.00     0.020 A 
ATOM     71  C   UNL     1      -7.990  -8.902  18.559  1.00  0.00     0.020 A 
ATOM     72  C   UNL     1      -6.841  -9.457  19.124  1.00  0.00     0.054 A 
BRANCH  72  73
ATOM     73  S   UNL     1      -6.754 -11.232  19.486  1.00  0.00     0.124 S 
ATOM     74  O   UNL     1      -5.801 -11.697  18.482  1.00  0.00    -0.237 OA
ATOM     75  O   UNL     1      -6.273 -11.253  20.865  1.00  0.00    -0.237 OA
ATOM     76  O   UNL     1      -8.128 -11.692  19.301  1.00  0.00    -0.744 OA
ENDBRANCH  72  73
ENDBRANCH  53  67
BRANCH  54  77
ATOM     77  C   UNL     1      -7.318   2.982  16.091  1.00  0.00    -0.014 A 
ATOM     78  C   UNL     1      -6.925   3.993  16.984  1.00  0.00     0.010 A 
ATOM     79  C   UNL     1      -7.776   3.343  14.810  1.00  0.00     0.010 A 
ATOM     80  C   UNL     1      -7.005   5.339  16.613  1.00  0.00     0.020 A 
ATOM     81  C   UNL     1      -7.828   4.685  14.423  1.00  0.00     0.020 A 
ATOM     82  C   UNL     1      -7.453   5.676  15.332  1.00  0.00     0.054 A 
BRANCH  82  83
ATOM     83  S   UNL     1      -7.500   7.426  14.855  1.00  0.00     0.124 S 
ATOM     84  O   UNL     1      -8.627   7.923  15.639  1.00  0.00    -0.237 OA
ATOM     85  O   UNL     1      -6.182   7.899  15.269  1.00  0.00    -0.237 OA
ATOM     86  O   UNL     1      -7.713   7.380  13.411  1.00  0.00    -0.744 OA
ENDBRANCH  82  83
ENDBRANCH  54  77
BRANCH  66  87
ATOM     87  C   UNL     1     -10.690  -0.953  20.770  1.00  0.00    -0.014 A 
ATOM     88  C   UNL     1     -12.010  -0.655  20.389  1.00  0.00     0.010 A 
ATOM     89  C   UNL     1     -10.368  -1.014  22.139  1.00  0.00     0.010 A 
ATOM     90  C   UNL     1     -12.982  -0.392  21.358  1.00  0.00     0.020 A 
ATOM     91  C   UNL     1     -11.344  -0.783  23.111  1.00  0.00     0.020 A 
ATOM     92  C   UNL     1     -12.642  -0.459  22.713  1.00  0.00     0.054 A 
BRANCH  92  93
ATOM     93  S   UNL     1     -13.933  -0.158  23.951  1.00  0.00     0.124 S 
ATOM     94  O   UNL     1     -14.135   1.284  23.835  1.00  0.00    -0.237 OA
ATOM     95  O   UNL     1     -15.035  -0.988  23.471  1.00  0.00    -0.237 OA
ATOM     96  O   UNL     1     -13.325  -0.603  25.202  1.00  0.00    -0.744 OA
ENDBRANCH  92  93
ENDBRANCH  66  87
ENDBRANCH  40  41
ENDBRANCH  32  35
ENDBRANCH  30  31
ENDBRANCH  29  30
ENDBRANCH   1  29
TORSDOF 19
