REMARK SMILES CS(=O)(=O)c1cccc(NS(=O)(=O)CCCC(=O)NCCCCCCNC(=O)c2ccc(-c3c4nc(c(-c5ccc(S(=O)(=O)[O-])cc5)c5ccc([nH]5)c(-c5ccc(S(=O)(=O)[O-])cc5)c5nc(c(-c6ccc(S(=O)(=O)[O-])cc6)c6ccc3[nH]6)C=C5)C=C4)cc2)c1
REMARK SMILES IDX 21 1 20 2 19 3 17 4 18 5 16 7 15 8 14 9 11 10 12 11 13 12
REMARK SMILES IDX 10 13 9 15 5 16 6 17 89 18 7 19 8 20 2 21 1 22 3 23 4 24
REMARK SMILES IDX 22 25 23 26 24 27 25 28 26 29 27 30 28 32 29 33 30 34 88 35
REMARK SMILES IDX 31 36 87 37 32 38 33 39 34 40 81 41 35 42 86 43 80 44 82 45
REMARK SMILES IDX 36 46 85 47 79 48 78 49 37 51 67 52 48 53 66 54 49 55 52 56
REMARK SMILES IDX 65 57 83 58 50 59 51 60 64 62 84 63 53 64 38 65 39 66 47 67
REMARK SMILES IDX 40 68 46 69 41 70 42 71 43 72 44 73 45 74 68 75 69 76 77 77
REMARK SMILES IDX 70 78 76 79 71 80 72 81 73 82 74 83 75 84 54 85 55 86 63 87
REMARK SMILES IDX 56 88 62 89 57 90 58 91 59 92 60 93 61 94
REMARK H PARENT 19 6 10 14 26 31 82 50 52 61
REMARK Flexibility Score: inf
ROOT
ATOM      1  C   UNL     1       0.913  -6.752  -4.077  1.00  0.00     0.021 C 
ENDROOT
BRANCH   1   2
ATOM      2  C   UNL     1       0.832  -6.032  -2.729  1.00  0.00     0.116 C 
BRANCH   2   3
ATOM      3  N   UNL     1       0.255  -6.904  -1.740  1.00  0.00    -0.356 N 
ATOM      4  C   UNL     1       0.790  -7.771  -0.859  1.00  0.00     0.220 C 
ATOM      5  O   UNL     1      -0.032  -8.487  -0.268  1.00  0.00    -0.275 OA
ATOM      6  H   UNL     1      -0.728  -6.858  -1.700  1.00  0.00     0.163 HD
BRANCH   4   7
ATOM      7  C   UNL     1       2.249  -7.828  -0.411  1.00  0.00     0.101 C 
BRANCH   7   8
ATOM      8  C   UNL     1       3.549  -7.853  -1.224  1.00  0.00     0.028 C 
BRANCH   8   9
ATOM      9  C   UNL     1       4.065  -6.807  -2.212  1.00  0.00     0.160 C 
BRANCH   9  10
ATOM     10  S   UNL     1       4.841  -5.289  -1.630  1.00  0.00     0.232 S 
ATOM     11  O   UNL     1       5.768  -4.895  -2.675  1.00  0.00    -0.207 OA
ATOM     12  O   UNL     1       5.302  -5.449  -0.272  1.00  0.00    -0.207 OA
BRANCH  10  13
ATOM     13  N   UNL     1       3.651  -4.099  -1.720  1.00  0.00    -0.284 N 
ATOM     14  H   UNL     1       3.505  -3.656  -2.587  1.00  0.00     0.180 HD
BRANCH  13  15
ATOM     15  C   UNL     1       2.841  -3.692  -0.611  1.00  0.00     0.050 A 
ATOM     16  C   UNL     1       1.218  -2.164   0.331  1.00  0.00     0.069 A 
ATOM     17  C   UNL     1       0.845  -3.118   1.284  1.00  0.00     0.020 A 
ATOM     18  C   UNL     1       2.175  -2.460  -0.653  1.00  0.00     0.047 A 
ATOM     19  C   UNL     1       1.505  -4.331   1.324  1.00  0.00     0.004 A 
ATOM     20  C   UNL     1       2.527  -4.577   0.413  1.00  0.00     0.027 A 
BRANCH  16  21
ATOM     21  S   UNL     1       0.463  -0.568   0.517  1.00  0.00     0.175 S 
ATOM     22  C   UNL     1       1.367   0.582  -0.471  1.00  0.00     0.163 C 
ATOM     23  O   UNL     1       0.673  -0.187   1.903  1.00  0.00    -0.224 OA
ATOM     24  O   UNL     1      -0.874  -0.682  -0.031  1.00  0.00    -0.224 OA
ENDBRANCH  16  21
ENDBRANCH  13  15
ENDBRANCH  10  13
ENDBRANCH   9  10
ENDBRANCH   8   9
ENDBRANCH   7   8
ENDBRANCH   4   7
ENDBRANCH   2   3
ENDBRANCH   1   2
BRANCH   1  25
ATOM     25  C   UNL     1      -0.226  -6.353  -5.018  1.00  0.00     0.002 C 
BRANCH  25  26
ATOM     26  C   UNL     1      -0.004  -5.003  -5.710  1.00  0.00     0.002 C 
BRANCH  26  27
ATOM     27  C   UNL     1       1.222  -4.925  -6.630  1.00  0.00     0.021 C 
BRANCH  27  28
ATOM     28  C   UNL     1       1.353  -6.054  -7.650  1.00  0.00     0.116 C 
BRANCH  28  29
ATOM     29  N   UNL     1       0.179  -6.171  -8.499  1.00  0.00    -0.352 N 
ATOM     30  C   UNL     1       0.099  -6.289  -9.863  1.00  0.00     0.251 C 
ATOM     31  H   UNL     1      -0.685  -6.165  -8.026  1.00  0.00     0.163 HD
ATOM     32  O   UNL     1      -0.993  -6.220 -10.420  1.00  0.00    -0.269 OA
BRANCH  30  33
ATOM     33  C   UNL     1       1.328  -6.476 -10.662  1.00  0.00     0.039 A 
ATOM     34  C   UNL     1       1.511  -5.696 -11.806  1.00  0.00     0.014 A 
ATOM     35  C   UNL     1       2.288  -7.423 -10.293  1.00  0.00     0.014 A 
ATOM     36  C   UNL     1       2.683  -5.827 -12.554  1.00  0.00     0.010 A 
ATOM     37  C   UNL     1       3.481  -7.513 -11.008  1.00  0.00     0.010 A 
ATOM     38  C   UNL     1       3.688  -6.718 -12.146  1.00  0.00    -0.014 A 
BRANCH  38  39
ATOM     39  C   UNL     1       4.963  -6.831 -12.898  1.00  0.00     0.031 A 
ATOM     40  C   UNL     1       5.306  -8.108 -13.616  1.00  0.00     0.074 A 
ATOM     41  C   UNL     1       5.841  -5.809 -12.874  1.00  0.00     0.049 A 
ATOM     42  N   UNL     1       6.395  -8.417 -14.271  1.00  0.00    -0.248 NA
ATOM     43  C   UNL     1       4.306  -9.188 -13.571  1.00  0.00     0.031 C 
ATOM     44  C   UNL     1       5.644  -4.538 -12.172  1.00  0.00     0.029 A 
ATOM     45  N   UNL     1       7.083  -5.683 -13.445  1.00  0.00    -0.354 N 
ATOM     46  C   UNL     1       6.225  -9.730 -14.692  1.00  0.00     0.074 A 
ATOM     47  C   UNL     1       4.941 -10.172 -14.191  1.00  0.00     0.031 C 
ATOM     48  C   UNL     1       6.721  -3.758 -12.366  1.00  0.00     0.029 A 
ATOM     49  C   UNL     1       7.695  -4.481 -13.176  1.00  0.00     0.049 A 
ATOM     50  H   UNL     1       7.496  -6.386 -13.996  1.00  0.00     0.167 HD
ATOM     51  C   UNL     1       7.056 -10.495 -15.439  1.00  0.00     0.031 A 
ATOM     52  C   UNL     1       8.908  -4.017 -13.534  1.00  0.00     0.031 A 
ATOM     53  C   UNL     1       8.319 -10.043 -15.960  1.00  0.00     0.049 A 
ATOM     54  C   UNL     1       9.801  -4.877 -14.386  1.00  0.00     0.074 A 
ATOM     55  C   UNL     1       9.194 -10.715 -16.795  1.00  0.00     0.029 A 
ATOM     56  N   UNL     1       8.886  -8.806 -15.696  1.00  0.00    -0.354 N 
ATOM     57  N   UNL     1       9.584  -6.087 -14.843  1.00  0.00    -0.248 NA
ATOM     58  C   UNL     1      11.095  -4.304 -14.780  1.00  0.00     0.031 C 
ATOM     59  C   UNL     1      10.313  -9.900 -17.001  1.00  0.00     0.029 A 
ATOM     60  C   UNL     1      10.111  -8.703 -16.333  1.00  0.00     0.049 A 
ATOM     61  H   UNL     1       8.478  -8.105 -15.138  1.00  0.00     0.167 HD
ATOM     62  C   UNL     1      10.704  -6.410 -15.600  1.00  0.00     0.074 A 
ATOM     63  C   UNL     1      11.589  -5.264 -15.551  1.00  0.00     0.031 C 
ATOM     64  C   UNL     1      10.976  -7.553 -16.276  1.00  0.00     0.031 A 
BRANCH  51  65
ATOM     65  C   UNL     1       6.630 -11.908 -15.735  1.00  0.00    -0.014 A 
ATOM     66  C   UNL     1       5.587 -12.179 -16.639  1.00  0.00     0.010 A 
ATOM     67  C   UNL     1       7.318 -12.982 -15.140  1.00  0.00     0.010 A 
ATOM     68  C   UNL     1       5.215 -13.498 -16.914  1.00  0.00     0.020 A 
ATOM     69  C   UNL     1       6.965 -14.303 -15.432  1.00  0.00     0.020 A 
ATOM     70  C   UNL     1       5.905 -14.552 -16.306  1.00  0.00     0.054 A 
BRANCH  70  71
ATOM     71  S   UNL     1       5.422 -16.254 -16.704  1.00  0.00     0.124 S 
ATOM     72  O   UNL     1       4.178 -16.397 -15.950  1.00  0.00    -0.237 OA
ATOM     73  O   UNL     1       5.274 -16.216 -18.157  1.00  0.00    -0.237 OA
ATOM     74  O   UNL     1       6.541 -17.055 -16.216  1.00  0.00    -0.744 OA
ENDBRANCH  70  71
ENDBRANCH  51  65
BRANCH  52  75
ATOM     75  C   UNL     1       9.347  -2.665 -13.095  1.00  0.00    -0.014 A 
ATOM     76  C   UNL     1       9.428  -1.607 -14.016  1.00  0.00     0.010 A 
ATOM     77  C   UNL     1       9.681  -2.429 -11.749  1.00  0.00     0.010 A 
ATOM     78  C   UNL     1       9.859  -0.342 -13.605  1.00  0.00     0.020 A 
ATOM     79  C   UNL     1      10.088  -1.159 -11.329  1.00  0.00     0.020 A 
ATOM     80  C   UNL     1      10.188  -0.127 -12.264  1.00  0.00     0.054 A 
BRANCH  80  81
ATOM     81  S   UNL     1      10.701   1.534 -11.740  1.00  0.00     0.124 S 
ATOM     82  O   UNL     1      12.079   1.588 -12.216  1.00  0.00    -0.237 OA
ATOM     83  O   UNL     1       9.754   2.396 -12.442  1.00  0.00    -0.237 OA
ATOM     84  O   UNL     1      10.537   1.497 -10.289  1.00  0.00    -0.744 OA
ENDBRANCH  80  81
ENDBRANCH  52  75
BRANCH  64  85
ATOM     85  C   UNL     1      12.268  -7.612 -17.044  1.00  0.00    -0.014 A 
ATOM     86  C   UNL     1      13.499  -7.765 -16.384  1.00  0.00     0.010 A 
ATOM     87  C   UNL     1      12.241  -7.569 -18.450  1.00  0.00     0.010 A 
ATOM     88  C   UNL     1      14.686  -7.846 -17.117  1.00  0.00     0.020 A 
ATOM     89  C   UNL     1      13.422  -7.675 -19.187  1.00  0.00     0.020 A 
ATOM     90  C   UNL     1      14.640  -7.800 -18.514  1.00  0.00     0.054 A 
BRANCH  90  91
ATOM     91  S   UNL     1      16.188  -7.955 -19.447  1.00  0.00     0.124 S 
ATOM     92  O   UNL     1      16.776  -6.629 -19.281  1.00  0.00    -0.237 OA
ATOM     93  O   UNL     1      16.876  -9.040 -18.751  1.00  0.00    -0.237 OA
ATOM     94  O   UNL     1      15.744  -8.276 -20.802  1.00  0.00    -0.744 OA
ENDBRANCH  90  91
ENDBRANCH  64  85
ENDBRANCH  38  39
ENDBRANCH  30  33
ENDBRANCH  28  29
ENDBRANCH  27  28
ENDBRANCH  26  27
ENDBRANCH  25  26
ENDBRANCH   1  25
TORSDOF 22
