REMARK SMILES CCOc1ccc(Br)cc1/C=C/C(=O)NCCC(=O)NCCCCCCNC(=O)c1ccc(-c2c3nc(c(-c4ccc(S(=O)(=O)[O-])cc4)c4ccc([nH]4)c(-c4ccc(S(=O)(=O)[O-])cc4)c4nc(c(-c5ccc(S(=O)(=O)[O-])cc5)c5ccc2[nH]5)C=C4)C=C3)cc1
REMARK SMILES IDX 22 1 21 2 20 3 18 4 19 5 17 7 16 8 15 9 13 10 14 11 12 13
REMARK SMILES IDX 11 14 10 15 4 16 5 17 6 18 9 19 7 20 8 21 3 22 2 23 1 24
REMARK SMILES IDX 23 25 24 26 25 27 26 28 27 29 28 30 29 32 30 33 31 34 89 35
REMARK SMILES IDX 32 36 88 37 33 38 34 39 35 40 82 41 36 42 87 43 81 44 83 45
REMARK SMILES IDX 37 46 86 47 80 48 79 49 38 51 68 52 49 53 67 54 50 55 53 56
REMARK SMILES IDX 66 57 84 58 51 59 52 60 65 62 85 63 54 64 39 65 40 66 48 67
REMARK SMILES IDX 41 68 47 69 42 70 43 71 44 72 45 73 46 74 69 75 70 76 78 77
REMARK SMILES IDX 71 78 77 79 72 80 73 81 74 82 75 83 76 84 55 85 56 86 64 87
REMARK SMILES IDX 57 88 63 89 58 90 59 91 60 92 61 93 62 94
REMARK H PARENT 20 6 15 12 27 31 83 50 53 61
REMARK Flexibility Score: inf
ROOT
ATOM      1  C   UNL     1      -0.890   0.155   9.749  1.00  0.00     0.021 C 
ENDROOT
BRANCH   1   2
ATOM      2  C   UNL     1      -0.752  -1.092   8.874  1.00  0.00     0.116 C 
BRANCH   2   3
ATOM      3  N   UNL     1      -1.961  -1.318   8.103  1.00  0.00    -0.356 N 
ATOM      4  C   UNL     1      -2.181  -1.147   6.770  1.00  0.00     0.221 C 
ATOM      5  O   UNL     1      -3.320  -1.324   6.333  1.00  0.00    -0.275 OA
ATOM      6  H   UNL     1      -2.734  -1.642   8.618  1.00  0.00     0.163 HD
BRANCH   4   7
ATOM      7  C   UNL     1      -1.052  -0.737   5.845  1.00  0.00     0.121 C 
BRANCH   7   8
ATOM      8  C   UNL     1      -0.881   0.779   5.801  1.00  0.00     0.126 C 
BRANCH   8   9
ATOM      9  N   UNL     1       0.062   1.266   6.794  1.00  0.00    -0.352 N 
ATOM     10  C   UNL     1       1.408   1.259   6.928  1.00  0.00     0.244 C 
ATOM     11  O   UNL     1       1.864   1.523   8.042  1.00  0.00    -0.270 OA
ATOM     12  H   UNL     1      -0.386   1.708   7.551  1.00  0.00     0.163 HD
BRANCH  10  13
ATOM     13  C   UNL     1       2.368   1.051   5.819  1.00  0.00     0.072 C 
ATOM     14  C   UNL     1       2.143   0.690   4.550  1.00  0.00     0.017 C 
BRANCH  14  15
ATOM     15  C   UNL     1       3.126   0.775   3.447  1.00  0.00     0.018 A 
ATOM     16  C   UNL     1       2.663   0.852   2.116  1.00  0.00     0.126 A 
ATOM     17  C   UNL     1       3.547   1.051   1.052  1.00  0.00     0.048 A 
ATOM     18  C   UNL     1       4.915   1.138   1.291  1.00  0.00     0.019 A 
ATOM     19  C   UNL     1       4.511   0.844   3.667  1.00  0.00     0.027 A 
ATOM     20  C   UNL     1       5.390   1.034   2.595  1.00  0.00     0.018 A 
ATOM     21  Br  UNL     1       7.245   1.210   2.921  1.00  0.00    -0.051 Br
BRANCH  16  22
ATOM     22  O   UNL     1       1.316   0.904   1.850  1.00  0.00    -0.493 OA
BRANCH  22  23
ATOM     23  C   UNL     1       0.798  -0.345   1.377  1.00  0.00     0.226 C 
ATOM     24  C   UNL     1       0.699  -0.341  -0.138  1.00  0.00     0.049 C 
ENDBRANCH  22  23
ENDBRANCH  16  22
ENDBRANCH  14  15
ENDBRANCH  10  13
ENDBRANCH   8   9
ENDBRANCH   7   8
ENDBRANCH   4   7
ENDBRANCH   2   3
ENDBRANCH   1   2
BRANCH   1  25
ATOM     25  C   UNL     1      -1.708  -0.046  11.026  1.00  0.00     0.002 C 
BRANCH  25  26
ATOM     26  C   UNL     1      -1.147  -1.086  11.997  1.00  0.00     0.002 C 
BRANCH  26  27
ATOM     27  C   UNL     1       0.323  -0.894  12.379  1.00  0.00     0.021 C 
BRANCH  27  28
ATOM     28  C   UNL     1       0.658   0.472  12.972  1.00  0.00     0.116 C 
BRANCH  28  29
ATOM     29  N   UNL     1      -0.093   0.732  14.190  1.00  0.00    -0.352 N 
ATOM     30  C   UNL     1       0.364   0.963  15.463  1.00  0.00     0.251 C 
ATOM     31  H   UNL     1      -1.072   0.745  14.085  1.00  0.00     0.163 HD
ATOM     32  O   UNL     1      -0.416   0.932  16.409  1.00  0.00    -0.269 OA
BRANCH  30  33
ATOM     33  C   UNL     1       1.799   1.237  15.690  1.00  0.00     0.039 A 
ATOM     34  C   UNL     1       2.450   0.604  16.751  1.00  0.00     0.014 A 
ATOM     35  C   UNL     1       2.495   2.126  14.866  1.00  0.00     0.014 A 
ATOM     36  C   UNL     1       3.815   0.822  16.952  1.00  0.00     0.010 A 
ATOM     37  C   UNL     1       3.869   2.285  15.023  1.00  0.00     0.010 A 
ATOM     38  C   UNL     1       4.542   1.641  16.072  1.00  0.00    -0.014 A 
BRANCH  38  39
ATOM     39  C   UNL     1       6.005   1.837  16.233  1.00  0.00     0.031 A 
ATOM     40  C   UNL     1       6.556   3.202  16.547  1.00  0.00     0.074 A 
ATOM     41  C   UNL     1       6.841   0.797  16.041  1.00  0.00     0.049 A 
ATOM     42  N   UNL     1       7.803   3.577  16.684  1.00  0.00    -0.248 NA
ATOM     43  C   UNL     1       5.581   4.293  16.705  1.00  0.00     0.031 C 
ATOM     44  C   UNL     1       6.432  -0.567  15.698  1.00  0.00     0.029 A 
ATOM     45  N   UNL     1       8.210   0.726  16.102  1.00  0.00    -0.354 N 
ATOM     46  C   UNL     1       7.762   4.945  16.927  1.00  0.00     0.074 A 
ATOM     47  C   UNL     1       6.373   5.343  16.868  1.00  0.00     0.031 C 
ATOM     48  C   UNL     1       7.523  -1.345  15.614  1.00  0.00     0.029 A 
ATOM     49  C   UNL     1       8.710  -0.530  15.849  1.00  0.00     0.049 A 
ATOM     50  H   UNL     1       8.781   1.502  16.308  1.00  0.00     0.167 HD
ATOM     51  C   UNL     1       8.787   5.791  17.194  1.00  0.00     0.031 A 
ATOM     52  C   UNL     1       9.981  -0.975  15.806  1.00  0.00     0.031 A 
ATOM     53  C   UNL     1      10.167   5.389  17.253  1.00  0.00     0.049 A 
ATOM     54  C   UNL     1      11.103  -0.011  16.079  1.00  0.00     0.074 A 
ATOM     55  C   UNL     1      11.274   6.157  17.568  1.00  0.00     0.029 A 
ATOM     56  N   UNL     1      10.632   4.109  16.984  1.00  0.00    -0.354 N 
ATOM     57  N   UNL     1      11.040   1.265  16.377  1.00  0.00    -0.248 NA
ATOM     58  C   UNL     1      12.469  -0.551  16.020  1.00  0.00     0.031 C 
ATOM     59  C   UNL     1      12.414   5.357  17.431  1.00  0.00     0.029 A 
ATOM     60  C   UNL     1      12.012   4.073  17.097  1.00  0.00     0.049 A 
ATOM     61  H   UNL     1      10.064   3.341  16.747  1.00  0.00     0.167 HD
ATOM     62  C   UNL     1      12.355   1.673  16.572  1.00  0.00     0.074 A 
ATOM     63  C   UNL     1      13.189   0.506  16.371  1.00  0.00     0.031 C 
ATOM     64  C   UNL     1      12.829   2.903  16.892  1.00  0.00     0.031 A 
BRANCH  51  65
ATOM     65  C   UNL     1       8.448   7.241  17.428  1.00  0.00    -0.014 A 
ATOM     66  C   UNL     1       7.738   7.649  18.573  1.00  0.00     0.010 A 
ATOM     67  C   UNL     1       8.867   8.215  16.503  1.00  0.00     0.010 A 
ATOM     68  C   UNL     1       7.408   8.994  18.761  1.00  0.00     0.020 A 
ATOM     69  C   UNL     1       8.568   9.566  16.704  1.00  0.00     0.020 A 
ATOM     70  C   UNL     1       7.822   9.944  17.822  1.00  0.00     0.054 A 
BRANCH  70  71
ATOM     71  S   UNL     1       7.386  11.683  18.096  1.00  0.00     0.124 S 
ATOM     72  O   UNL     1       5.952  11.682  17.816  1.00  0.00    -0.237 OA
ATOM     73  O   UNL     1       7.752  11.889  19.495  1.00  0.00    -0.237 OA
ATOM     74  O   UNL     1       8.208  12.405  17.127  1.00  0.00    -0.744 OA
ENDBRANCH  70  71
ENDBRANCH  51  65
BRANCH  52  75
ATOM     75  C   UNL     1      10.258  -2.409  15.514  1.00  0.00    -0.014 A 
ATOM     76  C   UNL     1      10.757  -3.256  16.518  1.00  0.00     0.010 A 
ATOM     77  C   UNL     1      10.015  -2.938  14.233  1.00  0.00     0.010 A 
ATOM     78  C   UNL     1      11.025  -4.601  16.244  1.00  0.00     0.020 A 
ATOM     79  C   UNL     1      10.254  -4.288  13.962  1.00  0.00     0.020 A 
ATOM     80  C   UNL     1      10.769  -5.109  14.967  1.00  0.00     0.054 A 
BRANCH  80  81
ATOM     81  S   UNL     1      11.079  -6.868  14.649  1.00  0.00     0.124 S 
ATOM     82  O   UNL     1      12.537  -6.920  14.627  1.00  0.00    -0.237 OA
ATOM     83  O   UNL     1      10.438  -7.513  15.792  1.00  0.00    -0.237 OA
ATOM     84  O   UNL     1      10.424  -7.103  13.364  1.00  0.00    -0.744 OA
ENDBRANCH  80  81
ENDBRANCH  52  75
BRANCH  64  85
ATOM     85  C   UNL     1      14.317   3.045  17.084  1.00  0.00    -0.014 A 
ATOM     86  C   UNL     1      15.205   2.988  15.995  1.00  0.00     0.010 A 
ATOM     87  C   UNL     1      14.827   3.293  18.372  1.00  0.00     0.010 A 
ATOM     88  C   UNL     1      16.579   3.144  16.196  1.00  0.00     0.020 A 
ATOM     89  C   UNL     1      16.196   3.481  18.572  1.00  0.00     0.020 A 
ATOM     90  C   UNL     1      17.066   3.391  17.484  1.00  0.00     0.054 A 
BRANCH  90  91
ATOM     91  S   UNL     1      18.849   3.636  17.711  1.00  0.00     0.124 S 
ATOM     92  O   UNL     1      19.366   2.281  17.537  1.00  0.00    -0.237 OA
ATOM     93  O   UNL     1      19.181   4.577  16.644  1.00  0.00    -0.237 OA
ATOM     94  O   UNL     1      18.956   4.174  19.065  1.00  0.00    -0.744 OA
ENDBRANCH  90  91
ENDBRANCH  64  85
ENDBRANCH  38  39
ENDBRANCH  30  33
ENDBRANCH  28  29
ENDBRANCH  27  28
ENDBRANCH  26  27
ENDBRANCH  25  26
ENDBRANCH   1  25
TORSDOF 22
