REMARK SMILES COc1cc2c(CC(=O)NCCCCCCNC(=O)c3ccc(-c4c5nc(c(-c6ccc(S(=O)(=O)[O-])cc6)c6ccc([nH]6)c(-c6ccc(S(=O)(=O)[O-])cc6)c6nc(c(-c7ccc(S(=O)(=O)[O-])cc7)c7ccc4[nH]7)C=C6)C=C5)cc3)c(C)n(C(=O)c3ccc(Cl)cc3)c2cc1Cl
REMARK SMILES IDX 13 1 12 2 11 3 10 4 8 5 9 6 7 8 6 9 3 10 4 11 94 12 5 13
REMARK SMILES IDX 93 14 95 15 92 16 80 17 82 18 81 19 2 20 1 21 83 22 84 23
REMARK SMILES IDX 85 24 86 25 91 26 87 27 90 28 88 29 89 30 14 31 15 32 16 33
REMARK SMILES IDX 17 34 18 35 19 37 20 38 21 39 79 40 22 41 78 42 23 43 24 44
REMARK SMILES IDX 25 45 72 46 26 47 77 48 71 49 73 50 27 51 76 52 70 53 69 54
REMARK SMILES IDX 28 56 58 57 39 58 57 59 40 60 43 61 56 62 74 63 41 64 42 65
REMARK SMILES IDX 55 67 75 68 44 69 29 70 30 71 38 72 31 73 37 74 32 75 33 76
REMARK SMILES IDX 34 77 35 78 36 79 59 80 60 81 68 82 61 83 67 84 62 85 63 86
REMARK SMILES IDX 64 87 65 88 66 89 45 90 46 91 54 92 47 93 53 94 48 95 49 96
REMARK SMILES IDX 50 97 51 98 52 99
REMARK H PARENT 10 7 17 36 73 55 43 66
REMARK Flexibility Score: inf
ROOT
ATOM      1  C   UNL     1       0.400  -7.595  -3.964  1.00  0.00     0.002 C 
ENDROOT
BRANCH   1   2
ATOM      2  C   UNL     1       0.399  -6.295  -4.777  1.00  0.00     0.021 C 
BRANCH   2   3
ATOM      3  C   UNL     1      -0.966  -5.950  -5.375  1.00  0.00     0.116 C 
BRANCH   3   4
ATOM      4  N   UNL     1      -1.866  -5.425  -4.366  1.00  0.00    -0.356 N 
ATOM      5  C   UNL     1      -2.285  -4.138  -4.183  1.00  0.00     0.224 C 
ATOM      6  O   UNL     1      -3.005  -3.882  -3.215  1.00  0.00    -0.275 OA
ATOM      7  H   UNL     1      -2.223  -6.084  -3.728  1.00  0.00     0.163 HD
BRANCH   5   8
ATOM      8  C   UNL     1      -1.909  -3.060  -5.190  1.00  0.00     0.138 C 
BRANCH   8   9
ATOM      9  C   UNL     1      -0.447  -2.704  -5.187  1.00  0.00    -0.009 A 
ATOM     10  C   UNL     1       0.968  -1.556  -1.814  1.00  0.00     0.138 A 
ATOM     11  C   UNL     1      -0.006  -2.028  -2.706  1.00  0.00     0.058 A 
ATOM     12  C   UNL     1       2.256  -1.312  -2.272  1.00  0.00     0.085 A 
ATOM     13  C   UNL     1       0.312  -2.261  -4.067  1.00  0.00     0.008 A 
ATOM     14  C   UNL     1       2.567  -1.475  -3.625  1.00  0.00     0.051 A 
ATOM     15  Cl  UNL     1       3.569  -0.891  -1.228  1.00  0.00    -0.080 Cl
ATOM     16  C   UNL     1       1.613  -2.014  -4.513  1.00  0.00     0.058 A 
ATOM     17  C   UNL     1       0.400  -2.689  -6.293  1.00  0.00     0.028 A 
ATOM     18  N   UNL     1       1.706  -2.440  -5.850  1.00  0.00    -0.280 N 
ATOM     19  C   UNL     1       0.021  -2.946  -7.721  1.00  0.00     0.065 C 
BRANCH  10  20
ATOM     20  O   UNL     1       0.579  -1.437  -0.505  1.00  0.00    -0.495 OA
ATOM     21  C   UNL     1       0.667  -0.096  -0.024  1.00  0.00     0.278 C 
ENDBRANCH  10  20
BRANCH  18  22
ATOM     22  C   UNL     1       2.905  -2.612  -6.613  1.00  0.00     0.262 C 
ATOM     23  O   UNL     1       2.838  -3.011  -7.761  1.00  0.00    -0.268 OA
BRANCH  22  24
ATOM     24  C   UNL     1       4.265  -2.333  -6.107  1.00  0.00     0.040 A 
ATOM     25  C   UNL     1       4.836  -3.127  -5.106  1.00  0.00     0.015 A 
ATOM     26  C   UNL     1       4.936  -1.212  -6.606  1.00  0.00     0.015 A 
ATOM     27  C   UNL     1       6.047  -2.731  -4.531  1.00  0.00     0.021 A 
ATOM     28  C   UNL     1       6.152  -0.831  -6.037  1.00  0.00     0.021 A 
ATOM     29  C   UNL     1       6.689  -1.577  -4.986  1.00  0.00     0.041 A 
ATOM     30  Cl  UNL     1       8.139  -1.049  -4.225  1.00  0.00    -0.084 Cl
ENDBRANCH  22  24
ENDBRANCH  18  22
ENDBRANCH   8   9
ENDBRANCH   5   8
ENDBRANCH   3   4
ENDBRANCH   2   3
ENDBRANCH   1   2
BRANCH   1  31
ATOM     31  C   UNL     1       0.065  -8.861  -4.763  1.00  0.00     0.002 C 
BRANCH  31  32
ATOM     32  C   UNL     1       0.973  -9.143  -5.967  1.00  0.00     0.021 C 
BRANCH  32  33
ATOM     33  C   UNL     1       2.457  -9.268  -5.622  1.00  0.00     0.116 C 
BRANCH  33  34
ATOM     34  N   UNL     1       2.734 -10.280  -4.623  1.00  0.00    -0.352 N 
ATOM     35  C   UNL     1       2.977 -11.624  -4.645  1.00  0.00     0.251 C 
ATOM     36  H   UNL     1       2.751  -9.911  -3.711  1.00  0.00     0.163 HD
ATOM     37  O   UNL     1       3.273 -12.129  -3.558  1.00  0.00    -0.269 OA
BRANCH  35  38
ATOM     38  C   UNL     1       2.858 -12.511  -5.837  1.00  0.00     0.039 A 
ATOM     39  C   UNL     1       2.575 -12.102  -7.139  1.00  0.00     0.014 A 
ATOM     40  C   UNL     1       2.994 -13.893  -5.586  1.00  0.00     0.014 A 
ATOM     41  C   UNL     1       2.340 -13.047  -8.137  1.00  0.00     0.010 A 
ATOM     42  C   UNL     1       2.774 -14.839  -6.582  1.00  0.00     0.010 A 
ATOM     43  C   UNL     1       2.399 -14.416  -7.850  1.00  0.00    -0.014 A 
BRANCH  43  44
ATOM     44  C   UNL     1       2.152 -15.359  -8.940  1.00  0.00     0.031 A 
ATOM     45  C   UNL     1       3.081 -15.229 -10.096  1.00  0.00     0.074 A 
ATOM     46  C   UNL     1       1.216 -16.330  -8.918  1.00  0.00     0.049 A 
ATOM     47  N   UNL     1       2.799 -14.834 -11.293  1.00  0.00    -0.248 NA
ATOM     48  C   UNL     1       4.515 -15.447  -9.857  1.00  0.00     0.031 C 
ATOM     49  C   UNL     1       0.399 -16.776  -7.785  1.00  0.00     0.029 A 
ATOM     50  N   UNL     1       0.852 -17.192  -9.913  1.00  0.00    -0.354 N 
ATOM     51  C   UNL     1       3.987 -14.908 -12.015  1.00  0.00     0.074 A 
ATOM     52  C   UNL     1       5.031 -15.167 -11.056  1.00  0.00     0.031 C 
ATOM     53  C   UNL     1      -0.188 -17.957  -8.090  1.00  0.00     0.029 A 
ATOM     54  C   UNL     1       0.070 -18.258  -9.488  1.00  0.00     0.049 A 
ATOM     55  H   UNL     1       1.122 -17.068 -10.852  1.00  0.00     0.167 HD
ATOM     56  C   UNL     1       4.004 -14.933 -13.376  1.00  0.00     0.031 A 
ATOM     57  C   UNL     1      -0.326 -19.321 -10.230  1.00  0.00     0.031 A 
ATOM     58  C   UNL     1       2.732 -14.568 -13.933  1.00  0.00     0.049 A 
ATOM     59  C   UNL     1      -0.291 -18.903 -11.648  1.00  0.00     0.074 A 
ATOM     60  C   UNL     1       2.015 -13.402 -14.071  1.00  0.00     0.029 A 
ATOM     61  N   UNL     1       1.860 -15.611 -14.117  1.00  0.00    -0.354 N 
ATOM     62  N   UNL     1      -1.076 -17.992 -12.151  1.00  0.00    -0.248 NA
ATOM     63  C   UNL     1       0.855 -19.265 -12.470  1.00  0.00     0.031 C 
ATOM     64  C   UNL     1       0.645 -13.790 -14.017  1.00  0.00     0.029 A 
ATOM     65  C   UNL     1       0.577 -15.181 -13.901  1.00  0.00     0.049 A 
ATOM     66  H   UNL     1       2.117 -16.528 -14.366  1.00  0.00     0.167 HD
ATOM     67  C   UNL     1      -0.312 -17.374 -13.123  1.00  0.00     0.074 A 
ATOM     68  C   UNL     1       0.787 -18.295 -13.385  1.00  0.00     0.031 C 
ATOM     69  C   UNL     1      -0.482 -16.053 -13.419  1.00  0.00     0.031 A 
BRANCH  56  70
ATOM     70  C   UNL     1       5.058 -15.629 -14.200  1.00  0.00    -0.014 A 
ATOM     71  C   UNL     1       5.908 -16.616 -13.663  1.00  0.00     0.010 A 
ATOM     72  C   UNL     1       5.054 -15.484 -15.603  1.00  0.00     0.010 A 
ATOM     73  C   UNL     1       6.752 -17.384 -14.468  1.00  0.00     0.020 A 
ATOM     74  C   UNL     1       5.871 -16.277 -16.425  1.00  0.00     0.020 A 
ATOM     75  C   UNL     1       6.728 -17.212 -15.847  1.00  0.00     0.054 A 
BRANCH  75  76
ATOM     76  S   UNL     1       7.801 -18.264 -16.856  1.00  0.00     0.124 S 
ATOM     77  O   UNL     1       9.129 -17.797 -16.467  1.00  0.00    -0.237 OA
ATOM     78  O   UNL     1       7.446 -19.605 -16.398  1.00  0.00    -0.237 OA
ATOM     79  O   UNL     1       7.405 -17.949 -18.226  1.00  0.00    -0.744 OA
ENDBRANCH  75  76
ENDBRANCH  56  70
BRANCH  57  80
ATOM     80  C   UNL     1      -0.317 -20.756  -9.845  1.00  0.00    -0.014 A 
ATOM     81  C   UNL     1       0.613 -21.213  -8.889  1.00  0.00     0.010 A 
ATOM     82  C   UNL     1      -0.955 -21.717 -10.655  1.00  0.00     0.010 A 
ATOM     83  C   UNL     1       0.972 -22.564  -8.817  1.00  0.00     0.020 A 
ATOM     84  C   UNL     1      -0.599 -23.075 -10.587  1.00  0.00     0.020 A 
ATOM     85  C   UNL     1       0.396 -23.480  -9.696  1.00  0.00     0.054 A 
BRANCH  85  86
ATOM     86  S   UNL     1       1.047 -25.177  -9.721  1.00  0.00     0.124 S 
ATOM     87  O   UNL     1       2.398 -24.974 -10.235  1.00  0.00    -0.237 OA
ATOM     88  O   UNL     1       0.962 -25.567  -8.316  1.00  0.00    -0.237 OA
ATOM     89  O   UNL     1       0.137 -25.885 -10.618  1.00  0.00    -0.744 OA
ENDBRANCH  85  86
ENDBRANCH  57  80
BRANCH  69  90
ATOM     90  C   UNL     1      -1.784 -15.387 -13.036  1.00  0.00    -0.014 A 
ATOM     91  C   UNL     1      -2.489 -14.738 -14.067  1.00  0.00     0.010 A 
ATOM     92  C   UNL     1      -2.246 -15.242 -11.714  1.00  0.00     0.010 A 
ATOM     93  C   UNL     1      -3.589 -13.927 -13.790  1.00  0.00     0.020 A 
ATOM     94  C   UNL     1      -3.372 -14.450 -11.431  1.00  0.00     0.020 A 
ATOM     95  C   UNL     1      -4.017 -13.775 -12.471  1.00  0.00     0.054 A 
BRANCH  95  96
ATOM     96  S   UNL     1      -5.408 -12.655 -12.154  1.00  0.00     0.124 S 
ATOM     97  O   UNL     1      -4.811 -11.344 -12.399  1.00  0.00    -0.237 OA
ATOM     98  O   UNL     1      -6.398 -13.083 -13.140  1.00  0.00    -0.237 OA
ATOM     99  O   UNL     1      -5.768 -12.921 -10.763  1.00  0.00    -0.744 OA
ENDBRANCH  95  96
ENDBRANCH  69  90
ENDBRANCH  43  44
ENDBRANCH  35  38
ENDBRANCH  33  34
ENDBRANCH  32  33
ENDBRANCH  31  32
ENDBRANCH   1  31
TORSDOF 20
