REMARK SMILES CC1(C)[C@H](C(=O)NCCCCCCNC(=O)c2ccc(-c3c4nc(c(-c5ccc(S(=O)(=O)[O-])cc5)c5ccc([nH]5)c(-c5ccc(S(=O)(=O)[O-])cc5)c5nc(c(-c6ccc(S(=O)(=O)[O-])cc6)c6ccc3[nH]6)C=C5)C=C4)cc2)[C@@H]1C(=O)Nc1ccc(NC(=O)C2CCC2)cc1
REMARK SMILES IDX 10 1 9 2 8 3 7 4 5 5 6 6 4 8 1 9 2 10 3 11 77 12 78 13 79 14
REMARK SMILES IDX 80 15 81 17 82 18 93 19 83 20 92 21 84 22 85 23 86 24 87 26
REMARK SMILES IDX 88 27 89 28 91 29 90 30 11 31 12 32 13 33 14 34 15 35 16 37
REMARK SMILES IDX 17 38 18 39 76 40 19 41 75 42 20 43 21 44 22 45 69 46 23 47
REMARK SMILES IDX 74 48 68 49 70 50 24 51 73 52 67 53 66 54 25 56 55 57 36 58
REMARK SMILES IDX 54 59 37 60 40 61 53 62 71 63 38 64 39 65 52 67 72 68 41 69
REMARK SMILES IDX 26 70 27 71 35 72 28 73 34 74 29 75 30 76 31 77 32 78 33 79
REMARK SMILES IDX 56 80 57 81 65 82 58 83 64 84 59 85 60 86 61 87 62 88 63 89
REMARK SMILES IDX 42 90 43 91 51 92 44 93 50 94 45 95 46 96 47 97 48 98 49 99
REMARK H PARENT 7 7 80 16 85 25 14 36 70 55 40 66
REMARK Flexibility Score: inf
ROOT
ATOM      1  C   UNL     1      -0.569   5.251  -1.820  1.00  0.00     0.002 C 
ENDROOT
BRANCH   1   2
ATOM      2  C   UNL     1       0.233   4.203  -1.030  1.00  0.00     0.021 C 
BRANCH   2   3
ATOM      3  C   UNL     1      -0.612   3.041  -0.519  1.00  0.00     0.116 C 
BRANCH   3   4
ATOM      4  N   UNL     1      -0.927   2.131  -1.598  1.00  0.00    -0.356 N 
ATOM      5  C   UNL     1      -0.970   0.780  -1.756  1.00  0.00     0.224 C 
ATOM      6  O   UNL     1      -1.268   0.398  -2.892  1.00  0.00    -0.275 OA
ATOM      7  H   UNL     1      -1.170   2.607  -2.424  1.00  0.00     0.163 HD
BRANCH   5   8
ATOM      8  C   UNL     1      -0.719  -0.282  -0.753  1.00  0.00     0.098 C 
ATOM      9  C   UNL     1       1.171  -1.764   0.141  1.00  0.00     0.013 C 
ATOM     10  C   UNL     1       0.484  -0.415   0.164  1.00  0.00    -0.011 C 
ATOM     11  C   UNL     1       1.476   0.712   0.316  1.00  0.00     0.013 C 
ATOM     12  C   UNL     1      -0.957  -0.363   0.721  1.00  0.00     0.098 C 
BRANCH  12  13
ATOM     13  C   UNL     1      -1.500   0.688   1.603  1.00  0.00     0.228 C 
ATOM     14  O   UNL     1      -0.814   1.148   2.511  1.00  0.00    -0.274 OA
ATOM     15  N   UNL     1      -2.807   1.108   1.467  1.00  0.00    -0.326 N 
ATOM     16  H   UNL     1      -3.216   1.557   2.242  1.00  0.00     0.169 HD
BRANCH  15  17
ATOM     17  C   UNL     1      -3.603   0.955   0.329  1.00  0.00     0.041 A 
ATOM     18  C   UNL     1      -3.861   2.118  -0.377  1.00  0.00     0.028 A 
ATOM     19  C   UNL     1      -4.021  -0.269  -0.186  1.00  0.00     0.028 A 
ATOM     20  C   UNL     1      -4.315   2.032  -1.682  1.00  0.00     0.028 A 
ATOM     21  C   UNL     1      -4.691  -0.304  -1.422  1.00  0.00     0.028 A 
ATOM     22  C   UNL     1      -4.845   0.864  -2.182  1.00  0.00     0.041 A 
BRANCH  22  23
ATOM     23  N   UNL     1      -5.516   0.804  -3.407  1.00  0.00    -0.326 N 
ATOM     24  C   UNL     1      -5.979   1.763  -4.289  1.00  0.00     0.227 C 
ATOM     25  H   UNL     1      -5.697  -0.116  -3.705  1.00  0.00     0.169 HD
ATOM     26  O   UNL     1      -6.516   1.293  -5.312  1.00  0.00    -0.274 OA
BRANCH  24  27
ATOM     27  C   UNL     1      -5.886   3.303  -4.106  1.00  0.00     0.079 C 
ATOM     28  C   UNL     1      -7.174   4.066  -4.591  1.00  0.00     0.013 C 
ATOM     29  C   UNL     1      -6.105   4.103  -2.780  1.00  0.00     0.013 C 
ATOM     30  C   UNL     1      -6.820   5.180  -3.601  1.00  0.00     0.002 C 
ENDBRANCH  24  27
ENDBRANCH  22  23
ENDBRANCH  15  17
ENDBRANCH  12  13
ENDBRANCH   5   8
ENDBRANCH   3   4
ENDBRANCH   2   3
ENDBRANCH   1   2
BRANCH   1  31
ATOM     31  C   UNL     1      -1.688   5.955  -1.042  1.00  0.00     0.002 C 
BRANCH  31  32
ATOM     32  C   UNL     1      -1.280   6.539   0.312  1.00  0.00     0.021 C 
BRANCH  32  33
ATOM     33  C   UNL     1      -0.078   7.477   0.270  1.00  0.00     0.116 C 
BRANCH  33  34
ATOM     34  N   UNL     1      -0.311   8.638  -0.571  1.00  0.00    -0.352 N 
ATOM     35  C   UNL     1      -0.028   9.956  -0.314  1.00  0.00     0.251 C 
ATOM     36  H   UNL     1      -0.728   8.455  -1.444  1.00  0.00     0.163 HD
ATOM     37  O   UNL     1      -0.437  10.831  -1.071  1.00  0.00    -0.269 OA
BRANCH  35  38
ATOM     38  C   UNL     1       0.749  10.316   0.892  1.00  0.00     0.039 A 
ATOM     39  C   UNL     1       0.300  11.369   1.692  1.00  0.00     0.014 A 
ATOM     40  C   UNL     1       1.912   9.618   1.233  1.00  0.00     0.014 A 
ATOM     41  C   UNL     1       0.992  11.693   2.860  1.00  0.00     0.010 A 
ATOM     42  C   UNL     1       2.559   9.896   2.434  1.00  0.00     0.010 A 
ATOM     43  C   UNL     1       2.113  10.942   3.254  1.00  0.00    -0.014 A 
BRANCH  43  44
ATOM     44  C   UNL     1       2.834  11.250   4.516  1.00  0.00     0.031 A 
ATOM     45  C   UNL     1       4.260  11.730   4.473  1.00  0.00     0.074 A 
ATOM     46  C   UNL     1       2.220  11.051   5.699  1.00  0.00     0.049 A 
ATOM     47  N   UNL     1       5.062  12.017   5.466  1.00  0.00    -0.248 NA
ATOM     48  C   UNL     1       4.873  11.884   3.143  1.00  0.00     0.031 C 
ATOM     49  C   UNL     1       0.855  10.547   5.873  1.00  0.00     0.029 A 
ATOM     50  N   UNL     1       2.667  11.245   6.982  1.00  0.00    -0.354 N 
ATOM     51  C   UNL     1       6.274  12.369   4.884  1.00  0.00     0.074 A 
ATOM     52  C   UNL     1       6.118  12.211   3.455  1.00  0.00     0.031 C 
ATOM     53  C   UNL     1       0.568  10.499   7.184  1.00  0.00     0.029 A 
ATOM     54  C   UNL     1       1.736  10.931   7.944  1.00  0.00     0.049 A 
ATOM     55  H   UNL     1       3.569  11.578   7.194  1.00  0.00     0.167 HD
ATOM     56  C   UNL     1       7.409  12.804   5.482  1.00  0.00     0.031 A 
ATOM     57  C   UNL     1       1.813  10.983   9.288  1.00  0.00     0.031 A 
ATOM     58  C   UNL     1       7.555  12.973   6.904  1.00  0.00     0.049 A 
ATOM     59  C   UNL     1       3.083  11.474   9.929  1.00  0.00     0.074 A 
ATOM     60  C   UNL     1       8.644  13.461   7.604  1.00  0.00     0.029 A 
ATOM     61  N   UNL     1       6.583  12.661   7.842  1.00  0.00    -0.354 N 
ATOM     62  N   UNL     1       4.196  11.866   9.357  1.00  0.00    -0.248 NA
ATOM     63  C   UNL     1       3.100  11.545  11.397  1.00  0.00     0.031 C 
ATOM     64  C   UNL     1       8.350  13.397   8.970  1.00  0.00     0.029 A 
ATOM     65  C   UNL     1       7.055  12.926   9.117  1.00  0.00     0.049 A 
ATOM     66  H   UNL     1       5.690  12.303   7.633  1.00  0.00     0.167 HD
ATOM     67  C   UNL     1       5.036  12.258  10.394  1.00  0.00     0.074 A 
ATOM     68  C   UNL     1       4.295  12.071  11.625  1.00  0.00     0.031 C 
ATOM     69  C   UNL     1       6.305  12.733  10.333  1.00  0.00     0.031 A 
BRANCH  56  70
ATOM     70  C   UNL     1       8.585  13.126   4.598  1.00  0.00    -0.014 A 
ATOM     71  C   UNL     1       8.570  14.244   3.745  1.00  0.00     0.010 A 
ATOM     72  C   UNL     1       9.740  12.323   4.652  1.00  0.00     0.010 A 
ATOM     73  C   UNL     1       9.671  14.531   2.933  1.00  0.00     0.020 A 
ATOM     74  C   UNL     1      10.854  12.624   3.862  1.00  0.00     0.020 A 
ATOM     75  C   UNL     1      10.806  13.718   2.995  1.00  0.00     0.054 A 
BRANCH  75  76
ATOM     76  S   UNL     1      12.229  14.130   1.950  1.00  0.00     0.124 S 
ATOM     77  O   UNL     1      11.751  13.745   0.625  1.00  0.00    -0.237 OA
ATOM     78  O   UNL     1      12.382  15.566   2.170  1.00  0.00    -0.237 OA
ATOM     79  O   UNL     1      13.307  13.303   2.488  1.00  0.00    -0.744 OA
ENDBRANCH  75  76
ENDBRANCH  56  70
BRANCH  57  80
ATOM     80  C   UNL     1       0.646  10.576  10.118  1.00  0.00    -0.014 A 
ATOM     81  C   UNL     1      -0.092  11.536  10.835  1.00  0.00     0.010 A 
ATOM     82  C   UNL     1       0.260   9.226  10.188  1.00  0.00     0.010 A 
ATOM     83  C   UNL     1      -1.179  11.149  11.624  1.00  0.00     0.020 A 
ATOM     84  C   UNL     1      -0.844   8.839  10.954  1.00  0.00     0.020 A 
ATOM     85  C   UNL     1      -1.549   9.802  11.678  1.00  0.00     0.054 A 
BRANCH  85  86
ATOM     86  S   UNL     1      -2.991   9.329  12.672  1.00  0.00     0.124 S 
ATOM     87  O   UNL     1      -2.472   9.441  14.031  1.00  0.00    -0.237 OA
ATOM     88  O   UNL     1      -3.982  10.331  12.287  1.00  0.00    -0.237 OA
ATOM     89  O   UNL     1      -3.284   7.970  12.222  1.00  0.00    -0.744 OA
ENDBRANCH  85  86
ENDBRANCH  57  80
BRANCH  69  90
ATOM     90  C   UNL     1       6.961  13.123  11.631  1.00  0.00    -0.014 A 
ATOM     91  C   UNL     1       7.373  12.153  12.562  1.00  0.00     0.010 A 
ATOM     92  C   UNL     1       7.207  14.482  11.900  1.00  0.00     0.010 A 
ATOM     93  C   UNL     1       7.985  12.539  13.758  1.00  0.00     0.020 A 
ATOM     94  C   UNL     1       7.845  14.869  13.081  1.00  0.00     0.020 A 
ATOM     95  C   UNL     1       8.214  13.896  14.011  1.00  0.00     0.054 A 
BRANCH  95  96
ATOM     96  S   UNL     1       9.038  14.369  15.555  1.00  0.00     0.124 S 
ATOM     97  O   UNL     1       7.976  14.171  16.538  1.00  0.00    -0.237 OA
ATOM     98  O   UNL     1      10.149  13.424  15.630  1.00  0.00    -0.237 OA
ATOM     99  O   UNL     1       9.426  15.760  15.329  1.00  0.00    -0.744 OA
ENDBRANCH  95  96
ENDBRANCH  69  90
ENDBRANCH  43  44
ENDBRANCH  35  38
ENDBRANCH  33  34
ENDBRANCH  32  33
ENDBRANCH  31  32
ENDBRANCH   1  31
TORSDOF 20
