REMARK SMILES O=C(COc1ccccc1/C=N/NC(=O)c1cc(-c2ccc(F)cc2)nc2ccccc12)NCCCCCCNC(=O)c1ccc(-c2c3nc(c(-c4ccc(S(=O)(=O)[O-])cc4)c4ccc([nH]4)c(-c4ccc(S(=O)(=O)[O-])cc4)c4nc(c(-c5ccc(S(=O)(=O)[O-])cc5)c5ccc2[nH]5)C=C4)C=C3)cc1
REMARK SMILES IDX 35 1 34 2 33 3 1 4 2 5 3 7 4 8 5 9 6 10 10 11 7 12 9 13 8 14
REMARK SMILES IDX 11 15 12 16 13 17 14 18 15 20 16 21 17 22 32 23 18 24 27 25
REMARK SMILES IDX 31 26 26 27 28 28 30 29 29 30 19 31 20 32 25 33 21 34 24 35
REMARK SMILES IDX 22 36 23 37 36 38 37 39 38 40 39 41 40 42 41 43 42 45 43 46
REMARK SMILES IDX 44 47 102 48 45 49 101 50 46 51 47 52 48 53 95 54 49 55
REMARK SMILES IDX 100 56 94 57 96 58 50 59 99 60 93 61 92 62 51 64 81 65 62 66
REMARK SMILES IDX 80 67 63 68 66 69 79 70 97 71 64 72 65 73 78 75 98 76 67 77
REMARK SMILES IDX 52 78 53 79 61 80 54 81 60 82 55 83 56 84 57 85 58 86 59 87
REMARK SMILES IDX 82 88 83 89 91 90 84 91 90 92 85 93 86 94 87 95 88 96 89 97
REMARK SMILES IDX 68 98 69 99 77 100 70 101 76 102 71 103 72 104 73 105 74 106
REMARK SMILES IDX 75 107
REMARK H PARENT 33 6 13 19 40 44 96 63 66 74
REMARK Flexibility Score: inf
ROOT
ATOM      1  C   UNL     1       2.831  -1.952  -3.026  1.00  0.00     0.021 C 
ENDROOT
BRANCH   1   2
ATOM      2  C   UNL     1       2.592  -2.005  -1.542  1.00  0.00     0.116 C 
BRANCH   2   3
ATOM      3  N   UNL     1       3.185  -0.842  -0.799  1.00  0.00    -0.353 N 
ATOM      4  O   UNL     1       1.447   0.702  -0.341  1.00  0.00    -0.271 OA
ATOM      5  C   UNL     1       2.602   0.277  -0.228  1.00  0.00     0.257 C 
ATOM      6  H   UNL     1       4.164  -0.882  -0.700  1.00  0.00     0.163 HD
BRANCH   5   7
ATOM      7  C   UNL     1       3.326   1.131   0.756  1.00  0.00     0.329 C 
BRANCH   7   8
ATOM      8  O   UNL     1       4.006   0.523   1.818  1.00  0.00    -0.483 OA
BRANCH   8   9
ATOM      9  C   UNL     1       3.341  -0.356   2.655  1.00  0.00     0.128 A 
ATOM     10  C   UNL     1       3.832  -0.313   3.968  1.00  0.00     0.047 A 
ATOM     11  C   UNL     1       2.397  -1.387   2.332  1.00  0.00     0.037 A 
ATOM     12  C   UNL     1       3.478  -1.329   4.864  1.00  0.00     0.004 A 
ATOM     13  C   UNL     1       1.982  -2.313   3.268  1.00  0.00     0.013 A 
ATOM     14  C   UNL     1       2.506  -2.276   4.538  1.00  0.00     0.001 A 
BRANCH  11  15
ATOM     15  C   UNL     1       1.378  -1.310   1.277  1.00  0.00     0.145 C 
ATOM     16  N   UNL     1       0.750  -2.175   0.548  1.00  0.00    -0.180 NA
BRANCH  16  17
ATOM     17  N   UNL     1      -0.146  -1.647  -0.532  1.00  0.00    -0.243 N 
ATOM     18  C   UNL     1       0.059  -0.753  -1.611  1.00  0.00     0.272 C 
ATOM     19  H   UNL     1      -1.067  -1.994  -0.481  1.00  0.00     0.194 HD
ATOM     20  O   UNL     1      -0.432  -1.625  -2.457  1.00  0.00    -0.267 OA
BRANCH  18  21
ATOM     21  C   UNL     1       0.255   0.183  -2.788  1.00  0.00     0.053 A 
ATOM     22  C   UNL     1       1.366   1.133  -2.583  1.00  0.00     0.043 A 
ATOM     23  C   UNL     1      -0.589   0.191  -4.301  1.00  0.00     0.013 A 
ATOM     24  C   UNL     1       1.555   1.757  -3.701  1.00  0.00     0.072 A 
ATOM     25  C   UNL     1       0.383   0.841  -5.024  1.00  0.00     0.072 A 
ATOM     26  C   UNL     1      -1.555  -0.003  -5.679  1.00  0.00     0.011 A 
ATOM     27  N   UNL     1       1.562   0.886  -4.615  1.00  0.00    -0.248 NA
ATOM     28  C   UNL     1       0.317   1.560  -6.156  1.00  0.00     0.029 A 
ATOM     29  C   UNL     1      -1.609   0.897  -6.872  1.00  0.00     0.001 A 
ATOM     30  C   UNL     1      -0.754   1.946  -6.878  1.00  0.00     0.002 A 
BRANCH  24  31
ATOM     31  C   UNL     1       2.103   3.006  -4.105  1.00  0.00     0.000 A 
ATOM     32  C   UNL     1       1.158   3.798  -4.808  1.00  0.00     0.013 A 
ATOM     33  C   UNL     1       3.467   3.005  -4.404  1.00  0.00     0.013 A 
ATOM     34  C   UNL     1       1.558   4.387  -5.987  1.00  0.00     0.040 A 
ATOM     35  C   UNL     1       3.880   3.803  -5.449  1.00  0.00     0.040 A 
ATOM     36  C   UNL     1       2.921   4.477  -6.222  1.00  0.00     0.123 A 
ATOM     37  F   UNL     1       3.323   5.306  -7.185  1.00  0.00    -0.207 F 
ENDBRANCH  24  31
ENDBRANCH  18  21
ENDBRANCH  16  17
ENDBRANCH  11  15
ENDBRANCH   8   9
ENDBRANCH   7   8
ENDBRANCH   5   7
ENDBRANCH   2   3
ENDBRANCH   1   2
BRANCH   1  38
ATOM     38  C   UNL     1       4.298  -2.195  -3.192  1.00  0.00     0.002 C 
BRANCH  38  39
ATOM     39  C   UNL     1       4.641  -3.574  -2.619  1.00  0.00     0.002 C 
BRANCH  39  40
ATOM     40  C   UNL     1       3.865  -4.662  -3.339  1.00  0.00     0.021 C 
BRANCH  40  41
ATOM     41  C   UNL     1       4.184  -4.598  -4.808  1.00  0.00     0.116 C 
BRANCH  41  42
ATOM     42  N   UNL     1       5.588  -4.866  -5.062  1.00  0.00    -0.352 N 
ATOM     43  C   UNL     1       6.102  -5.931  -5.761  1.00  0.00     0.251 C 
ATOM     44  H   UNL     1       6.236  -4.221  -4.698  1.00  0.00     0.163 HD
ATOM     45  O   UNL     1       7.311  -6.103  -5.852  1.00  0.00    -0.269 OA
BRANCH  43  46
ATOM     46  C   UNL     1       5.149  -6.835  -6.451  1.00  0.00     0.039 A 
ATOM     47  C   UNL     1       5.294  -8.221  -6.418  1.00  0.00     0.014 A 
ATOM     48  C   UNL     1       4.118  -6.266  -7.207  1.00  0.00     0.014 A 
ATOM     49  C   UNL     1       4.438  -9.009  -7.196  1.00  0.00     0.010 A 
ATOM     50  C   UNL     1       3.162  -7.058  -7.815  1.00  0.00     0.010 A 
ATOM     51  C   UNL     1       3.311  -8.445  -7.813  1.00  0.00    -0.014 A 
BRANCH  51  52
ATOM     52  C   UNL     1       2.276  -9.292  -8.449  1.00  0.00     0.031 A 
ATOM     53  C   UNL     1       1.986  -9.127  -9.901  1.00  0.00     0.074 A 
ATOM     54  C   UNL     1       1.563 -10.177  -7.719  1.00  0.00     0.049 A 
ATOM     55  N   UNL     1       1.105  -9.775 -10.607  1.00  0.00    -0.248 NA
ATOM     56  C   UNL     1       2.773  -8.139 -10.660  1.00  0.00     0.031 C 
ATOM     57  C   UNL     1       1.763 -10.418  -6.293  1.00  0.00     0.029 A 
ATOM     58  N   UNL     1       0.536 -11.035  -8.052  1.00  0.00    -0.354 N 
ATOM     59  C   UNL     1       1.239  -9.293 -11.893  1.00  0.00     0.074 A 
ATOM     60  C   UNL     1       2.254  -8.265 -11.873  1.00  0.00     0.031 C 
ATOM     61  C   UNL     1       0.910 -11.364  -5.878  1.00  0.00     0.029 A 
ATOM     62  C   UNL     1       0.076 -11.789  -6.992  1.00  0.00     0.049 A 
ATOM     63  H   UNL     1       0.166 -11.103  -8.962  1.00  0.00     0.167 HD
ATOM     64  C   UNL     1       0.562  -9.698 -12.984  1.00  0.00     0.031 A 
ATOM     65  C   UNL     1      -0.900 -12.717  -6.891  1.00  0.00     0.031 A 
ATOM     66  C   UNL     1      -0.473 -10.682 -12.960  1.00  0.00     0.049 A 
ATOM     67  C   UNL     1      -1.718 -13.056  -8.105  1.00  0.00     0.074 A 
ATOM     68  C   UNL     1      -1.204 -11.113 -14.047  1.00  0.00     0.029 A 
ATOM     69  N   UNL     1      -0.942 -11.361 -11.850  1.00  0.00    -0.354 N 
ATOM     70  N   UNL     1      -1.558 -12.592  -9.316  1.00  0.00    -0.248 NA
ATOM     71  C   UNL     1      -2.834 -14.011  -7.966  1.00  0.00     0.031 C 
ATOM     72  C   UNL     1      -2.135 -12.026 -13.607  1.00  0.00     0.029 A 
ATOM     73  C   UNL     1      -1.974 -12.191 -12.247  1.00  0.00     0.049 A 
ATOM     74  H   UNL     1      -0.600 -11.268 -10.932  1.00  0.00     0.167 HD
ATOM     75  C   UNL     1      -2.523 -13.218 -10.086  1.00  0.00     0.074 A 
ATOM     76  C   UNL     1      -3.267 -14.102  -9.217  1.00  0.00     0.031 C 
ATOM     77  C   UNL     1      -2.737 -13.062 -11.409  1.00  0.00     0.031 A 
BRANCH  64  78
ATOM     78  C   UNL     1       0.844  -9.035 -14.298  1.00  0.00    -0.014 A 
ATOM     79  C   UNL     1       2.064  -9.180 -14.966  1.00  0.00     0.010 A 
ATOM     80  C   UNL     1      -0.190  -8.308 -14.914  1.00  0.00     0.010 A 
ATOM     81  C   UNL     1       2.285  -8.492 -16.169  1.00  0.00     0.020 A 
ATOM     82  C   UNL     1      -0.014  -7.723 -16.169  1.00  0.00     0.020 A 
ATOM     83  C   UNL     1       1.225  -7.826 -16.803  1.00  0.00     0.054 A 
BRANCH  83  84
ATOM     84  S   UNL     1       1.445  -7.184 -18.505  1.00  0.00     0.124 S 
ATOM     85  O   UNL     1       2.505  -6.194 -18.337  1.00  0.00    -0.237 OA
ATOM     86  O   UNL     1       1.820  -8.380 -19.258  1.00  0.00    -0.237 OA
ATOM     87  O   UNL     1       0.135  -6.632 -18.845  1.00  0.00    -0.744 OA
ENDBRANCH  83  84
ENDBRANCH  64  78
BRANCH  65  88
ATOM     88  C   UNL     1      -1.236 -13.345  -5.582  1.00  0.00    -0.014 A 
ATOM     89  C   UNL     1      -1.296 -14.739  -5.439  1.00  0.00     0.010 A 
ATOM     90  C   UNL     1      -1.655 -12.541  -4.510  1.00  0.00     0.010 A 
ATOM     91  C   UNL     1      -1.930 -15.306  -4.323  1.00  0.00     0.020 A 
ATOM     92  C   UNL     1      -2.167 -13.106  -3.338  1.00  0.00     0.020 A 
ATOM     93  C   UNL     1      -2.302 -14.493  -3.244  1.00  0.00     0.054 A 
BRANCH  93  94
ATOM     94  S   UNL     1      -2.840 -15.265  -1.674  1.00  0.00     0.124 S 
ATOM     95  O   UNL     1      -4.052 -15.980  -2.061  1.00  0.00    -0.237 OA
ATOM     96  O   UNL     1      -1.694 -16.104  -1.328  1.00  0.00    -0.237 OA
ATOM     97  O   UNL     1      -3.049 -14.124  -0.783  1.00  0.00    -0.744 OA
ENDBRANCH  93  94
ENDBRANCH  65  88
BRANCH  77  98
ATOM     98  C   UNL     1      -3.776 -13.917 -12.075  1.00  0.00    -0.014 A 
ATOM     99  C   UNL     1      -5.136 -13.827 -11.764  1.00  0.00     0.010 A 
ATOM    100  C   UNL     1      -3.363 -14.818 -13.074  1.00  0.00     0.010 A 
ATOM    101  C   UNL     1      -6.038 -14.741 -12.326  1.00  0.00     0.020 A 
ATOM    102  C   UNL     1      -4.279 -15.641 -13.730  1.00  0.00     0.020 A 
ATOM    103  C   UNL     1      -5.622 -15.598 -13.357  1.00  0.00     0.054 A 
BRANCH 103 104
ATOM    104  S   UNL     1      -6.867 -16.574 -14.279  1.00  0.00     0.124 S 
ATOM    105  O   UNL     1      -7.431 -17.436 -13.245  1.00  0.00    -0.237 OA
ATOM    106  O   UNL     1      -7.766 -15.545 -14.797  1.00  0.00    -0.237 OA
ATOM    107  O   UNL     1      -6.083 -17.268 -15.299  1.00  0.00    -0.744 OA
ENDBRANCH 103 104
ENDBRANCH  77  98
ENDBRANCH  51  52
ENDBRANCH  43  46
ENDBRANCH  41  42
ENDBRANCH  40  41
ENDBRANCH  39  40
ENDBRANCH  38  39
ENDBRANCH   1  38
TORSDOF 22
