REMARK SMILES CC(C)(C)c1cc2c(cc1Cl)C=C(C(=O)NCCCCCCNC(=O)c1ccc(-c3c4nc(c(-c5ccc(S(=O)(=O)[O-])cc5)c5ccc([nH]5)c(-c5ccc(S(=O)(=O)[O-])cc5)c5nc(c(-c6ccc(S(=O)(=O)[O-])cc6)c6ccc3[nH]6)C=C5)C=C4)cc1)[C@@H](C(F)(F)F)O2
REMARK SMILES IDX 20 1 19 2 18 3 17 4 16 5 14 6 15 7 13 9 5 10 6 11 10 12 7 13
REMARK SMILES IDX 9 14 11 15 8 16 91 17 12 18 86 19 2 20 1 21 3 22 4 23 87 24
REMARK SMILES IDX 88 25 89 26 90 27 21 28 22 29 23 30 24 31 25 33 26 34 27 35
REMARK SMILES IDX 85 36 28 37 84 38 29 39 30 40 31 41 78 42 32 43 83 44 77 45
REMARK SMILES IDX 79 46 33 47 82 48 76 49 75 50 34 52 64 53 45 54 63 55 46 56
REMARK SMILES IDX 49 57 62 58 80 59 47 60 48 61 61 63 81 64 50 65 35 66 36 67
REMARK SMILES IDX 44 68 37 69 43 70 38 71 39 72 40 73 41 74 42 75 65 76 66 77
REMARK SMILES IDX 74 78 67 79 73 80 68 81 69 82 70 83 71 84 72 85 51 86 52 87
REMARK SMILES IDX 60 88 53 89 59 90 54 91 55 92 56 93 57 94 58 95
REMARK H PARENT 16 8 23 32 79 51 49 62
REMARK Flexibility Score: inf
ROOT
ATOM      1  C   UNL     1       1.825  10.143   8.602  1.00  0.00     0.002 C 
ENDROOT
BRANCH   1   2
ATOM      2  C   UNL     1       0.824   8.987   8.732  1.00  0.00     0.002 C 
BRANCH   2   3
ATOM      3  C   UNL     1       0.510   8.229   7.437  1.00  0.00     0.021 C 
BRANCH   3   4
ATOM      4  C   UNL     1       1.735   7.645   6.738  1.00  0.00     0.116 C 
BRANCH   4   5
ATOM      5  N   UNL     1       2.130   6.372   7.316  1.00  0.00    -0.352 N 
ATOM      6  C   UNL     1       2.245   5.087   6.910  1.00  0.00     0.251 C 
ATOM      7  O   UNL     1       2.654   4.302   7.773  1.00  0.00    -0.270 OA
ATOM      8  H   UNL     1       2.384   6.472   8.263  1.00  0.00     0.163 HD
BRANCH   6   9
ATOM      9  C   UNL     1       1.918   4.572   5.546  1.00  0.00     0.067 C 
ATOM     10  C   UNL     1       0.946   1.527   1.567  1.00  0.00    -0.020 A 
ATOM     11  C   UNL     1       0.773   2.899   1.878  1.00  0.00     0.053 A 
ATOM     12  C   UNL     1       1.483   0.730   2.601  1.00  0.00     0.045 A 
ATOM     13  C   UNL     1       1.136   3.447   3.108  1.00  0.00     0.128 A 
ATOM     14  C   UNL     1       1.836   1.291   3.848  1.00  0.00     0.032 A 
ATOM     15  Cl  UNL     1       1.732  -0.978   2.518  1.00  0.00    -0.084 Cl
ATOM     16  C   UNL     1       1.663   2.648   4.106  1.00  0.00     0.019 A 
ATOM     17  O   UNL     1       0.889   4.776   3.275  1.00  0.00    -0.475 OA
ATOM     18  C   UNL     1       1.961   3.233   5.407  1.00  0.00     0.025 C 
ATOM     19  C   UNL     1       1.597   5.439   4.359  1.00  0.00     0.314 C 
BRANCH  10  20
ATOM     20  C   UNL     1       0.474   1.077   0.160  1.00  0.00    -0.012 C 
ATOM     21  C   UNL     1       0.872  -0.338  -0.307  1.00  0.00     0.016 C 
ATOM     22  C   UNL     1       1.035   2.032  -0.930  1.00  0.00     0.016 C 
ATOM     23  C   UNL     1      -1.071   1.143   0.131  1.00  0.00     0.016 C 
ENDBRANCH  10  20
BRANCH  19  24
ATOM     24  C   UNL     1       2.841   6.145   3.790  1.00  0.00     0.429 C 
ATOM     25  F   UNL     1       2.481   7.114   2.915  1.00  0.00    -0.167 F 
ATOM     26  F   UNL     1       3.576   6.749   4.753  1.00  0.00    -0.167 F 
ATOM     27  F   UNL     1       3.666   5.291   3.142  1.00  0.00    -0.167 F 
ENDBRANCH  19  24
ENDBRANCH   6   9
ENDBRANCH   4   5
ENDBRANCH   3   4
ENDBRANCH   2   3
ENDBRANCH   1   2
BRANCH   1  28
ATOM     28  C   UNL     1       1.573  11.117   7.449  1.00  0.00     0.021 C 
BRANCH  28  29
ATOM     29  C   UNL     1       0.201  11.781   7.456  1.00  0.00     0.116 C 
BRANCH  29  30
ATOM     30  N   UNL     1       0.017  12.668   8.594  1.00  0.00    -0.352 N 
ATOM     31  C   UNL     1      -0.343  13.995   8.600  1.00  0.00     0.251 C 
ATOM     32  H   UNL     1       0.171  12.264   9.478  1.00  0.00     0.163 HD
ATOM     33  O   UNL     1      -0.314  14.643   9.643  1.00  0.00    -0.269 OA
BRANCH  31  34
ATOM     34  C   UNL     1      -0.730  14.642   7.329  1.00  0.00     0.039 A 
ATOM     35  C   UNL     1      -1.677  14.045   6.493  1.00  0.00     0.014 A 
ATOM     36  C   UNL     1      -0.095  15.826   6.948  1.00  0.00     0.014 A 
ATOM     37  C   UNL     1      -1.875  14.548   5.211  1.00  0.00     0.010 A 
ATOM     38  C   UNL     1      -0.348  16.369   5.686  1.00  0.00     0.010 A 
ATOM     39  C   UNL     1      -1.204  15.708   4.790  1.00  0.00    -0.014 A 
BRANCH  39  40
ATOM     40  C   UNL     1      -1.393  16.209   3.405  1.00  0.00     0.031 A 
ATOM     41  C   UNL     1      -0.253  16.183   2.421  1.00  0.00     0.074 A 
ATOM     42  C   UNL     1      -2.608  16.643   3.018  1.00  0.00     0.049 A 
ATOM     43  N   UNL     1      -0.233  16.593   1.179  1.00  0.00    -0.248 NA
ATOM     44  C   UNL     1       1.027  15.621   2.886  1.00  0.00     0.031 C 
ATOM     45  C   UNL     1      -3.798  16.674   3.871  1.00  0.00     0.029 A 
ATOM     46  N   UNL     1      -3.052  17.115   1.809  1.00  0.00    -0.354 N 
ATOM     47  C   UNL     1       1.057  16.355   0.719  1.00  0.00     0.074 A 
ATOM     48  C   UNL     1       1.801  15.785   1.821  1.00  0.00     0.031 C 
ATOM     49  C   UNL     1      -4.846  17.091   3.146  1.00  0.00     0.029 A 
ATOM     50  C   UNL     1      -4.392  17.424   1.798  1.00  0.00     0.049 A 
ATOM     51  H   UNL     1      -2.467  17.223   1.025  1.00  0.00     0.167 HD
ATOM     52  C   UNL     1       1.569  16.583  -0.513  1.00  0.00     0.031 A 
ATOM     53  C   UNL     1      -5.171  17.932   0.823  1.00  0.00     0.031 A 
ATOM     54  C   UNL     1       0.819  17.138  -1.608  1.00  0.00     0.049 A 
ATOM     55  C   UNL     1      -4.563  18.242  -0.514  1.00  0.00     0.074 A 
ATOM     56  C   UNL     1       1.254  17.399  -2.896  1.00  0.00     0.029 A 
ATOM     57  N   UNL     1      -0.515  17.510  -1.552  1.00  0.00    -0.354 N 
ATOM     58  N   UNL     1      -3.336  18.030  -0.922  1.00  0.00    -0.248 NA
ATOM     59  C   UNL     1      -5.435  18.868  -1.518  1.00  0.00     0.031 C 
ATOM     60  C   UNL     1       0.198  17.978  -3.603  1.00  0.00     0.029 A 
ATOM     61  C   UNL     1      -0.913  18.022  -2.775  1.00  0.00     0.049 A 
ATOM     62  H   UNL     1      -1.094  17.422  -0.760  1.00  0.00     0.167 HD
ATOM     63  C   UNL     1      -3.287  18.492  -2.231  1.00  0.00     0.074 A 
ATOM     64  C   UNL     1      -4.612  18.981  -2.554  1.00  0.00     0.031 C 
ATOM     65  C   UNL     1      -2.234  18.511  -3.083  1.00  0.00     0.031 A 
BRANCH  52  66
ATOM     66  C   UNL     1       3.014  16.242  -0.762  1.00  0.00    -0.014 A 
ATOM     67  C   UNL     1       3.950  17.274  -0.960  1.00  0.00     0.010 A 
ATOM     68  C   UNL     1       3.425  14.906  -0.917  1.00  0.00     0.010 A 
ATOM     69  C   UNL     1       5.264  16.981  -1.334  1.00  0.00     0.020 A 
ATOM     70  C   UNL     1       4.745  14.607  -1.269  1.00  0.00     0.020 A 
ATOM     71  C   UNL     1       5.651  15.648  -1.496  1.00  0.00     0.054 A 
BRANCH  71  72
ATOM     72  S   UNL     1       7.356  15.282  -1.995  1.00  0.00     0.124 S 
ATOM     73  O   UNL     1       7.324  15.555  -3.428  1.00  0.00    -0.237 OA
ATOM     74  O   UNL     1       8.135  16.220  -1.190  1.00  0.00    -0.237 OA
ATOM     75  O   UNL     1       7.523  13.877  -1.628  1.00  0.00    -0.744 OA
ENDBRANCH  71  72
ENDBRANCH  52  66
BRANCH  53  76
ATOM     76  C   UNL     1      -6.613  18.166   1.104  1.00  0.00    -0.014 A 
ATOM     77  C   UNL     1      -7.005  19.167   2.013  1.00  0.00     0.010 A 
ATOM     78  C   UNL     1      -7.590  17.321   0.552  1.00  0.00     0.010 A 
ATOM     79  C   UNL     1      -8.338  19.274   2.417  1.00  0.00     0.020 A 
ATOM     80  C   UNL     1      -8.930  17.444   0.934  1.00  0.00     0.020 A 
ATOM     81  C   UNL     1      -9.288  18.398   1.889  1.00  0.00     0.054 A 
BRANCH  81  82
ATOM     82  S   UNL     1     -11.000  18.505   2.480  1.00  0.00     0.124 S 
ATOM     83  O   UNL     1     -10.919  17.800   3.756  1.00  0.00    -0.237 OA
ATOM     84  O   UNL     1     -11.221  19.946   2.570  1.00  0.00    -0.237 OA
ATOM     85  O   UNL     1     -11.762  17.825   1.436  1.00  0.00    -0.744 OA
ENDBRANCH  81  82
ENDBRANCH  53  76
BRANCH  65  86
ATOM     86  C   UNL     1      -2.439  19.082  -4.459  1.00  0.00    -0.014 A 
ATOM     87  C   UNL     1      -2.429  18.227  -5.577  1.00  0.00     0.010 A 
ATOM     88  C   UNL     1      -2.476  20.473  -4.656  1.00  0.00     0.010 A 
ATOM     89  C   UNL     1      -2.404  18.753  -6.870  1.00  0.00     0.020 A 
ATOM     90  C   UNL     1      -2.474  21.003  -5.949  1.00  0.00     0.020 A 
ATOM     91  C   UNL     1      -2.408  20.140  -7.046  1.00  0.00     0.054 A 
BRANCH  91  92
ATOM     92  S   UNL     1      -2.310  20.807  -8.730  1.00  0.00     0.124 S 
ATOM     93  O   UNL     1      -0.894  20.641  -9.044  1.00  0.00    -0.237 OA
ATOM     94  O   UNL     1      -3.225  19.944  -9.473  1.00  0.00    -0.237 OA
ATOM     95  O   UNL     1      -2.758  22.190  -8.576  1.00  0.00    -0.744 OA
ENDBRANCH  91  92
ENDBRANCH  65  86
ENDBRANCH  39  40
ENDBRANCH  31  34
ENDBRANCH  29  30
ENDBRANCH  28  29
ENDBRANCH   1  28
TORSDOF 18
