REMARK SMILES Cc1cc(Br)cc([N+](=O)[O-])c1OCCC[C@@](C)([NH3+])C(=O)NCCCCCCNC(=O)c1ccc(-c2c3nc(c(-c4ccc(S(=O)(=O)[O-])cc4)c4ccc([nH]4)c(-c4ccc(S(=O)(=O)[O-])cc4)c4nc(c(-c5ccc(S(=O)(=O)[O-])cc5)c5ccc2[nH]5)C=C4)C=C3)cc1
REMARK SMILES IDX 23 1 22 2 21 3 19 4 20 5 16 7 17 8 15 9 14 10 13 11 12 12
REMARK SMILES IDX 11 13 1 14 2 15 3 16 4 17 7 18 5 19 6 20 8 21 9 22 10 23
REMARK SMILES IDX 18 24 24 28 25 29 26 30 27 31 28 32 29 33 30 35 31 36 32 37
REMARK SMILES IDX 90 38 33 39 89 40 34 41 35 42 36 43 83 44 37 45 88 46 82 47
REMARK SMILES IDX 84 48 38 49 87 50 81 51 80 52 39 54 69 55 50 56 68 57 51 58
REMARK SMILES IDX 54 59 67 60 85 61 52 62 53 63 66 65 86 66 55 67 40 68 41 69
REMARK SMILES IDX 49 70 42 71 48 72 43 73 44 74 45 75 46 76 47 77 70 78 71 79
REMARK SMILES IDX 79 80 72 81 78 82 73 83 74 84 75 85 76 86 77 87 56 88 57 89
REMARK SMILES IDX 65 90 58 91 64 92 59 93 60 94 61 95 62 96 63 97
REMARK H PARENT 21 6 18 25 18 26 18 27 28 34 84 53 54 64
REMARK Flexibility Score: inf
ROOT
ATOM      1  C   UNL     1      -1.807  -3.780   3.491  1.00  0.00     0.021 C 
ENDROOT
BRANCH   1   2
ATOM      2  C   UNL     1      -3.091  -4.137   2.739  1.00  0.00     0.116 C 
BRANCH   2   3
ATOM      3  N   UNL     1      -3.870  -2.959   2.409  1.00  0.00    -0.351 N 
ATOM      4  C   UNL     1      -4.582  -2.593   1.313  1.00  0.00     0.280 C 
ATOM      5  O   UNL     1      -5.431  -1.718   1.530  1.00  0.00    -0.268 OA
ATOM      6  H   UNL     1      -3.884  -2.286   3.127  1.00  0.00     0.163 HD
BRANCH   4   7
ATOM      7  C   UNL     1      -4.418  -3.203  -0.114  1.00  0.00     0.171 C 
ATOM      8  C   UNL     1      -5.597  -4.170  -0.293  1.00  0.00     0.090 C 
BRANCH   7   9
ATOM      9  C   UNL     1      -4.379  -2.138  -1.270  1.00  0.00     0.082 C 
BRANCH   9  10
ATOM     10  C   UNL     1      -5.093  -0.778  -1.116  1.00  0.00     0.049 C 
BRANCH  10  11
ATOM     11  C   UNL     1      -4.342   0.347  -0.354  1.00  0.00     0.230 C 
BRANCH  11  12
ATOM     12  O   UNL     1      -3.184   0.770  -1.096  1.00  0.00    -0.487 OA
BRANCH  12  13
ATOM     13  C   UNL     1      -2.066   1.148  -0.382  1.00  0.00     0.200 A 
ATOM     14  C   UNL     1      -1.493  -1.268   0.205  1.00  0.00     0.049 C 
ATOM     15  C   UNL     1      -1.141   0.163   0.014  1.00  0.00    -0.001 A 
ATOM     16  C   UNL     1       0.211   0.489   0.213  1.00  0.00     0.023 A 
ATOM     17  C   UNL     1       0.644   1.800   0.104  1.00  0.00     0.025 A 
ATOM     18  C   UNL     1      -1.627   2.484  -0.377  1.00  0.00     0.312 A 
ATOM     19  Br  UNL     1       2.482   2.187   0.291  1.00  0.00    -0.051 Br
ATOM     20  C   UNL     1      -0.274   2.811  -0.137  1.00  0.00     0.105 A 
BRANCH  18  21
ATOM     21  N   UNL     1      -2.559   3.598  -0.551  1.00  0.00     0.066 N 
ATOM     22  O   UNL     1      -2.088   4.678  -0.940  1.00  0.00    -0.258 OA
ATOM     23  O   UNL     1      -3.740   3.433  -0.221  1.00  0.00    -0.258 OA
ENDBRANCH  18  21
ENDBRANCH  12  13
ENDBRANCH  11  12
ENDBRANCH  10  11
ENDBRANCH   9  10
ENDBRANCH   7   9
BRANCH   7  24
ATOM     24  N   UNL     1      -3.211  -4.052  -0.265  1.00  0.00    -0.345 N 
ATOM     25  H   UNL     1      -3.168  -4.415  -1.217  1.00  0.00     0.345 HD
ATOM     26  H   UNL     1      -3.258  -4.829   0.393  1.00  0.00     0.345 HD
ATOM     27  H   UNL     1      -2.378  -3.495  -0.075  1.00  0.00     0.345 HD
ENDBRANCH   7  24
ENDBRANCH   4   7
ENDBRANCH   2   3
ENDBRANCH   1   2
BRANCH   1  28
ATOM     28  C   UNL     1      -1.999  -3.000   4.800  1.00  0.00     0.002 C 
BRANCH  28  29
ATOM     29  C   UNL     1      -3.013  -3.589   5.786  1.00  0.00     0.002 C 
BRANCH  29  30
ATOM     30  C   UNL     1      -2.828  -5.070   6.115  1.00  0.00     0.021 C 
BRANCH  30  31
ATOM     31  C   UNL     1      -1.474  -5.428   6.711  1.00  0.00     0.116 C 
BRANCH  31  32
ATOM     32  N   UNL     1      -1.306  -4.894   8.051  1.00  0.00    -0.352 N 
ATOM     33  C   UNL     1      -1.005  -5.564   9.213  1.00  0.00     0.251 C 
ATOM     34  H   UNL     1      -1.424  -3.920   8.139  1.00  0.00     0.163 HD
ATOM     35  O   UNL     1      -1.094  -4.994  10.294  1.00  0.00    -0.269 OA
BRANCH  33  36
ATOM     36  C   UNL     1      -0.596  -6.986   9.150  1.00  0.00     0.039 A 
ATOM     37  C   UNL     1      -1.173  -7.897  10.037  1.00  0.00     0.014 A 
ATOM     38  C   UNL     1       0.342  -7.419   8.208  1.00  0.00     0.014 A 
ATOM     39  C   UNL     1      -0.854  -9.254   9.938  1.00  0.00     0.010 A 
ATOM     40  C   UNL     1       0.598  -8.780   8.060  1.00  0.00     0.010 A 
ATOM     41  C   UNL     1       0.007  -9.712   8.926  1.00  0.00    -0.014 A 
BRANCH  41  42
ATOM     42  C   UNL     1       0.298 -11.159   8.757  1.00  0.00     0.031 A 
ATOM     43  C   UNL     1       1.701 -11.676   8.934  1.00  0.00     0.074 A 
ATOM     44  C   UNL     1      -0.689 -12.000   8.386  1.00  0.00     0.049 A 
ATOM     45  N   UNL     1       2.156 -12.893   8.780  1.00  0.00    -0.248 NA
ATOM     46  C   UNL     1       2.732 -10.694   9.308  1.00  0.00     0.031 C 
ATOM     47  C   UNL     1      -2.082 -11.616   8.142  1.00  0.00     0.029 A 
ATOM     48  N   UNL     1      -0.671 -13.351   8.143  1.00  0.00    -0.354 N 
ATOM     49  C   UNL     1       3.523 -12.820   9.023  1.00  0.00     0.074 A 
ATOM     50  C   UNL     1       3.832 -11.431   9.283  1.00  0.00     0.031 C 
ATOM     51  C   UNL     1      -2.788 -12.710   7.814  1.00  0.00     0.029 A 
ATOM     52  C   UNL     1      -1.895 -13.863   7.780  1.00  0.00     0.049 A 
ATOM     53  H   UNL     1       0.141 -13.901   8.221  1.00  0.00     0.167 HD
ATOM     54  C   UNL     1       4.436 -13.820   9.049  1.00  0.00     0.031 A 
ATOM     55  C   UNL     1      -2.259 -15.118   7.450  1.00  0.00     0.031 A 
ATOM     56  C   UNL     1       4.124 -15.203   8.798  1.00  0.00     0.049 A 
ATOM     57  C   UNL     1      -1.224 -16.210   7.472  1.00  0.00     0.074 A 
ATOM     58  C   UNL     1       4.967 -16.299   8.854  1.00  0.00     0.029 A 
ATOM     59  N   UNL     1       2.872 -15.680   8.441  1.00  0.00    -0.354 N 
ATOM     60  N   UNL     1       0.051 -16.131   7.771  1.00  0.00    -0.248 NA
ATOM     61  C   UNL     1      -1.680 -17.563   7.125  1.00  0.00     0.031 C 
ATOM     62  C   UNL     1       4.239 -17.430   8.475  1.00  0.00     0.029 A 
ATOM     63  C   UNL     1       2.926 -17.050   8.247  1.00  0.00     0.049 A 
ATOM     64  H   UNL     1       2.064 -15.127   8.340  1.00  0.00     0.167 HD
ATOM     65  C   UNL     1       0.543 -17.428   7.675  1.00  0.00     0.074 A 
ATOM     66  C   UNL     1      -0.575 -18.273   7.305  1.00  0.00     0.031 C 
ATOM     67  C   UNL     1       1.806 -17.879   7.877  1.00  0.00     0.031 A 
BRANCH  54  68
ATOM     68  C   UNL     1       5.867 -13.453   9.351  1.00  0.00    -0.014 A 
ATOM     69  C   UNL     1       6.250 -13.012  10.631  1.00  0.00     0.010 A 
ATOM     70  C   UNL     1       6.849 -13.589   8.353  1.00  0.00     0.010 A 
ATOM     71  C   UNL     1       7.580 -12.673  10.895  1.00  0.00     0.020 A 
ATOM     72  C   UNL     1       8.186 -13.281   8.622  1.00  0.00     0.020 A 
ATOM     73  C   UNL     1       8.540 -12.807   9.887  1.00  0.00     0.054 A 
BRANCH  73  74
ATOM     74  S   UNL     1      10.261 -12.380  10.264  1.00  0.00     0.124 S 
ATOM     75  O   UNL     1      10.198 -10.922  10.345  1.00  0.00    -0.237 OA
ATOM     76  O   UNL     1      10.492 -13.069  11.531  1.00  0.00    -0.237 OA
ATOM     77  O   UNL     1      11.008 -12.908   9.126  1.00  0.00    -0.744 OA
ENDBRANCH  73  74
ENDBRANCH  54  68
BRANCH  55  78
ATOM     78  C   UNL     1      -3.672 -15.410   7.083  1.00  0.00    -0.014 A 
ATOM     79  C   UNL     1      -4.492 -16.168   7.939  1.00  0.00     0.010 A 
ATOM     80  C   UNL     1      -4.211 -14.919   5.880  1.00  0.00     0.010 A 
ATOM     81  C   UNL     1      -5.817 -16.444   7.590  1.00  0.00     0.020 A 
ATOM     82  C   UNL     1      -5.545 -15.167   5.542  1.00  0.00     0.020 A 
ATOM     83  C   UNL     1      -6.336 -15.939   6.394  1.00  0.00     0.054 A 
BRANCH  83  84
ATOM     84  S   UNL     1      -8.074 -16.266   5.987  1.00  0.00     0.124 S 
ATOM     85  O   UNL     1      -8.041 -17.681   5.630  1.00  0.00    -0.237 OA
ATOM     86  O   UNL     1      -8.756 -15.943   7.238  1.00  0.00    -0.237 OA
ATOM     87  O   UNL     1      -8.345 -15.347   4.883  1.00  0.00    -0.744 OA
ENDBRANCH  83  84
ENDBRANCH  55  78
BRANCH  67  88
ATOM     88  C   UNL     1       2.045 -19.360   7.739  1.00  0.00    -0.014 A 
ATOM     89  C   UNL     1       2.027 -19.990   6.482  1.00  0.00     0.010 A 
ATOM     90  C   UNL     1       2.350 -20.120   8.883  1.00  0.00     0.010 A 
ATOM     91  C   UNL     1       2.278 -21.361   6.376  1.00  0.00     0.020 A 
ATOM     92  C   UNL     1       2.631 -21.485   8.777  1.00  0.00     0.020 A 
ATOM     93  C   UNL     1       2.579 -22.099   7.525  1.00  0.00     0.054 A 
BRANCH  93  94
ATOM     94  S   UNL     1       2.945 -23.867   7.355  1.00  0.00     0.124 S 
ATOM     95  O   UNL     1       1.625 -24.425   7.077  1.00  0.00    -0.237 OA
ATOM     96  O   UNL     1       3.886 -23.893   6.238  1.00  0.00    -0.237 OA
ATOM     97  O   UNL     1       3.515 -24.230   8.650  1.00  0.00    -0.744 OA
ENDBRANCH  93  94
ENDBRANCH  67  88
ENDBRANCH  41  42
ENDBRANCH  33  36
ENDBRANCH  31  32
ENDBRANCH  30  31
ENDBRANCH  29  30
ENDBRANCH  28  29
ENDBRANCH   1  28
TORSDOF 23
