REMARK SMILES COc1ccc(S(=O)(=O)N[C@H]2C=C[C@@H](C(=O)NCCCCCCNC(=O)c3ccc(-c4c5nc(c(-c6ccc(S(=O)(=O)[O-])cc6)c6ccc([nH]6)c(-c6ccc(S(=O)(=O)[O-])cc6)c6nc(c(-c7ccc(S(=O)(=O)[O-])cc7)c7ccc4[nH]7)C=C6)C=C5)cc3)C2)cc1
REMARK SMILES IDX 20 1 19 2 18 3 17 4 15 5 16 6 14 8 11 9 12 10 87 11 13 12
REMARK SMILES IDX 10 13 7 15 8 16 9 17 6 18 3 19 4 20 89 21 5 22 88 23 2 24
REMARK SMILES IDX 1 25 21 26 22 27 23 28 24 29 25 30 26 32 27 33 28 34 86 35
REMARK SMILES IDX 29 36 85 37 30 38 31 39 32 40 79 41 33 42 84 43 78 44 80 45
REMARK SMILES IDX 34 46 83 47 77 48 76 49 35 51 65 52 46 53 64 54 47 55 50 56
REMARK SMILES IDX 63 57 81 58 48 59 49 60 62 62 82 63 51 64 36 65 37 66 45 67
REMARK SMILES IDX 38 68 44 69 39 70 40 71 41 72 42 73 43 74 66 75 67 76 75 77
REMARK SMILES IDX 68 78 74 79 69 80 70 81 71 82 72 83 73 84 52 85 53 86 61 87
REMARK SMILES IDX 54 88 60 89 55 90 56 91 57 92 58 93 59 94
REMARK H PARENT 17 7 10 14 24 31 80 50 50 61
REMARK Flexibility Score: inf
ROOT
ATOM      1  C   UNL     1      -1.393  -5.088   4.764  1.00  0.00     0.002 C 
ENDROOT
BRANCH   1   2
ATOM      2  C   UNL     1      -0.016  -5.459   4.192  1.00  0.00     0.021 C 
BRANCH   2   3
ATOM      3  C   UNL     1       0.973  -4.293   4.101  1.00  0.00     0.116 C 
BRANCH   3   4
ATOM      4  N   UNL     1       1.640  -4.061   5.365  1.00  0.00    -0.356 N 
ATOM      5  C   UNL     1       2.946  -4.159   5.720  1.00  0.00     0.226 C 
ATOM      6  O   UNL     1       3.229  -3.801   6.871  1.00  0.00    -0.274 OA
ATOM      7  H   UNL     1       1.041  -3.783   6.095  1.00  0.00     0.163 HD
BRANCH   5   8
ATOM      8  C   UNL     1       4.073  -4.607   4.781  1.00  0.00     0.103 C 
ATOM      9  C   UNL     1       4.793  -5.625   2.699  1.00  0.00     0.093 C 
ATOM     10  C   UNL     1       4.904  -4.140   2.647  1.00  0.00    -0.011 C 
ATOM     11  C   UNL     1       3.933  -5.887   3.941  1.00  0.00     0.042 C 
ATOM     12  C   UNL     1       4.468  -3.568   3.774  1.00  0.00    -0.016 C 
BRANCH   9  13
ATOM     13  N   UNL     1       4.380  -6.153   1.412  1.00  0.00    -0.204 NA
ATOM     14  H   UNL     1       4.892  -5.584   0.737  1.00  0.00     0.142 HD
BRANCH  13  15
ATOM     15  S   UNL     1       2.867  -6.308   0.742  1.00  0.00     0.241 S 
ATOM     16  O   UNL     1       2.001  -6.928   1.725  1.00  0.00    -0.207 OA
ATOM     17  O   UNL     1       3.079  -6.910  -0.551  1.00  0.00    -0.207 OA
BRANCH  15  18
ATOM     18  C   UNL     1       2.277  -4.660   0.447  1.00  0.00     0.082 A 
ATOM     19  C   UNL     1       1.366  -2.024   0.392  1.00  0.00     0.118 A 
ATOM     20  C   UNL     1       0.493  -3.058   0.718  1.00  0.00     0.048 A 
ATOM     21  C   UNL     1       2.680  -2.315   0.022  1.00  0.00     0.048 A 
ATOM     22  C   UNL     1       0.941  -4.378   0.723  1.00  0.00     0.025 A 
ATOM     23  C   UNL     1       3.133  -3.641   0.030  1.00  0.00     0.025 A 
BRANCH  19  24
ATOM     24  O   UNL     1       0.867  -0.762   0.555  1.00  0.00    -0.497 OA
ATOM     25  C   UNL     1       1.194   0.137  -0.499  1.00  0.00     0.278 C 
ENDBRANCH  19  24
ENDBRANCH  15  18
ENDBRANCH  13  15
ENDBRANCH   9  13
ENDBRANCH   5   8
ENDBRANCH   3   4
ENDBRANCH   2   3
ENDBRANCH   1   2
BRANCH   1  26
ATOM     26  C   UNL     1      -2.292  -4.217   3.872  1.00  0.00     0.002 C 
BRANCH  26  27
ATOM     27  C   UNL     1      -2.537  -4.712   2.443  1.00  0.00     0.021 C 
BRANCH  27  28
ATOM     28  C   UNL     1      -3.087  -6.128   2.292  1.00  0.00     0.116 C 
BRANCH  28  29
ATOM     29  N   UNL     1      -4.511  -6.188   2.563  1.00  0.00    -0.352 N 
ATOM     30  C   UNL     1      -5.573  -6.353   1.707  1.00  0.00     0.251 C 
ATOM     31  H   UNL     1      -4.755  -6.095   3.513  1.00  0.00     0.163 HD
ATOM     32  O   UNL     1      -6.709  -6.138   2.126  1.00  0.00    -0.269 OA
BRANCH  30  33
ATOM     33  C   UNL     1      -5.386  -6.772   0.293  1.00  0.00     0.039 A 
ATOM     34  C   UNL     1      -6.205  -6.198  -0.687  1.00  0.00     0.014 A 
ATOM     35  C   UNL     1      -4.491  -7.782  -0.072  1.00  0.00     0.014 A 
ATOM     36  C   UNL     1      -6.103  -6.604  -2.024  1.00  0.00     0.010 A 
ATOM     37  C   UNL     1      -4.347  -8.144  -1.416  1.00  0.00     0.010 A 
ATOM     38  C   UNL     1      -5.160  -7.571  -2.406  1.00  0.00    -0.014 A 
BRANCH  38  39
ATOM     39  C   UNL     1      -5.033  -8.010  -3.824  1.00  0.00     0.031 A 
ATOM     40  C   UNL     1      -5.369  -9.426  -4.218  1.00  0.00     0.074 A 
ATOM     41  C   UNL     1      -4.563  -7.158  -4.757  1.00  0.00     0.049 A 
ATOM     42  N   UNL     1      -5.251 -10.010  -5.384  1.00  0.00    -0.248 NA
ATOM     43  C   UNL     1      -5.885 -10.305  -3.157  1.00  0.00     0.031 C 
ATOM     44  C   UNL     1      -4.169  -5.769  -4.514  1.00  0.00     0.029 A 
ATOM     45  N   UNL     1      -4.320  -7.342  -6.097  1.00  0.00    -0.354 N 
ATOM     46  C   UNL     1      -5.648 -11.329  -5.192  1.00  0.00     0.074 A 
ATOM     47  C   UNL     1      -5.983 -11.466  -3.791  1.00  0.00     0.031 C 
ATOM     48  C   UNL     1      -3.739  -5.227  -5.666  1.00  0.00     0.029 A 
ATOM     49  C   UNL     1      -3.793  -6.236  -6.721  1.00  0.00     0.049 A 
ATOM     50  H   UNL     1      -4.507  -8.187  -6.567  1.00  0.00     0.167 HD
ATOM     51  C   UNL     1      -5.737 -12.333  -6.098  1.00  0.00     0.031 A 
ATOM     52  C   UNL     1      -3.381  -6.052  -7.991  1.00  0.00     0.031 A 
ATOM     53  C   UNL     1      -5.428 -12.198  -7.497  1.00  0.00     0.049 A 
ATOM     54  C   UNL     1      -3.491  -7.178  -8.981  1.00  0.00     0.074 A 
ATOM     55  C   UNL     1      -5.565 -13.140  -8.502  1.00  0.00     0.029 A 
ATOM     56  N   UNL     1      -4.915 -11.055  -8.088  1.00  0.00    -0.354 N 
ATOM     57  N   UNL     1      -3.938  -8.396  -8.793  1.00  0.00    -0.248 NA
ATOM     58  C   UNL     1      -3.046  -6.903 -10.355  1.00  0.00     0.031 C 
ATOM     59  C   UNL     1      -5.091 -12.580  -9.694  1.00  0.00     0.029 A 
ATOM     60  C   UNL     1      -4.701 -11.275  -9.439  1.00  0.00     0.049 A 
ATOM     61  H   UNL     1      -4.729 -10.210  -7.617  1.00  0.00     0.167 HD
ATOM     62  C   UNL     1      -3.840  -9.029 -10.028  1.00  0.00     0.074 A 
ATOM     63  C   UNL     1      -3.307  -8.056 -10.958  1.00  0.00     0.031 C 
ATOM     64  C   UNL     1      -4.163 -10.304 -10.357  1.00  0.00     0.031 A 
BRANCH  51  65
ATOM     65  C   UNL     1      -6.177 -13.683  -5.594  1.00  0.00    -0.014 A 
ATOM     66  C   UNL     1      -7.510 -13.919  -5.213  1.00  0.00     0.010 A 
ATOM     67  C   UNL     1      -5.248 -14.738  -5.528  1.00  0.00     0.010 A 
ATOM     68  C   UNL     1      -7.895 -15.171  -4.726  1.00  0.00     0.020 A 
ATOM     69  C   UNL     1      -5.635 -15.999  -5.065  1.00  0.00     0.020 A 
ATOM     70  C   UNL     1      -6.952 -16.201  -4.646  1.00  0.00     0.054 A 
BRANCH  70  71
ATOM     71  S   UNL     1      -7.476 -17.818  -4.011  1.00  0.00     0.124 S 
ATOM     72  O   UNL     1      -7.543 -17.567  -2.573  1.00  0.00    -0.237 OA
ATOM     73  O   UNL     1      -8.762 -18.024  -4.672  1.00  0.00    -0.237 OA
ATOM     74  O   UNL     1      -6.408 -18.720  -4.437  1.00  0.00    -0.744 OA
ENDBRANCH  70  71
ENDBRANCH  51  65
BRANCH  52  75
ATOM     75  C   UNL     1      -2.815  -4.736  -8.393  1.00  0.00    -0.014 A 
ATOM     76  C   UNL     1      -3.562  -3.848  -9.185  1.00  0.00     0.010 A 
ATOM     77  C   UNL     1      -1.535  -4.352  -7.953  1.00  0.00     0.010 A 
ATOM     78  C   UNL     1      -3.040  -2.598  -9.531  1.00  0.00     0.020 A 
ATOM     79  C   UNL     1      -1.019  -3.095  -8.278  1.00  0.00     0.020 A 
ATOM     80  C   UNL     1      -1.773  -2.227  -9.070  1.00  0.00     0.054 A 
BRANCH  80  81
ATOM     81  S   UNL     1      -1.147  -0.568  -9.458  1.00  0.00     0.124 S 
ATOM     82  O   UNL     1      -0.721  -0.720 -10.845  1.00  0.00    -0.237 OA
ATOM     83  O   UNL     1      -2.322   0.274  -9.244  1.00  0.00    -0.237 OA
ATOM     84  O   UNL     1      -0.072  -0.375  -8.487  1.00  0.00    -0.744 OA
ENDBRANCH  80  81
ENDBRANCH  52  75
BRANCH  64  85
ATOM     85  C   UNL     1      -3.961 -10.727 -11.787  1.00  0.00    -0.014 A 
ATOM     86  C   UNL     1      -2.674 -11.000 -12.284  1.00  0.00     0.010 A 
ATOM     87  C   UNL     1      -5.076 -10.922 -12.622  1.00  0.00     0.010 A 
ATOM     88  C   UNL     1      -2.505 -11.444 -13.599  1.00  0.00     0.020 A 
ATOM     89  C   UNL     1      -4.912 -11.386 -13.930  1.00  0.00     0.020 A 
ATOM     90  C   UNL     1      -3.626 -11.636 -14.413  1.00  0.00     0.054 A 
BRANCH  90  91
ATOM     91  S   UNL     1      -3.387 -12.271 -16.096  1.00  0.00     0.124 S 
ATOM     92  O   UNL     1      -2.897 -11.090 -16.801  1.00  0.00    -0.237 OA
ATOM     93  O   UNL     1      -2.408 -13.339 -15.902  1.00  0.00    -0.237 OA
ATOM     94  O   UNL     1      -4.720 -12.723 -16.488  1.00  0.00    -0.744 OA
ENDBRANCH  90  91
ENDBRANCH  64  85
ENDBRANCH  38  39
ENDBRANCH  30  33
ENDBRANCH  28  29
ENDBRANCH  27  28
ENDBRANCH  26  27
ENDBRANCH   1  26
TORSDOF 20
