REMARK SMILES CC1(C)CCC[C@@H]1[NH2+]Cc1cc(C(=O)NCCCCCCNC(=O)c2ccc(-c3c4nc(c(-c5ccc(S(=O)(=O)[O-])cc5)c5ccc([nH]5)c(-c5ccc(S(=O)(=O)[O-])cc5)c5nc(c(-c6ccc(S(=O)(=O)[O-])cc6)c6ccc3[nH]6)C=C5)C=C4)cc2)cs1
REMARK SMILES IDX 18 1 17 2 16 3 15 4 13 5 14 6 12 8 10 9 11 10 86 11 85 12
REMARK SMILES IDX 9 13 8 14 7 17 1 18 2 19 3 20 4 21 5 22 6 23 19 24 20 25
REMARK SMILES IDX 21 26 22 27 23 28 24 30 25 31 26 32 84 33 27 34 83 35 28 36
REMARK SMILES IDX 29 37 30 38 77 39 31 40 82 41 76 42 78 43 32 44 81 45 75 46
REMARK SMILES IDX 74 47 33 49 63 50 44 51 62 52 45 53 48 54 61 55 79 56 46 57
REMARK SMILES IDX 47 58 60 60 80 61 49 62 34 63 35 64 43 65 36 66 42 67 37 68
REMARK SMILES IDX 38 69 39 70 40 71 41 72 64 73 65 74 73 75 66 76 72 77 67 78
REMARK SMILES IDX 68 79 69 80 70 81 71 82 50 83 51 84 59 85 52 86 58 87 53 88
REMARK SMILES IDX 54 89 55 90 56 91 57 92
REMARK H PARENT 15 7 8 15 8 16 22 29 78 48 48 59
REMARK Flexibility Score: inf
ROOT
ATOM      1  C   UNL     1      -1.684   8.530   0.115  1.00  0.00     0.002 C 
ENDROOT
BRANCH   1   2
ATOM      2  C   UNL     1      -0.916   7.226  -0.136  1.00  0.00     0.021 C 
BRANCH   2   3
ATOM      3  C   UNL     1      -1.097   6.692  -1.558  1.00  0.00     0.116 C 
BRANCH   3   4
ATOM      4  N   UNL     1      -0.239   7.413  -2.478  1.00  0.00    -0.352 N 
ATOM      5  C   UNL     1       0.958   7.075  -3.053  1.00  0.00     0.252 C 
ATOM      6  O   UNL     1       1.448   7.878  -3.853  1.00  0.00    -0.269 OA
ATOM      7  H   UNL     1      -0.576   8.301  -2.736  1.00  0.00     0.163 HD
BRANCH   5   8
ATOM      8  C   UNL     1       1.591   5.784  -2.782  1.00  0.00     0.051 A 
ATOM      9  C   UNL     1       2.032   3.674  -1.836  1.00  0.00     0.059 A 
ATOM     10  C   UNL     1       1.495   4.932  -1.633  1.00  0.00     0.035 A 
ATOM     11  S   UNL     1       2.942   3.630  -3.283  1.00  0.00    -0.142 S 
ATOM     12  C   UNL     1       2.460   5.215  -3.700  1.00  0.00     0.079 A 
BRANCH   9  13
ATOM     13  C   UNL     1       1.880   2.449  -0.971  1.00  0.00     0.308 C 
BRANCH  13  14
ATOM     14  N   UNL     1       0.460   2.145  -0.826  1.00  0.00    -0.339 N 
ATOM     15  H   UNL     1       0.001   2.985  -0.473  1.00  0.00     0.346 HD
ATOM     16  H   UNL     1       0.162   1.844  -1.754  1.00  0.00     0.346 HD
BRANCH  14  17
ATOM     17  C   UNL     1       0.097   1.042   0.060  1.00  0.00     0.188 C 
ATOM     18  C   UNL     1       2.095  -0.433   0.725  1.00  0.00     0.017 C 
ATOM     19  C   UNL     1       0.778  -0.349  -0.058  1.00  0.00     0.017 C 
ATOM     20  C   UNL     1       0.999  -0.808  -1.512  1.00  0.00     0.017 C 
ATOM     21  C   UNL     1      -0.279  -1.249   0.619  1.00  0.00     0.013 C 
ATOM     22  C   UNL     1      -1.608  -0.744   0.082  1.00  0.00     0.007 C 
ATOM     23  C   UNL     1      -1.413   0.755  -0.127  1.00  0.00     0.065 C 
ENDBRANCH  14  17
ENDBRANCH  13  14
ENDBRANCH   9  13
ENDBRANCH   5   8
ENDBRANCH   3   4
ENDBRANCH   2   3
ENDBRANCH   1   2
BRANCH   1  24
ATOM     24  C   UNL     1      -3.206   8.409  -0.026  1.00  0.00     0.002 C 
BRANCH  24  25
ATOM     25  C   UNL     1      -3.849   7.343   0.865  1.00  0.00     0.021 C 
BRANCH  25  26
ATOM     26  C   UNL     1      -3.667   7.592   2.359  1.00  0.00     0.116 C 
BRANCH  26  27
ATOM     27  N   UNL     1      -4.300   8.835   2.772  1.00  0.00    -0.352 N 
ATOM     28  C   UNL     1      -5.292   9.037   3.697  1.00  0.00     0.251 C 
ATOM     29  H   UNL     1      -3.970   9.647   2.322  1.00  0.00     0.163 HD
ATOM     30  O   UNL     1      -5.893  10.107   3.729  1.00  0.00    -0.269 OA
BRANCH  28  31
ATOM     31  C   UNL     1      -5.631   7.961   4.649  1.00  0.00     0.039 A 
ATOM     32  C   UNL     1      -6.974   7.690   4.921  1.00  0.00     0.014 A 
ATOM     33  C   UNL     1      -4.621   7.230   5.282  1.00  0.00     0.014 A 
ATOM     34  C   UNL     1      -7.304   6.651   5.793  1.00  0.00     0.010 A 
ATOM     35  C   UNL     1      -4.953   6.145   6.086  1.00  0.00     0.010 A 
ATOM     36  C   UNL     1      -6.296   5.852   6.359  1.00  0.00    -0.014 A 
BRANCH  36  37
ATOM     37  C   UNL     1      -6.629   4.707   7.243  1.00  0.00     0.031 A 
ATOM     38  C   UNL     1      -6.186   4.707   8.681  1.00  0.00     0.074 A 
ATOM     39  C   UNL     1      -7.275   3.640   6.733  1.00  0.00     0.049 A 
ATOM     40  N   UNL     1      -6.341   3.780   9.591  1.00  0.00    -0.248 NA
ATOM     41  C   UNL     1      -5.448   5.891   9.150  1.00  0.00     0.031 C 
ATOM     42  C   UNL     1      -7.718   3.504   5.343  1.00  0.00     0.029 A 
ATOM     43  N   UNL     1      -7.666   2.465   7.323  1.00  0.00    -0.354 N 
ATOM     44  C   UNL     1      -5.710   4.261  10.732  1.00  0.00     0.074 A 
ATOM     45  C   UNL     1      -5.119   5.534  10.382  1.00  0.00     0.031 C 
ATOM     46  C   UNL     1      -8.345   2.326   5.196  1.00  0.00     0.029 A 
ATOM     47  C   UNL     1      -8.310   1.605   6.465  1.00  0.00     0.049 A 
ATOM     48  H   UNL     1      -7.501   2.257   8.271  1.00  0.00     0.167 HD
ATOM     49  C   UNL     1      -5.644   3.704  11.965  1.00  0.00     0.031 A 
ATOM     50  C   UNL     1      -8.810   0.372   6.671  1.00  0.00     0.031 A 
ATOM     51  C   UNL     1      -6.233   2.435  12.305  1.00  0.00     0.049 A 
ATOM     52  C   UNL     1      -8.713  -0.236   8.042  1.00  0.00     0.074 A 
ATOM     53  C   UNL     1      -6.270   1.806  13.537  1.00  0.00     0.029 A 
ATOM     54  N   UNL     1      -6.881   1.597  11.408  1.00  0.00    -0.354 N 
ATOM     55  N   UNL     1      -8.174   0.265   9.128  1.00  0.00    -0.248 NA
ATOM     56  C   UNL     1      -9.303  -1.569   8.220  1.00  0.00     0.031 C 
ATOM     57  C   UNL     1      -6.883   0.559  13.371  1.00  0.00     0.029 A 
ATOM     58  C   UNL     1      -7.293   0.442  12.052  1.00  0.00     0.049 A 
ATOM     59  H   UNL     1      -7.026   1.794  10.455  1.00  0.00     0.167 HD
ATOM     60  C   UNL     1      -8.382  -0.682  10.126  1.00  0.00     0.074 A 
ATOM     61  C   UNL     1      -9.111  -1.776   9.516  1.00  0.00     0.031 C 
ATOM     62  C   UNL     1      -8.009  -0.645  11.429  1.00  0.00     0.031 A 
BRANCH  49  63
ATOM     63  C   UNL     1      -4.891   4.461  13.030  1.00  0.00    -0.014 A 
ATOM     64  C   UNL     1      -5.364   5.690  13.527  1.00  0.00     0.010 A 
ATOM     65  C   UNL     1      -3.697   3.930  13.552  1.00  0.00     0.010 A 
ATOM     66  C   UNL     1      -4.629   6.401  14.479  1.00  0.00     0.020 A 
ATOM     67  C   UNL     1      -2.976   4.621  14.531  1.00  0.00     0.020 A 
ATOM     68  C   UNL     1      -3.435   5.864  14.970  1.00  0.00     0.054 A 
BRANCH  68  69
ATOM     69  S   UNL     1      -2.500   6.810  16.203  1.00  0.00     0.124 S 
ATOM     70  O   UNL     1      -1.965   7.905  15.398  1.00  0.00    -0.237 OA
ATOM     71  O   UNL     1      -3.530   7.186  17.168  1.00  0.00    -0.237 OA
ATOM     72  O   UNL     1      -1.508   5.856  16.694  1.00  0.00    -0.744 OA
ENDBRANCH  68  69
ENDBRANCH  49  63
BRANCH  50  73
ATOM     73  C   UNL     1      -9.463  -0.354   5.547  1.00  0.00    -0.014 A 
ATOM     74  C   UNL     1     -10.855  -0.549   5.533  1.00  0.00     0.010 A 
ATOM     75  C   UNL     1      -8.697  -0.817   4.461  1.00  0.00     0.010 A 
ATOM     76  C   UNL     1     -11.468  -1.198   4.457  1.00  0.00     0.020 A 
ATOM     77  C   UNL     1      -9.309  -1.440   3.370  1.00  0.00     0.020 A 
ATOM     78  C   UNL     1     -10.692  -1.633   3.379  1.00  0.00     0.054 A 
BRANCH  78  79
ATOM     79  S   UNL     1     -11.520  -2.404   1.961  1.00  0.00     0.124 S 
ATOM     80  O   UNL     1     -11.919  -3.696   2.508  1.00  0.00    -0.237 OA
ATOM     81  O   UNL     1     -12.607  -1.468   1.685  1.00  0.00    -0.237 OA
ATOM     82  O   UNL     1     -10.476  -2.451   0.940  1.00  0.00    -0.744 OA
ENDBRANCH  78  79
ENDBRANCH  50  73
BRANCH  62  83
ATOM     83  C   UNL     1      -8.405  -1.810  12.298  1.00  0.00    -0.014 A 
ATOM     84  C   UNL     1      -7.800  -3.071  12.153  1.00  0.00     0.010 A 
ATOM     85  C   UNL     1      -9.360  -1.622  13.314  1.00  0.00     0.010 A 
ATOM     86  C   UNL     1      -8.166  -4.130  12.988  1.00  0.00     0.020 A 
ATOM     87  C   UNL     1      -9.706  -2.669  14.171  1.00  0.00     0.020 A 
ATOM     88  C   UNL     1      -9.116  -3.922  13.993  1.00  0.00     0.054 A 
BRANCH  88  89
ATOM     89  S   UNL     1      -9.540  -5.301  15.092  1.00  0.00     0.124 S 
ATOM     90  O   UNL     1     -10.317  -6.166  14.208  1.00  0.00    -0.237 OA
ATOM     91  O   UNL     1      -8.229  -5.815  15.480  1.00  0.00    -0.237 OA
ATOM     92  O   UNL     1     -10.299  -4.668  16.168  1.00  0.00    -0.744 OA
ENDBRANCH  88  89
ENDBRANCH  62  83
ENDBRANCH  36  37
ENDBRANCH  28  31
ENDBRANCH  26  27
ENDBRANCH  25  26
ENDBRANCH  24  25
ENDBRANCH   1  24
TORSDOF 19
