REMARK SMILES Cc1ccc(S(=O)(=O)n2cc(C(=O)C(=O)NCC(=O)NCC(=O)NCCCCCCNC(=O)c3ccc(-c4c5nc(c(-c6ccc(S(=O)(=O)[O-])cc6)c6ccc([nH]6)c(-c6ccc(S(=O)(=O)[O-])cc6)c6nc(c(-c7ccc(S(=O)(=O)[O-])cc7)c7ccc4[nH]7)C=C6)C=C5)cc3)c3ccccc32)cc1
REMARK SMILES IDX 25 1 24 2 22 3 23 4 21 6 20 7 18 8 19 9 17 11 16 12 14 13
REMARK SMILES IDX 15 14 12 16 13 17 11 18 9 19 10 20 99 21 94 22 98 23 95 24
REMARK SMILES IDX 97 25 96 26 6 27 7 28 8 29 5 30 1 31 2 32 3 33 101 34 4 35
REMARK SMILES IDX 100 36 26 37 27 38 28 39 29 40 30 41 31 42 32 43 33 45 34 46
REMARK SMILES IDX 35 47 93 48 36 49 92 50 37 51 38 52 39 53 86 54 40 55 91 56
REMARK SMILES IDX 85 57 87 58 41 59 90 60 84 61 83 62 42 64 72 65 53 66 71 67
REMARK SMILES IDX 54 68 57 69 70 70 88 71 55 72 56 73 69 75 89 76 58 77 43 78
REMARK SMILES IDX 44 79 52 80 45 81 51 82 46 83 47 84 48 85 49 86 50 87 73 88
REMARK SMILES IDX 74 89 82 90 75 91 81 92 76 93 77 94 78 95 79 96 80 97 59 98
REMARK SMILES IDX 60 99 68 100 61 101 67 102 62 103 63 104 64 105 65 106
REMARK SMILES IDX 66 107
REMARK H PARENT 24 5 20 10 16 15 31 44 87 63 57 74
REMARK Flexibility Score: inf
ROOT
ATOM      1  C   UNL     1      -9.761   3.332   3.622  1.00  0.00     0.116 C 
ENDROOT
BRANCH   1   2
ATOM      2  N   UNL     1     -10.277   2.881   2.350  1.00  0.00    -0.355 N 
ATOM      3  C   UNL     1     -10.123   3.439   1.115  1.00  0.00     0.239 C 
ATOM      4  O   UNL     1     -10.425   2.758   0.130  1.00  0.00    -0.273 OA
ATOM      5  H   UNL     1     -10.815   2.056   2.379  1.00  0.00     0.163 HD
BRANCH   3   6
ATOM      6  C   UNL     1      -9.427   4.800   0.932  1.00  0.00     0.216 C 
BRANCH   6   7
ATOM      7  N   UNL     1      -9.888   5.861   1.810  1.00  0.00    -0.346 N 
ATOM      8  C   UNL     1      -9.207   6.675   2.664  1.00  0.00     0.239 C 
ATOM      9  O   UNL     1      -9.854   7.539   3.260  1.00  0.00    -0.273 OA
ATOM     10  H   UNL     1     -10.859   6.019   1.784  1.00  0.00     0.164 HD
BRANCH   8  11
ATOM     11  C   UNL     1      -7.679   6.601   2.826  1.00  0.00     0.216 C 
BRANCH  11  12
ATOM     12  N   UNL     1      -7.138   5.331   3.315  1.00  0.00    -0.340 N 
ATOM     13  C   UNL     1      -6.300   4.400   2.737  1.00  0.00     0.292 C 
ATOM     14  O   UNL     1      -6.021   3.383   3.363  1.00  0.00    -0.265 OA
ATOM     15  H   UNL     1      -7.427   5.098   4.227  1.00  0.00     0.164 HD
BRANCH  13  16
ATOM     16  C   UNL     1      -5.717   4.629   1.328  1.00  0.00     0.252 C 
ATOM     17  O   UNL     1      -5.819   5.755   0.848  1.00  0.00    -0.283 OA
BRANCH  16  18
ATOM     18  C   UNL     1      -5.050   3.573   0.551  1.00  0.00     0.054 A 
ATOM     19  N   UNL     1      -4.156   1.647  -0.145  1.00  0.00    -0.240 N 
ATOM     20  C   UNL     1      -4.846   2.245   0.883  1.00  0.00     0.117 A 
ATOM     21  C   UNL     1      -3.897   2.543  -1.162  1.00  0.00     0.065 A 
ATOM     22  C   UNL     1      -4.448   3.760  -0.746  1.00  0.00     0.012 A 
ATOM     23  C   UNL     1      -3.210   2.422  -2.385  1.00  0.00     0.028 A 
ATOM     24  C   UNL     1      -4.313   4.883  -1.593  1.00  0.00     0.011 A 
ATOM     25  C   UNL     1      -3.072   3.560  -3.185  1.00  0.00     0.002 A 
ATOM     26  C   UNL     1      -3.619   4.775  -2.799  1.00  0.00     0.001 A 
BRANCH  19  27
ATOM     27  S   UNL     1      -3.588   0.040  -0.109  1.00  0.00     0.268 S 
ATOM     28  O   UNL     1      -3.914  -0.510  -1.408  1.00  0.00    -0.201 OA
ATOM     29  O   UNL     1      -4.097  -0.537   1.125  1.00  0.00    -0.201 OA
BRANCH  27  30
ATOM     30  C   UNL     1      -1.818   0.084   0.023  1.00  0.00     0.088 A 
ATOM     31  C   UNL     1       2.484  -0.044   0.027  1.00  0.00     0.044 C 
ATOM     32  C   UNL     1       0.985   0.005   0.044  1.00  0.00    -0.051 A 
ATOM     33  C   UNL     1       0.246  -1.182  -0.035  1.00  0.00     0.005 A 
ATOM     34  C   UNL     1       0.306   1.226   0.145  1.00  0.00     0.005 A 
ATOM     35  C   UNL     1      -1.150  -1.144  -0.053  1.00  0.00     0.022 A 
ATOM     36  C   UNL     1      -1.091   1.269   0.147  1.00  0.00     0.022 A 
ENDBRANCH  27  30
ENDBRANCH  19  27
ENDBRANCH  16  18
ENDBRANCH  13  16
ENDBRANCH  11  12
ENDBRANCH   8  11
ENDBRANCH   6   7
ENDBRANCH   3   6
ENDBRANCH   1   2
BRANCH   1  37
ATOM     37  C   UNL     1     -10.821   3.462   4.706  1.00  0.00     0.021 C 
BRANCH  37  38
ATOM     38  C   UNL     1     -11.231   2.140   5.355  1.00  0.00     0.002 C 
BRANCH  38  39
ATOM     39  C   UNL     1     -10.087   1.258   5.888  1.00  0.00     0.002 C 
BRANCH  39  40
ATOM     40  C   UNL     1      -9.015   1.961   6.722  1.00  0.00     0.021 C 
BRANCH  40  41
ATOM     41  C   UNL     1      -9.518   2.508   8.045  1.00  0.00     0.116 C 
BRANCH  41  42
ATOM     42  N   UNL     1      -9.299   1.617   9.175  1.00  0.00    -0.352 N 
ATOM     43  C   UNL     1      -9.232   2.007  10.506  1.00  0.00     0.251 C 
ATOM     44  H   UNL     1      -9.190   0.659   8.979  1.00  0.00     0.163 HD
ATOM     45  O   UNL     1      -8.480   1.505  11.330  1.00  0.00    -0.269 OA
BRANCH  43  46
ATOM     46  C   UNL     1     -10.257   2.980  10.933  1.00  0.00     0.039 A 
ATOM     47  C   UNL     1     -11.303   2.513  11.741  1.00  0.00     0.014 A 
ATOM     48  C   UNL     1     -10.350   4.187  10.251  1.00  0.00     0.014 A 
ATOM     49  C   UNL     1     -12.533   3.150  11.685  1.00  0.00     0.010 A 
ATOM     50  C   UNL     1     -11.595   4.722  10.072  1.00  0.00     0.010 A 
ATOM     51  C   UNL     1     -12.682   4.177  10.760  1.00  0.00    -0.014 A 
BRANCH  51  52
ATOM     52  C   UNL     1     -13.926   4.847  10.465  1.00  0.00     0.031 A 
ATOM     53  C   UNL     1     -14.168   6.106  11.201  1.00  0.00     0.074 A 
ATOM     54  C   UNL     1     -14.658   4.401   9.420  1.00  0.00     0.049 A 
ATOM     55  N   UNL     1     -15.325   6.620  11.410  1.00  0.00    -0.248 NA
ATOM     56  C   UNL     1     -13.086   6.880  11.827  1.00  0.00     0.031 C 
ATOM     57  C   UNL     1     -15.743   5.090   8.729  1.00  0.00     0.029 A 
ATOM     58  N   UNL     1     -14.654   3.153   8.793  1.00  0.00    -0.354 N 
ATOM     59  C   UNL     1     -15.113   7.915  11.840  1.00  0.00     0.074 A 
ATOM     60  C   UNL     1     -13.730   7.978  12.230  1.00  0.00     0.031 C 
ATOM     61  C   UNL     1     -16.482   4.176   8.069  1.00  0.00     0.029 A 
ATOM     62  C   UNL     1     -15.986   2.867   8.470  1.00  0.00     0.049 A 
ATOM     63  H   UNL     1     -13.870   2.586   8.613  1.00  0.00     0.167 HD
ATOM     64  C   UNL     1     -16.082   8.843  11.612  1.00  0.00     0.031 A 
ATOM     65  C   UNL     1     -16.743   1.933   9.129  1.00  0.00     0.031 A 
ATOM     66  C   UNL     1     -17.232   8.210  10.972  1.00  0.00     0.049 A 
ATOM     67  C   UNL     1     -17.924   2.572   9.846  1.00  0.00     0.074 A 
ATOM     68  C   UNL     1     -17.598   8.110   9.640  1.00  0.00     0.029 A 
ATOM     69  N   UNL     1     -17.941   7.236  11.659  1.00  0.00    -0.354 N 
ATOM     70  N   UNL     1     -17.931   3.809  10.268  1.00  0.00    -0.248 NA
ATOM     71  C   UNL     1     -19.188   1.889  10.114  1.00  0.00     0.031 C 
ATOM     72  C   UNL     1     -18.474   7.000   9.519  1.00  0.00     0.029 A 
ATOM     73  C   UNL     1     -18.656   6.450  10.777  1.00  0.00     0.049 A 
ATOM     74  H   UNL     1     -17.935   7.121  12.637  1.00  0.00     0.167 HD
ATOM     75  C   UNL     1     -19.158   4.109  10.799  1.00  0.00     0.074 A 
ATOM     76  C   UNL     1     -19.906   2.869  10.692  1.00  0.00     0.031 C 
ATOM     77  C   UNL     1     -19.475   5.353  11.269  1.00  0.00     0.031 A 
BRANCH  64  78
ATOM     78  C   UNL     1     -15.882  10.339  11.643  1.00  0.00    -0.014 A 
ATOM     79  C   UNL     1     -16.780  11.145  10.911  1.00  0.00     0.010 A 
ATOM     80  C   UNL     1     -14.848  11.016  12.316  1.00  0.00     0.010 A 
ATOM     81  C   UNL     1     -16.629  12.531  10.806  1.00  0.00     0.020 A 
ATOM     82  C   UNL     1     -14.673  12.407  12.208  1.00  0.00     0.020 A 
ATOM     83  C   UNL     1     -15.567  13.156  11.449  1.00  0.00     0.054 A 
BRANCH  83  84
ATOM     84  S   UNL     1     -15.402  14.952  11.298  1.00  0.00     0.124 S 
ATOM     85  O   UNL     1     -15.254  15.134   9.856  1.00  0.00    -0.237 OA
ATOM     86  O   UNL     1     -16.658  15.430  11.868  1.00  0.00    -0.237 OA
ATOM     87  O   UNL     1     -14.208  15.259  12.085  1.00  0.00    -0.744 OA
ENDBRANCH  83  84
ENDBRANCH  64  78
BRANCH  65  88
ATOM     88  C   UNL     1     -15.966   0.768   9.649  1.00  0.00    -0.014 A 
ATOM     89  C   UNL     1     -15.422  -0.127   8.702  1.00  0.00     0.010 A 
ATOM     90  C   UNL     1     -15.420   0.795  10.943  1.00  0.00     0.010 A 
ATOM     91  C   UNL     1     -14.240  -0.821   8.975  1.00  0.00     0.020 A 
ATOM     92  C   UNL     1     -14.241   0.086  11.224  1.00  0.00     0.020 A 
ATOM     93  C   UNL     1     -13.622  -0.657  10.214  1.00  0.00     0.054 A 
BRANCH  93  94
ATOM     94  S   UNL     1     -11.913  -1.256  10.403  1.00  0.00     0.124 S 
ATOM     95  O   UNL     1     -12.072  -2.698  10.252  1.00  0.00    -0.237 OA
ATOM     96  O   UNL     1     -11.223  -0.574   9.305  1.00  0.00    -0.237 OA
ATOM     97  O   UNL     1     -11.543  -0.801  11.739  1.00  0.00    -0.744 OA
ENDBRANCH  93  94
ENDBRANCH  65  88
BRANCH  77  98
ATOM     98  C   UNL     1     -20.646   5.689  12.161  1.00  0.00    -0.014 A 
ATOM     99  C   UNL     1     -21.379   4.736  12.880  1.00  0.00     0.010 A 
ATOM    100  C   UNL     1     -20.959   7.051  12.405  1.00  0.00     0.010 A 
ATOM    101  C   UNL     1     -22.431   5.114  13.724  1.00  0.00     0.020 A 
ATOM    102  C   UNL     1     -21.959   7.443  13.295  1.00  0.00     0.020 A 
ATOM    103  C   UNL     1     -22.718   6.465  13.919  1.00  0.00     0.054 A 
BRANCH 103 104
ATOM    104  S   UNL     1     -24.077   6.929  15.015  1.00  0.00     0.124 S 
ATOM    105  O   UNL     1     -25.237   6.717  14.154  1.00  0.00    -0.237 OA
ATOM    106  O   UNL     1     -23.935   5.985  16.121  1.00  0.00    -0.237 OA
ATOM    107  O   UNL     1     -23.791   8.321  15.352  1.00  0.00    -0.744 OA
ENDBRANCH 103 104
ENDBRANCH  77  98
ENDBRANCH  51  52
ENDBRANCH  43  46
ENDBRANCH  41  42
ENDBRANCH  40  41
ENDBRANCH  39  40
ENDBRANCH  38  39
ENDBRANCH  37  38
ENDBRANCH   1  37
TORSDOF 23
