REMARK SMILES O=C(NCCCCCCNC(=O)c1ccc(-c2c3nc(c(-c4ccc(S(=O)(=O)[O-])cc4)c4ccc([nH]4)c(-c4ccc(S(=O)(=O)[O-])cc4)c4nc(c(-c5ccc(S(=O)(=O)[O-])cc5)c5ccc2[nH]5)C=C4)C=C3)cc1)C1=Cc2cc(Cl)cc(-c3ccc(O)cc3)c2O[C@@H]1C(F)(F)F
REMARK SMILES IDX 7 1 6 2 5 3 4 4 3 5 1 6 2 7 73 9 74 10 90 11 75 12 89 13
REMARK SMILES IDX 76 14 88 15 77 16 80 17 78 18 79 19 91 20 92 21 93 22 94 23
REMARK SMILES IDX 81 24 82 25 87 26 83 27 86 28 84 29 85 30 8 32 9 33 10 34
REMARK SMILES IDX 11 35 12 37 13 38 14 39 72 40 15 41 71 42 16 43 17 44 18 45
REMARK SMILES IDX 65 46 19 47 70 48 64 49 66 50 20 51 69 52 63 53 62 54 21 56
REMARK SMILES IDX 51 57 32 58 50 59 33 60 36 61 49 62 67 63 34 64 35 65 48 67
REMARK SMILES IDX 68 68 37 69 22 70 23 71 31 72 24 73 30 74 25 75 26 76 27 77
REMARK SMILES IDX 28 78 29 79 52 80 53 81 61 82 54 83 60 84 55 85 56 86 57 87
REMARK SMILES IDX 58 88 59 89 38 90 39 91 47 92 40 93 46 94 41 95 42 96 43 97
REMARK SMILES IDX 44 98 45 99
REMARK H PARENT 3 8 85 31 10 36 66 55 36 66
REMARK Flexibility Score: inf
ROOT
ATOM      1  C   UNL     1       4.396  -4.665   1.379  1.00  0.00     0.002 C 
ENDROOT
BRANCH   1   2
ATOM      2  C   UNL     1       3.908  -3.875   2.596  1.00  0.00     0.002 C 
BRANCH   2   3
ATOM      3  C   UNL     1       4.285  -2.394   2.661  1.00  0.00     0.021 C 
BRANCH   3   4
ATOM      4  C   UNL     1       4.000  -1.544   1.425  1.00  0.00     0.116 C 
BRANCH   4   5
ATOM      5  N   UNL     1       2.692  -0.917   1.372  1.00  0.00    -0.352 N 
ATOM      6  O   UNL     1       1.077   0.453   0.632  1.00  0.00    -0.270 OA
ATOM      7  C   UNL     1       2.277   0.176   0.660  1.00  0.00     0.251 C 
ATOM      8  H   UNL     1       2.000  -1.341   1.930  1.00  0.00     0.163 HD
BRANCH   7   9
ATOM      9  C   UNL     1       3.207   1.018  -0.158  1.00  0.00     0.067 C 
ATOM     10  C   UNL     1       4.468   1.297   0.214  1.00  0.00     0.025 C 
ATOM     11  C   UNL     1       2.924   0.912  -1.640  1.00  0.00     0.314 C 
ATOM     12  C   UNL     1       5.452   0.505  -0.578  1.00  0.00     0.019 A 
ATOM     13  O   UNL     1       3.775  -0.098  -2.245  1.00  0.00    -0.475 OA
ATOM     14  C   UNL     1       6.717   0.305  -0.015  1.00  0.00     0.032 A 
ATOM     15  C   UNL     1       5.017  -0.275  -1.673  1.00  0.00     0.135 A 
ATOM     16  C   UNL     1       7.508  -0.738  -0.479  1.00  0.00     0.042 A 
ATOM     17  C   UNL     1       5.794  -1.365  -2.107  1.00  0.00     0.026 A 
ATOM     18  Cl  UNL     1       8.976  -1.113   0.335  1.00  0.00    -0.084 Cl
ATOM     19  C   UNL     1       7.052  -1.570  -1.501  1.00  0.00     0.033 A 
BRANCH  11  20
ATOM     20  C   UNL     1       3.021   2.275  -2.351  1.00  0.00     0.429 C 
ATOM     21  F   UNL     1       2.632   2.193  -3.645  1.00  0.00    -0.167 F 
ATOM     22  F   UNL     1       2.219   3.196  -1.760  1.00  0.00    -0.167 F 
ATOM     23  F   UNL     1       4.275   2.787  -2.342  1.00  0.00    -0.167 F 
ENDBRANCH  11  20
BRANCH  17  24
ATOM     24  C   UNL     1       5.256  -2.432  -2.969  1.00  0.00    -0.014 A 
ATOM     25  C   UNL     1       4.865  -3.643  -2.371  1.00  0.00     0.012 A 
ATOM     26  C   UNL     1       5.157  -2.328  -4.358  1.00  0.00     0.012 A 
ATOM     27  C   UNL     1       4.433  -4.735  -3.119  1.00  0.00     0.047 A 
ATOM     28  C   UNL     1       4.717  -3.421  -5.122  1.00  0.00     0.047 A 
ATOM     29  C   UNL     1       4.372  -4.618  -4.495  1.00  0.00     0.115 A 
BRANCH  29  30
ATOM     30  O   UNL     1       3.969  -5.712  -5.201  1.00  0.00    -0.508 OA
ATOM     31  H   UNL     1       3.744  -6.502  -4.751  1.00  0.00     0.293 HD
ENDBRANCH  29  30
ENDBRANCH  17  24
ENDBRANCH   7   9
ENDBRANCH   4   5
ENDBRANCH   3   4
ENDBRANCH   2   3
ENDBRANCH   1   2
BRANCH   1  32
ATOM     32  C   UNL     1       5.884  -4.543   1.027  1.00  0.00     0.021 C 
BRANCH  32  33
ATOM     33  C   UNL     1       6.861  -5.117   2.042  1.00  0.00     0.116 C 
BRANCH  33  34
ATOM     34  N   UNL     1       6.708  -6.555   2.191  1.00  0.00    -0.352 N 
ATOM     35  C   UNL     1       7.635  -7.565   2.105  1.00  0.00     0.251 C 
ATOM     36  H   UNL     1       5.790  -6.854   2.384  1.00  0.00     0.163 HD
ATOM     37  O   UNL     1       7.244  -8.728   2.067  1.00  0.00    -0.269 OA
BRANCH  35  38
ATOM     38  C   UNL     1       9.089  -7.274   2.047  1.00  0.00     0.039 A 
ATOM     39  C   UNL     1       9.913  -8.114   1.290  1.00  0.00     0.014 A 
ATOM     40  C   UNL     1       9.657  -6.222   2.769  1.00  0.00     0.014 A 
ATOM     41  C   UNL     1      11.289  -7.877   1.228  1.00  0.00     0.010 A 
ATOM     42  C   UNL     1      11.013  -5.931   2.635  1.00  0.00     0.010 A 
ATOM     43  C   UNL     1      11.848  -6.767   1.881  1.00  0.00    -0.014 A 
BRANCH  43  44
ATOM     44  C   UNL     1      13.305  -6.480   1.810  1.00  0.00     0.031 A 
ATOM     45  C   UNL     1      14.140  -6.495   3.064  1.00  0.00     0.074 A 
ATOM     46  C   UNL     1      13.864  -6.152   0.629  1.00  0.00     0.049 A 
ATOM     47  N   UNL     1      15.411  -6.223   3.213  1.00  0.00    -0.248 NA
ATOM     48  C   UNL     1      13.450  -6.834   4.321  1.00  0.00     0.031 C 
ATOM     49  C   UNL     1      13.154  -6.064  -0.649  1.00  0.00     0.029 A 
ATOM     50  N   UNL     1      15.159  -5.827   0.311  1.00  0.00    -0.354 N 
ATOM     51  C   UNL     1      15.666  -6.334   4.576  1.00  0.00     0.074 A 
ATOM     52  C   UNL     1      14.407  -6.646   5.216  1.00  0.00     0.031 C 
ATOM     53  C   UNL     1      14.028  -5.744  -1.617  1.00  0.00     0.029 A 
ATOM     54  C   UNL     1      15.349  -5.558  -1.024  1.00  0.00     0.049 A 
ATOM     55  H   UNL     1      15.884  -5.790   0.976  1.00  0.00     0.167 HD
ATOM     56  C   UNL     1      16.843  -6.210   5.234  1.00  0.00     0.031 A 
ATOM     57  C   UNL     1      16.459  -5.197  -1.697  1.00  0.00     0.031 A 
ATOM     58  C   UNL     1      18.095  -5.912   4.589  1.00  0.00     0.049 A 
ATOM     59  C   UNL     1      17.755  -5.057  -0.945  1.00  0.00     0.074 A 
ATOM     60  C   UNL     1      19.355  -5.824   5.154  1.00  0.00     0.029 A 
ATOM     61  N   UNL     1      18.244  -5.652   3.234  1.00  0.00    -0.354 N 
ATOM     62  N   UNL     1      17.988  -5.233   0.334  1.00  0.00    -0.248 NA
ATOM     63  C   UNL     1      18.938  -4.682  -1.730  1.00  0.00     0.031 C 
ATOM     64  C   UNL     1      20.257  -5.452   4.151  1.00  0.00     0.029 A 
ATOM     65  C   UNL     1      19.570  -5.374   2.949  1.00  0.00     0.049 A 
ATOM     66  H   UNL     1      17.514  -5.662   2.573  1.00  0.00     0.167 HD
ATOM     67  C   UNL     1      19.351  -5.016   0.503  1.00  0.00     0.074 A 
ATOM     68  C   UNL     1      19.891  -4.712  -0.807  1.00  0.00     0.031 C 
ATOM     69  C   UNL     1      20.090  -5.068   1.639  1.00  0.00     0.031 A 
BRANCH  56  70
ATOM     70  C   UNL     1      16.827  -6.382   6.732  1.00  0.00    -0.014 A 
ATOM     71  C   UNL     1      16.562  -7.632   7.322  1.00  0.00     0.010 A 
ATOM     72  C   UNL     1      17.104  -5.282   7.565  1.00  0.00     0.010 A 
ATOM     73  C   UNL     1      16.521  -7.767   8.712  1.00  0.00     0.020 A 
ATOM     74  C   UNL     1      17.097  -5.420   8.957  1.00  0.00     0.020 A 
ATOM     75  C   UNL     1      16.784  -6.658   9.521  1.00  0.00     0.054 A 
BRANCH  75  76
ATOM     76  S   UNL     1      16.731  -6.864  11.323  1.00  0.00     0.124 S 
ATOM     77  O   UNL     1      15.297  -7.000  11.567  1.00  0.00    -0.237 OA
ATOM     78  O   UNL     1      17.521  -8.074  11.530  1.00  0.00    -0.237 OA
ATOM     79  O   UNL     1      17.334  -5.634  11.831  1.00  0.00    -0.744 OA
ENDBRANCH  75  76
ENDBRANCH  56  70
BRANCH  57  80
ATOM     80  C   UNL     1      16.393  -4.969  -3.167  1.00  0.00    -0.014 A 
ATOM     81  C   UNL     1      16.997  -5.874  -4.057  1.00  0.00     0.010 A 
ATOM     82  C   UNL     1      15.700  -3.860  -3.686  1.00  0.00     0.010 A 
ATOM     83  C   UNL     1      16.920  -5.668  -5.438  1.00  0.00     0.020 A 
ATOM     84  C   UNL     1      15.595  -3.667  -5.067  1.00  0.00     0.020 A 
ATOM     85  C   UNL     1      16.214  -4.569  -5.934  1.00  0.00     0.054 A 
BRANCH  85  86
ATOM     86  S   UNL     1      16.073  -4.359  -7.731  1.00  0.00     0.124 S 
ATOM     87  O   UNL     1      17.424  -3.947  -8.097  1.00  0.00    -0.237 OA
ATOM     88  O   UNL     1      15.676  -5.694  -8.174  1.00  0.00    -0.237 OA
ATOM     89  O   UNL     1      15.044  -3.332  -7.876  1.00  0.00    -0.744 OA
ENDBRANCH  85  86
ENDBRANCH  57  80
BRANCH  69  90
ATOM     90  C   UNL     1      21.570  -4.820   1.516  1.00  0.00    -0.014 A 
ATOM     91  C   UNL     1      22.077  -3.536   1.248  1.00  0.00     0.010 A 
ATOM     92  C   UNL     1      22.469  -5.882   1.727  1.00  0.00     0.010 A 
ATOM     93  C   UNL     1      23.456  -3.326   1.164  1.00  0.00     0.020 A 
ATOM     94  C   UNL     1      23.848  -5.669   1.674  1.00  0.00     0.020 A 
ATOM     95  C   UNL     1      24.333  -4.394   1.379  1.00  0.00     0.054 A 
BRANCH  95  96
ATOM     96  S   UNL     1      26.118  -4.084   1.308  1.00  0.00     0.124 S 
ATOM     97  O   UNL     1      26.339  -3.903  -0.124  1.00  0.00    -0.237 OA
ATOM     98  O   UNL     1      26.267  -2.881   2.124  1.00  0.00    -0.237 OA
ATOM     99  O   UNL     1      26.703  -5.294   1.881  1.00  0.00    -0.744 OA
ENDBRANCH  95  96
ENDBRANCH  69  90
ENDBRANCH  43  44
ENDBRANCH  35  38
ENDBRANCH  33  34
ENDBRANCH  32  33
ENDBRANCH   1  32
TORSDOF 19
