REMARK SMILES C[C@H](Cc1ccc(N)cc1)C(=O)NCCCCCCNC(=O)c1ccc(-c2c3nc(c(-c4ccc(S(=O)(=O)[O-])cc4)c4ccc([nH]4)c(-c4ccc(S(=O)(=O)[O-])cc4)c4nc(c(-c5ccc(S(=O)(=O)[O-])cc5)c5ccc2[nH]5)C=C4)C=C3)cc1
REMARK SMILES IDX 16 1 15 2 14 3 13 4 11 5 12 6 2 8 1 9 3 10 4 11 5 12 10 13
REMARK SMILES IDX 6 14 9 15 7 16 8 17 17 20 18 21 19 22 20 23 21 24 22 26
REMARK SMILES IDX 23 27 24 28 82 29 25 30 81 31 26 32 27 33 28 34 75 35 29 36
REMARK SMILES IDX 80 37 74 38 76 39 30 40 79 41 73 42 72 43 31 45 61 46 42 47
REMARK SMILES IDX 60 48 43 49 46 50 59 51 77 52 44 53 45 54 58 56 78 57 47 58
REMARK SMILES IDX 32 59 33 60 41 61 34 62 40 63 35 64 36 65 37 66 38 67 39 68
REMARK SMILES IDX 62 69 63 70 71 71 64 72 70 73 65 74 66 75 67 76 68 77 69 78
REMARK SMILES IDX 48 79 49 80 57 81 50 82 56 83 51 84 52 85 53 86 54 87 55 88
REMARK H PARENT 13 7 8 18 8 19 20 25 76 44 46 55
REMARK Flexibility Score: inf
ROOT
ATOM      1  C   UNL     1      -3.878   1.248  -2.231  1.00  0.00     0.002 C 
ENDROOT
BRANCH   1   2
ATOM      2  C   UNL     1      -2.429   1.097  -1.764  1.00  0.00     0.021 C 
BRANCH   2   3
ATOM      3  C   UNL     1      -2.067   1.920  -0.525  1.00  0.00     0.116 C 
BRANCH   3   4
ATOM      4  N   UNL     1      -2.008   1.088   0.661  1.00  0.00    -0.356 N 
ATOM      5  C   UNL     1      -0.968   0.575   1.361  1.00  0.00     0.223 C 
ATOM      6  O   UNL     1      -1.259  -0.178   2.300  1.00  0.00    -0.275 OA
ATOM      7  H   UNL     1      -2.891   0.851   1.026  1.00  0.00     0.163 HD
BRANCH   5   8
ATOM      8  C   UNL     1       0.503   0.893   1.085  1.00  0.00     0.079 C 
ATOM      9  C   UNL     1       0.875   2.348   1.335  1.00  0.00     0.018 C 
BRANCH   8  10
ATOM     10  C   UNL     1       1.128   0.188  -0.138  1.00  0.00     0.048 C 
BRANCH  10  11
ATOM     11  C   UNL     1       0.976   0.686  -1.556  1.00  0.00    -0.047 A 
ATOM     12  C   UNL     1       1.131   2.024  -1.930  1.00  0.00     0.006 A 
ATOM     13  C   UNL     1       0.759  -0.250  -2.581  1.00  0.00     0.006 A 
ATOM     14  C   UNL     1       0.953   2.427  -3.261  1.00  0.00     0.026 A 
ATOM     15  C   UNL     1       0.613   0.152  -3.915  1.00  0.00     0.026 A 
ATOM     16  C   UNL     1       0.711   1.495  -4.269  1.00  0.00     0.031 A 
BRANCH  16  17
ATOM     17  N   UNL     1       0.413   1.909  -5.560  1.00  0.00    -0.399 N 
ATOM     18  H   UNL     1       0.485   2.861  -5.800  1.00  0.00     0.156 HD
ATOM     19  H   UNL     1       0.129   1.251  -6.235  1.00  0.00     0.156 HD
ENDBRANCH  16  17
ENDBRANCH  10  11
ENDBRANCH   8  10
ENDBRANCH   5   8
ENDBRANCH   3   4
ENDBRANCH   2   3
ENDBRANCH   1   2
BRANCH   1  20
ATOM     20  C   UNL     1      -4.249   2.637  -2.770  1.00  0.00     0.002 C 
BRANCH  20  21
ATOM     21  C   UNL     1      -3.363   3.190  -3.895  1.00  0.00     0.021 C 
BRANCH  21  22
ATOM     22  C   UNL     1      -3.280   2.333  -5.160  1.00  0.00     0.116 C 
BRANCH  22  23
ATOM     23  N   UNL     1      -4.569   2.221  -5.828  1.00  0.00    -0.352 N 
ATOM     24  C   UNL     1      -4.948   2.591  -7.093  1.00  0.00     0.251 C 
ATOM     25  H   UNL     1      -5.282   1.814  -5.285  1.00  0.00     0.163 HD
ATOM     26  O   UNL     1      -6.146   2.591  -7.385  1.00  0.00    -0.269 OA
BRANCH  24  27
ATOM     27  C   UNL     1      -3.952   2.998  -8.112  1.00  0.00     0.039 A 
ATOM     28  C   UNL     1      -4.247   4.084  -8.944  1.00  0.00     0.014 A 
ATOM     29  C   UNL     1      -2.768   2.280  -8.307  1.00  0.00     0.014 A 
ATOM     30  C   UNL     1      -3.340   4.481  -9.932  1.00  0.00     0.010 A 
ATOM     31  C   UNL     1      -1.843   2.704  -9.265  1.00  0.00     0.010 A 
ATOM     32  C   UNL     1      -2.118   3.808 -10.087  1.00  0.00    -0.014 A 
BRANCH  32  33
ATOM     33  C   UNL     1      -1.119   4.248 -11.098  1.00  0.00     0.031 A 
ATOM     34  C   UNL     1      -0.798   3.378 -12.284  1.00  0.00     0.074 A 
ATOM     35  C   UNL     1      -0.450   5.405 -10.916  1.00  0.00     0.049 A 
ATOM     36  N   UNL     1       0.097   3.562 -13.222  1.00  0.00    -0.248 NA
ATOM     37  C   UNL     1      -1.567   2.131 -12.425  1.00  0.00     0.031 C 
ATOM     38  C   UNL     1      -0.645   6.332  -9.798  1.00  0.00     0.029 A 
ATOM     39  N   UNL     1       0.540   5.993 -11.664  1.00  0.00    -0.354 N 
ATOM     40  C   UNL     1       0.018   2.447 -14.048  1.00  0.00     0.074 A 
ATOM     41  C   UNL     1      -0.997   1.580 -13.489  1.00  0.00     0.031 C 
ATOM     42  C   UNL     1       0.192   7.373  -9.939  1.00  0.00     0.029 A 
ATOM     43  C   UNL     1       1.005   7.175 -11.135  1.00  0.00     0.049 A 
ATOM     44  H   UNL     1       0.885   5.605 -12.501  1.00  0.00     0.167 HD
ATOM     45  C   UNL     1       0.720   2.173 -15.174  1.00  0.00     0.031 A 
ATOM     46  C   UNL     1       1.983   8.001 -11.556  1.00  0.00     0.031 A 
ATOM     47  C   UNL     1       1.705   3.047 -15.752  1.00  0.00     0.049 A 
ATOM     48  C   UNL     1       2.747   7.671 -12.809  1.00  0.00     0.074 A 
ATOM     49  C   UNL     1       2.406   2.886 -16.936  1.00  0.00     0.029 A 
ATOM     50  N   UNL     1       2.132   4.241 -15.195  1.00  0.00    -0.354 N 
ATOM     51  N   UNL     1       2.604   6.645 -13.614  1.00  0.00    -0.248 NA
ATOM     52  C   UNL     1       3.799   8.614 -13.215  1.00  0.00     0.031 C 
ATOM     53  C   UNL     1       3.289   3.962 -17.073  1.00  0.00     0.029 A 
ATOM     54  C   UNL     1       3.106   4.814 -15.996  1.00  0.00     0.049 A 
ATOM     55  H   UNL     1       1.794   4.625 -14.354  1.00  0.00     0.167 HD
ATOM     56  C   UNL     1       3.527   6.838 -14.636  1.00  0.00     0.074 A 
ATOM     57  C   UNL     1       4.218   8.078 -14.354  1.00  0.00     0.031 C 
ATOM     58  C   UNL     1       3.778   6.055 -15.713  1.00  0.00     0.031 A 
BRANCH  45  59
ATOM     59  C   UNL     1       0.459   0.862 -15.864  1.00  0.00    -0.014 A 
ATOM     60  C   UNL     1      -0.709   0.659 -16.621  1.00  0.00     0.010 A 
ATOM     61  C   UNL     1       1.434  -0.152 -15.821  1.00  0.00     0.010 A 
ATOM     62  C   UNL     1      -0.908  -0.545 -17.302  1.00  0.00     0.020 A 
ATOM     63  C   UNL     1       1.248  -1.349 -16.518  1.00  0.00     0.020 A 
ATOM     64  C   UNL     1       0.071  -1.542 -17.245  1.00  0.00     0.054 A 
BRANCH  64  65
ATOM     65  S   UNL     1      -0.191  -3.078 -18.175  1.00  0.00     0.124 S 
ATOM     66  O   UNL     1      -1.173  -3.768 -17.343  1.00  0.00    -0.237 OA
ATOM     67  O   UNL     1      -0.686  -2.595 -19.462  1.00  0.00    -0.237 OA
ATOM     68  O   UNL     1       1.135  -3.691 -18.212  1.00  0.00    -0.744 OA
ENDBRANCH  64  65
ENDBRANCH  45  59
BRANCH  46  69
ATOM     69  C   UNL     1       2.308   9.230 -10.783  1.00  0.00    -0.014 A 
ATOM     70  C   UNL     1       1.978  10.498 -11.291  1.00  0.00     0.010 A 
ATOM     71  C   UNL     1       2.972   9.137  -9.547  1.00  0.00     0.010 A 
ATOM     72  C   UNL     1       2.332  11.655 -10.591  1.00  0.00     0.020 A 
ATOM     73  C   UNL     1       3.306  10.291  -8.832  1.00  0.00     0.020 A 
ATOM     74  C   UNL     1       2.999  11.543  -9.367  1.00  0.00     0.054 A 
BRANCH  74  75
ATOM     75  S   UNL     1       3.429  13.053  -8.458  1.00  0.00     0.124 S 
ATOM     76  O   UNL     1       4.625  13.501  -9.164  1.00  0.00    -0.237 OA
ATOM     77  O   UNL     1       2.240  13.883  -8.634  1.00  0.00    -0.237 OA
ATOM     78  O   UNL     1       3.647  12.575  -7.094  1.00  0.00    -0.744 OA
ENDBRANCH  74  75
ENDBRANCH  46  69
BRANCH  58  79
ATOM     79  C   UNL     1       4.812   6.533 -16.695  1.00  0.00    -0.014 A 
ATOM     80  C   UNL     1       6.185   6.447 -16.403  1.00  0.00     0.010 A 
ATOM     81  C   UNL     1       4.405   7.017 -17.951  1.00  0.00     0.010 A 
ATOM     82  C   UNL     1       7.132   6.860 -17.344  1.00  0.00     0.020 A 
ATOM     83  C   UNL     1       5.350   7.410 -18.902  1.00  0.00     0.020 A 
ATOM     84  C   UNL     1       6.709   7.340 -18.587  1.00  0.00     0.054 A 
BRANCH  84  85
ATOM     85  S   UNL     1       7.957   7.818 -19.815  1.00  0.00     0.124 S 
ATOM     86  O   UNL     1       8.380   9.126 -19.323  1.00  0.00    -0.237 OA
ATOM     87  O   UNL     1       8.949   6.753 -19.700  1.00  0.00    -0.237 OA
ATOM     88  O   UNL     1       7.214   7.835 -21.073  1.00  0.00    -0.744 OA
ENDBRANCH  84  85
ENDBRANCH  58  79
ENDBRANCH  32  33
ENDBRANCH  24  27
ENDBRANCH  22  23
ENDBRANCH  21  22
ENDBRANCH  20  21
ENDBRANCH   1  20
TORSDOF 19
