REMARK SMILES O=C(NCCCCCCNC(=O)c1cc(S(=O)(=O)Nc2cc(F)ccc2F)cc2c1OCCO2)c1ccc(-c2c3nc(c(-c4ccc(S(=O)(=O)[O-])cc4)c4ccc([nH]4)c(-c4ccc(S(=O)(=O)[O-])cc4)c4nc(c(-c5ccc(S(=O)(=O)[O-])cc5)c5ccc2[nH]5)C=C4)C=C3)cc1
REMARK SMILES IDX 6 1 5 2 4 3 3 4 1 5 2 6 35 8 36 9 94 10 37 11 93 12 38 13
REMARK SMILES IDX 39 14 40 15 87 16 41 17 92 18 86 19 88 20 42 21 91 22 85 23
REMARK SMILES IDX 84 24 43 26 73 27 54 28 72 29 55 30 58 31 71 32 89 33 56 34
REMARK SMILES IDX 57 35 70 37 90 38 59 39 44 40 45 41 53 42 46 43 52 44 47 45
REMARK SMILES IDX 48 46 49 47 50 48 51 49 74 50 75 51 83 52 76 53 82 54 77 55
REMARK SMILES IDX 78 56 79 57 80 58 81 59 60 60 61 61 69 62 62 63 68 64 63 65
REMARK SMILES IDX 64 66 65 67 66 68 67 69 7 70 8 71 9 72 10 73 11 74 12 76
REMARK SMILES IDX 13 77 14 78 30 79 15 80 29 81 31 82 28 83 34 84 32 85 33 86
REMARK SMILES IDX 16 87 17 88 18 89 19 90 20 92 21 93 26 94 22 95 25 96 27 97
REMARK SMILES IDX 23 98 24 99
REMARK H PARENT 3 7 88 25 58 36 10 75 19 91
REMARK Flexibility Score: inf
ROOT
ATOM      1  C   UNL     1       4.296  -2.691  -2.903  1.00  0.00     0.002 C 
ENDROOT
BRANCH   1   2
ATOM      2  C   UNL     1       4.796  -2.297  -1.513  1.00  0.00     0.021 C 
BRANCH   2   3
ATOM      3  C   UNL     1       4.551  -0.849  -1.099  1.00  0.00     0.116 C 
BRANCH   3   4
ATOM      4  N   UNL     1       3.141  -0.513  -0.992  1.00  0.00    -0.352 N 
ATOM      5  O   UNL     1       1.230   0.167  -0.014  1.00  0.00    -0.269 OA
ATOM      6  C   UNL     1       2.453   0.072   0.046  1.00  0.00     0.251 C 
ATOM      7  H   UNL     1       2.596  -0.739  -1.781  1.00  0.00     0.163 HD
BRANCH   6   8
ATOM      8  C   UNL     1       3.173   0.558   1.247  1.00  0.00     0.039 A 
ATOM      9  C   UNL     1       4.362   1.282   1.136  1.00  0.00     0.014 A 
ATOM     10  C   UNL     1       2.637   0.293   2.512  1.00  0.00     0.014 A 
ATOM     11  C   UNL     1       5.086   1.607   2.281  1.00  0.00     0.010 A 
ATOM     12  C   UNL     1       3.327   0.691   3.663  1.00  0.00     0.010 A 
ATOM     13  C   UNL     1       4.578   1.317   3.558  1.00  0.00    -0.014 A 
BRANCH  13  14
ATOM     14  C   UNL     1       5.358   1.713   4.761  1.00  0.00     0.031 A 
ATOM     15  C   UNL     1       5.940   0.680   5.690  1.00  0.00     0.074 A 
ATOM     16  C   UNL     1       5.581   3.022   4.992  1.00  0.00     0.049 A 
ATOM     17  N   UNL     1       6.708   0.855   6.736  1.00  0.00    -0.248 NA
ATOM     18  C   UNL     1       5.617  -0.729   5.415  1.00  0.00     0.031 C 
ATOM     19  C   UNL     1       5.064   4.122   4.173  1.00  0.00     0.029 A 
ATOM     20  N   UNL     1       6.321   3.650   5.961  1.00  0.00    -0.354 N 
ATOM     21  C   UNL     1       6.941  -0.413   7.258  1.00  0.00     0.074 A 
ATOM     22  C   UNL     1       6.217  -1.348   6.423  1.00  0.00     0.031 C 
ATOM     23  C   UNL     1       5.553   5.282   4.636  1.00  0.00     0.029 A 
ATOM     24  C   UNL     1       6.373   5.016   5.813  1.00  0.00     0.049 A 
ATOM     25  H   UNL     1       6.772   3.169   6.692  1.00  0.00     0.167 HD
ATOM     26  C   UNL     1       7.692  -0.767   8.329  1.00  0.00     0.031 A 
ATOM     27  C   UNL     1       7.008   5.955   6.539  1.00  0.00     0.031 A 
ATOM     28  C   UNL     1       8.418   0.161   9.157  1.00  0.00     0.049 A 
ATOM     29  C   UNL     1       7.825   5.537   7.726  1.00  0.00     0.074 A 
ATOM     30  C   UNL     1       9.237  -0.108  10.240  1.00  0.00     0.029 A 
ATOM     31  N   UNL     1       8.409   1.539   8.998  1.00  0.00    -0.354 N 
ATOM     32  N   UNL     1       8.062   4.329   8.176  1.00  0.00    -0.248 NA
ATOM     33  C   UNL     1       8.461   6.610   8.501  1.00  0.00     0.031 C 
ATOM     34  C   UNL     1       9.690   1.109  10.762  1.00  0.00     0.029 A 
ATOM     35  C   UNL     1       9.189   2.134   9.976  1.00  0.00     0.049 A 
ATOM     36  H   UNL     1       7.920   2.022   8.293  1.00  0.00     0.167 HD
ATOM     37  C   UNL     1       8.888   4.495   9.282  1.00  0.00     0.074 A 
ATOM     38  C   UNL     1       9.123   5.919   9.419  1.00  0.00     0.031 C 
ATOM     39  C   UNL     1       9.405   3.553  10.108  1.00  0.00     0.031 A 
BRANCH  26  40
ATOM     40  C   UNL     1       7.743  -2.230   8.687  1.00  0.00    -0.014 A 
ATOM     41  C   UNL     1       8.477  -3.146   7.911  1.00  0.00     0.010 A 
ATOM     42  C   UNL     1       7.073  -2.689   9.836  1.00  0.00     0.010 A 
ATOM     43  C   UNL     1       8.500  -4.502   8.251  1.00  0.00     0.020 A 
ATOM     44  C   UNL     1       7.112  -4.041  10.192  1.00  0.00     0.020 A 
ATOM     45  C   UNL     1       7.809  -4.942   9.384  1.00  0.00     0.054 A 
BRANCH  45  46
ATOM     46  S   UNL     1       7.852  -6.707   9.803  1.00  0.00     0.124 S 
ATOM     47  O   UNL     1       6.920  -7.269   8.829  1.00  0.00    -0.237 OA
ATOM     48  O   UNL     1       9.257  -7.053   9.597  1.00  0.00    -0.237 OA
ATOM     49  O   UNL     1       7.402  -6.745  11.192  1.00  0.00    -0.744 OA
ENDBRANCH  45  46
ENDBRANCH  26  40
BRANCH  27  50
ATOM     50  C   UNL     1       6.900   7.385   6.146  1.00  0.00    -0.014 A 
ATOM     51  C   UNL     1       7.997   8.050   5.572  1.00  0.00     0.010 A 
ATOM     52  C   UNL     1       5.686   8.077   6.310  1.00  0.00     0.010 A 
ATOM     53  C   UNL     1       7.884   9.384   5.173  1.00  0.00     0.020 A 
ATOM     54  C   UNL     1       5.562   9.403   5.889  1.00  0.00     0.020 A 
ATOM     55  C   UNL     1       6.666  10.051   5.332  1.00  0.00     0.054 A 
BRANCH  55  56
ATOM     56  S   UNL     1       6.517  11.761   4.741  1.00  0.00     0.124 S 
ATOM     57  O   UNL     1       7.184  12.506   5.803  1.00  0.00    -0.237 OA
ATOM     58  O   UNL     1       7.218  11.717   3.460  1.00  0.00    -0.237 OA
ATOM     59  O   UNL     1       5.073  11.961   4.644  1.00  0.00    -0.744 OA
ENDBRANCH  55  56
ENDBRANCH  27  50
BRANCH  39  60
ATOM     60  C   UNL     1      10.292   4.035  11.222  1.00  0.00    -0.014 A 
ATOM     61  C   UNL     1       9.755   4.676  12.352  1.00  0.00     0.010 A 
ATOM     62  C   UNL     1      11.681   3.822  11.147  1.00  0.00     0.010 A 
ATOM     63  C   UNL     1      10.595   5.130  13.372  1.00  0.00     0.020 A 
ATOM     64  C   UNL     1      12.521   4.255  12.175  1.00  0.00     0.020 A 
ATOM     65  C   UNL     1      11.975   4.922  13.273  1.00  0.00     0.054 A 
BRANCH  65  66
ATOM     66  S   UNL     1      13.047   5.497  14.619  1.00  0.00     0.124 S 
ATOM     67  O   UNL     1      13.134   6.929  14.346  1.00  0.00    -0.237 OA
ATOM     68  O   UNL     1      12.292   5.129  15.814  1.00  0.00    -0.237 OA
ATOM     69  O   UNL     1      14.285   4.747  14.417  1.00  0.00    -0.744 OA
ENDBRANCH  65  66
ENDBRANCH  39  60
ENDBRANCH  13  14
ENDBRANCH   6   8
ENDBRANCH   3   4
ENDBRANCH   2   3
ENDBRANCH   1   2
BRANCH   1  70
ATOM     70  C   UNL     1       4.801  -1.844  -4.074  1.00  0.00     0.002 C 
BRANCH  70  71
ATOM     71  C   UNL     1       6.318  -1.677  -4.196  1.00  0.00     0.021 C 
BRANCH  71  72
ATOM     72  C   UNL     1       7.145  -2.962  -4.192  1.00  0.00     0.116 C 
BRANCH  72  73
ATOM     73  N   UNL     1       6.836  -3.869  -5.285  1.00  0.00    -0.352 N 
ATOM     74  C   UNL     1       7.692  -4.681  -5.995  1.00  0.00     0.255 C 
ATOM     75  H   UNL     1       5.889  -3.907  -5.554  1.00  0.00     0.163 HD
ATOM     76  O   UNL     1       7.273  -5.380  -6.914  1.00  0.00    -0.269 OA
BRANCH  74  77
ATOM     77  C   UNL     1       9.151  -4.596  -5.759  1.00  0.00     0.087 A 
ATOM     78  C   UNL     1       9.917  -4.135  -6.837  1.00  0.00     0.040 A 
ATOM     79  C   UNL     1       9.745  -4.830  -4.519  1.00  0.00     0.174 A 
ATOM     80  C   UNL     1      11.229  -3.717  -6.632  1.00  0.00     0.092 A 
ATOM     81  C   UNL     1      11.102  -4.527  -4.353  1.00  0.00     0.163 A 
ATOM     82  O   UNL     1       8.975  -5.340  -3.506  1.00  0.00    -0.485 OA
ATOM     83  C   UNL     1      11.831  -3.934  -5.387  1.00  0.00     0.072 A 
ATOM     84  O   UNL     1      11.777  -4.725  -3.176  1.00  0.00    -0.486 OA
ATOM     85  C   UNL     1       9.588  -5.155  -2.225  1.00  0.00     0.271 C 
ATOM     86  C   UNL     1      11.047  -5.569  -2.277  1.00  0.00     0.271 C 
BRANCH  80  87
ATOM     87  S   UNL     1      12.146  -2.738  -7.808  1.00  0.00     0.262 S 
ATOM     88  O   UNL     1      12.181  -1.391  -7.268  1.00  0.00    -0.201 OA
ATOM     89  O   UNL     1      13.359  -3.467  -8.087  1.00  0.00    -0.201 OA
BRANCH  87  90
ATOM     90  N   UNL     1      11.325  -2.688  -9.262  1.00  0.00    -0.277 N 
ATOM     91  H   UNL     1      11.837  -2.910 -10.074  1.00  0.00     0.180 HD
BRANCH  90  92
ATOM     92  C   UNL     1       9.951  -2.353  -9.434  1.00  0.00     0.087 A 
ATOM     93  C   UNL     1       9.244  -1.492  -8.595  1.00  0.00     0.069 A 
ATOM     94  C   UNL     1       9.266  -3.032 -10.454  1.00  0.00     0.147 A 
ATOM     95  C   UNL     1       7.854  -1.441  -8.703  1.00  0.00     0.125 A 
ATOM     96  C   UNL     1       7.883  -2.964 -10.568  1.00  0.00     0.044 A 
ATOM     97  F   UNL     1       9.950  -3.836 -11.284  1.00  0.00    -0.205 F 
ATOM     98  F   UNL     1       7.155  -0.703  -7.831  1.00  0.00    -0.207 F 
ATOM     99  C   UNL     1       7.168  -2.183  -9.664  1.00  0.00     0.042 A 
ENDBRANCH  90  92
ENDBRANCH  87  90
ENDBRANCH  80  87
ENDBRANCH  74  77
ENDBRANCH  72  73
ENDBRANCH  71  72
ENDBRANCH  70  71
ENDBRANCH   1  70
TORSDOF 19
