REMARK SMILES COc1ccc(F)cc1[C@@H](C(=O)NCCCCCCNC(=O)c1ccc(-c2c3nc(c(-c4ccc(S(=O)(=O)[O-])cc4)c4ccc([nH]4)c(-c4ccc(S(=O)(=O)[O-])cc4)c4nc(c(-c5ccc(S(=O)(=O)[O-])cc5)c5ccc2[nH]5)C=C4)C=C3)cc1)[NH+]1CC[NH+](Cc2noc(C)n2)CC1
REMARK SMILES IDX 16 1 15 2 14 3 13 4 11 5 12 6 10 8 9 9 3 10 4 11 5 12 8 13
REMARK SMILES IDX 6 14 7 15 2 16 1 17 83 18 84 19 95 20 85 22 94 23 86 24
REMARK SMILES IDX 87 26 88 27 89 28 93 29 90 30 91 31 92 32 17 33 18 34 19 35
REMARK SMILES IDX 20 36 21 37 22 39 23 40 24 41 82 42 25 43 81 44 26 45 27 46
REMARK SMILES IDX 28 47 75 48 29 49 80 50 74 51 76 52 30 53 79 54 73 55 72 56
REMARK SMILES IDX 31 58 61 59 42 60 60 61 43 62 46 63 59 64 77 65 44 66 45 67
REMARK SMILES IDX 58 69 78 70 47 71 32 72 33 73 41 74 34 75 40 76 35 77 36 78
REMARK SMILES IDX 37 79 38 80 39 81 62 82 63 83 71 84 64 85 70 86 65 87 66 88
REMARK SMILES IDX 67 89 68 90 69 91 48 92 49 93 57 94 50 95 56 96 51 97 52 98
REMARK SMILES IDX 53 99 54 100 55 101
REMARK H PARENT 13 7 83 21 86 25 20 38 76 57 46 68
REMARK Flexibility Score: inf
ROOT
ATOM      1  C   UNL     1      -1.223   4.322   2.091  1.00  0.00     0.002 C 
ENDROOT
BRANCH   1   2
ATOM      2  C   UNL     1      -0.553   3.350   1.116  1.00  0.00     0.021 C 
BRANCH   2   3
ATOM      3  C   UNL     1      -1.498   2.284   0.565  1.00  0.00     0.116 C 
BRANCH   3   4
ATOM      4  N   UNL     1      -2.439   2.870  -0.359  1.00  0.00    -0.351 N 
ATOM      5  C   UNL     1      -2.362   2.956  -1.722  1.00  0.00     0.283 C 
ATOM      6  O   UNL     1      -3.241   3.638  -2.262  1.00  0.00    -0.268 OA
ATOM      7  H   UNL     1      -3.246   3.262   0.047  1.00  0.00     0.163 HD
BRANCH   5   8
ATOM      8  C   UNL     1      -1.267   2.144  -2.505  1.00  0.00     0.309 C 
BRANCH   8   9
ATOM      9  C   UNL     1       0.178   2.543  -2.209  1.00  0.00     0.064 A 
ATOM     10  C   UNL     1       1.150   1.578  -1.868  1.00  0.00     0.128 A 
ATOM     11  C   UNL     1       2.502   1.929  -1.752  1.00  0.00     0.050 A 
ATOM     12  C   UNL     1       2.896   3.254  -1.915  1.00  0.00     0.043 A 
ATOM     13  C   UNL     1       0.594   3.882  -2.307  1.00  0.00     0.053 A 
ATOM     14  C   UNL     1       1.936   4.221  -2.172  1.00  0.00     0.124 A 
ATOM     15  F   UNL     1       2.307   5.500  -2.315  1.00  0.00    -0.207 F 
BRANCH  10  16
ATOM     16  O   UNL     1       0.744   0.278  -1.696  1.00  0.00    -0.496 OA
ATOM     17  C   UNL     1       1.247  -0.316  -0.496  1.00  0.00     0.278 C 
ENDBRANCH  10  16
ENDBRANCH   8   9
BRANCH   8  18
ATOM     18  N   UNL     1      -1.597   2.118  -3.951  1.00  0.00    -0.311 N 
ATOM     19  C   UNL     1      -1.569   3.396  -4.667  1.00  0.00     0.325 C 
ATOM     20  C   UNL     1      -1.030   1.003  -4.708  1.00  0.00     0.325 C 
ATOM     21  H   UNL     1      -2.595   1.916  -3.900  1.00  0.00     0.349 HD
ATOM     22  C   UNL     1      -0.365   3.669  -5.606  1.00  0.00     0.324 C 
ATOM     23  C   UNL     1       0.226   1.320  -5.550  1.00  0.00     0.324 C 
ATOM     24  N   UNL     1       0.178   2.539  -6.367  1.00  0.00    -0.319 N 
ATOM     25  H   UNL     1       1.148   2.769  -6.581  1.00  0.00     0.348 HD
BRANCH  24  26
ATOM     26  C   UNL     1      -0.387   2.375  -7.721  1.00  0.00     0.345 C 
BRANCH  26  27
ATOM     27  C   UNL     1      -1.849   2.080  -7.775  1.00  0.00     0.226 A 
ATOM     28  N   UNL     1      -2.339   0.847  -7.979  1.00  0.00    -0.056 NA
ATOM     29  N   UNL     1      -2.800   3.038  -7.520  1.00  0.00    -0.191 NA
ATOM     30  O   UNL     1      -3.696   0.994  -7.671  1.00  0.00    -0.339 OA
ATOM     31  C   UNL     1      -3.878   2.309  -7.358  1.00  0.00     0.223 A 
ATOM     32  C   UNL     1      -5.174   2.690  -6.770  1.00  0.00     0.114 C 
ENDBRANCH  26  27
ENDBRANCH  24  26
ENDBRANCH   8  18
ENDBRANCH   5   8
ENDBRANCH   3   4
ENDBRANCH   2   3
ENDBRANCH   1   2
BRANCH   1  33
ATOM     33  C   UNL     1      -1.821   3.665   3.337  1.00  0.00     0.002 C 
BRANCH  33  34
ATOM     34  C   UNL     1      -0.857   2.756   4.105  1.00  0.00     0.021 C 
BRANCH  34  35
ATOM     35  C   UNL     1       0.432   3.438   4.552  1.00  0.00     0.116 C 
BRANCH  35  36
ATOM     36  N   UNL     1       0.167   4.536   5.467  1.00  0.00    -0.352 N 
ATOM     37  C   UNL     1       0.624   4.722   6.744  1.00  0.00     0.251 C 
ATOM     38  H   UNL     1      -0.423   5.244   5.120  1.00  0.00     0.163 HD
ATOM     39  O   UNL     1       0.112   5.582   7.463  1.00  0.00    -0.269 OA
BRANCH  37  40
ATOM     40  C   UNL     1       1.724   3.883   7.258  1.00  0.00     0.039 A 
ATOM     41  C   UNL     1       1.615   3.331   8.536  1.00  0.00     0.014 A 
ATOM     42  C   UNL     1       2.866   3.653   6.484  1.00  0.00     0.014 A 
ATOM     43  C   UNL     1       2.632   2.507   9.019  1.00  0.00     0.010 A 
ATOM     44  C   UNL     1       3.849   2.780   6.941  1.00  0.00     0.010 A 
ATOM     45  C   UNL     1       3.745   2.204   8.216  1.00  0.00    -0.014 A 
BRANCH  45  46
ATOM     46  C   UNL     1       4.806   1.285   8.697  1.00  0.00     0.031 A 
ATOM     47  C   UNL     1       6.200   1.796   8.940  1.00  0.00     0.074 A 
ATOM     48  C   UNL     1       4.523  -0.021   8.868  1.00  0.00     0.049 A 
ATOM     49  N   UNL     1       7.260   1.138   9.334  1.00  0.00    -0.248 NA
ATOM     50  C   UNL     1       6.440   3.225   8.686  1.00  0.00     0.031 C 
ATOM     51  C   UNL     1       3.220  -0.645   8.623  1.00  0.00     0.029 A 
ATOM     52  N   UNL     1       5.314  -1.061   9.285  1.00  0.00    -0.354 N 
ATOM     53  C   UNL     1       8.293   2.067   9.364  1.00  0.00     0.074 A 
ATOM     54  C   UNL     1       7.744   3.323   8.901  1.00  0.00     0.031 C 
ATOM     55  C   UNL     1       3.295  -1.952   8.922  1.00  0.00     0.029 A 
ATOM     56  C   UNL     1       4.655  -2.266   9.347  1.00  0.00     0.049 A 
ATOM     57  H   UNL     1       6.265  -0.954   9.518  1.00  0.00     0.167 HD
ATOM     58  C   UNL     1       9.577   1.897   9.759  1.00  0.00     0.031 A 
ATOM     59  C   UNL     1       5.096  -3.487   9.704  1.00  0.00     0.031 A 
ATOM     60  C   UNL     1      10.117   0.648  10.228  1.00  0.00     0.049 A 
ATOM     61  C   UNL     1       6.526  -3.652  10.138  1.00  0.00     0.074 A 
ATOM     62  C   UNL     1      11.391   0.385  10.703  1.00  0.00     0.029 A 
ATOM     63  N   UNL     1       9.416  -0.547  10.282  1.00  0.00    -0.354 N 
ATOM     64  N   UNL     1       7.471  -2.746  10.220  1.00  0.00    -0.248 NA
ATOM     65  C   UNL     1       6.944  -5.001  10.541  1.00  0.00     0.031 C 
ATOM     66  C   UNL     1      11.473  -0.980  10.999  1.00  0.00     0.029 A 
ATOM     67  C   UNL     1      10.236  -1.556  10.759  1.00  0.00     0.049 A 
ATOM     68  H   UNL     1       8.474  -0.662  10.019  1.00  0.00     0.167 HD
ATOM     69  C   UNL     1       8.591  -3.412  10.703  1.00  0.00     0.074 A 
ATOM     70  C   UNL     1       8.199  -4.792  10.913  1.00  0.00     0.031 C 
ATOM     71  C   UNL     1       9.832  -2.926  10.952  1.00  0.00     0.031 A 
BRANCH  58  72
ATOM     72  C   UNL     1      10.488   3.095   9.697  1.00  0.00    -0.014 A 
ATOM     73  C   UNL     1      10.332   4.172  10.588  1.00  0.00     0.010 A 
ATOM     74  C   UNL     1      11.535   3.131   8.757  1.00  0.00     0.010 A 
ATOM     75  C   UNL     1      11.177   5.282  10.513  1.00  0.00     0.020 A 
ATOM     76  C   UNL     1      12.399   4.228   8.697  1.00  0.00     0.020 A 
ATOM     77  C   UNL     1      12.203   5.305   9.563  1.00  0.00     0.054 A 
BRANCH  77  78
ATOM     78  S   UNL     1      13.296   6.751   9.499  1.00  0.00     0.124 S 
ATOM     79  O   UNL     1      12.432   7.753   8.879  1.00  0.00    -0.237 OA
ATOM     80  O   UNL     1      13.612   6.979  10.907  1.00  0.00    -0.237 OA
ATOM     81  O   UNL     1      14.417   6.301   8.677  1.00  0.00    -0.744 OA
ENDBRANCH  77  78
ENDBRANCH  58  72
BRANCH  59  82
ATOM     82  C   UNL     1       4.163  -4.646   9.684  1.00  0.00    -0.014 A 
ATOM     83  C   UNL     1       3.702  -5.211  10.886  1.00  0.00     0.010 A 
ATOM     84  C   UNL     1       3.716  -5.179   8.461  1.00  0.00     0.010 A 
ATOM     85  C   UNL     1       2.823  -6.297  10.866  1.00  0.00     0.020 A 
ATOM     86  C   UNL     1       2.817  -6.248   8.437  1.00  0.00     0.020 A 
ATOM     87  C   UNL     1       2.385  -6.808   9.641  1.00  0.00     0.054 A 
BRANCH  87  88
ATOM     88  S   UNL     1       1.198  -8.181   9.637  1.00  0.00     0.124 S 
ATOM     89  O   UNL     1       2.046  -9.315   9.991  1.00  0.00    -0.237 OA
ATOM     90  O   UNL     1       0.234  -7.768  10.654  1.00  0.00    -0.237 OA
ATOM     91  O   UNL     1       0.685  -8.183   8.269  1.00  0.00    -0.744 OA
ENDBRANCH  87  88
ENDBRANCH  59  82
BRANCH  71  92
ATOM     92  C   UNL     1      10.851  -3.890  11.497  1.00  0.00    -0.014 A 
ATOM     93  C   UNL     1      11.419  -4.885  10.682  1.00  0.00     0.010 A 
ATOM     94  C   UNL     1      11.272  -3.774  12.834  1.00  0.00     0.010 A 
ATOM     95  C   UNL     1      12.365  -5.771  11.205  1.00  0.00     0.020 A 
ATOM     96  C   UNL     1      12.237  -4.641  13.353  1.00  0.00     0.020 A 
ATOM     97  C   UNL     1      12.765  -5.645  12.539  1.00  0.00     0.054 A 
BRANCH  97  98
ATOM     98  S   UNL     1      14.016  -6.787  13.187  1.00  0.00     0.124 S 
ATOM     99  O   UNL     1      13.245  -8.014  13.362  1.00  0.00    -0.237 OA
ATOM    100  O   UNL     1      15.010  -6.816  12.117  1.00  0.00    -0.237 OA
ATOM    101  O   UNL     1      14.460  -6.147  14.424  1.00  0.00    -0.744 OA
ENDBRANCH  97  98
ENDBRANCH  71  92
ENDBRANCH  45  46
ENDBRANCH  37  40
ENDBRANCH  35  36
ENDBRANCH  34  35
ENDBRANCH  33  34
ENDBRANCH   1  33
TORSDOF 21
