REMARK SMILES CC1(C)[C@@H](C(=O)NCCCCCCNC(=O)c2ccc(-c3c4nc(c(-c5ccc(S(=O)(=O)[O-])cc5)c5ccc([nH]5)c(-c5ccc(S(=O)(=O)[O-])cc5)c5nc(c(-c6ccc(S(=O)(=O)[O-])cc6)c6ccc3[nH]6)C=C5)C=C4)cc2)[C@@H]1C(=O)NCCc1ccc(S(N)(=O)=O)cc1
REMARK SMILES IDX 9 1 8 2 7 3 5 4 6 5 4 7 1 8 2 9 3 10 77 11 78 12 79 13 80 14
REMARK SMILES IDX 81 16 82 17 83 18 84 19 92 20 85 21 91 22 86 23 87 24 89 25
REMARK SMILES IDX 90 26 88 27 10 30 11 31 12 32 13 33 14 34 15 35 16 37 17 38
REMARK SMILES IDX 18 39 76 40 19 41 75 42 20 43 21 44 22 45 69 46 23 47 74 48
REMARK SMILES IDX 68 49 70 50 24 51 73 52 67 53 66 54 25 56 55 57 36 58 54 59
REMARK SMILES IDX 37 60 40 61 53 62 71 63 38 64 39 65 52 67 72 68 41 69 26 70
REMARK SMILES IDX 27 71 35 72 28 73 34 74 29 75 30 76 31 77 32 78 33 79 56 80
REMARK SMILES IDX 57 81 65 82 58 83 64 84 59 85 60 86 61 87 62 88 63 89 42 90
REMARK SMILES IDX 43 91 51 92 44 93 50 94 45 95 46 96 47 97 48 98 49 99
REMARK H PARENT 7 6 80 15 88 28 88 29 14 36 70 55 40 66
REMARK Flexibility Score: inf
ROOT
ATOM      1  C   UNL     1      -4.824  -1.701  -0.740  1.00  0.00     0.021 C 
ENDROOT
BRANCH   1   2
ATOM      2  C   UNL     1      -3.411  -1.815  -0.173  1.00  0.00     0.116 C 
BRANCH   2   3
ATOM      3  N   UNL     1      -2.423  -2.005  -1.213  1.00  0.00    -0.356 N 
ATOM      4  C   UNL     1      -1.326  -1.258  -1.546  1.00  0.00     0.224 C 
ATOM      5  O   UNL     1      -0.648  -1.583  -2.515  1.00  0.00    -0.275 OA
ATOM      6  H   UNL     1      -2.563  -2.802  -1.773  1.00  0.00     0.163 HD
BRANCH   4   7
ATOM      7  C   UNL     1      -0.967  -0.030  -0.786  1.00  0.00     0.098 C 
ATOM      8  C   UNL     1       1.198  -1.207   0.062  1.00  0.00     0.013 C 
ATOM      9  C   UNL     1       0.343   0.036  -0.012  1.00  0.00    -0.011 C 
ATOM     10  C   UNL     1       1.148   1.310  -0.129  1.00  0.00     0.013 C 
ATOM     11  C   UNL     1      -0.995   0.050   0.723  1.00  0.00     0.098 C 
BRANCH  11  12
ATOM     12  C   UNL     1      -1.415   1.249   1.496  1.00  0.00     0.224 C 
ATOM     13  O   UNL     1      -0.805   1.526   2.524  1.00  0.00    -0.275 OA
ATOM     14  N   UNL     1      -2.481   2.025   1.129  1.00  0.00    -0.355 N 
ATOM     15  H   UNL     1      -2.638   2.790   1.729  1.00  0.00     0.163 HD
BRANCH  14  16
ATOM     16  C   UNL     1      -3.427   1.942   0.028  1.00  0.00     0.120 C 
BRANCH  16  17
ATOM     17  C   UNL     1      -4.814   1.465   0.459  1.00  0.00     0.056 C 
BRANCH  17  18
ATOM     18  C   UNL     1      -5.682   2.519   1.089  1.00  0.00    -0.046 A 
ATOM     19  C   UNL     1      -5.540   2.837   2.446  1.00  0.00     0.005 A 
ATOM     20  C   UNL     1      -6.676   3.154   0.329  1.00  0.00     0.005 A 
ATOM     21  C   UNL     1      -6.388   3.770   3.041  1.00  0.00     0.022 A 
ATOM     22  C   UNL     1      -7.533   4.080   0.920  1.00  0.00     0.022 A 
ATOM     23  C   UNL     1      -7.388   4.377   2.276  1.00  0.00     0.082 A 
BRANCH  23  24
ATOM     24  S   UNL     1      -8.486   5.529   3.047  1.00  0.00     0.238 S 
ATOM     25  O   UNL     1      -7.691   6.491   3.774  1.00  0.00    -0.207 OA
ATOM     26  O   UNL     1      -9.501   5.918   2.097  1.00  0.00    -0.207 OA
BRANCH  24  27
ATOM     27  N   UNL     1      -9.257   4.570   4.184  1.00  0.00    -0.225 NA
ATOM     28  H   UNL     1      -8.582   4.264   4.885  1.00  0.00     0.137 HD
ATOM     29  H   UNL     1      -9.662   3.755   3.724  1.00  0.00     0.137 HD
ENDBRANCH  24  27
ENDBRANCH  23  24
ENDBRANCH  17  18
ENDBRANCH  16  17
ENDBRANCH  14  16
ENDBRANCH  11  12
ENDBRANCH   4   7
ENDBRANCH   2   3
ENDBRANCH   1   2
BRANCH   1  30
ATOM     30  C   UNL     1      -5.434  -3.012  -1.229  1.00  0.00     0.002 C 
BRANCH  30  31
ATOM     31  C   UNL     1      -5.528  -4.114  -0.170  1.00  0.00     0.002 C 
BRANCH  31  32
ATOM     32  C   UNL     1      -6.207  -3.715   1.145  1.00  0.00     0.021 C 
BRANCH  32  33
ATOM     33  C   UNL     1      -7.620  -3.156   1.002  1.00  0.00     0.116 C 
BRANCH  33  34
ATOM     34  N   UNL     1      -8.521  -4.107   0.376  1.00  0.00    -0.352 N 
ATOM     35  C   UNL     1      -9.684  -4.659   0.852  1.00  0.00     0.251 C 
ATOM     36  H   UNL     1      -8.259  -4.401  -0.527  1.00  0.00     0.163 HD
ATOM     37  O   UNL     1     -10.188  -5.612   0.265  1.00  0.00    -0.269 OA
BRANCH  35  38
ATOM     38  C   UNL     1     -10.322  -4.117   2.072  1.00  0.00     0.039 A 
ATOM     39  C   UNL     1     -10.843  -5.010   3.013  1.00  0.00     0.014 A 
ATOM     40  C   UNL     1     -10.435  -2.739   2.278  1.00  0.00     0.014 A 
ATOM     41  C   UNL     1     -11.432  -4.520   4.180  1.00  0.00     0.010 A 
ATOM     42  C   UNL     1     -10.952  -2.255   3.478  1.00  0.00     0.010 A 
ATOM     43  C   UNL     1     -11.466  -3.139   4.438  1.00  0.00    -0.014 A 
BRANCH  43  44
ATOM     44  C   UNL     1     -12.037  -2.610   5.704  1.00  0.00     0.031 A 
ATOM     45  C   UNL     1     -13.252  -1.719   5.677  1.00  0.00     0.074 A 
ATOM     46  C   UNL     1     -11.435  -2.894   6.877  1.00  0.00     0.049 A 
ATOM     47  N   UNL     1     -13.870  -1.139   6.675  1.00  0.00    -0.248 NA
ATOM     48  C   UNL     1     -13.835  -1.423   4.359  1.00  0.00     0.031 C 
ATOM     49  C   UNL     1     -10.231  -3.713   7.034  1.00  0.00     0.029 A 
ATOM     50  N   UNL     1     -11.753  -2.526   8.161  1.00  0.00    -0.354 N 
ATOM     51  C   UNL     1     -14.903  -0.404   6.105  1.00  0.00     0.074 A 
ATOM     52  C   UNL     1     -14.795  -0.565   4.672  1.00  0.00     0.031 C 
ATOM     53  C   UNL     1      -9.932  -3.811   8.339  1.00  0.00     0.029 A 
ATOM     54  C   UNL     1     -10.892  -3.027   9.109  1.00  0.00     0.049 A 
ATOM     55  H   UNL     1     -12.525  -1.956   8.382  1.00  0.00     0.167 HD
ATOM     56  C   UNL     1     -15.867   0.324   6.720  1.00  0.00     0.031 A 
ATOM     57  C   UNL     1     -10.870  -2.869  10.447  1.00  0.00     0.031 A 
ATOM     58  C   UNL     1     -15.975   0.476   8.147  1.00  0.00     0.049 A 
ATOM     59  C   UNL     1     -11.941  -2.040  11.103  1.00  0.00     0.074 A 
ATOM     60  C   UNL     1     -16.946   1.150   8.868  1.00  0.00     0.029 A 
ATOM     61  N   UNL     1     -15.084  -0.049   9.072  1.00  0.00    -0.354 N 
ATOM     62  N   UNL     1     -12.946  -1.405  10.550  1.00  0.00    -0.248 NA
ATOM     63  C   UNL     1     -11.882  -1.920  12.566  1.00  0.00     0.031 C 
ATOM     64  C   UNL     1     -16.606   1.089  10.223  1.00  0.00     0.029 A 
ATOM     65  C   UNL     1     -15.466   0.312  10.354  1.00  0.00     0.049 A 
ATOM     66  H   UNL     1     -14.297  -0.597   8.850  1.00  0.00     0.167 HD
ATOM     67  C   UNL     1     -13.659  -0.838  11.602  1.00  0.00     0.074 A 
ATOM     68  C   UNL     1     -12.979  -1.221  12.822  1.00  0.00     0.031 C 
ATOM     69  C   UNL     1     -14.779  -0.073  11.561  1.00  0.00     0.031 A 
BRANCH  56  70
ATOM     70  C   UNL     1     -16.880   1.024   5.849  1.00  0.00    -0.014 A 
ATOM     71  C   UNL     1     -17.833   0.299   5.111  1.00  0.00     0.010 A 
ATOM     72  C   UNL     1     -16.915   2.430   5.812  1.00  0.00     0.010 A 
ATOM     73  C   UNL     1     -18.775   0.965   4.322  1.00  0.00     0.020 A 
ATOM     74  C   UNL     1     -17.876   3.101   5.050  1.00  0.00     0.020 A 
ATOM     75  C   UNL     1     -18.791   2.362   4.297  1.00  0.00     0.054 A 
BRANCH  75  76
ATOM     76  S   UNL     1     -20.046   3.198   3.289  1.00  0.00     0.124 S 
ATOM     77  O   UNL     1     -19.585   2.908   1.934  1.00  0.00    -0.237 OA
ATOM     78  O   UNL     1     -21.278   2.525   3.692  1.00  0.00    -0.237 OA
ATOM     79  O   UNL     1     -19.942   4.598   3.695  1.00  0.00    -0.744 OA
ENDBRANCH  75  76
ENDBRANCH  56  70
BRANCH  57  80
ATOM     80  C   UNL     1      -9.800  -3.516  11.257  1.00  0.00    -0.014 A 
ATOM     81  C   UNL     1     -10.105  -4.565  12.143  1.00  0.00     0.010 A 
ATOM     82  C   UNL     1      -8.465  -3.085  11.145  1.00  0.00     0.010 A 
ATOM     83  C   UNL     1      -9.101  -5.151  12.920  1.00  0.00     0.020 A 
ATOM     84  C   UNL     1      -7.454  -3.691  11.894  1.00  0.00     0.020 A 
ATOM     85  C   UNL     1      -7.780  -4.712  12.788  1.00  0.00     0.054 A 
BRANCH  85  86
ATOM     86  S   UNL     1      -6.488  -5.516  13.775  1.00  0.00     0.124 S 
ATOM     87  O   UNL     1      -6.779  -5.022  15.117  1.00  0.00    -0.237 OA
ATOM     88  O   UNL     1      -6.757  -6.934  13.549  1.00  0.00    -0.237 OA
ATOM     89  O   UNL     1      -5.248  -5.023  13.181  1.00  0.00    -0.744 OA
ENDBRANCH  85  86
ENDBRANCH  57  80
BRANCH  69  90
ATOM     90  C   UNL     1     -15.368   0.366  12.877  1.00  0.00    -0.014 A 
ATOM     91  C   UNL     1     -14.721   1.309  13.695  1.00  0.00     0.010 A 
ATOM     92  C   UNL     1     -16.616  -0.146  13.279  1.00  0.00     0.010 A 
ATOM     93  C   UNL     1     -15.290   1.698  14.911  1.00  0.00     0.020 A 
ATOM     94  C   UNL     1     -17.205   0.266  14.477  1.00  0.00     0.020 A 
ATOM     95  C   UNL     1     -16.529   1.173  15.294  1.00  0.00     0.054 A 
BRANCH  95  96
ATOM     96  S   UNL     1     -17.259   1.718  16.862  1.00  0.00     0.124 S 
ATOM     97  O   UNL     1     -16.403   1.056  17.842  1.00  0.00    -0.237 OA
ATOM     98  O   UNL     1     -17.126   3.171  16.789  1.00  0.00    -0.237 OA
ATOM     99  O   UNL     1     -18.632   1.219  16.797  1.00  0.00    -0.744 OA
ENDBRANCH  95  96
ENDBRANCH  69  90
ENDBRANCH  43  44
ENDBRANCH  35  38
ENDBRANCH  33  34
ENDBRANCH  32  33
ENDBRANCH  31  32
ENDBRANCH  30  31
ENDBRANCH   1  30
TORSDOF 22
