REMARK SMILES CCCC[C@@H](C(=O)NCCCCCCNC(=O)c1ccc(-c2c3nc(c(-c4ccc(S(=O)(=O)[O-])cc4)c4ccc([nH]4)c(-c4ccc(S(=O)(=O)[O-])cc4)c4nc(c(-c5ccc(S(=O)(=O)[O-])cc5)c5ccc2[nH]5)C=C4)C=C3)cc1)[C@]1(O)COc2cc(O)ccc21
REMARK SMILES IDX 11 1 10 2 9 3 8 4 6 5 7 6 5 8 4 9 3 10 2 11 1 12 78 13 80 14
REMARK SMILES IDX 88 15 81 16 82 17 87 18 83 19 86 20 84 21 79 22 85 24 12 26
REMARK SMILES IDX 13 27 14 28 15 29 16 30 17 32 18 33 19 34 77 35 20 36 76 37
REMARK SMILES IDX 21 38 22 39 23 40 70 41 24 42 75 43 69 44 71 45 25 46 74 47
REMARK SMILES IDX 68 48 67 49 26 51 56 52 37 53 55 54 38 55 41 56 54 57 72 58
REMARK SMILES IDX 39 59 40 60 53 62 73 63 42 64 27 65 28 66 36 67 29 68 35 69
REMARK SMILES IDX 30 70 31 71 32 72 33 73 34 74 57 75 58 76 66 77 59 78 65 79
REMARK SMILES IDX 60 80 61 81 62 82 63 83 64 84 43 85 44 86 52 87 45 88 51 89
REMARK SMILES IDX 46 90 47 91 48 92 49 93 50 94
REMARK H PARENT 8 7 79 23 85 25 15 31 71 50 41 61
REMARK Flexibility Score: inf
ROOT
ATOM      1  C   UNL     1       0.148  -1.757   5.717  1.00  0.00     0.002 C 
ENDROOT
BRANCH   1   2
ATOM      2  C   UNL     1       0.354  -1.069   4.366  1.00  0.00     0.021 C 
BRANCH   2   3
ATOM      3  C   UNL     1      -0.959  -0.792   3.619  1.00  0.00     0.116 C 
BRANCH   3   4
ATOM      4  N   UNL     1      -1.594   0.381   4.183  1.00  0.00    -0.356 N 
ATOM      5  C   UNL     1      -1.210   1.662   3.878  1.00  0.00     0.226 C 
ATOM      6  O   UNL     1      -0.910   2.407   4.807  1.00  0.00    -0.275 OA
ATOM      7  H   UNL     1      -2.337   0.252   4.815  1.00  0.00     0.163 HD
BRANCH   5   8
ATOM      8  C   UNL     1      -1.227   2.099   2.410  1.00  0.00     0.118 C 
BRANCH   8   9
ATOM      9  C   UNL     1       0.202   2.308   1.834  1.00  0.00     0.017 C 
BRANCH   9  10
ATOM     10  C   UNL     1       1.129   1.105   1.625  1.00  0.00     0.001 C 
BRANCH  10  11
ATOM     11  C   UNL     1       0.685   0.072   0.587  1.00  0.00    -0.003 C 
ATOM     12  C   UNL     1       1.288   0.311  -0.787  1.00  0.00     0.004 C 
ENDBRANCH  10  11
ENDBRANCH   9  10
ENDBRANCH   8   9
BRANCH   8  13
ATOM     13  C   UNL     1      -2.092   3.408   2.227  1.00  0.00     0.139 C 
ATOM     14  C   UNL     1      -1.362   4.755   2.479  1.00  0.00     0.270 C 
ATOM     15  C   UNL     1      -3.211   3.639   3.204  1.00  0.00     0.030 A 
ATOM     16  O   UNL     1      -1.584   5.169   3.841  1.00  0.00    -0.490 OA
ATOM     17  C   UNL     1      -2.806   4.613   4.121  1.00  0.00     0.129 A 
ATOM     18  C   UNL     1      -4.458   3.047   3.341  1.00  0.00     0.014 A 
ATOM     19  C   UNL     1      -3.553   4.960   5.227  1.00  0.00     0.093 A 
ATOM     20  C   UNL     1      -5.257   3.420   4.434  1.00  0.00     0.047 A 
ATOM     21  C   UNL     1      -4.788   4.347   5.377  1.00  0.00     0.119 A 
BRANCH  13  22
ATOM     22  O   UNL     1      -2.590   3.414   0.879  1.00  0.00    -0.381 OA
ATOM     23  H   UNL     1      -1.857   3.264   0.262  1.00  0.00     0.212 HD
ENDBRANCH  13  22
BRANCH  21  24
ATOM     24  O   UNL     1      -5.528   4.678   6.475  1.00  0.00    -0.508 OA
ATOM     25  H   UNL     1      -5.197   5.300   7.093  1.00  0.00     0.293 HD
ENDBRANCH  21  24
ENDBRANCH   8  13
ENDBRANCH   5   8
ENDBRANCH   3   4
ENDBRANCH   2   3
ENDBRANCH   1   2
BRANCH   1  26
ATOM     26  C   UNL     1      -0.451  -3.161   5.615  1.00  0.00     0.002 C 
BRANCH  26  27
ATOM     27  C   UNL     1       0.344  -4.124   4.730  1.00  0.00     0.021 C 
BRANCH  27  28
ATOM     28  C   UNL     1       1.798  -4.305   5.158  1.00  0.00     0.116 C 
BRANCH  28  29
ATOM     29  N   UNL     1       1.888  -4.809   6.521  1.00  0.00    -0.352 N 
ATOM     30  C   UNL     1       2.350  -6.024   6.963  1.00  0.00     0.251 C 
ATOM     31  H   UNL     1       1.574  -4.194   7.222  1.00  0.00     0.163 HD
ATOM     32  O   UNL     1       2.091  -6.413   8.094  1.00  0.00    -0.269 OA
BRANCH  30  33
ATOM     33  C   UNL     1       3.160  -6.854   6.050  1.00  0.00     0.039 A 
ATOM     34  C   UNL     1       2.856  -8.209   5.907  1.00  0.00     0.014 A 
ATOM     35  C   UNL     1       4.207  -6.278   5.324  1.00  0.00     0.014 A 
ATOM     36  C   UNL     1       3.560  -8.973   4.975  1.00  0.00     0.010 A 
ATOM     37  C   UNL     1       4.858  -7.023   4.348  1.00  0.00     0.010 A 
ATOM     38  C   UNL     1       4.536  -8.375   4.159  1.00  0.00    -0.014 A 
BRANCH  38  39
ATOM     39  C   UNL     1       5.202  -9.132   3.072  1.00  0.00     0.031 A 
ATOM     40  C   UNL     1       6.685  -9.371   3.113  1.00  0.00     0.074 A 
ATOM     41  C   UNL     1       4.478  -9.528   2.006  1.00  0.00     0.049 A 
ATOM     42  N   UNL     1       7.452  -9.937   2.217  1.00  0.00    -0.248 NA
ATOM     43  C   UNL     1       7.404  -8.894   4.306  1.00  0.00     0.031 C 
ATOM     44  C   UNL     1       3.037  -9.320   1.837  1.00  0.00     0.029 A 
ATOM     45  N   UNL     1       4.854 -10.178   0.857  1.00  0.00    -0.354 N 
ATOM     46  C   UNL     1       8.742  -9.873   2.730  1.00  0.00     0.074 A 
ATOM     47  C   UNL     1       8.662  -9.172   3.993  1.00  0.00     0.031 C 
ATOM     48  C   UNL     1       2.650  -9.851   0.667  1.00  0.00     0.029 A 
ATOM     49  C   UNL     1       3.818 -10.389  -0.021  1.00  0.00     0.049 A 
ATOM     50  H   UNL     1       5.779 -10.465   0.679  1.00  0.00     0.167 HD
ATOM     51  C   UNL     1       9.887 -10.367   2.201  1.00  0.00     0.031 A 
ATOM     52  C   UNL     1       3.809 -10.937  -1.252  1.00  0.00     0.031 A 
ATOM     53  C   UNL     1       9.957 -11.060   0.942  1.00  0.00     0.049 A 
ATOM     54  C   UNL     1       5.101 -11.439  -1.836  1.00  0.00     0.074 A 
ATOM     55  C   UNL     1      11.059 -11.648   0.345  1.00  0.00     0.029 A 
ATOM     56  N   UNL     1       8.887 -11.247   0.079  1.00  0.00    -0.354 N 
ATOM     57  N   UNL     1       6.299 -11.440  -1.302  1.00  0.00    -0.248 NA
ATOM     58  C   UNL     1       5.041 -12.016  -3.186  1.00  0.00     0.031 C 
ATOM     59  C   UNL     1      10.670 -12.131  -0.907  1.00  0.00     0.029 A 
ATOM     60  C   UNL     1       9.311 -11.905  -1.063  1.00  0.00     0.049 A 
ATOM     61  H   UNL     1       7.963 -10.955   0.253  1.00  0.00     0.167 HD
ATOM     62  C   UNL     1       7.132 -12.034  -2.243  1.00  0.00     0.074 A 
ATOM     63  C   UNL     1       6.298 -12.398  -3.370  1.00  0.00     0.031 C 
ATOM     64  C   UNL     1       8.469 -12.255  -2.180  1.00  0.00     0.031 A 
BRANCH  51  65
ATOM     65  C   UNL     1      11.162 -10.164   2.978  1.00  0.00    -0.014 A 
ATOM     66  C   UNL     1      11.388 -10.834   4.195  1.00  0.00     0.010 A 
ATOM     67  C   UNL     1      12.171  -9.331   2.461  1.00  0.00     0.010 A 
ATOM     68  C   UNL     1      12.581 -10.644   4.897  1.00  0.00     0.020 A 
ATOM     69  C   UNL     1      13.378  -9.162   3.145  1.00  0.00     0.020 A 
ATOM     70  C   UNL     1      13.569  -9.808   4.368  1.00  0.00     0.054 A 
BRANCH  70  71
ATOM     71  S   UNL     1      15.117  -9.602   5.290  1.00  0.00     0.124 S 
ATOM     72  O   UNL     1      14.681  -8.806   6.435  1.00  0.00    -0.237 OA
ATOM     73  O   UNL     1      15.495 -10.980   5.591  1.00  0.00    -0.237 OA
ATOM     74  O   UNL     1      15.993  -8.909   4.349  1.00  0.00    -0.744 OA
ENDBRANCH  70  71
ENDBRANCH  51  65
BRANCH  52  75
ATOM     75  C   UNL     1       2.534 -11.029  -2.015  1.00  0.00    -0.014 A 
ATOM     76  C   UNL     1       1.935 -12.276  -2.260  1.00  0.00     0.010 A 
ATOM     77  C   UNL     1       1.901  -9.863  -2.487  1.00  0.00     0.010 A 
ATOM     78  C   UNL     1       0.736 -12.359  -2.974  1.00  0.00     0.020 A 
ATOM     79  C   UNL     1       0.687  -9.939  -3.173  1.00  0.00     0.020 A 
ATOM     80  C   UNL     1       0.117 -11.188  -3.422  1.00  0.00     0.054 A 
BRANCH  80  81
ATOM     81  S   UNL     1      -1.468 -11.316  -4.297  1.00  0.00     0.124 S 
ATOM     82  O   UNL     1      -1.061 -11.876  -5.582  1.00  0.00    -0.237 OA
ATOM     83  O   UNL     1      -2.234 -12.207  -3.430  1.00  0.00    -0.237 OA
ATOM     84  O   UNL     1      -1.947  -9.936  -4.338  1.00  0.00    -0.744 OA
ENDBRANCH  80  81
ENDBRANCH  52  75
BRANCH  64  85
ATOM     85  C   UNL     1       9.117 -12.935  -3.356  1.00  0.00    -0.014 A 
ATOM     86  C   UNL     1       9.301 -12.258  -4.574  1.00  0.00     0.010 A 
ATOM     87  C   UNL     1       9.620 -14.242  -3.215  1.00  0.00     0.010 A 
ATOM     88  C   UNL     1       9.963 -12.881  -5.636  1.00  0.00     0.020 A 
ATOM     89  C   UNL     1      10.308 -14.857  -4.263  1.00  0.00     0.020 A 
ATOM     90  C   UNL     1      10.468 -14.174  -5.471  1.00  0.00     0.054 A 
BRANCH  90  91
ATOM     91  S   UNL     1      11.385 -14.930  -6.841  1.00  0.00     0.124 S 
ATOM     92  O   UNL     1      10.324 -15.195  -7.809  1.00  0.00    -0.237 OA
ATOM     93  O   UNL     1      12.327 -13.877  -7.213  1.00  0.00    -0.237 OA
ATOM     94  O   UNL     1      11.991 -16.117  -6.241  1.00  0.00    -0.744 OA
ENDBRANCH  90  91
ENDBRANCH  64  85
ENDBRANCH  38  39
ENDBRANCH  30  33
ENDBRANCH  28  29
ENDBRANCH  27  28
ENDBRANCH  26  27
ENDBRANCH   1  26
TORSDOF 22
