REMARK SMILES O=C(CCc1cc2ccccc2s1)NCCCCCCNC(=O)c1ccc(-c2c3nc(c(-c4ccc(S(=O)(=O)[O-])cc4)c4ccc([nH]4)c(-c4ccc(S(=O)(=O)[O-])cc4)c4nc(c(-c5ccc(S(=O)(=O)[O-])cc5)c5ccc2[nH]5)C=C4)C=C3)cc1
REMARK SMILES IDX 18 1 17 2 16 3 15 4 14 5 1 6 2 7 3 9 4 10 5 11 6 12 13 13
REMARK SMILES IDX 7 14 12 15 8 16 11 17 9 18 10 19 19 20 20 21 21 22 22 23
REMARK SMILES IDX 23 25 24 26 25 27 83 28 26 29 82 30 27 31 28 32 29 33 76 34
REMARK SMILES IDX 30 35 81 36 75 37 77 38 31 39 80 40 74 41 73 42 32 44 62 45
REMARK SMILES IDX 43 46 61 47 44 48 47 49 60 50 78 51 45 52 46 53 59 55 79 56
REMARK SMILES IDX 48 57 33 58 34 59 42 60 35 61 41 62 36 63 37 64 38 65 39 66
REMARK SMILES IDX 40 67 63 68 64 69 72 70 65 71 71 72 66 73 67 74 68 75 69 76
REMARK SMILES IDX 70 77 49 78 50 79 58 80 51 81 57 82 52 83 53 84 54 85 55 86
REMARK SMILES IDX 56 87
REMARK H PARENT 14 8 21 24 77 43 47 54
REMARK Flexibility Score: inf
ROOT
ATOM      1  C   UNL     1       4.412  -3.308   2.704  1.00  0.00     0.002 C 
ENDROOT
BRANCH   1   2
ATOM      2  C   UNL     1       3.923  -3.533   1.272  1.00  0.00     0.002 C 
BRANCH   2   3
ATOM      3  C   UNL     1       2.435  -3.243   1.032  1.00  0.00     0.021 C 
BRANCH   3   4
ATOM      4  C   UNL     1       1.978  -1.829   1.405  1.00  0.00     0.116 C 
BRANCH   4   5
ATOM      5  N   UNL     1       2.730  -0.823   0.682  1.00  0.00    -0.356 N 
ATOM      6  O   UNL     1       0.961   0.494   0.058  1.00  0.00    -0.275 OA
ATOM      7  C   UNL     1       2.162   0.245   0.037  1.00  0.00     0.220 C 
ATOM      8  H   UNL     1       3.710  -0.912   0.653  1.00  0.00     0.163 HD
BRANCH   7   9
ATOM      9  C   UNL     1       3.131   1.073  -0.791  1.00  0.00     0.105 C 
BRANCH   9  10
ATOM     10  C   UNL     1       4.141   1.886   0.017  1.00  0.00     0.056 C 
BRANCH  10  11
ATOM     11  C   UNL     1       5.303   1.145   0.634  1.00  0.00     0.006 A 
ATOM     12  C   UNL     1       6.052   1.548   1.723  1.00  0.00     0.024 A 
ATOM     13  S   UNL     1       5.919  -0.319   0.003  1.00  0.00    -0.140 S 
ATOM     14  C   UNL     1       6.972   0.545   2.183  1.00  0.00    -0.007 A 
ATOM     15  C   UNL     1       6.927  -0.586   1.369  1.00  0.00     0.035 A 
ATOM     16  C   UNL     1       7.832   0.527   3.306  1.00  0.00     0.009 A 
ATOM     17  C   UNL     1       7.651  -1.752   1.683  1.00  0.00     0.019 A 
ATOM     18  C   UNL     1       8.549  -0.630   3.627  1.00  0.00     0.001 A 
ATOM     19  C   UNL     1       8.440  -1.765   2.835  1.00  0.00     0.001 A 
ENDBRANCH  10  11
ENDBRANCH   9  10
ENDBRANCH   7   9
ENDBRANCH   4   5
ENDBRANCH   3   4
ENDBRANCH   2   3
ENDBRANCH   1   2
BRANCH   1  20
ATOM     20  C   UNL     1       3.781  -4.228   3.749  1.00  0.00     0.021 C 
BRANCH  20  21
ATOM     21  C   UNL     1       4.006  -5.716   3.505  1.00  0.00     0.116 C 
BRANCH  21  22
ATOM     22  N   UNL     1       5.414  -6.086   3.515  1.00  0.00    -0.352 N 
ATOM     23  C   UNL     1       6.018  -7.175   4.101  1.00  0.00     0.251 C 
ATOM     24  H   UNL     1       6.018  -5.473   3.038  1.00  0.00     0.163 HD
ATOM     25  O   UNL     1       7.238  -7.262   4.130  1.00  0.00    -0.269 OA
BRANCH  23  26
ATOM     26  C   UNL     1       5.176  -8.223   4.721  1.00  0.00     0.039 A 
ATOM     27  C   UNL     1       5.511  -8.698   5.992  1.00  0.00     0.014 A 
ATOM     28  C   UNL     1       4.051  -8.720   4.059  1.00  0.00     0.014 A 
ATOM     29  C   UNL     1       4.680  -9.627   6.623  1.00  0.00     0.010 A 
ATOM     30  C   UNL     1       3.184  -9.585   4.720  1.00  0.00     0.010 A 
ATOM     31  C   UNL     1       3.493 -10.054   6.006  1.00  0.00    -0.014 A 
BRANCH  31  32
ATOM     32  C   UNL     1       2.574 -11.014   6.670  1.00  0.00     0.031 A 
ATOM     33  C   UNL     1       2.328 -12.363   6.047  1.00  0.00     0.074 A 
ATOM     34  C   UNL     1       1.919 -10.657   7.793  1.00  0.00     0.049 A 
ATOM     35  N   UNL     1       1.494 -13.302   6.415  1.00  0.00    -0.248 NA
ATOM     36  C   UNL     1       3.099 -12.688   4.835  1.00  0.00     0.031 C 
ATOM     37  C   UNL     1       2.038  -9.364   8.473  1.00  0.00     0.029 A 
ATOM     38  N   UNL     1       1.010 -11.348   8.556  1.00  0.00    -0.354 N 
ATOM     39  C   UNL     1       1.633 -14.319   5.476  1.00  0.00     0.074 A 
ATOM     40  C   UNL     1       2.585 -13.859   4.490  1.00  0.00     0.031 C 
ATOM     41  C   UNL     1       1.248  -9.364   9.560  1.00  0.00     0.029 A 
ATOM     42  C   UNL     1       0.540 -10.637   9.636  1.00  0.00     0.049 A 
ATOM     43  H   UNL     1       0.723 -12.267   8.349  1.00  0.00     0.167 HD
ATOM     44  C   UNL     1       1.044 -15.538   5.451  1.00  0.00     0.031 A 
ATOM     45  C   UNL     1      -0.366 -10.972  10.576  1.00  0.00     0.031 A 
ATOM     46  C   UNL     1       0.113 -16.004   6.443  1.00  0.00     0.049 A 
ATOM     47  C   UNL     1      -1.001 -12.337  10.529  1.00  0.00     0.074 A 
ATOM     48  C   UNL     1      -0.521 -17.232   6.519  1.00  0.00     0.029 A 
ATOM     49  N   UNL     1      -0.302 -15.270   7.543  1.00  0.00    -0.354 N 
ATOM     50  N   UNL     1      -0.830 -13.296   9.650  1.00  0.00    -0.248 NA
ATOM     51  C   UNL     1      -1.937 -12.672  11.611  1.00  0.00     0.031 C 
ATOM     52  C   UNL     1      -1.344 -17.229   7.650  1.00  0.00     0.029 A 
ATOM     53  C   UNL     1      -1.181 -16.019   8.305  1.00  0.00     0.049 A 
ATOM     54  H   UNL     1      -0.015 -14.351   7.750  1.00  0.00     0.167 HD
ATOM     55  C   UNL     1      -1.606 -14.360  10.097  1.00  0.00     0.074 A 
ATOM     56  C   UNL     1      -2.236 -13.932  11.328  1.00  0.00     0.031 C 
ATOM     57  C   UNL     1      -1.780 -15.584   9.540  1.00  0.00     0.031 A 
BRANCH  44  58
ATOM     58  C   UNL     1       1.412 -16.466   4.324  1.00  0.00    -0.014 A 
ATOM     59  C   UNL     1       2.689 -17.054   4.267  1.00  0.00     0.010 A 
ATOM     60  C   UNL     1       0.461 -16.797   3.342  1.00  0.00     0.010 A 
ATOM     61  C   UNL     1       3.019 -17.933   3.233  1.00  0.00     0.020 A 
ATOM     62  C   UNL     1       0.779 -17.698   2.321  1.00  0.00     0.020 A 
ATOM     63  C   UNL     1       2.061 -18.250   2.267  1.00  0.00     0.054 A 
BRANCH  63  64
ATOM     64  S   UNL     1       2.504 -19.429   0.962  1.00  0.00     0.124 S 
ATOM     65  O   UNL     1       3.403 -18.632   0.130  1.00  0.00    -0.237 OA
ATOM     66  O   UNL     1       3.137 -20.512   1.710  1.00  0.00    -0.237 OA
ATOM     67  O   UNL     1       1.222 -19.766   0.347  1.00  0.00    -0.744 OA
ENDBRANCH  63  64
ENDBRANCH  44  58
BRANCH  45  68
ATOM     68  C   UNL     1      -0.727 -10.007  11.652  1.00  0.00    -0.014 A 
ATOM     69  C   UNL     1      -0.353 -10.248  12.986  1.00  0.00     0.010 A 
ATOM     70  C   UNL     1      -1.476  -8.855  11.351  1.00  0.00     0.010 A 
ATOM     71  C   UNL     1      -0.760  -9.380  14.005  1.00  0.00     0.020 A 
ATOM     72  C   UNL     1      -1.858  -7.969  12.362  1.00  0.00     0.020 A 
ATOM     73  C   UNL     1      -1.516  -8.249  13.687  1.00  0.00     0.054 A 
BRANCH  73  74
ATOM     74  S   UNL     1      -2.029  -7.131  15.021  1.00  0.00     0.124 S 
ATOM     75  O   UNL     1      -3.117  -7.880  15.641  1.00  0.00    -0.237 OA
ATOM     76  O   UNL     1      -0.810  -7.008  15.817  1.00  0.00    -0.237 OA
ATOM     77  O   UNL     1      -2.426  -5.917  14.312  1.00  0.00    -0.744 OA
ENDBRANCH  73  74
ENDBRANCH  45  68
BRANCH  57  78
ATOM     78  C   UNL     1      -2.634 -16.572  10.288  1.00  0.00    -0.014 A 
ATOM     79  C   UNL     1      -4.031 -16.432  10.357  1.00  0.00     0.010 A 
ATOM     80  C   UNL     1      -2.024 -17.688  10.891  1.00  0.00     0.010 A 
ATOM     81  C   UNL     1      -4.799 -17.372  11.049  1.00  0.00     0.020 A 
ATOM     82  C   UNL     1      -2.792 -18.644  11.559  1.00  0.00     0.020 A 
ATOM     83  C   UNL     1      -4.174 -18.471  11.648  1.00  0.00     0.054 A 
BRANCH  83  84
ATOM     84  S   UNL     1      -5.196 -19.696  12.510  1.00  0.00     0.124 S 
ATOM     85  O   UNL     1      -5.532 -18.995  13.746  1.00  0.00    -0.237 OA
ATOM     86  O   UNL     1      -6.305 -19.900  11.581  1.00  0.00    -0.237 OA
ATOM     87  O   UNL     1      -4.304 -20.843  12.666  1.00  0.00    -0.744 OA
ENDBRANCH  83  84
ENDBRANCH  57  78
ENDBRANCH  31  32
ENDBRANCH  23  26
ENDBRANCH  21  22
ENDBRANCH  20  21
ENDBRANCH   1  20
TORSDOF 18
