REMARK SMILES Cc1cc(C)c(C(N)=O)c(N[C@H]2C=C[C@H](C(=O)NCCCCCCNC(=O)c3ccc(-c4c5nc(c(-c6ccc(S(=O)(=O)[O-])cc6)c6ccc([nH]6)c(-c6ccc(S(=O)(=O)[O-])cc6)c6nc(c(-c7ccc(S(=O)(=O)[O-])cc7)c7ccc4[nH]7)C=C6)C=C5)cc3)C2)n1
REMARK SMILES IDX 21 1 20 2 19 3 18 4 16 5 17 6 15 8 12 9 13 10 88 11 14 12
REMARK SMILES IDX 11 13 10 15 1 16 2 17 3 18 89 19 4 20 5 21 6 22 7 23 8 24
REMARK SMILES IDX 9 25 22 28 23 29 24 30 25 31 26 32 27 34 28 35 29 36 87 37
REMARK SMILES IDX 30 38 86 39 31 40 32 41 33 42 80 43 34 44 85 45 79 46 81 47
REMARK SMILES IDX 35 48 84 49 78 50 77 51 36 53 66 54 47 55 65 56 48 57 51 58
REMARK SMILES IDX 64 59 82 60 49 61 50 62 63 64 83 65 52 66 37 67 38 68 46 69
REMARK SMILES IDX 39 70 45 71 40 72 41 73 42 74 43 75 44 76 67 77 68 78 76 79
REMARK SMILES IDX 69 80 75 81 70 82 71 83 72 84 73 85 74 86 53 87 54 88 62 89
REMARK SMILES IDX 55 90 61 91 56 92 57 93 58 94 59 95 60 96
REMARK H PARENT 18 7 11 14 8 26 8 27 25 33 81 52 51 63
REMARK Flexibility Score: inf
ROOT
ATOM      1  C   UNL     1      -8.920  -3.546  -1.323  1.00  0.00     0.002 C 
ENDROOT
BRANCH   1   2
ATOM      2  C   UNL     1      -7.842  -2.478  -1.116  1.00  0.00     0.021 C 
BRANCH   2   3
ATOM      3  C   UNL     1      -6.616  -2.953  -0.345  1.00  0.00     0.116 C 
BRANCH   3   4
ATOM      4  N   UNL     1      -5.959  -4.062  -1.008  1.00  0.00    -0.356 N 
ATOM      5  C   UNL     1      -4.627  -4.250  -1.239  1.00  0.00     0.227 C 
ATOM      6  O   UNL     1      -4.269  -5.312  -1.750  1.00  0.00    -0.274 OA
ATOM      7  H   UNL     1      -6.553  -4.776  -1.335  1.00  0.00     0.163 HD
BRANCH   5   8
ATOM      8  C   UNL     1      -3.656  -3.139  -0.852  1.00  0.00     0.103 C 
ATOM      9  C   UNL     1      -1.379  -3.784  -0.229  1.00  0.00     0.104 C 
ATOM     10  C   UNL     1      -2.207  -3.498   0.976  1.00  0.00    -0.006 C 
ATOM     11  C   UNL     1      -2.248  -3.375  -1.421  1.00  0.00     0.046 C 
ATOM     12  C   UNL     1      -3.450  -3.142   0.639  1.00  0.00    -0.016 C 
BRANCH   9  13
ATOM     13  N   UNL     1      -0.096  -3.104  -0.200  1.00  0.00    -0.363 N 
ATOM     14  H   UNL     1       0.719  -3.653  -0.263  1.00  0.00     0.162 HD
BRANCH  13  15
ATOM     15  C   UNL     1       0.053  -1.722  -0.089  1.00  0.00     0.139 A 
ATOM     16  C   UNL     1      -2.279   1.131   0.070  1.00  0.00     0.067 C 
ATOM     17  C   UNL     1      -0.989   0.368   0.055  1.00  0.00     0.040 A 
ATOM     18  C   UNL     1       0.226   1.027   0.087  1.00  0.00     0.028 A 
ATOM     19  N   UNL     1      -1.072  -0.974  -0.020  1.00  0.00    -0.236 NA
ATOM     20  C   UNL     1       1.415   0.284   0.057  1.00  0.00    -0.033 A 
ATOM     21  C   UNL     1       2.699   1.065   0.091  1.00  0.00     0.045 C 
ATOM     22  C   UNL     1       1.329  -1.122  -0.038  1.00  0.00     0.084 A 
BRANCH  22  23
ATOM     23  C   UNL     1       2.563  -1.959  -0.142  1.00  0.00     0.252 C 
ATOM     24  N   UNL     1       2.536  -3.193   0.452  1.00  0.00    -0.365 N 
ATOM     25  O   UNL     1       3.565  -1.592  -0.741  1.00  0.00    -0.269 OA
ATOM     26  H   UNL     1       1.731  -3.490   0.934  1.00  0.00     0.159 HD
ATOM     27  H   UNL     1       3.322  -3.784   0.395  1.00  0.00     0.159 HD
ENDBRANCH  22  23
ENDBRANCH  13  15
ENDBRANCH   9  13
ENDBRANCH   5   8
ENDBRANCH   3   4
ENDBRANCH   2   3
ENDBRANCH   1   2
BRANCH   1  28
ATOM     28  C   UNL     1      -9.411  -4.236  -0.048  1.00  0.00     0.002 C 
BRANCH  28  29
ATOM     29  C   UNL     1      -9.931  -3.296   1.041  1.00  0.00     0.021 C 
BRANCH  29  30
ATOM     30  C   UNL     1     -11.031  -2.342   0.592  1.00  0.00     0.116 C 
BRANCH  30  31
ATOM     31  N   UNL     1     -12.215  -3.044   0.126  1.00  0.00    -0.352 N 
ATOM     32  C   UNL     1     -13.527  -2.868   0.490  1.00  0.00     0.251 C 
ATOM     33  H   UNL     1     -12.054  -3.746  -0.546  1.00  0.00     0.163 HD
ATOM     34  O   UNL     1     -14.379  -3.672   0.126  1.00  0.00    -0.269 OA
BRANCH  32  35
ATOM     35  C   UNL     1     -13.903  -1.720   1.344  1.00  0.00     0.039 A 
ATOM     36  C   UNL     1     -14.763  -1.935   2.423  1.00  0.00     0.014 A 
ATOM     37  C   UNL     1     -13.405  -0.440   1.085  1.00  0.00     0.014 A 
ATOM     38  C   UNL     1     -15.077  -0.876   3.277  1.00  0.00     0.010 A 
ATOM     39  C   UNL     1     -13.658   0.596   1.981  1.00  0.00     0.010 A 
ATOM     40  C   UNL     1     -14.501   0.391   3.083  1.00  0.00    -0.014 A 
BRANCH  40  41
ATOM     41  C   UNL     1     -14.765   1.508   4.027  1.00  0.00     0.031 A 
ATOM     42  C   UNL     1     -15.466   2.752   3.551  1.00  0.00     0.074 A 
ATOM     43  C   UNL     1     -14.325   1.424   5.298  1.00  0.00     0.049 A 
ATOM     44  N   UNL     1     -15.746   3.845   4.215  1.00  0.00    -0.248 NA
ATOM     45  C   UNL     1     -15.888   2.784   2.141  1.00  0.00     0.031 C 
ATOM     46  C   UNL     1     -13.599   0.288   5.871  1.00  0.00     0.029 A 
ATOM     47  N   UNL     1     -14.422   2.313   6.340  1.00  0.00    -0.354 N 
ATOM     48  C   UNL     1     -16.361   4.695   3.304  1.00  0.00     0.074 A 
ATOM     49  C   UNL     1     -16.367   4.014   2.028  1.00  0.00     0.031 C 
ATOM     50  C   UNL     1     -13.343   0.536   7.166  1.00  0.00     0.029 A 
ATOM     51  C   UNL     1     -13.845   1.864   7.505  1.00  0.00     0.049 A 
ATOM     52  H   UNL     1     -14.863   3.190   6.261  1.00  0.00     0.167 HD
ATOM     53  C   UNL     1     -16.892   5.924   3.514  1.00  0.00     0.031 A 
ATOM     54  C   UNL     1     -13.725   2.455   8.710  1.00  0.00     0.031 A 
ATOM     55  C   UNL     1     -16.890   6.596   4.787  1.00  0.00     0.049 A 
ATOM     56  C   UNL     1     -14.305   3.828   8.913  1.00  0.00     0.074 A 
ATOM     57  C   UNL     1     -17.450   7.819   5.114  1.00  0.00     0.029 A 
ATOM     58  N   UNL     1     -16.297   6.106   5.941  1.00  0.00    -0.354 N 
ATOM     59  N   UNL     1     -14.944   4.588   8.055  1.00  0.00    -0.248 NA
ATOM     60  C   UNL     1     -14.160   4.419  10.251  1.00  0.00     0.031 C 
ATOM     61  C   UNL     1     -17.142   8.097   6.449  1.00  0.00     0.029 A 
ATOM     62  C   UNL     1     -16.452   7.016   6.974  1.00  0.00     0.049 A 
ATOM     63  H   UNL     1     -15.835   5.240   6.015  1.00  0.00     0.167 HD
ATOM     64  C   UNL     1     -15.302   5.734   8.758  1.00  0.00     0.074 A 
ATOM     65  C   UNL     1     -14.824   5.559  10.114  1.00  0.00     0.031 C 
ATOM     66  C   UNL     1     -15.969   6.830   8.320  1.00  0.00     0.031 A 
BRANCH  53  67
ATOM     67  C   UNL     1     -17.515   6.627   2.335  1.00  0.00    -0.014 A 
ATOM     68  C   UNL     1     -18.709   6.160   1.755  1.00  0.00     0.010 A 
ATOM     69  C   UNL     1     -16.923   7.799   1.828  1.00  0.00     0.010 A 
ATOM     70  C   UNL     1     -19.276   6.827   0.665  1.00  0.00     0.020 A 
ATOM     71  C   UNL     1     -17.504   8.487   0.758  1.00  0.00     0.020 A 
ATOM     72  C   UNL     1     -18.668   7.986   0.173  1.00  0.00     0.054 A 
BRANCH  72  73
ATOM     73  S   UNL     1     -19.441   8.844  -1.225  1.00  0.00     0.124 S 
ATOM     74  O   UNL     1     -19.171   7.925  -2.329  1.00  0.00    -0.237 OA
ATOM     75  O   UNL     1     -20.839   8.934  -0.812  1.00  0.00    -0.237 OA
ATOM     76  O   UNL     1     -18.729  10.118  -1.288  1.00  0.00    -0.744 OA
ENDBRANCH  72  73
ENDBRANCH  53  67
BRANCH  54  77
ATOM     77  C   UNL     1     -13.033   1.745   9.822  1.00  0.00    -0.014 A 
ATOM     78  C   UNL     1     -13.755   1.288  10.939  1.00  0.00     0.010 A 
ATOM     79  C   UNL     1     -11.646   1.516   9.766  1.00  0.00     0.010 A 
ATOM     80  C   UNL     1     -13.100   0.634  11.987  1.00  0.00     0.020 A 
ATOM     81  C   UNL     1     -10.993   0.835  10.797  1.00  0.00     0.020 A 
ATOM     82  C   UNL     1     -11.723   0.409  11.908  1.00  0.00     0.054 A 
BRANCH  82  83
ATOM     83  S   UNL     1     -10.903  -0.482  13.258  1.00  0.00     0.124 S 
ATOM     84  O   UNL     1     -10.915   0.509  14.328  1.00  0.00    -0.237 OA
ATOM     85  O   UNL     1     -11.779  -1.635  13.451  1.00  0.00    -0.237 OA
ATOM     86  O   UNL     1      -9.585  -0.796  12.709  1.00  0.00    -0.744 OA
ENDBRANCH  82  83
ENDBRANCH  54  77
BRANCH  66  87
ATOM     87  C   UNL     1     -16.258   7.915   9.324  1.00  0.00    -0.014 A 
ATOM     88  C   UNL     1     -15.234   8.734   9.833  1.00  0.00     0.010 A 
ATOM     89  C   UNL     1     -17.587   8.153   9.723  1.00  0.00     0.010 A 
ATOM     90  C   UNL     1     -15.530   9.748  10.749  1.00  0.00     0.020 A 
ATOM     91  C   UNL     1     -17.891   9.186  10.613  1.00  0.00     0.020 A 
ATOM     92  C   UNL     1     -16.857   9.968  11.132  1.00  0.00     0.054 A 
BRANCH  92  93
ATOM     93  S   UNL     1     -17.219  11.318  12.287  1.00  0.00     0.124 S 
ATOM     94  O   UNL     1     -16.700  10.788  13.546  1.00  0.00    -0.237 OA
ATOM     95  O   UNL     1     -16.469  12.435  11.719  1.00  0.00    -0.237 OA
ATOM     96  O   UNL     1     -18.672  11.452  12.220  1.00  0.00    -0.744 OA
ENDBRANCH  92  93
ENDBRANCH  66  87
ENDBRANCH  40  41
ENDBRANCH  32  35
ENDBRANCH  30  31
ENDBRANCH  29  30
ENDBRANCH  28  29
ENDBRANCH   1  28
TORSDOF 19
