REMARK SMILES CC(C)(C)c1csc(C[NH2+][C@H]2CCC[C@@H](C(=O)NCCCCCCNC(=O)c3ccc(-c4c5nc(c(-c6ccc(S(=O)(=O)[O-])cc6)c6ccc([nH]6)c(-c6ccc(S(=O)(=O)[O-])cc6)c6nc(c(-c7ccc(S(=O)(=O)[O-])cc7)c7ccc4[nH]7)C=C6)C=C5)cc3)C2)n1
REMARK SMILES IDX 21 1 20 2 19 3 18 4 16 5 17 6 15 8 11 9 12 10 88 11 13 12
REMARK SMILES IDX 14 13 10 14 9 17 8 18 5 19 6 20 89 21 7 22 2 23 1 24 3 25
REMARK SMILES IDX 4 26 22 27 23 28 24 29 25 30 26 31 27 33 28 34 29 35 87 36
REMARK SMILES IDX 30 37 86 38 31 39 32 40 33 41 80 42 34 43 85 44 79 45 81 46
REMARK SMILES IDX 35 47 84 48 78 49 77 50 36 52 66 53 47 54 65 55 48 56 51 57
REMARK SMILES IDX 64 58 82 59 49 60 50 61 63 63 83 64 52 65 37 66 38 67 46 68
REMARK SMILES IDX 39 69 45 70 40 71 41 72 42 73 43 74 44 75 67 76 68 77 76 78
REMARK SMILES IDX 69 79 75 80 70 81 71 82 72 83 73 84 74 85 53 86 54 87 62 88
REMARK SMILES IDX 55 89 61 90 56 91 57 92 58 93 59 94 60 95
REMARK H PARENT 18 7 10 15 10 16 25 32 81 51 51 62
REMARK Flexibility Score: inf
ROOT
ATOM      1  C   UNL     1       9.633  -2.161   7.948  1.00  0.00     0.002 C 
ENDROOT
BRANCH   1   2
ATOM      2  C   UNL     1       8.270  -2.393   8.619  1.00  0.00     0.021 C 
BRANCH   2   3
ATOM      3  C   UNL     1       7.126  -2.620   7.630  1.00  0.00     0.116 C 
BRANCH   3   4
ATOM      4  N   UNL     1       7.383  -3.817   6.855  1.00  0.00    -0.356 N 
ATOM      5  C   UNL     1       6.758  -5.022   6.894  1.00  0.00     0.223 C 
ATOM      6  O   UNL     1       7.314  -5.981   6.355  1.00  0.00    -0.275 OA
ATOM      7  H   UNL     1       8.118  -3.747   6.204  1.00  0.00     0.163 HD
BRANCH   5   8
ATOM      8  C   UNL     1       5.356  -5.120   7.484  1.00  0.00     0.084 C 
ATOM      9  C   UNL     1       4.021  -5.389   5.280  1.00  0.00     0.183 C 
ATOM     10  C   UNL     1       3.558  -6.766   5.779  1.00  0.00     0.065 C 
ATOM     11  C   UNL     1       4.335  -4.501   6.508  1.00  0.00     0.078 C 
ATOM     12  C   UNL     1       4.590  -7.445   6.674  1.00  0.00     0.007 C 
ATOM     13  C   UNL     1       4.986  -6.563   7.859  1.00  0.00     0.014 C 
BRANCH   9  14
ATOM     14  N   UNL     1       5.185  -5.419   4.389  1.00  0.00    -0.338 N 
ATOM     15  H   UNL     1       5.449  -4.456   4.181  1.00  0.00     0.346 HD
ATOM     16  H   UNL     1       5.908  -5.941   4.885  1.00  0.00     0.346 HD
BRANCH  14  17
ATOM     17  C   UNL     1       4.979  -6.118   3.117  1.00  0.00     0.329 C 
BRANCH  17  18
ATOM     18  C   UNL     1       6.241  -6.113   2.286  1.00  0.00     0.147 A 
ATOM     19  C   UNL     1       8.125  -6.831   1.332  1.00  0.00     0.057 A 
ATOM     20  C   UNL     1       8.151  -5.505   0.935  1.00  0.00     0.091 A 
ATOM     21  N   UNL     1       7.005  -7.169   2.084  1.00  0.00    -0.240 NA
ATOM     22  S   UNL     1       6.782  -4.667   1.530  1.00  0.00    -0.121 S 
BRANCH  19  23
ATOM     23  C   UNL     1       9.136  -7.917   0.987  1.00  0.00     0.005 C 
ATOM     24  C   UNL     1       8.765  -8.541  -0.372  1.00  0.00     0.017 C 
ATOM     25  C   UNL     1       9.143  -9.030   2.055  1.00  0.00     0.017 C 
ATOM     26  C   UNL     1      10.569  -7.351   0.898  1.00  0.00     0.017 C 
ENDBRANCH  19  23
ENDBRANCH  17  18
ENDBRANCH  14  17
ENDBRANCH   9  14
ENDBRANCH   5   8
ENDBRANCH   3   4
ENDBRANCH   2   3
ENDBRANCH   1   2
BRANCH   1  27
ATOM     27  C   UNL     1       9.676  -0.986   6.965  1.00  0.00     0.002 C 
BRANCH  27  28
ATOM     28  C   UNL     1       9.244   0.356   7.557  1.00  0.00     0.021 C 
BRANCH  28  29
ATOM     29  C   UNL     1      10.054   0.797   8.769  1.00  0.00     0.116 C 
BRANCH  29  30
ATOM     30  N   UNL     1      11.448   1.044   8.436  1.00  0.00    -0.352 N 
ATOM     31  C   UNL     1      12.216   2.147   8.722  1.00  0.00     0.251 C 
ATOM     32  H   UNL     1      11.902   0.326   7.939  1.00  0.00     0.163 HD
ATOM     33  O   UNL     1      13.322   2.283   8.208  1.00  0.00    -0.269 OA
BRANCH  31  34
ATOM     34  C   UNL     1      11.684   3.179   9.636  1.00  0.00     0.039 A 
ATOM     35  C   UNL     1      11.772   4.524   9.272  1.00  0.00     0.014 A 
ATOM     36  C   UNL     1      11.080   2.811  10.842  1.00  0.00     0.014 A 
ATOM     37  C   UNL     1      11.201   5.499  10.093  1.00  0.00     0.010 A 
ATOM     38  C   UNL     1      10.446   3.775  11.617  1.00  0.00     0.010 A 
ATOM     39  C   UNL     1      10.507   5.130  11.256  1.00  0.00    -0.014 A 
BRANCH  39  40
ATOM     40  C   UNL     1       9.848   6.138  12.123  1.00  0.00     0.031 A 
ATOM     41  C   UNL     1      10.315   6.328  13.541  1.00  0.00     0.074 A 
ATOM     42  C   UNL     1       8.784   6.826  11.665  1.00  0.00     0.049 A 
ATOM     43  N   UNL     1       9.823   7.098  14.477  1.00  0.00    -0.248 NA
ATOM     44  C   UNL     1      11.470   5.523  13.971  1.00  0.00     0.031 C 
ATOM     45  C   UNL     1       8.218   6.716  10.318  1.00  0.00     0.029 A 
ATOM     46  N   UNL     1       7.983   7.753  12.285  1.00  0.00    -0.354 N 
ATOM     47  C   UNL     1      10.587   6.849  15.611  1.00  0.00     0.074 A 
ATOM     48  C   UNL     1      11.544   5.823  15.259  1.00  0.00     0.031 C 
ATOM     49  C   UNL     1       7.188   7.569  10.204  1.00  0.00     0.029 A 
ATOM     50  C   UNL     1       6.986   8.249  11.479  1.00  0.00     0.049 A 
ATOM     51  H   UNL     1       8.111   8.035  13.220  1.00  0.00     0.167 HD
ATOM     52  C   UNL     1      10.510   7.430  16.832  1.00  0.00     0.031 A 
ATOM     53  C   UNL     1       6.016   9.148  11.739  1.00  0.00     0.031 A 
ATOM     54  C   UNL     1       9.563   8.458  17.174  1.00  0.00     0.049 A 
ATOM     55  C   UNL     1       5.934   9.765  13.108  1.00  0.00     0.074 A 
ATOM     56  C   UNL     1       9.445   9.159  18.360  1.00  0.00     0.029 A 
ATOM     57  N   UNL     1       8.565   8.926  16.331  1.00  0.00    -0.354 N 
ATOM     58  N   UNL     1       6.705   9.565  14.150  1.00  0.00    -0.248 NA
ATOM     59  C   UNL     1       4.853  10.735  13.334  1.00  0.00     0.031 C 
ATOM     60  C   UNL     1       8.337  10.007  18.258  1.00  0.00     0.029 A 
ATOM     61  C   UNL     1       7.807   9.884  16.983  1.00  0.00     0.049 A 
ATOM     62  H   UNL     1       8.418   8.622  15.406  1.00  0.00     0.167 HD
ATOM     63  C   UNL     1       6.228  10.412  15.143  1.00  0.00     0.074 A 
ATOM     64  C   UNL     1       5.101  11.127  14.577  1.00  0.00     0.031 C 
ATOM     65  C   UNL     1       6.688  10.589  16.407  1.00  0.00     0.031 A 
BRANCH  52  66
ATOM     66  C   UNL     1      11.460   6.940  17.895  1.00  0.00    -0.014 A 
ATOM     67  C   UNL     1      12.847   7.164  17.802  1.00  0.00     0.010 A 
ATOM     68  C   UNL     1      10.956   6.245  19.009  1.00  0.00     0.010 A 
ATOM     69  C   UNL     1      13.715   6.646  18.766  1.00  0.00     0.020 A 
ATOM     70  C   UNL     1      11.818   5.754  19.994  1.00  0.00     0.020 A 
ATOM     71  C   UNL     1      13.195   5.935  19.852  1.00  0.00     0.054 A 
BRANCH  71  72
ATOM     72  S   UNL     1      14.344   5.259  21.081  1.00  0.00     0.124 S 
ATOM     73  O   UNL     1      14.939   4.141  20.351  1.00  0.00    -0.237 OA
ATOM     74  O   UNL     1      15.237   6.385  21.340  1.00  0.00    -0.237 OA
ATOM     75  O   UNL     1      13.479   4.883  22.196  1.00  0.00    -0.744 OA
ENDBRANCH  71  72
ENDBRANCH  52  66
BRANCH  53  76
ATOM     76  C   UNL     1       5.072   9.548  10.660  1.00  0.00    -0.014 A 
ATOM     77  C   UNL     1       5.163  10.825  10.080  1.00  0.00     0.010 A 
ATOM     78  C   UNL     1       4.102   8.648  10.181  1.00  0.00     0.010 A 
ATOM     79  C   UNL     1       4.301  11.198   9.046  1.00  0.00     0.020 A 
ATOM     80  C   UNL     1       3.255   9.008   9.129  1.00  0.00     0.020 A 
ATOM     81  C   UNL     1       3.356  10.284   8.572  1.00  0.00     0.054 A 
BRANCH  81  82
ATOM     82  S   UNL     1       2.298  10.768   7.179  1.00  0.00     0.124 S 
ATOM     83  O   UNL     1       1.405  11.742   7.800  1.00  0.00    -0.237 OA
ATOM     84  O   UNL     1       3.262  11.310   6.226  1.00  0.00    -0.237 OA
ATOM     85  O   UNL     1       1.671   9.512   6.774  1.00  0.00    -0.744 OA
ENDBRANCH  81  82
ENDBRANCH  53  76
BRANCH  65  86
ATOM     86  C   UNL     1       6.008  11.628  17.259  1.00  0.00    -0.014 A 
ATOM     87  C   UNL     1       4.722  11.419  17.786  1.00  0.00     0.010 A 
ATOM     88  C   UNL     1       6.705  12.803  17.597  1.00  0.00     0.010 A 
ATOM     89  C   UNL     1       4.137  12.377  18.619  1.00  0.00     0.020 A 
ATOM     90  C   UNL     1       6.136  13.749  18.453  1.00  0.00     0.020 A 
ATOM     91  C   UNL     1       4.850  13.535  18.950  1.00  0.00     0.054 A 
BRANCH  91  92
ATOM     92  S   UNL     1       4.093  14.732  20.084  1.00  0.00     0.124 S 
ATOM     93  O   UNL     1       3.067  15.341  19.242  1.00  0.00    -0.237 OA
ATOM     94  O   UNL     1       3.598  13.882  21.164  1.00  0.00    -0.237 OA
ATOM     95  O   UNL     1       5.201  15.611  20.450  1.00  0.00    -0.744 OA
ENDBRANCH  91  92
ENDBRANCH  65  86
ENDBRANCH  39  40
ENDBRANCH  31  34
ENDBRANCH  29  30
ENDBRANCH  28  29
ENDBRANCH  27  28
ENDBRANCH   1  27
TORSDOF 20
