REMARK SMILES Cc1ccc(-c2csc(NC(=O)[C@H]3[C@@H](C(=O)NCCCCCCNC(=O)c4ccc(-c5c6nc(c(-c7ccc(S(=O)(=O)[O-])cc7)c7ccc([nH]7)c(-c7ccc(S(=O)(=O)[O-])cc7)c7nc(c(-c8ccc(S(=O)(=O)[O-])cc8)c8ccc5[nH]8)C=C7)C=C6)cc4)[C@H]4C=C[C@@H]3C4)c2C(=O)NC2CC2)cc1
REMARK SMILES IDX 20 1 19 2 18 3 17 4 15 5 16 6 14 8 13 9 90 10 87 11 89 12
REMARK SMILES IDX 91 13 88 14 11 15 10 16 12 18 9 19 6 20 7 21 92 22 8 23 5 24
REMARK SMILES IDX 1 25 2 26 3 27 100 28 4 29 99 30 93 31 94 32 95 33 96 35
REMARK SMILES IDX 97 36 98 37 21 38 22 39 23 40 24 41 25 42 26 44 27 45 28 46
REMARK SMILES IDX 86 47 29 48 85 49 30 50 31 51 32 52 79 53 33 54 84 55 78 56
REMARK SMILES IDX 80 57 34 58 83 59 77 60 76 61 35 63 65 64 46 65 64 66 47 67
REMARK SMILES IDX 50 68 63 69 81 70 48 71 49 72 62 74 82 75 51 76 36 77 37 78
REMARK SMILES IDX 45 79 38 80 44 81 39 82 40 83 41 84 42 85 43 86 66 87 67 88
REMARK SMILES IDX 75 89 68 90 74 91 69 92 70 93 71 94 72 95 73 96 52 97 53 98
REMARK SMILES IDX 61 99 54 100 60 101 55 102 56 103 57 104 58 105 59 106
REMARK H PARENT 17 7 10 17 95 34 24 43 80 62 50 73
REMARK Flexibility Score: inf
ROOT
ATOM      1  C   UNL     1      -2.277   0.344  -0.782  1.00  0.00     0.002 C 
ENDROOT
BRANCH   1   2
ATOM      2  C   UNL     1      -3.407   0.394   0.255  1.00  0.00     0.021 C 
BRANCH   2   3
ATOM      3  C   UNL     1      -4.415   1.526   0.063  1.00  0.00     0.116 C 
BRANCH   3   4
ATOM      4  N   UNL     1      -5.186   1.355  -1.153  1.00  0.00    -0.356 N 
ATOM      5  C   UNL     1      -6.524   1.178  -1.349  1.00  0.00     0.224 C 
ATOM      6  O   UNL     1      -6.912   0.996  -2.504  1.00  0.00    -0.275 OA
ATOM      7  H   UNL     1      -4.652   1.369  -1.980  1.00  0.00     0.163 HD
BRANCH   5   8
ATOM      8  C   UNL     1      -7.483   1.352  -0.173  1.00  0.00     0.098 C 
ATOM      9  C   UNL     1      -8.649   0.309   0.043  1.00  0.00     0.099 C 
ATOM     10  C   UNL     1      -9.898   1.229  -0.068  1.00  0.00     0.025 C 
ATOM     11  C   UNL     1      -8.246   2.703  -0.326  1.00  0.00     0.025 C 
ATOM     12  C   UNL     1     -10.030   1.790  -1.456  1.00  0.00    -0.027 C 
ATOM     13  C   UNL     1      -9.393   2.489   0.655  1.00  0.00     0.017 C 
ATOM     14  C   UNL     1      -9.061   2.703  -1.602  1.00  0.00    -0.027 C 
BRANCH   9  15
ATOM     15  C   UNL     1      -8.538  -0.961  -0.801  1.00  0.00     0.229 C 
ATOM     16  N   UNL     1      -9.627  -1.678  -1.199  1.00  0.00    -0.317 N 
ATOM     17  H   UNL     1      -9.488  -2.228  -2.004  1.00  0.00     0.170 HD
ATOM     18  O   UNL     1      -7.430  -1.423  -1.096  1.00  0.00    -0.274 OA
BRANCH  16  19
ATOM     19  C   UNL     1     -10.892  -1.757  -0.654  1.00  0.00     0.108 A 
ATOM     20  C   UNL     1     -13.188  -1.904  -0.357  1.00  0.00     0.007 A 
ATOM     21  C   UNL     1     -12.729  -1.597   0.915  1.00  0.00     0.076 A 
ATOM     22  C   UNL     1     -12.088  -2.079  -1.306  1.00  0.00     0.082 A 
ATOM     23  S   UNL     1     -11.043  -1.681   1.036  1.00  0.00    -0.125 S 
BRANCH  20  24
ATOM     24  C   UNL     1     -14.633  -2.055  -0.482  1.00  0.00    -0.017 A 
ATOM     25  C   UNL     1     -18.687  -3.196  -1.298  1.00  0.00     0.044 C 
ATOM     26  C   UNL     1     -17.341  -2.684  -0.879  1.00  0.00    -0.051 A 
ATOM     27  C   UNL     1     -16.569  -3.450  -0.005  1.00  0.00     0.004 A 
ATOM     28  C   UNL     1     -16.781  -1.532  -1.458  1.00  0.00     0.004 A 
ATOM     29  C   UNL     1     -15.237  -3.118   0.214  1.00  0.00     0.009 A 
ATOM     30  C   UNL     1     -15.427  -1.214  -1.261  1.00  0.00     0.009 A 
ENDBRANCH  20  24
BRANCH  22  31
ATOM     31  C   UNL     1     -12.031  -2.290  -2.762  1.00  0.00     0.255 C 
ATOM     32  O   UNL     1     -11.362  -1.513  -3.456  1.00  0.00    -0.269 OA
ATOM     33  N   UNL     1     -12.527  -3.355  -3.477  1.00  0.00    -0.349 N 
ATOM     34  H   UNL     1     -12.224  -3.312  -4.413  1.00  0.00     0.164 HD
BRANCH  33  35
ATOM     35  C   UNL     1     -13.343  -4.497  -3.272  1.00  0.00     0.082 C 
ATOM     36  C   UNL     1     -13.905  -5.008  -1.997  1.00  0.00     0.027 C 
ATOM     37  C   UNL     1     -14.793  -4.279  -2.972  1.00  0.00     0.027 C 
ENDBRANCH  33  35
ENDBRANCH  22  31
ENDBRANCH  16  19
ENDBRANCH   9  15
ENDBRANCH   5   8
ENDBRANCH   3   4
ENDBRANCH   2   3
ENDBRANCH   1   2
BRANCH   1  38
ATOM     38  C   UNL     1      -1.522   1.657  -1.042  1.00  0.00     0.002 C 
BRANCH  38  39
ATOM     39  C   UNL     1      -0.985   2.387   0.188  1.00  0.00     0.021 C 
BRANCH  39  40
ATOM     40  C   UNL     1       0.150   1.659   0.893  1.00  0.00     0.116 C 
BRANCH  40  41
ATOM     41  N   UNL     1       1.476   2.235   0.668  1.00  0.00    -0.352 N 
ATOM     42  C   UNL     1       2.657   1.953   1.334  1.00  0.00     0.251 C 
ATOM     43  H   UNL     1       1.536   2.909  -0.047  1.00  0.00     0.163 HD
ATOM     44  O   UNL     1       3.694   2.598   1.187  1.00  0.00    -0.269 OA
BRANCH  42  45
ATOM     45  C   UNL     1       2.702   0.706   2.116  1.00  0.00     0.039 A 
ATOM     46  C   UNL     1       3.521  -0.313   1.612  1.00  0.00     0.014 A 
ATOM     47  C   UNL     1       1.686   0.443   3.029  1.00  0.00     0.014 A 
ATOM     48  C   UNL     1       3.152  -1.629   1.828  1.00  0.00     0.010 A 
ATOM     49  C   UNL     1       1.234  -0.849   3.120  1.00  0.00     0.010 A 
ATOM     50  C   UNL     1       1.942  -1.866   2.479  1.00  0.00    -0.014 A 
BRANCH  50  51
ATOM     51  C   UNL     1       1.362  -3.186   2.582  1.00  0.00     0.031 A 
ATOM     52  C   UNL     1       1.715  -3.954   3.782  1.00  0.00     0.074 A 
ATOM     53  C   UNL     1       0.598  -3.674   1.586  1.00  0.00     0.049 A 
ATOM     54  N   UNL     1       1.925  -5.221   3.797  1.00  0.00    -0.248 NA
ATOM     55  C   UNL     1       1.968  -3.303   5.068  1.00  0.00     0.031 C 
ATOM     56  C   UNL     1      -0.129  -4.936   1.548  1.00  0.00     0.029 A 
ATOM     57  N   UNL     1       0.510  -3.197   0.287  1.00  0.00    -0.354 N 
ATOM     58  C   UNL     1       2.036  -5.584   5.120  1.00  0.00     0.074 A 
ATOM     59  C   UNL     1       2.183  -4.355   5.859  1.00  0.00     0.031 C 
ATOM     60  C   UNL     1      -0.364  -5.256   0.261  1.00  0.00     0.029 A 
ATOM     61  C   UNL     1       0.310  -4.270  -0.577  1.00  0.00     0.049 A 
ATOM     62  H   UNL     1       0.579  -2.252   0.020  1.00  0.00     0.167 HD
ATOM     63  C   UNL     1       1.798  -6.872   5.479  1.00  0.00     0.031 A 
ATOM     64  C   UNL     1       1.265  -4.577  -1.504  1.00  0.00     0.031 A 
ATOM     65  C   UNL     1       1.488  -7.681   4.305  1.00  0.00     0.049 A 
ATOM     66  C   UNL     1       1.968  -5.888  -1.200  1.00  0.00     0.074 A 
ATOM     67  C   UNL     1       0.283  -8.030   3.717  1.00  0.00     0.029 A 
ATOM     68  N   UNL     1       2.470  -7.878   3.340  1.00  0.00    -0.354 N 
ATOM     69  N   UNL     1       2.011  -6.442  -0.015  1.00  0.00    -0.248 NA
ATOM     70  C   UNL     1       2.620  -6.711  -2.215  1.00  0.00     0.031 C 
ATOM     71  C   UNL     1       0.537  -8.345   2.356  1.00  0.00     0.029 A 
ATOM     72  C   UNL     1       1.897  -8.225   2.129  1.00  0.00     0.049 A 
ATOM     73  H   UNL     1       3.437  -7.782   3.496  1.00  0.00     0.167 HD
ATOM     74  C   UNL     1       2.616  -7.673  -0.097  1.00  0.00     0.074 A 
ATOM     75  C   UNL     1       2.988  -7.788  -1.497  1.00  0.00     0.031 C 
ATOM     76  C   UNL     1       2.739  -8.517   0.975  1.00  0.00     0.031 A 
BRANCH  63  77
ATOM     77  C   UNL     1       1.483  -7.242   6.903  1.00  0.00    -0.014 A 
ATOM     78  C   UNL     1       0.483  -8.198   7.162  1.00  0.00     0.010 A 
ATOM     79  C   UNL     1       2.090  -6.639   8.024  1.00  0.00     0.010 A 
ATOM     80  C   UNL     1       0.052  -8.481   8.465  1.00  0.00     0.020 A 
ATOM     81  C   UNL     1       1.640  -6.883   9.331  1.00  0.00     0.020 A 
ATOM     82  C   UNL     1       0.620  -7.806   9.542  1.00  0.00     0.054 A 
BRANCH  82  83
ATOM     83  S   UNL     1       0.019  -8.167  11.213  1.00  0.00     0.124 S 
ATOM     84  O   UNL     1      -1.418  -7.933  11.091  1.00  0.00    -0.237 OA
ATOM     85  O   UNL     1       0.418  -9.560  11.392  1.00  0.00    -0.237 OA
ATOM     86  O   UNL     1       0.729  -7.204  12.053  1.00  0.00    -0.744 OA
ENDBRANCH  82  83
ENDBRANCH  63  77
BRANCH  64  87
ATOM     87  C   UNL     1       1.814  -3.385  -2.227  1.00  0.00    -0.014 A 
ATOM     88  C   UNL     1       0.981  -2.789  -3.200  1.00  0.00     0.010 A 
ATOM     89  C   UNL     1       2.881  -2.619  -1.721  1.00  0.00     0.010 A 
ATOM     90  C   UNL     1       1.135  -1.446  -3.572  1.00  0.00     0.020 A 
ATOM     91  C   UNL     1       3.031  -1.262  -2.082  1.00  0.00     0.020 A 
ATOM     92  C   UNL     1       2.136  -0.676  -2.983  1.00  0.00     0.054 A 
BRANCH  92  93
ATOM     93  S   UNL     1       2.167   1.126  -3.276  1.00  0.00     0.124 S 
ATOM     94  O   UNL     1       3.307   1.276  -4.172  1.00  0.00    -0.237 OA
ATOM     95  O   UNL     1       0.861   1.396  -3.875  1.00  0.00    -0.237 OA
ATOM     96  O   UNL     1       2.326   1.679  -1.934  1.00  0.00    -0.744 OA
ENDBRANCH  92  93
ENDBRANCH  64  87
BRANCH  76  97
ATOM     97  C   UNL     1       3.588  -9.772   1.049  1.00  0.00    -0.014 A 
ATOM     98  C   UNL     1       4.634 -10.079   0.169  1.00  0.00     0.010 A 
ATOM     99  C   UNL     1       3.423 -10.639   2.162  1.00  0.00     0.010 A 
ATOM    100  C   UNL     1       5.441 -11.211   0.362  1.00  0.00     0.020 A 
ATOM    101  C   UNL     1       4.257 -11.733   2.398  1.00  0.00     0.020 A 
ATOM    102  C   UNL     1       5.251 -12.027   1.478  1.00  0.00     0.054 A 
BRANCH 102 103
ATOM    103  S   UNL     1       6.353 -13.434   1.757  1.00  0.00     0.124 S 
ATOM    104  O   UNL     1       5.753 -14.457   0.904  1.00  0.00    -0.237 OA
ATOM    105  O   UNL     1       7.648 -12.925   1.310  1.00  0.00    -0.237 OA
ATOM    106  O   UNL     1       6.249 -13.675   3.194  1.00  0.00    -0.744 OA
ENDBRANCH 102 103
ENDBRANCH  76  97
ENDBRANCH  50  51
ENDBRANCH  42  45
ENDBRANCH  40  41
ENDBRANCH  39  40
ENDBRANCH  38  39
ENDBRANCH   1  38
TORSDOF 21
