REMARK SMILES NS(=O)(=O)c1ccc(-n2nc(NC(=O)NCCCCCCCCCCC(=O)NCCCCCCNC(=O)c3ccc(-c4c5nc(c(-c6ccc(S(=O)(=O)[O-])cc6)c6ccc([nH]6)c(-c6ccc(S(=O)(=O)[O-])cc6)c6nc(c(-c7ccc(S(=O)(=O)[O-])cc7)c7ccc4[nH]7)C=C6)C=C5)cc3)cc2-c2ccccc2)cc1
REMARK SMILES IDX 24 1 23 2 22 3 21 4 20 5 19 6 18 7 17 8 16 9 15 10 12 11
REMARK SMILES IDX 13 12 14 14 11 16 9 17 10 18 99 19 98 20 8 21 5 22 6 23
REMARK SMILES IDX 107 24 7 25 106 26 2 27 3 28 4 29 1 30 100 33 101 34 105 35
REMARK SMILES IDX 102 36 104 37 103 38 25 39 26 40 27 41 28 42 29 44 30 45
REMARK SMILES IDX 31 46 32 47 33 48 34 49 35 50 36 51 37 53 38 54 39 55 97 56
REMARK SMILES IDX 40 57 96 58 41 59 42 60 43 61 90 62 44 63 95 64 89 65 91 66
REMARK SMILES IDX 45 67 94 68 88 69 87 70 46 72 76 73 57 74 75 75 58 76 61 77
REMARK SMILES IDX 74 78 92 79 59 80 60 81 73 83 93 84 62 85 47 86 48 87 56 88
REMARK SMILES IDX 49 89 55 90 50 91 51 92 52 93 53 94 54 95 77 96 78 97 86 98
REMARK SMILES IDX 79 99 85 100 80 101 81 102 82 103 83 104 84 105 63 106
REMARK SMILES IDX 64 107 72 108 65 109 71 110 66 111 67 112 68 113 69 114
REMARK SMILES IDX 70 115
REMARK H PARENT 12 13 15 15 1 31 1 32 28 43 35 52 91 71 61 82
REMARK Flexibility Score: inf
ROOT
ATOM      1  C   UNL     1       3.097  -0.065   5.458  1.00  0.00     0.010 C 
ENDROOT
BRANCH   1   2
ATOM      2  C   UNL     1       3.956  -1.319   5.300  1.00  0.00     0.001 C 
BRANCH   2   3
ATOM      3  C   UNL     1       3.261  -2.632   5.679  1.00  0.00     0.000 C 
BRANCH   3   4
ATOM      4  C   UNL     1       2.829  -3.466   4.488  1.00  0.00     0.000 C 
BRANCH   4   5
ATOM      5  C   UNL     1       3.990  -4.014   3.666  1.00  0.00     0.000 C 
BRANCH   5   6
ATOM      6  C   UNL     1       5.039  -4.840   4.419  1.00  0.00     0.000 C 
BRANCH   6   7
ATOM      7  C   UNL     1       4.521  -6.058   5.196  1.00  0.00     0.002 C 
BRANCH   7   8
ATOM      8  C   UNL     1       3.550  -6.976   4.455  1.00  0.00     0.021 C 
BRANCH   8   9
ATOM      9  C   UNL     1       3.936  -7.344   3.032  1.00  0.00     0.117 C 
BRANCH   9  10
ATOM     10  N   UNL     1       4.976  -8.326   2.892  1.00  0.00    -0.338 N 
ATOM     11  N   UNL     1       4.460  -9.226   0.741  1.00  0.00    -0.291 N 
ATOM     12  C   UNL     1       5.212  -9.177   1.867  1.00  0.00     0.320 C 
ATOM     13  H   UNL     1       4.535 -10.074   0.247  1.00  0.00     0.173 HD
ATOM     14  O   UNL     1       6.088 -10.028   2.049  1.00  0.00    -0.248 OA
ATOM     15  H   UNL     1       5.604  -8.389   3.648  1.00  0.00     0.165 HD
BRANCH  11  16
ATOM     16  C   UNL     1       3.610  -8.310   0.154  1.00  0.00     0.157 A 
ATOM     17  N   UNL     1       2.497  -6.526  -0.162  1.00  0.00    -0.231 N 
ATOM     18  N   UNL     1       3.667  -6.987   0.315  1.00  0.00    -0.149 NA
ATOM     19  C   UNL     1       1.856  -7.472  -0.951  1.00  0.00     0.076 A 
ATOM     20  C   UNL     1       2.559  -8.645  -0.736  1.00  0.00     0.078 A 
BRANCH  17  21
ATOM     21  C   UNL     1       2.018  -5.248   0.242  1.00  0.00     0.065 A 
ATOM     22  C   UNL     1       1.073  -2.723   0.942  1.00  0.00     0.082 A 
ATOM     23  C   UNL     1       0.186  -3.801   0.906  1.00  0.00     0.024 A 
ATOM     24  C   UNL     1       2.432  -2.903   0.661  1.00  0.00     0.024 A 
ATOM     25  C   UNL     1       0.660  -5.064   0.552  1.00  0.00     0.030 A 
ATOM     26  C   UNL     1       2.910  -4.173   0.327  1.00  0.00     0.030 A 
BRANCH  22  27
ATOM     27  S   UNL     1       0.466  -1.110   1.335  1.00  0.00     0.238 S 
ATOM     28  O   UNL     1       1.088  -0.671   2.568  1.00  0.00    -0.207 OA
ATOM     29  O   UNL     1      -0.962  -1.083   1.149  1.00  0.00    -0.207 OA
BRANCH  27  30
ATOM     30  N   UNL     1       1.100  -0.165   0.110  1.00  0.00    -0.225 NA
ATOM     31  H   UNL     1       0.807   0.803   0.240  1.00  0.00     0.137 HD
ATOM     32  H   UNL     1       0.762  -0.504  -0.791  1.00  0.00     0.137 HD
ENDBRANCH  27  30
ENDBRANCH  22  27
ENDBRANCH  17  21
BRANCH  19  33
ATOM     33  C   UNL     1       0.721  -7.155  -1.817  1.00  0.00     0.000 A 
ATOM     34  C   UNL     1       0.791  -6.030  -2.656  1.00  0.00     0.010 A 
ATOM     35  C   UNL     1      -0.468  -7.886  -1.759  1.00  0.00     0.010 A 
ATOM     36  C   UNL     1      -0.322  -5.607  -3.378  1.00  0.00     0.001 A 
ATOM     37  C   UNL     1      -1.581  -7.468  -2.495  1.00  0.00     0.001 A 
ATOM     38  C   UNL     1      -1.511  -6.324  -3.292  1.00  0.00     0.000 A 
ENDBRANCH  19  33
ENDBRANCH  11  16
ENDBRANCH   9  10
ENDBRANCH   8   9
ENDBRANCH   7   8
ENDBRANCH   6   7
ENDBRANCH   5   6
ENDBRANCH   4   5
ENDBRANCH   3   4
ENDBRANCH   2   3
ENDBRANCH   1   2
BRANCH   1  39
ATOM     39  C   UNL     1       2.452   0.173   6.824  1.00  0.00     0.100 C 
BRANCH  39  40
ATOM     40  C   UNL     1       3.341   0.855   7.844  1.00  0.00     0.219 C 
ATOM     41  O   UNL     1       3.279   2.074   8.021  1.00  0.00    -0.275 OA
ATOM     42  N   UNL     1       4.197   0.140   8.624  1.00  0.00    -0.356 N 
ATOM     43  H   UNL     1       4.712   0.674   9.271  1.00  0.00     0.163 HD
BRANCH  42  44
ATOM     44  C   UNL     1       4.470  -1.282   8.655  1.00  0.00     0.116 C 
BRANCH  44  45
ATOM     45  C   UNL     1       5.912  -1.585   8.233  1.00  0.00     0.021 C 
BRANCH  45  46
ATOM     46  C   UNL     1       6.913  -1.579   9.388  1.00  0.00     0.002 C 
BRANCH  46  47
ATOM     47  C   UNL     1       6.665  -2.633  10.476  1.00  0.00     0.002 C 
BRANCH  47  48
ATOM     48  C   UNL     1       6.608  -4.095  10.008  1.00  0.00     0.021 C 
BRANCH  48  49
ATOM     49  C   UNL     1       7.924  -4.600   9.437  1.00  0.00     0.116 C 
BRANCH  49  50
ATOM     50  N   UNL     1       8.999  -4.578  10.429  1.00  0.00    -0.352 N 
ATOM     51  C   UNL     1      10.314  -4.973  10.292  1.00  0.00     0.251 C 
ATOM     52  H   UNL     1       8.751  -4.234  11.317  1.00  0.00     0.163 HD
ATOM     53  O   UNL     1      11.000  -5.205  11.281  1.00  0.00    -0.269 OA
BRANCH  51  54
ATOM     54  C   UNL     1      10.877  -5.107   8.939  1.00  0.00     0.039 A 
ATOM     55  C   UNL     1      11.770  -6.134   8.618  1.00  0.00     0.014 A 
ATOM     56  C   UNL     1      10.486  -4.179   7.978  1.00  0.00     0.014 A 
ATOM     57  C   UNL     1      12.210  -6.251   7.302  1.00  0.00     0.010 A 
ATOM     58  C   UNL     1      10.772  -4.401   6.659  1.00  0.00     0.010 A 
ATOM     59  C   UNL     1      11.694  -5.384   6.327  1.00  0.00    -0.014 A 
BRANCH  59  60
ATOM     60  C   UNL     1      12.044  -5.532   4.923  1.00  0.00     0.031 A 
ATOM     61  C   UNL     1      11.720  -6.861   4.342  1.00  0.00     0.074 A 
ATOM     62  C   UNL     1      12.402  -4.484   4.152  1.00  0.00     0.049 A 
ATOM     63  N   UNL     1      12.549  -7.771   3.954  1.00  0.00    -0.248 NA
ATOM     64  C   UNL     1      10.311  -7.289   4.322  1.00  0.00     0.031 C 
ATOM     65  C   UNL     1      12.424  -3.056   4.496  1.00  0.00     0.029 A 
ATOM     66  N   UNL     1      12.688  -4.468   2.826  1.00  0.00    -0.354 N 
ATOM     67  C   UNL     1      11.770  -8.799   3.433  1.00  0.00     0.074 A 
ATOM     68  C   UNL     1      10.420  -8.538   3.865  1.00  0.00     0.031 C 
ATOM     69  C   UNL     1      12.437  -2.320   3.362  1.00  0.00     0.029 A 
ATOM     70  C   UNL     1      12.604  -3.215   2.232  1.00  0.00     0.049 A 
ATOM     71  H   UNL     1      12.936  -5.278   2.325  1.00  0.00     0.167 HD
ATOM     72  C   UNL     1      12.252  -9.650   2.483  1.00  0.00     0.031 A 
ATOM     73  C   UNL     1      12.608  -2.948   0.900  1.00  0.00     0.031 A 
ATOM     74  C   UNL     1      13.683  -9.534   2.343  1.00  0.00     0.049 A 
ATOM     75  C   UNL     1      13.212  -4.133   0.233  1.00  0.00     0.074 A 
ATOM     76  C   UNL     1      14.751  -9.672   3.208  1.00  0.00     0.029 A 
ATOM     77  N   UNL     1      14.155  -8.794   1.281  1.00  0.00    -0.354 N 
ATOM     78  N   UNL     1      14.452  -4.501   0.417  1.00  0.00    -0.248 NA
ATOM     79  C   UNL     1      12.315  -5.182  -0.230  1.00  0.00     0.031 C 
ATOM     80  C   UNL     1      15.624  -8.593   2.881  1.00  0.00     0.029 A 
ATOM     81  C   UNL     1      15.088  -7.920   1.781  1.00  0.00     0.049 A 
ATOM     82  H   UNL     1      13.875  -8.877   0.340  1.00  0.00     0.167 HD
ATOM     83  C   UNL     1      14.402  -5.885   0.523  1.00  0.00     0.074 A 
ATOM     84  C   UNL     1      13.072  -6.252   0.032  1.00  0.00     0.031 C 
ATOM     85  C   UNL     1      15.316  -6.585   1.261  1.00  0.00     0.031 A 
BRANCH  72  86
ATOM     86  C   UNL     1      11.394 -10.295   1.423  1.00  0.00    -0.014 A 
ATOM     87  C   UNL     1      11.978 -11.232   0.548  1.00  0.00     0.010 A 
ATOM     88  C   UNL     1      10.104  -9.831   1.092  1.00  0.00     0.010 A 
ATOM     89  C   UNL     1      11.327 -11.634  -0.627  1.00  0.00     0.020 A 
ATOM     90  C   UNL     1       9.427 -10.259  -0.051  1.00  0.00     0.020 A 
ATOM     91  C   UNL     1      10.058 -11.134  -0.923  1.00  0.00     0.054 A 
BRANCH  91  92
ATOM     92  S   UNL     1       9.266 -11.589  -2.485  1.00  0.00     0.124 S 
ATOM     93  O   UNL     1      10.144 -10.955  -3.464  1.00  0.00    -0.237 OA
ATOM     94  O   UNL     1       9.313 -13.048  -2.445  1.00  0.00    -0.237 OA
ATOM     95  O   UNL     1       7.926 -11.012  -2.380  1.00  0.00    -0.744 OA
ENDBRANCH  91  92
ENDBRANCH  72  86
BRANCH  73  96
ATOM     96  C   UNL     1      11.790  -1.928   0.189  1.00  0.00    -0.014 A 
ATOM     97  C   UNL     1      12.009  -1.626  -1.169  1.00  0.00     0.010 A 
ATOM     98  C   UNL     1      10.604  -1.436   0.777  1.00  0.00     0.010 A 
ATOM     99  C   UNL     1      11.052  -0.916  -1.920  1.00  0.00     0.020 A 
ATOM    100  C   UNL     1       9.651  -0.723   0.039  1.00  0.00     0.020 A 
ATOM    101  C   UNL     1       9.867  -0.488  -1.315  1.00  0.00     0.054 A 
BRANCH 101 102
ATOM    102  S   UNL     1       8.550   0.260  -2.324  1.00  0.00     0.124 S 
ATOM    103  O   UNL     1       9.109   1.568  -2.650  1.00  0.00    -0.237 OA
ATOM    104  O   UNL     1       8.433  -0.674  -3.440  1.00  0.00    -0.237 OA
ATOM    105  O   UNL     1       7.397   0.286  -1.424  1.00  0.00    -0.744 OA
ENDBRANCH 101 102
ENDBRANCH  73  96
BRANCH  85 106
ATOM    106  C   UNL     1      16.550  -5.873   1.778  1.00  0.00    -0.014 A 
ATOM    107  C   UNL     1      16.518  -4.760   2.643  1.00  0.00     0.010 A 
ATOM    108  C   UNL     1      17.796  -6.471   1.513  1.00  0.00     0.010 A 
ATOM    109  C   UNL     1      17.702  -4.249   3.204  1.00  0.00     0.020 A 
ATOM    110  C   UNL     1      18.974  -5.980   2.082  1.00  0.00     0.020 A 
ATOM    111  C   UNL     1      18.924  -4.865   2.917  1.00  0.00     0.054 A 
BRANCH 111 112
ATOM    112  S   UNL     1      20.450  -4.229   3.670  1.00  0.00     0.124 S 
ATOM    113  O   UNL     1      20.605  -2.929   3.025  1.00  0.00    -0.237 OA
ATOM    114  O   UNL     1      20.120  -4.191   5.093  1.00  0.00    -0.237 OA
ATOM    115  O   UNL     1      21.459  -5.223   3.305  1.00  0.00    -0.744 OA
ENDBRANCH 111 112
ENDBRANCH  85 106
ENDBRANCH  59  60
ENDBRANCH  51  54
ENDBRANCH  49  50
ENDBRANCH  48  49
ENDBRANCH  47  48
ENDBRANCH  46  47
ENDBRANCH  45  46
ENDBRANCH  44  45
ENDBRANCH  42  44
ENDBRANCH  39  40
ENDBRANCH   1  39
TORSDOF 31
