REMARK SMILES O=C(CN1C(=O)/C(=C2/SC(Nc3ccc(Cl)cc3)=[NH+]C2=O)c2ccccc21)NCCCCCCNC(=O)c1ccc(-c2c3nc(c(-c4ccc(S(=O)(=O)[O-])cc4)c4ccc([nH]4)c(-c4ccc(S(=O)(=O)[O-])cc4)c4nc(c(-c5ccc(S(=O)(=O)[O-])cc5)c5ccc2[nH]5)C=C4)C=C3)cc1
REMARK SMILES IDX 32 1 31 2 30 3 29 4 28 5 1 6 2 7 3 9 4 10 5 11 27 12 6 13
REMARK SMILES IDX 7 14 22 15 26 16 8 17 23 18 25 19 9 20 20 21 24 22 10 23
REMARK SMILES IDX 19 24 21 25 11 26 12 29 13 30 18 31 14 32 17 33 15 34 16 35
REMARK SMILES IDX 33 36 34 37 35 38 36 39 37 41 38 42 39 43 97 44 40 45 96 46
REMARK SMILES IDX 41 47 42 48 43 49 90 50 44 51 95 52 89 53 91 54 45 55 94 56
REMARK SMILES IDX 88 57 87 58 46 60 76 61 57 62 75 63 58 64 61 65 74 66 92 67
REMARK SMILES IDX 59 68 60 69 73 71 93 72 62 73 47 74 48 75 56 76 49 77 55 78
REMARK SMILES IDX 50 79 51 80 52 81 53 82 54 83 77 84 78 85 86 86 79 87 85 88
REMARK SMILES IDX 80 89 81 90 82 91 83 92 84 93 63 94 64 95 72 96 65 97 71 98
REMARK SMILES IDX 66 99 67 100 68 101 69 102 70 103
REMARK H PARENT 28 8 19 27 11 28 35 40 91 59 61 70
REMARK Flexibility Score: inf
ROOT
ATOM      1  C   UNL     1       4.638   4.175   0.172  1.00  0.00     0.002 C 
ENDROOT
BRANCH   1   2
ATOM      2  C   UNL     1       4.139   3.328   1.347  1.00  0.00     0.002 C 
BRANCH   2   3
ATOM      3  C   UNL     1       2.621   3.089   1.405  1.00  0.00     0.021 C 
BRANCH   3   4
ATOM      4  C   UNL     1       2.015   2.449   0.153  1.00  0.00     0.116 C 
BRANCH   4   5
ATOM      5  N   UNL     1       2.702   1.224  -0.182  1.00  0.00    -0.355 N 
ATOM      6  O   UNL     1       0.982  -0.257   0.157  1.00  0.00    -0.273 OA
ATOM      7  C   UNL     1       2.162  -0.034  -0.106  1.00  0.00     0.240 C 
ATOM      8  H   UNL     1       3.634   1.298  -0.489  1.00  0.00     0.163 HD
BRANCH   7   9
ATOM      9  C   UNL     1       3.198  -1.165  -0.193  1.00  0.00     0.225 C 
BRANCH   9  10
ATOM     10  N   UNL     1       3.886  -1.353  -1.462  1.00  0.00    -0.298 N 
ATOM     11  C   UNL     1       4.625  -0.360  -2.105  1.00  0.00     0.260 C 
ATOM     12  C   UNL     1       4.227  -2.622  -1.973  1.00  0.00     0.053 A 
ATOM     13  O   UNL     1       4.740   0.795  -1.745  1.00  0.00    -0.269 OA
ATOM     14  C   UNL     1       5.337  -1.040  -3.240  1.00  0.00     0.071 C 
ATOM     15  C   UNL     1       5.122  -2.493  -3.043  1.00  0.00     0.012 A 
ATOM     16  C   UNL     1       3.829  -3.868  -1.506  1.00  0.00     0.027 A 
ATOM     17  C   UNL     1       5.951  -0.405  -4.253  1.00  0.00     0.122 C 
ATOM     18  C   UNL     1       5.619  -3.635  -3.663  1.00  0.00     0.011 A 
ATOM     19  C   UNL     1       4.333  -5.009  -2.132  1.00  0.00     0.002 A 
ATOM     20  S   UNL     1       6.783  -1.208  -5.529  1.00  0.00     0.007 SA
ATOM     21  C   UNL     1       5.980   1.059  -4.599  1.00  0.00     0.347 C 
ATOM     22  C   UNL     1       5.219  -4.893  -3.206  1.00  0.00     0.001 A 
ATOM     23  C   UNL     1       6.590   0.181  -6.566  1.00  0.00     0.322 C 
ATOM     24  N   UNL     1       6.216   1.254  -5.953  1.00  0.00    -0.199 N 
ATOM     25  O   UNL     1       5.836   1.973  -3.808  1.00  0.00    -0.240 OA
ATOM     26  N   UNL     1       6.867   0.093  -7.904  1.00  0.00    -0.235 N 
ATOM     27  H   UNL     1       6.109   2.124  -6.401  1.00  0.00     0.316 HD
ATOM     28  H   UNL     1       6.887   0.942  -8.403  1.00  0.00     0.313 HD
BRANCH  26  29
ATOM     29  C   UNL     1       7.127  -1.073  -8.645  1.00  0.00     0.125 A 
ATOM     30  C   UNL     1       6.339  -2.228  -8.511  1.00  0.00     0.053 A 
ATOM     31  C   UNL     1       8.277  -1.143  -9.439  1.00  0.00     0.053 A 
ATOM     32  C   UNL     1       6.726  -3.440  -9.086  1.00  0.00     0.025 A 
ATOM     33  C   UNL     1       8.666  -2.355 -10.023  1.00  0.00     0.025 A 
ATOM     34  C   UNL     1       7.900  -3.502  -9.827  1.00  0.00     0.041 A 
ATOM     35  Cl  UNL     1       8.416  -5.005 -10.483  1.00  0.00    -0.084 Cl
ENDBRANCH  26  29
ENDBRANCH   9  10
ENDBRANCH   7   9
ENDBRANCH   4   5
ENDBRANCH   3   4
ENDBRANCH   2   3
ENDBRANCH   1   2
BRANCH   1  36
ATOM     36  C   UNL     1       3.996   5.553   0.044  1.00  0.00     0.021 C 
BRANCH  36  37
ATOM     37  C   UNL     1       4.128   6.440   1.275  1.00  0.00     0.116 C 
BRANCH  37  38
ATOM     38  N   UNL     1       5.501   6.846   1.547  1.00  0.00    -0.352 N 
ATOM     39  C   UNL     1       5.998   8.109   1.782  1.00  0.00     0.251 C 
ATOM     40  H   UNL     1       6.164   6.118   1.567  1.00  0.00     0.163 HD
ATOM     41  O   UNL     1       7.206   8.298   1.876  1.00  0.00    -0.269 OA
BRANCH  39  42
ATOM     42  C   UNL     1       5.056   9.247   1.873  1.00  0.00     0.039 A 
ATOM     43  C   UNL     1       3.894   9.140   2.639  1.00  0.00     0.014 A 
ATOM     44  C   UNL     1       5.300  10.400   1.124  1.00  0.00     0.014 A 
ATOM     45  C   UNL     1       2.889  10.089   2.494  1.00  0.00     0.010 A 
ATOM     46  C   UNL     1       4.328  11.404   1.064  1.00  0.00     0.010 A 
ATOM     47  C   UNL     1       3.088  11.230   1.699  1.00  0.00    -0.014 A 
BRANCH  47  48
ATOM     48  C   UNL     1       1.984  12.215   1.539  1.00  0.00     0.031 A 
ATOM     49  C   UNL     1       1.374  12.480   0.186  1.00  0.00     0.074 A 
ATOM     50  C   UNL     1       1.489  12.832   2.631  1.00  0.00     0.049 A 
ATOM     51  N   UNL     1       0.398  13.294  -0.128  1.00  0.00    -0.248 NA
ATOM     52  C   UNL     1       1.926  11.743  -0.964  1.00  0.00     0.031 C 
ATOM     53  C   UNL     1       1.977  12.633   3.998  1.00  0.00     0.029 A 
ATOM     54  N   UNL     1       0.455  13.722   2.776  1.00  0.00    -0.354 N 
ATOM     55  C   UNL     1       0.227  13.177  -1.504  1.00  0.00     0.074 A 
ATOM     56  C   UNL     1       1.226  12.244  -1.974  1.00  0.00     0.031 C 
ATOM     57  C   UNL     1       1.206  13.329   4.845  1.00  0.00     0.029 A 
ATOM     58  C   UNL     1       0.223  14.090   4.081  1.00  0.00     0.049 A 
ATOM     59  H   UNL     1      -0.072  14.065   2.018  1.00  0.00     0.167 HD
ATOM     60  C   UNL     1      -0.692  13.777  -2.296  1.00  0.00     0.031 A 
ATOM     61  C   UNL     1      -0.665  14.954   4.614  1.00  0.00     0.031 A 
ATOM     62  C   UNL     1      -1.697  14.692  -1.813  1.00  0.00     0.049 A 
ATOM     63  C   UNL     1      -1.633  15.656   3.705  1.00  0.00     0.074 A 
ATOM     64  C   UNL     1      -2.684  15.336  -2.539  1.00  0.00     0.029 A 
ATOM     65  N   UNL     1      -1.852  15.086  -0.492  1.00  0.00    -0.354 N 
ATOM     66  N   UNL     1      -1.786  15.521   2.410  1.00  0.00    -0.248 NA
ATOM     67  C   UNL     1      -2.551  16.622   4.324  1.00  0.00     0.031 C 
ATOM     68  C   UNL     1      -3.381  16.180  -1.674  1.00  0.00     0.029 A 
ATOM     69  C   UNL     1      -2.895  15.993  -0.390  1.00  0.00     0.049 A 
ATOM     70  H   UNL     1      -1.303  14.769   0.261  1.00  0.00     0.167 HD
ATOM     71  C   UNL     1      -2.828  16.372   2.059  1.00  0.00     0.074 A 
ATOM     72  C   UNL     1      -3.284  16.999   3.283  1.00  0.00     0.031 C 
ATOM     73  C   UNL     1      -3.350  16.613   0.832  1.00  0.00     0.031 A 
BRANCH  60  74
ATOM     74  C   UNL     1      -0.684  13.475  -3.777  1.00  0.00    -0.014 A 
ATOM     75  C   UNL     1      -0.417  14.506  -4.699  1.00  0.00     0.010 A 
ATOM     76  C   UNL     1      -1.083  12.217  -4.262  1.00  0.00     0.010 A 
ATOM     77  C   UNL     1      -0.595  14.301  -6.070  1.00  0.00     0.020 A 
ATOM     78  C   UNL     1      -1.229  11.997  -5.636  1.00  0.00     0.020 A 
ATOM     79  C   UNL     1      -1.012  13.049  -6.529  1.00  0.00     0.054 A 
BRANCH  79  80
ATOM     80  S   UNL     1      -1.291  12.819  -8.307  1.00  0.00     0.124 S 
ATOM     81  O   UNL     1      -2.514  13.583  -8.531  1.00  0.00    -0.237 OA
ATOM     82  O   UNL     1      -0.078  13.382  -8.895  1.00  0.00    -0.237 OA
ATOM     83  O   UNL     1      -1.425  11.370  -8.449  1.00  0.00    -0.744 OA
ENDBRANCH  79  80
ENDBRANCH  60  74
BRANCH  61  84
ATOM     84  C   UNL     1      -0.669  15.168   6.090  1.00  0.00    -0.014 A 
ATOM     85  C   UNL     1       0.453  15.728   6.730  1.00  0.00     0.010 A 
ATOM     86  C   UNL     1      -1.746  14.721   6.874  1.00  0.00     0.010 A 
ATOM     87  C   UNL     1       0.533  15.765   8.124  1.00  0.00     0.020 A 
ATOM     88  C   UNL     1      -1.687  14.794   8.270  1.00  0.00     0.020 A 
ATOM     89  C   UNL     1      -0.532  15.282   8.886  1.00  0.00     0.054 A 
BRANCH  89  90
ATOM     90  S   UNL     1      -0.373  15.272  10.692  1.00  0.00     0.124 S 
ATOM     91  O   UNL     1       0.578  14.183  10.902  1.00  0.00    -0.237 OA
ATOM     92  O   UNL     1       0.134  16.613  10.974  1.00  0.00    -0.237 OA
ATOM     93  O   UNL     1      -1.733  15.012  11.156  1.00  0.00    -0.744 OA
ENDBRANCH  89  90
ENDBRANCH  61  84
BRANCH  73  94
ATOM     94  C   UNL     1      -4.486  17.599   0.717  1.00  0.00    -0.014 A 
ATOM     95  C   UNL     1      -5.750  17.160   0.278  1.00  0.00     0.010 A 
ATOM     96  C   UNL     1      -4.266  18.977   0.893  1.00  0.00     0.010 A 
ATOM     97  C   UNL     1      -6.753  18.080  -0.035  1.00  0.00     0.020 A 
ATOM     98  C   UNL     1      -5.280  19.898   0.617  1.00  0.00     0.020 A 
ATOM     99  C   UNL     1      -6.506  19.445   0.124  1.00  0.00     0.054 A 
BRANCH  99 100
ATOM    100  S   UNL     1      -7.800  20.626  -0.347  1.00  0.00     0.124 S 
ATOM    101  O   UNL     1      -7.767  20.554  -1.804  1.00  0.00    -0.237 OA
ATOM    102  O   UNL     1      -8.991  20.064   0.285  1.00  0.00    -0.237 OA
ATOM    103  O   UNL     1      -7.338  21.889   0.226  1.00  0.00    -0.744 OA
ENDBRANCH  99 100
ENDBRANCH  73  94
ENDBRANCH  47  48
ENDBRANCH  39  42
ENDBRANCH  37  38
ENDBRANCH  36  37
ENDBRANCH   1  36
TORSDOF 18
