REMARK SMILES CCOc1cccc(-c2ccc([C@@H](C)C(=O)NCCCCCCNC(=O)c3ccc(-c4c5nc(c(-c6ccc(S(=O)(=O)[O-])cc6)c6ccc([nH]6)c(-c6ccc(S(=O)(=O)[O-])cc6)c6nc(c(-c7ccc(S(=O)(=O)[O-])cc7)c7ccc4[nH]7)C=C6)C=C5)cc3)cc2F)c1
REMARK SMILES IDX 20 1 19 2 18 3 17 4 15 5 16 6 13 8 14 9 12 10 9 11 10 12
REMARK SMILES IDX 88 13 11 14 87 15 89 16 8 17 4 18 5 19 90 20 6 21 7 22 3 23
REMARK SMILES IDX 2 24 1 25 21 26 22 27 23 28 24 29 25 30 26 32 27 33 28 34
REMARK SMILES IDX 86 35 29 36 85 37 30 38 31 39 32 40 79 41 33 42 84 43 78 44
REMARK SMILES IDX 80 45 34 46 83 47 77 48 76 49 35 51 65 52 46 53 64 54 47 55
REMARK SMILES IDX 50 56 63 57 81 58 48 59 49 60 62 62 82 63 51 64 36 65 37 66
REMARK SMILES IDX 45 67 38 68 44 69 39 70 40 71 41 72 42 73 43 74 66 75 67 76
REMARK SMILES IDX 75 77 68 78 74 79 69 80 70 81 71 82 72 83 73 84 52 85 53 86
REMARK SMILES IDX 61 87 54 88 60 89 55 90 56 91 57 92 58 93 59 94
REMARK H PARENT 17 7 24 31 80 50 50 61
REMARK Flexibility Score: inf
ROOT
ATOM      1  C   UNL     1       8.598  -1.107   3.366  1.00  0.00     0.002 C 
ENDROOT
BRANCH   1   2
ATOM      2  C   UNL     1       8.442  -1.058   1.843  1.00  0.00     0.021 C 
BRANCH   2   3
ATOM      3  C   UNL     1       9.266  -2.118   1.111  1.00  0.00     0.116 C 
BRANCH   3   4
ATOM      4  N   UNL     1       8.528  -3.355   0.973  1.00  0.00    -0.356 N 
ATOM      5  C   UNL     1       7.861  -3.891  -0.084  1.00  0.00     0.227 C 
ATOM      6  O   UNL     1       7.216  -4.923   0.139  1.00  0.00    -0.274 OA
ATOM      7  H   UNL     1       8.505  -3.907   1.789  1.00  0.00     0.163 HD
BRANCH   5   8
ATOM      8  C   UNL     1       7.893  -3.297  -1.501  1.00  0.00     0.105 C 
ATOM      9  C   UNL     1       9.289  -3.223  -2.116  1.00  0.00     0.023 C 
BRANCH   8  10
ATOM     10  C   UNL     1       7.029  -2.058  -1.674  1.00  0.00    -0.033 A 
ATOM     11  C   UNL     1       5.266   0.197  -1.854  1.00  0.00     0.018 A 
ATOM     12  C   UNL     1       6.611   0.339  -1.478  1.00  0.00     0.012 A 
ATOM     13  C   UNL     1       4.854  -1.101  -2.197  1.00  0.00     0.131 A 
ATOM     14  C   UNL     1       7.481  -0.759  -1.427  1.00  0.00     0.005 A 
ATOM     15  C   UNL     1       5.700  -2.207  -2.085  1.00  0.00     0.044 A 
ATOM     16  F   UNL     1       3.609  -1.332  -2.644  1.00  0.00    -0.206 F 
BRANCH  11  17
ATOM     17  C   UNL     1       4.340   1.355  -1.833  1.00  0.00    -0.012 A 
ATOM     18  C   UNL     1       2.106   2.265  -1.417  1.00  0.00     0.119 A 
ATOM     19  C   UNL     1       2.550   3.550  -1.697  1.00  0.00     0.046 A 
ATOM     20  C   UNL     1       2.984   1.186  -1.504  1.00  0.00     0.055 A 
ATOM     21  C   UNL     1       3.887   3.754  -2.033  1.00  0.00     0.004 A 
ATOM     22  C   UNL     1       4.770   2.668  -2.101  1.00  0.00     0.009 A 
BRANCH  18  23
ATOM     23  O   UNL     1       0.773   2.068  -1.182  1.00  0.00    -0.494 OA
BRANCH  23  24
ATOM     24  C   UNL     1       0.485   1.665   0.163  1.00  0.00     0.226 C 
ATOM     25  C   UNL     1       0.514   0.153   0.336  1.00  0.00     0.049 C 
ENDBRANCH  23  24
ENDBRANCH  18  23
ENDBRANCH  11  17
ENDBRANCH   8  10
ENDBRANCH   5   8
ENDBRANCH   3   4
ENDBRANCH   2   3
ENDBRANCH   1   2
BRANCH   1  26
ATOM     26  C   UNL     1      10.023  -0.853   3.876  1.00  0.00     0.002 C 
BRANCH  26  27
ATOM     27  C   UNL     1      10.659   0.454   3.396  1.00  0.00     0.021 C 
BRANCH  27  28
ATOM     28  C   UNL     1       9.914   1.708   3.838  1.00  0.00     0.116 C 
BRANCH  28  29
ATOM     29  N   UNL     1       9.925   1.851   5.287  1.00  0.00    -0.352 N 
ATOM     30  C   UNL     1      10.434   2.878   6.046  1.00  0.00     0.251 C 
ATOM     31  H   UNL     1       9.513   1.113   5.791  1.00  0.00     0.163 HD
ATOM     32  O   UNL     1      10.595   2.742   7.251  1.00  0.00    -0.269 OA
BRANCH  30  33
ATOM     33  C   UNL     1      10.786   4.148   5.379  1.00  0.00     0.039 A 
ATOM     34  C   UNL     1      12.022   4.745   5.640  1.00  0.00     0.014 A 
ATOM     35  C   UNL     1       9.891   4.729   4.478  1.00  0.00     0.014 A 
ATOM     36  C   UNL     1      12.386   5.902   4.945  1.00  0.00     0.010 A 
ATOM     37  C   UNL     1      10.285   5.834   3.736  1.00  0.00     0.010 A 
ATOM     38  C   UNL     1      11.533   6.435   3.966  1.00  0.00    -0.014 A 
BRANCH  38  39
ATOM     39  C   UNL     1      11.889   7.638   3.173  1.00  0.00     0.031 A 
ATOM     40  C   UNL     1      11.038   8.872   3.288  1.00  0.00     0.074 A 
ATOM     41  C   UNL     1      12.897   7.586   2.281  1.00  0.00     0.049 A 
ATOM     42  N   UNL     1      11.057   9.960   2.564  1.00  0.00    -0.248 NA
ATOM     43  C   UNL     1      10.005   8.865   4.339  1.00  0.00     0.031 C 
ATOM     44  C   UNL     1      13.788   6.443   2.068  1.00  0.00     0.029 A 
ATOM     45  N   UNL     1      13.327   8.516   1.367  1.00  0.00    -0.354 N 
ATOM     46  C   UNL     1      10.024  10.753   3.051  1.00  0.00     0.074 A 
ATOM     47  C   UNL     1       9.368  10.001   4.098  1.00  0.00     0.031 C 
ATOM     48  C   UNL     1      14.667   6.746   1.099  1.00  0.00     0.029 A 
ATOM     49  C   UNL     1      14.368   8.079   0.583  1.00  0.00     0.049 A 
ATOM     50  H   UNL     1      12.928   9.412   1.282  1.00  0.00     0.167 HD
ATOM     51  C   UNL     1       9.664  12.002   2.672  1.00  0.00     0.031 A 
ATOM     52  C   UNL     1      14.997   8.674  -0.450  1.00  0.00     0.031 A 
ATOM     53  C   UNL     1      10.327  12.745   1.634  1.00  0.00     0.049 A 
ATOM     54  C   UNL     1      14.556  10.047  -0.882  1.00  0.00     0.074 A 
ATOM     55  C   UNL     1      10.066  14.031   1.196  1.00  0.00     0.029 A 
ATOM     56  N   UNL     1      11.385  12.269   0.874  1.00  0.00    -0.354 N 
ATOM     57  N   UNL     1      13.598  10.797  -0.391  1.00  0.00    -0.248 NA
ATOM     58  C   UNL     1      15.284  10.658  -2.003  1.00  0.00     0.031 C 
ATOM     59  C   UNL     1      10.930  14.313   0.135  1.00  0.00     0.029 A 
ATOM     60  C   UNL     1      11.777  13.229  -0.043  1.00  0.00     0.049 A 
ATOM     61  H   UNL     1      11.796  11.380   0.972  1.00  0.00     0.167 HD
ATOM     62  C   UNL     1      13.637  11.985  -1.113  1.00  0.00     0.074 A 
ATOM     63  C   UNL     1      14.711  11.853  -2.077  1.00  0.00     0.031 C 
ATOM     64  C   UNL     1      12.861  13.088  -0.982  1.00  0.00     0.031 A 
BRANCH  51  65
ATOM     65  C   UNL     1       8.490  12.631   3.376  1.00  0.00    -0.014 A 
ATOM     66  C   UNL     1       8.563  12.993   4.734  1.00  0.00     0.010 A 
ATOM     67  C   UNL     1       7.301  12.880   2.666  1.00  0.00     0.010 A 
ATOM     68  C   UNL     1       7.453  13.540   5.382  1.00  0.00     0.020 A 
ATOM     69  C   UNL     1       6.200  13.460   3.302  1.00  0.00     0.020 A 
ATOM     70  C   UNL     1       6.276  13.765   4.662  1.00  0.00     0.054 A 
BRANCH  70  71
ATOM     71  S   UNL     1       4.853  14.480   5.529  1.00  0.00     0.124 S 
ATOM     72  O   UNL     1       4.415  13.362   6.361  1.00  0.00    -0.237 OA
ATOM     73  O   UNL     1       5.448  15.603   6.250  1.00  0.00    -0.237 OA
ATOM     74  O   UNL     1       3.939  14.849   4.451  1.00  0.00    -0.744 OA
ENDBRANCH  70  71
ENDBRANCH  51  65
BRANCH  52  75
ATOM     75  C   UNL     1      16.121   7.980  -1.136  1.00  0.00    -0.014 A 
ATOM     76  C   UNL     1      17.439   8.447  -0.988  1.00  0.00     0.010 A 
ATOM     77  C   UNL     1      15.886   6.839  -1.925  1.00  0.00     0.010 A 
ATOM     78  C   UNL     1      18.499   7.796  -1.627  1.00  0.00     0.020 A 
ATOM     79  C   UNL     1      16.946   6.168  -2.542  1.00  0.00     0.020 A 
ATOM     80  C   UNL     1      18.245   6.657  -2.397  1.00  0.00     0.054 A 
BRANCH  80  81
ATOM     81  S   UNL     1      19.644   5.797  -3.170  1.00  0.00     0.124 S 
ATOM     82  O   UNL     1      20.022   6.726  -4.230  1.00  0.00    -0.237 OA
ATOM     83  O   UNL     1      20.590   5.679  -2.063  1.00  0.00    -0.237 OA
ATOM     84  O   UNL     1      19.062   4.535  -3.620  1.00  0.00    -0.744 OA
ENDBRANCH  80  81
ENDBRANCH  52  75
BRANCH  64  85
ATOM     85  C   UNL     1      13.175  14.277  -1.851  1.00  0.00    -0.014 A 
ATOM     86  C   UNL     1      12.865  14.290  -3.221  1.00  0.00     0.010 A 
ATOM     87  C   UNL     1      13.700  15.439  -1.254  1.00  0.00     0.010 A 
ATOM     88  C   UNL     1      13.084  15.443  -3.982  1.00  0.00     0.020 A 
ATOM     89  C   UNL     1      13.893  16.601  -2.004  1.00  0.00     0.020 A 
ATOM     90  C   UNL     1      13.589  16.593  -3.366  1.00  0.00     0.054 A 
BRANCH  90  91
ATOM     91  S   UNL     1      13.782  18.100  -4.357  1.00  0.00     0.124 S 
ATOM     92  O   UNL     1      14.928  17.767  -5.198  1.00  0.00    -0.237 OA
ATOM     93  O   UNL     1      12.500  18.193  -5.050  1.00  0.00    -0.237 OA
ATOM     94  O   UNL     1      14.023  19.142  -3.361  1.00  0.00    -0.744 OA
ENDBRANCH  90  91
ENDBRANCH  64  85
ENDBRANCH  38  39
ENDBRANCH  30  33
ENDBRANCH  28  29
ENDBRANCH  27  28
ENDBRANCH  26  27
ENDBRANCH   1  26
TORSDOF 20
