REMARK SMILES Cc1cccc(NS(=O)(=O)c2ccc(Br)c(C(=O)NCCCCCCNC(=O)c3ccc(-c4c5nc(c(-c6ccc(S(=O)(=O)[O-])cc6)c6ccc([nH]6)c(-c6ccc(S(=O)(=O)[O-])cc6)c6nc(c(-c7ccc(S(=O)(=O)[O-])cc7)c7ccc4[nH]7)C=C6)C=C5)cc3)c2)c1
REMARK SMILES IDX 22 1 21 2 20 3 19 4 17 5 18 6 16 8 11 9 12 10 89 11 13 12
REMARK SMILES IDX 14 13 15 14 8 15 9 16 10 17 7 18 6 20 1 21 2 22 3 23 90 24
REMARK SMILES IDX 4 25 5 26 23 27 24 28 25 29 26 30 27 31 28 33 29 34 30 35
REMARK SMILES IDX 88 36 31 37 87 38 32 39 33 40 34 41 81 42 35 43 86 44 80 45
REMARK SMILES IDX 82 46 36 47 85 48 79 49 78 50 37 52 67 53 48 54 66 55 49 56
REMARK SMILES IDX 52 57 65 58 83 59 50 60 51 61 64 63 84 64 53 65 38 66 39 67
REMARK SMILES IDX 47 68 40 69 46 70 41 71 42 72 43 73 44 74 45 75 68 76 69 77
REMARK SMILES IDX 77 78 70 79 76 80 71 81 72 82 73 83 74 84 75 85 54 86 55 87
REMARK SMILES IDX 63 88 56 89 62 90 57 91 58 92 59 93 60 94 61 95
REMARK H PARENT 19 7 7 19 26 32 82 51 52 62
REMARK Flexibility Score: inf
ROOT
ATOM      1  C   UNL     1      -9.661  -4.850   0.918  1.00  0.00     0.002 C 
ENDROOT
BRANCH   1   2
ATOM      2  C   UNL     1      -8.359  -4.288   1.493  1.00  0.00     0.021 C 
BRANCH   2   3
ATOM      3  C   UNL     1      -7.410  -3.523   0.581  1.00  0.00     0.116 C 
BRANCH   3   4
ATOM      4  N   UNL     1      -7.906  -2.334  -0.080  1.00  0.00    -0.352 N 
ATOM      5  C   UNL     1      -7.196  -1.261  -0.588  1.00  0.00     0.252 C 
ATOM      6  O   UNL     1      -7.789  -0.429  -1.275  1.00  0.00    -0.269 OA
ATOM      7  H   UNL     1      -8.884  -2.282  -0.182  1.00  0.00     0.163 HD
BRANCH   5   8
ATOM      8  C   UNL     1      -5.776  -0.992  -0.208  1.00  0.00     0.055 A 
ATOM      9  C   UNL     1      -4.165   0.681   0.534  1.00  0.00     0.088 A 
ATOM     10  C   UNL     1      -3.322  -0.322   1.000  1.00  0.00     0.023 A 
ATOM     11  C   UNL     1      -5.431   0.351   0.025  1.00  0.00     0.037 A 
ATOM     12  C   UNL     1      -3.587  -1.633   0.614  1.00  0.00     0.018 A 
ATOM     13  C   UNL     1      -4.753  -1.937  -0.101  1.00  0.00     0.030 A 
ATOM     14  Br  UNL     1      -4.656  -3.490  -1.200  1.00  0.00    -0.050 Br
BRANCH   9  15
ATOM     15  S   UNL     1      -3.550   2.327   0.215  1.00  0.00     0.261 S 
ATOM     16  O   UNL     1      -3.942   3.147   1.341  1.00  0.00    -0.201 OA
ATOM     17  O   UNL     1      -3.938   2.670  -1.137  1.00  0.00    -0.201 OA
BRANCH  15  18
ATOM     18  N   UNL     1      -1.876   2.287   0.259  1.00  0.00    -0.280 N 
ATOM     19  H   UNL     1      -1.440   3.009   0.767  1.00  0.00     0.180 HD
BRANCH  18  20
ATOM     20  C   UNL     1      -1.003   1.337  -0.349  1.00  0.00     0.049 A 
ATOM     21  C   UNL     1       2.595   0.288   0.349  1.00  0.00     0.044 C 
ATOM     22  C   UNL     1       1.204   0.300  -0.212  1.00  0.00    -0.049 A 
ATOM     23  C   UNL     1       0.741  -0.757  -0.997  1.00  0.00     0.003 A 
ATOM     24  C   UNL     1       0.319   1.336   0.116  1.00  0.00     0.030 A 
ATOM     25  C   UNL     1      -0.542  -0.711  -1.545  1.00  0.00     0.002 A 
ATOM     26  C   UNL     1      -1.395   0.364  -1.268  1.00  0.00     0.027 A 
ENDBRANCH  18  20
ENDBRANCH  15  18
ENDBRANCH   9  15
ENDBRANCH   5   8
ENDBRANCH   3   4
ENDBRANCH   2   3
ENDBRANCH   1   2
BRANCH   1  27
ATOM     27  C   UNL     1      -9.671  -5.511  -0.467  1.00  0.00     0.002 C 
BRANCH  27  28
ATOM     28  C   UNL     1      -8.594  -6.539  -0.809  1.00  0.00     0.021 C 
BRANCH  28  29
ATOM     29  C   UNL     1      -8.481  -7.731   0.133  1.00  0.00     0.116 C 
BRANCH  29  30
ATOM     30  N   UNL     1      -8.941  -8.975  -0.468  1.00  0.00    -0.352 N 
ATOM     31  C   UNL     1      -8.610 -10.265  -0.093  1.00  0.00     0.251 C 
ATOM     32  H   UNL     1      -9.560  -8.888  -1.229  1.00  0.00     0.163 HD
ATOM     33  O   UNL     1      -8.762 -11.227  -0.828  1.00  0.00    -0.269 OA
BRANCH  31  34
ATOM     34  C   UNL     1      -8.197 -10.453   1.312  1.00  0.00     0.039 A 
ATOM     35  C   UNL     1      -9.135 -11.039   2.171  1.00  0.00     0.014 A 
ATOM     36  C   UNL     1      -7.065  -9.815   1.806  1.00  0.00     0.014 A 
ATOM     37  C   UNL     1      -9.032 -10.829   3.542  1.00  0.00     0.010 A 
ATOM     38  C   UNL     1      -7.012  -9.533   3.157  1.00  0.00     0.010 A 
ATOM     39  C   UNL     1      -8.022  -9.995   4.017  1.00  0.00    -0.014 A 
BRANCH  39  40
ATOM     40  C   UNL     1      -7.958  -9.491   5.384  1.00  0.00     0.031 A 
ATOM     41  C   UNL     1      -6.945 -10.031   6.321  1.00  0.00     0.074 A 
ATOM     42  C   UNL     1      -8.737  -8.454   5.764  1.00  0.00     0.049 A 
ATOM     43  N   UNL     1      -6.962  -9.857   7.601  1.00  0.00    -0.248 NA
ATOM     44  C   UNL     1      -5.862 -10.906   5.878  1.00  0.00     0.031 C 
ATOM     45  C   UNL     1      -8.528  -7.583   6.919  1.00  0.00     0.029 A 
ATOM     46  N   UNL     1     -10.017  -8.116   5.317  1.00  0.00    -0.354 N 
ATOM     47  C   UNL     1      -5.756 -10.303   8.092  1.00  0.00     0.074 A 
ATOM     48  C   UNL     1      -5.179 -11.068   7.013  1.00  0.00     0.031 C 
ATOM     49  C   UNL     1      -9.705  -7.048   7.271  1.00  0.00     0.029 A 
ATOM     50  C   UNL     1     -10.723  -7.685   6.454  1.00  0.00     0.049 A 
ATOM     51  H   UNL     1     -10.355  -8.169   4.394  1.00  0.00     0.167 HD
ATOM     52  C   UNL     1      -5.311  -9.843   9.296  1.00  0.00     0.031 A 
ATOM     53  C   UNL     1     -11.855  -8.278   6.935  1.00  0.00     0.031 A 
ATOM     54  C   UNL     1      -6.368  -9.145  10.029  1.00  0.00     0.049 A 
ATOM     55  C   UNL     1     -11.742  -8.701   8.384  1.00  0.00     0.074 A 
ATOM     56  C   UNL     1      -6.628  -7.811  10.294  1.00  0.00     0.029 A 
ATOM     57  N   UNL     1      -7.509  -9.850  10.399  1.00  0.00    -0.354 N 
ATOM     58  N   UNL     1     -10.612  -8.797   9.028  1.00  0.00    -0.248 NA
ATOM     59  C   UNL     1     -12.883  -9.097   9.205  1.00  0.00     0.031 C 
ATOM     60  C   UNL     1      -7.974  -7.710  10.739  1.00  0.00     0.029 A 
ATOM     61  C   UNL     1      -8.515  -8.984  10.780  1.00  0.00     0.049 A 
ATOM     62  H   UNL     1      -7.588 -10.831  10.391  1.00  0.00     0.167 HD
ATOM     63  C   UNL     1     -10.840  -9.266  10.294  1.00  0.00     0.074 A 
ATOM     64  C   UNL     1     -12.282  -9.419  10.364  1.00  0.00     0.031 C 
ATOM     65  C   UNL     1      -9.820  -9.504  11.170  1.00  0.00     0.031 A 
BRANCH  52  66
ATOM     66  C   UNL     1      -3.845  -9.794   9.697  1.00  0.00    -0.014 A 
ATOM     67  C   UNL     1      -3.447  -9.012  10.804  1.00  0.00     0.010 A 
ATOM     68  C   UNL     1      -2.795 -10.390   8.970  1.00  0.00     0.010 A 
ATOM     69  C   UNL     1      -2.093  -8.784  11.115  1.00  0.00     0.020 A 
ATOM     70  C   UNL     1      -1.442 -10.179   9.269  1.00  0.00     0.020 A 
ATOM     71  C   UNL     1      -1.096  -9.357  10.329  1.00  0.00     0.054 A 
BRANCH  71  72
ATOM     72  S   UNL     1       0.646  -9.001  10.675  1.00  0.00     0.124 S 
ATOM     73  O   UNL     1       0.722  -7.561  10.443  1.00  0.00    -0.237 OA
ATOM     74  O   UNL     1       0.788  -9.427  12.063  1.00  0.00    -0.237 OA
ATOM     75  O   UNL     1       1.367  -9.819   9.701  1.00  0.00    -0.744 OA
ENDBRANCH  71  72
ENDBRANCH  52  66
BRANCH  53  76
ATOM     76  C   UNL     1     -12.666  -8.984   5.906  1.00  0.00    -0.014 A 
ATOM     77  C   UNL     1     -13.335  -8.188   4.953  1.00  0.00     0.010 A 
ATOM     78  C   UNL     1     -12.403 -10.333   5.609  1.00  0.00     0.010 A 
ATOM     79  C   UNL     1     -13.561  -8.672   3.663  1.00  0.00     0.020 A 
ATOM     80  C   UNL     1     -12.638 -10.822   4.316  1.00  0.00     0.020 A 
ATOM     81  C   UNL     1     -13.143  -9.962   3.336  1.00  0.00     0.054 A 
BRANCH  81  82
ATOM     82  S   UNL     1     -13.073 -10.414   1.576  1.00  0.00     0.124 S 
ATOM     83  O   UNL     1     -14.444 -10.181   1.137  1.00  0.00    -0.237 OA
ATOM     84  O   UNL     1     -12.078  -9.470   1.067  1.00  0.00    -0.237 OA
ATOM     85  O   UNL     1     -12.647 -11.810   1.605  1.00  0.00    -0.744 OA
ENDBRANCH  81  82
ENDBRANCH  53  76
BRANCH  65  86
ATOM     86  C   UNL     1      -9.945 -10.199  12.507  1.00  0.00    -0.014 A 
ATOM     87  C   UNL     1     -10.976 -11.093  12.839  1.00  0.00     0.010 A 
ATOM     88  C   UNL     1      -8.900 -10.051  13.451  1.00  0.00     0.010 A 
ATOM     89  C   UNL     1     -10.998 -11.755  14.076  1.00  0.00     0.020 A 
ATOM     90  C   UNL     1      -8.889 -10.739  14.668  1.00  0.00     0.020 A 
ATOM     91  C   UNL     1      -9.956 -11.571  14.985  1.00  0.00     0.054 A 
BRANCH  91  92
ATOM     92  S   UNL     1      -9.952 -12.483  16.550  1.00  0.00     0.124 S 
ATOM     93  O   UNL     1     -10.665 -11.565  17.435  1.00  0.00    -0.237 OA
ATOM     94  O   UNL     1     -10.668 -13.713  16.218  1.00  0.00    -0.237 OA
ATOM     95  O   UNL     1      -8.531 -12.658  16.838  1.00  0.00    -0.744 OA
ENDBRANCH  91  92
ENDBRANCH  65  86
ENDBRANCH  39  40
ENDBRANCH  31  34
ENDBRANCH  29  30
ENDBRANCH  28  29
ENDBRANCH  27  28
ENDBRANCH   1  27
TORSDOF 19
