REMARK SMILES Cc1ccc(S(=O)(=O)Nc2cc3c(cc2C(=O)NCCCCCCNC(=O)c2ccc(-c4c5nc(c(-c6ccc(S(=O)(=O)[O-])cc6)c6ccc([nH]6)c(-c6ccc(S(=O)(=O)[O-])cc6)c6nc(c(-c7ccc(S(=O)(=O)[O-])cc7)c7ccc4[nH]7)C=C6)C=C5)cc2)OCCO3)s1
REMARK SMILES IDX 21 1 20 2 19 3 18 4 16 5 17 6 15 8 10 9 11 10 12 11 14 12
REMARK SMILES IDX 13 13 91 14 88 15 90 16 89 17 9 18 6 20 7 21 8 22 5 23 1 24
REMARK SMILES IDX 2 25 3 26 92 27 4 28 22 29 23 30 24 31 25 32 26 33 27 35
REMARK SMILES IDX 28 36 29 37 87 38 30 39 86 40 31 41 32 42 33 43 80 44 34 45
REMARK SMILES IDX 85 46 79 47 81 48 35 49 84 50 78 51 77 52 36 54 66 55 47 56
REMARK SMILES IDX 65 57 48 58 51 59 64 60 82 61 49 62 50 63 63 65 83 66 52 67
REMARK SMILES IDX 37 68 38 69 46 70 39 71 45 72 40 73 41 74 42 75 43 76 44 77
REMARK SMILES IDX 67 78 68 79 76 80 69 81 75 82 70 83 71 84 72 85 73 86 74 87
REMARK SMILES IDX 53 88 54 89 62 90 55 91 61 92 56 93 57 94 58 95 59 96 60 97
REMARK H PARENT 18 7 9 19 25 34 81 53 51 64
REMARK Flexibility Score: inf
ROOT
ATOM      1  C   UNL     1       1.578  -2.033   3.686  1.00  0.00     0.002 C 
ENDROOT
BRANCH   1   2
ATOM      2  C   UNL     1       0.983  -2.730   2.464  1.00  0.00     0.021 C 
BRANCH   2   3
ATOM      3  C   UNL     1      -0.492  -3.112   2.516  1.00  0.00     0.116 C 
BRANCH   3   4
ATOM      4  N   UNL     1      -1.389  -2.036   2.895  1.00  0.00    -0.352 N 
ATOM      5  C   UNL     1      -2.676  -1.758   2.493  1.00  0.00     0.253 C 
ATOM      6  O   UNL     1      -3.290  -0.862   3.067  1.00  0.00    -0.269 OA
ATOM      7  H   UNL     1      -1.016  -1.400   3.546  1.00  0.00     0.163 HD
BRANCH   5   8
ATOM      8  C   UNL     1      -3.317  -2.503   1.376  1.00  0.00     0.067 A 
ATOM      9  C   UNL     1      -4.031  -1.818   0.370  1.00  0.00     0.066 A 
ATOM     10  C   UNL     1      -4.587  -2.531  -0.701  1.00  0.00     0.078 A 
ATOM     11  C   UNL     1      -4.422  -3.914  -0.778  1.00  0.00     0.163 A 
ATOM     12  C   UNL     1      -3.239  -3.900   1.330  1.00  0.00     0.066 A 
ATOM     13  C   UNL     1      -3.735  -4.592   0.230  1.00  0.00     0.162 A 
ATOM     14  O   UNL     1      -4.944  -4.542  -1.880  1.00  0.00    -0.486 OA
ATOM     15  O   UNL     1      -3.493  -5.940   0.199  1.00  0.00    -0.486 OA
ATOM     16  C   UNL     1      -4.947  -5.970  -1.734  1.00  0.00     0.271 C 
ATOM     17  C   UNL     1      -3.642  -6.459  -1.128  1.00  0.00     0.271 C 
BRANCH   9  18
ATOM     18  N   UNL     1      -4.187  -0.394   0.421  1.00  0.00    -0.278 N 
ATOM     19  H   UNL     1      -4.808   0.022   1.062  1.00  0.00     0.180 HD
BRANCH  18  20
ATOM     20  S   UNL     1      -3.284   0.554  -0.644  1.00  0.00     0.271 S 
ATOM     21  O   UNL     1      -3.302   1.907  -0.140  1.00  0.00    -0.200 OA
ATOM     22  O   UNL     1      -3.766   0.265  -1.982  1.00  0.00    -0.200 OA
BRANCH  20  23
ATOM     23  C   UNL     1      -1.599  -0.020  -0.654  1.00  0.00     0.140 A 
ATOM     24  C   UNL     1       2.257   0.179   0.053  1.00  0.00     0.056 C 
ATOM     25  C   UNL     1       0.847  -0.123  -0.326  1.00  0.00     0.003 A 
ATOM     26  C   UNL     1       0.375  -1.197  -1.052  1.00  0.00     0.016 A 
ATOM     27  S   UNL     1      -0.424   0.921   0.151  1.00  0.00    -0.127 S 
ATOM     28  C   UNL     1      -1.032  -1.138  -1.239  1.00  0.00     0.034 A 
ENDBRANCH  20  23
ENDBRANCH  18  20
ENDBRANCH   9  18
ENDBRANCH   5   8
ENDBRANCH   3   4
ENDBRANCH   2   3
ENDBRANCH   1   2
BRANCH   1  29
ATOM     29  C   UNL     1       1.396  -2.731   5.033  1.00  0.00     0.002 C 
BRANCH  29  30
ATOM     30  C   UNL     1       1.806  -4.203   5.101  1.00  0.00     0.021 C 
BRANCH  30  31
ATOM     31  C   UNL     1       3.204  -4.543   4.593  1.00  0.00     0.116 C 
BRANCH  31  32
ATOM     32  N   UNL     1       4.263  -3.888   5.339  1.00  0.00    -0.352 N 
ATOM     33  C   UNL     1       5.400  -4.426   5.892  1.00  0.00     0.251 C 
ATOM     34  H   UNL     1       4.150  -2.918   5.467  1.00  0.00     0.163 HD
ATOM     35  O   UNL     1       6.134  -3.723   6.582  1.00  0.00    -0.269 OA
BRANCH  33  36
ATOM     36  C   UNL     1       5.726  -5.857   5.690  1.00  0.00     0.039 A 
ATOM     37  C   UNL     1       6.095  -6.622   6.801  1.00  0.00     0.014 A 
ATOM     38  C   UNL     1       5.677  -6.445   4.423  1.00  0.00     0.014 A 
ATOM     39  C   UNL     1       6.345  -7.989   6.654  1.00  0.00     0.010 A 
ATOM     40  C   UNL     1       5.873  -7.820   4.286  1.00  0.00     0.010 A 
ATOM     41  C   UNL     1       6.203  -8.607   5.401  1.00  0.00    -0.014 A 
BRANCH  41  42
ATOM     42  C   UNL     1       6.376 -10.074   5.245  1.00  0.00     0.031 A 
ATOM     43  C   UNL     1       7.518 -10.627   4.438  1.00  0.00     0.074 A 
ATOM     44  C   UNL     1       5.465 -10.912   5.781  1.00  0.00     0.049 A 
ATOM     45  N   UNL     1       7.791 -11.873   4.142  1.00  0.00    -0.248 NA
ATOM     46  C   UNL     1       8.465  -9.653   3.873  1.00  0.00     0.031 C 
ATOM     47  C   UNL     1       4.290 -10.504   6.555  1.00  0.00     0.029 A 
ATOM     48  N   UNL     1       5.380 -12.282   5.747  1.00  0.00    -0.354 N 
ATOM     49  C   UNL     1       8.928 -11.833   3.344  1.00  0.00     0.074 A 
ATOM     50  C   UNL     1       9.273 -10.437   3.172  1.00  0.00     0.031 C 
ATOM     51  C   UNL     1       3.612 -11.599   6.936  1.00  0.00     0.029 A 
ATOM     52  C   UNL     1       4.283 -12.783   6.408  1.00  0.00     0.049 A 
ATOM     53  H   UNL     1       6.042 -12.851   5.292  1.00  0.00     0.167 HD
ATOM     54  C   UNL     1       9.630 -12.863   2.813  1.00  0.00     0.031 A 
ATOM     55  C   UNL     1       3.859 -14.052   6.566  1.00  0.00     0.031 A 
ATOM     56  C   UNL     1       9.297 -14.251   2.994  1.00  0.00     0.049 A 
ATOM     57  C   UNL     1       4.657 -15.178   5.972  1.00  0.00     0.074 A 
ATOM     58  C   UNL     1       9.980 -15.366   2.538  1.00  0.00     0.029 A 
ATOM     59  N   UNL     1       8.189 -14.716   3.685  1.00  0.00    -0.354 N 
ATOM     60  N   UNL     1       5.759 -15.120   5.265  1.00  0.00    -0.248 NA
ATOM     61  C   UNL     1       4.157 -16.541   6.205  1.00  0.00     0.031 C 
ATOM     62  C   UNL     1       9.264 -16.505   2.923  1.00  0.00     0.029 A 
ATOM     63  C   UNL     1       8.159 -16.101   3.654  1.00  0.00     0.049 A 
ATOM     64  H   UNL     1       7.522 -14.147   4.132  1.00  0.00     0.167 HD
ATOM     65  C   UNL     1       6.097 -16.440   4.985  1.00  0.00     0.074 A 
ATOM     66  C   UNL     1       5.090 -17.273   5.610  1.00  0.00     0.031 C 
ATOM     67  C   UNL     1       7.149 -16.917   4.276  1.00  0.00     0.031 A 
BRANCH  54  68
ATOM     68  C   UNL     1      10.831 -12.521   1.974  1.00  0.00    -0.014 A 
ATOM     69  C   UNL     1      12.013 -12.040   2.564  1.00  0.00     0.010 A 
ATOM     70  C   UNL     1      10.790 -12.715   0.581  1.00  0.00     0.010 A 
ATOM     71  C   UNL     1      13.119 -11.718   1.773  1.00  0.00     0.020 A 
ATOM     72  C   UNL     1      11.902 -12.416  -0.211  1.00  0.00     0.020 A 
ATOM     73  C   UNL     1      13.053 -11.901   0.389  1.00  0.00     0.054 A 
BRANCH  73  74
ATOM     74  S   UNL     1      14.505 -11.486  -0.617  1.00  0.00     0.124 S 
ATOM     75  O   UNL     1      14.433 -10.028  -0.660  1.00  0.00    -0.237 OA
ATOM     76  O   UNL     1      15.609 -12.037   0.166  1.00  0.00    -0.237 OA
ATOM     77  O   UNL     1      14.250 -12.161  -1.887  1.00  0.00    -0.744 OA
ENDBRANCH  73  74
ENDBRANCH  54  68
BRANCH  55  78
ATOM     78  C   UNL     1       2.616 -14.324   7.336  1.00  0.00    -0.014 A 
ATOM     79  C   UNL     1       2.684 -14.870   8.629  1.00  0.00     0.010 A 
ATOM     80  C   UNL     1       1.358 -14.020   6.785  1.00  0.00     0.010 A 
ATOM     81  C   UNL     1       1.516 -15.119   9.355  1.00  0.00     0.020 A 
ATOM     82  C   UNL     1       0.189 -14.247   7.516  1.00  0.00     0.020 A 
ATOM     83  C   UNL     1       0.275 -14.805   8.793  1.00  0.00     0.054 A 
BRANCH  83  84
ATOM     84  S   UNL     1      -1.228 -15.077   9.773  1.00  0.00     0.124 S 
ATOM     85  O   UNL     1      -1.419 -16.517   9.641  1.00  0.00    -0.237 OA
ATOM     86  O   UNL     1      -0.832 -14.609  11.099  1.00  0.00    -0.237 OA
ATOM     87  O   UNL     1      -2.225 -14.246   9.101  1.00  0.00    -0.744 OA
ENDBRANCH  83  84
ENDBRANCH  55  78
BRANCH  67  88
ATOM     88  C   UNL     1       7.278 -18.410   4.154  1.00  0.00    -0.014 A 
ATOM     89  C   UNL     1       6.442 -19.142   3.292  1.00  0.00     0.010 A 
ATOM     90  C   UNL     1       8.280 -19.083   4.877  1.00  0.00     0.010 A 
ATOM     91  C   UNL     1       6.589 -20.527   3.176  1.00  0.00     0.020 A 
ATOM     92  C   UNL     1       8.443 -20.464   4.747  1.00  0.00     0.020 A 
ATOM     93  C   UNL     1       7.587 -21.180   3.907  1.00  0.00     0.054 A 
BRANCH  93  94
ATOM     94  S   UNL     1       7.788 -22.972   3.708  1.00  0.00     0.124 S 
ATOM     95  O   UNL     1       6.691 -23.492   4.519  1.00  0.00    -0.237 OA
ATOM     96  O   UNL     1       7.645 -23.155   2.265  1.00  0.00    -0.237 OA
ATOM     97  O   UNL     1       9.128 -23.228   4.231  1.00  0.00    -0.744 OA
ENDBRANCH  93  94
ENDBRANCH  67  88
ENDBRANCH  41  42
ENDBRANCH  33  36
ENDBRANCH  31  32
ENDBRANCH  30  31
ENDBRANCH  29  30
ENDBRANCH   1  29
TORSDOF 19
