REMARK SMILES O=C(Cn1nc(C(=O)NCCCCCCNC(=O)c2ccc(-c3c4nc(c(-c5ccc(S(=O)(=O)[O-])cc5)c5ccc([nH]5)c(-c5ccc(S(=O)(=O)[O-])cc5)c5nc(c(-c6ccc(S(=O)(=O)[O-])cc6)c6ccc3[nH]6)C=C5)C=C4)cc2)c2ccccc2c1=O)Nc1ccc2c(c1)C(=O)c1ccccc1C2=O
REMARK SMILES IDX 12 1 11 2 10 3 9 4 7 5 8 6 6 8 4 9 5 10 85 11 84 12 86 13
REMARK SMILES IDX 79 14 83 15 80 16 82 17 81 18 3 19 2 20 1 21 87 22 88 24
REMARK SMILES IDX 89 25 93 26 90 27 92 28 91 29 94 30 102 31 95 32 96 33
REMARK SMILES IDX 101 34 103 35 97 36 100 37 98 38 99 39 13 40 14 41 15 42
REMARK SMILES IDX 16 43 17 44 18 46 19 47 20 48 78 49 21 50 77 51 22 52 23 53
REMARK SMILES IDX 24 54 71 55 25 56 76 57 70 58 72 59 26 60 75 61 69 62 68 63
REMARK SMILES IDX 27 65 57 66 38 67 56 68 39 69 42 70 55 71 73 72 40 73 41 74
REMARK SMILES IDX 54 76 74 77 43 78 28 79 29 80 37 81 30 82 36 83 31 84 32 85
REMARK SMILES IDX 33 86 34 87 35 88 58 89 59 90 67 91 60 92 66 93 61 94 62 95
REMARK SMILES IDX 63 96 64 97 65 98 44 99 45 100 53 101 46 102 52 103 47 104
REMARK SMILES IDX 48 105 49 106 50 107 51 108
REMARK H PARENT 9 7 87 23 16 45 72 64 42 75
REMARK Flexibility Score: inf
ROOT
ATOM      1  C   UNL     1       8.569  -1.928  -4.681  1.00  0.00     0.002 C 
ENDROOT
BRANCH   1   2
ATOM      2  C   UNL     1       7.115  -1.509  -4.457  1.00  0.00     0.021 C 
BRANCH   2   3
ATOM      3  C   UNL     1       6.742  -0.889  -3.114  1.00  0.00     0.116 C 
BRANCH   3   4
ATOM      4  N   UNL     1       7.537   0.264  -2.744  1.00  0.00    -0.351 N 
ATOM      5  C   UNL     1       7.155   1.365  -2.009  1.00  0.00     0.272 C 
ATOM      6  O   UNL     1       8.014   2.077  -1.498  1.00  0.00    -0.267 OA
ATOM      7  H   UNL     1       8.470   0.260  -3.057  1.00  0.00     0.163 HD
BRANCH   5   8
ATOM      8  C   UNL     1       5.673   1.736  -1.847  1.00  0.00     0.156 A 
ATOM      9  N   UNL     1       3.482   1.064  -1.522  1.00  0.00    -0.219 N 
ATOM     10  N   UNL     1       4.825   0.772  -1.616  1.00  0.00    -0.163 NA
ATOM     11  C   UNL     1       2.964   2.354  -1.564  1.00  0.00     0.275 A 
ATOM     12  C   UNL     1       3.927   3.451  -1.711  1.00  0.00     0.051 A 
ATOM     13  O   UNL     1       1.767   2.617  -1.513  1.00  0.00    -0.267 OA
ATOM     14  C   UNL     1       5.269   3.163  -1.935  1.00  0.00     0.020 A 
ATOM     15  C   UNL     1       3.466   4.777  -1.689  1.00  0.00     0.014 A 
ATOM     16  C   UNL     1       6.147   4.222  -2.203  1.00  0.00     0.011 A 
ATOM     17  C   UNL     1       4.351   5.824  -1.925  1.00  0.00     0.001 A 
ATOM     18  C   UNL     1       5.687   5.545  -2.197  1.00  0.00     0.001 A 
BRANCH   9  19
ATOM     19  C   UNL     1       2.539  -0.057  -1.581  1.00  0.00     0.248 C 
BRANCH  19  20
ATOM     20  C   UNL     1       1.689  -0.090  -0.318  1.00  0.00     0.246 C 
ATOM     21  O   UNL     1       0.468   0.047  -0.338  1.00  0.00    -0.273 OA
ATOM     22  N   UNL     1       2.401  -0.353   0.832  1.00  0.00    -0.324 N 
ATOM     23  H   UNL     1       3.187  -0.943   0.768  1.00  0.00     0.169 HD
BRANCH  22  24
ATOM     24  C   UNL     1       2.070   0.172   2.088  1.00  0.00     0.042 A 
ATOM     25  C   UNL     1       2.384  -0.581   3.224  1.00  0.00     0.027 A 
ATOM     26  C   UNL     1       1.692   1.515   2.202  1.00  0.00     0.039 A 
ATOM     27  C   UNL     1       2.378   0.014   4.483  1.00  0.00     0.015 A 
ATOM     28  C   UNL     1       1.839   2.138   3.441  1.00  0.00     0.036 A 
ATOM     29  C   UNL     1       2.187   1.392   4.571  1.00  0.00     0.034 A 
ATOM     30  C   UNL     1       1.921   3.615   3.504  1.00  0.00     0.194 C 
ATOM     31  C   UNL     1       2.612   2.092   5.796  1.00  0.00     0.194 C 
ATOM     32  O   UNL     1       1.333   4.339   2.714  1.00  0.00    -0.289 OA
ATOM     33  C   UNL     1       2.884   4.169   4.479  1.00  0.00     0.034 A 
ATOM     34  C   UNL     1       3.231   3.415   5.599  1.00  0.00     0.034 A 
ATOM     35  O   UNL     1       2.575   1.559   6.897  1.00  0.00    -0.289 OA
ATOM     36  C   UNL     1       3.545   5.369   4.207  1.00  0.00     0.013 A 
ATOM     37  C   UNL     1       4.253   3.841   6.450  1.00  0.00     0.013 A 
ATOM     38  C   UNL     1       4.587   5.782   5.040  1.00  0.00     0.001 A 
ATOM     39  C   UNL     1       4.943   5.018   6.155  1.00  0.00     0.001 A 
ENDBRANCH  22  24
ENDBRANCH  19  20
ENDBRANCH   9  19
ENDBRANCH   5   8
ENDBRANCH   3   4
ENDBRANCH   2   3
ENDBRANCH   1   2
BRANCH   1  40
ATOM     40  C   UNL     1       9.248  -2.790  -3.616  1.00  0.00     0.002 C 
BRANCH  40  41
ATOM     41  C   UNL     1       8.499  -4.026  -3.116  1.00  0.00     0.021 C 
BRANCH  41  42
ATOM     42  C   UNL     1       7.950  -4.979  -4.171  1.00  0.00     0.116 C 
BRANCH  42  43
ATOM     43  N   UNL     1       8.971  -5.644  -4.960  1.00  0.00    -0.352 N 
ATOM     44  C   UNL     1       9.024  -6.960  -5.367  1.00  0.00     0.251 C 
ATOM     45  H   UNL     1       9.727  -5.080  -5.241  1.00  0.00     0.163 HD
ATOM     46  O   UNL     1      10.005  -7.370  -5.982  1.00  0.00    -0.269 OA
BRANCH  44  47
ATOM     47  C   UNL     1       7.925  -7.894  -5.019  1.00  0.00     0.039 A 
ATOM     48  C   UNL     1       6.585  -7.543  -5.202  1.00  0.00     0.014 A 
ATOM     49  C   UNL     1       8.248  -9.142  -4.476  1.00  0.00     0.014 A 
ATOM     50  C   UNL     1       5.577  -8.367  -4.702  1.00  0.00     0.010 A 
ATOM     51  C   UNL     1       7.233  -9.995  -4.026  1.00  0.00     0.010 A 
ATOM     52  C   UNL     1       5.892  -9.591  -4.089  1.00  0.00    -0.014 A 
BRANCH  52  53
ATOM     53  C   UNL     1       4.805 -10.414  -3.498  1.00  0.00     0.031 A 
ATOM     54  C   UNL     1       4.671 -10.549  -2.004  1.00  0.00     0.074 A 
ATOM     55  C   UNL     1       3.884 -10.979  -4.302  1.00  0.00     0.049 A 
ATOM     56  N   UNL     1       3.740 -11.158  -1.315  1.00  0.00    -0.248 NA
ATOM     57  C   UNL     1       5.711  -9.916  -1.177  1.00  0.00     0.031 C 
ATOM     58  C   UNL     1       3.887 -10.908  -5.764  1.00  0.00     0.029 A 
ATOM     59  N   UNL     1       2.748 -11.690  -4.003  1.00  0.00    -0.354 N 
ATOM     60  C   UNL     1       4.084 -10.993   0.021  1.00  0.00     0.074 A 
ATOM     61  C   UNL     1       5.321 -10.241   0.048  1.00  0.00     0.031 C 
ATOM     62  C   UNL     1       2.772 -11.490  -6.231  1.00  0.00     0.029 A 
ATOM     63  C   UNL     1       1.996 -12.009  -5.107  1.00  0.00     0.049 A 
ATOM     64  H   UNL     1       2.498 -11.945  -3.086  1.00  0.00     0.167 HD
ATOM     65  C   UNL     1       3.429 -11.419   1.127  1.00  0.00     0.031 A 
ATOM     66  C   UNL     1       0.807 -12.636  -5.211  1.00  0.00     0.031 A 
ATOM     67  C   UNL     1       2.198 -12.162   1.112  1.00  0.00     0.049 A 
ATOM     68  C   UNL     1       0.105 -13.112  -3.974  1.00  0.00     0.074 A 
ATOM     69  C   UNL     1       1.476 -12.649   2.188  1.00  0.00     0.029 A 
ATOM     70  N   UNL     1       1.501 -12.516  -0.032  1.00  0.00    -0.354 N 
ATOM     71  N   UNL     1       0.465 -12.970  -2.722  1.00  0.00    -0.248 NA
ATOM     72  C   UNL     1      -1.158 -13.840  -4.163  1.00  0.00     0.031 C 
ATOM     73  C   UNL     1       0.351 -13.319   1.692  1.00  0.00     0.029 A 
ATOM     74  C   UNL     1       0.360 -13.221   0.310  1.00  0.00     0.049 A 
ATOM     75  H   UNL     1       1.777 -12.299  -0.952  1.00  0.00     0.167 HD
ATOM     76  C   UNL     1      -0.525 -13.593  -1.972  1.00  0.00     0.074 A 
ATOM     77  C   UNL     1      -1.508 -14.099  -2.909  1.00  0.00     0.031 C 
ATOM     78  C   UNL     1      -0.605 -13.733  -0.628  1.00  0.00     0.031 A 
BRANCH  65  79
ATOM     79  C   UNL     1       4.040 -11.100   2.461  1.00  0.00    -0.014 A 
ATOM     80  C   UNL     1       4.725 -12.098   3.176  1.00  0.00     0.010 A 
ATOM     81  C   UNL     1       3.892  -9.823   3.030  1.00  0.00     0.010 A 
ATOM     82  C   UNL     1       5.257 -11.826   4.439  1.00  0.00     0.020 A 
ATOM     83  C   UNL     1       4.435  -9.543   4.287  1.00  0.00     0.020 A 
ATOM     84  C   UNL     1       5.106 -10.550   4.988  1.00  0.00     0.054 A 
BRANCH  84  85
ATOM     85  S   UNL     1       5.841 -10.181   6.605  1.00  0.00     0.124 S 
ATOM     86  O   UNL     1       4.777 -10.572   7.524  1.00  0.00    -0.237 OA
ATOM     87  O   UNL     1       7.035 -11.024   6.623  1.00  0.00    -0.237 OA
ATOM     88  O   UNL     1       6.110  -8.746   6.527  1.00  0.00    -0.744 OA
ENDBRANCH  84  85
ENDBRANCH  65  79
BRANCH  66  89
ATOM     89  C   UNL     1       0.205 -12.805  -6.557  1.00  0.00    -0.014 A 
ATOM     90  C   UNL     1       0.709 -13.771  -7.445  1.00  0.00     0.010 A 
ATOM     91  C   UNL     1      -0.805 -11.929  -6.989  1.00  0.00     0.010 A 
ATOM     92  C   UNL     1       0.247 -13.827  -8.762  1.00  0.00     0.020 A 
ATOM     93  C   UNL     1      -1.279 -11.992  -8.302  1.00  0.00     0.020 A 
ATOM     94  C   UNL     1      -0.729 -12.922  -9.188  1.00  0.00     0.054 A 
BRANCH  94  95
ATOM     95  S   UNL     1      -1.277 -12.957 -10.917  1.00  0.00     0.124 S 
ATOM     96  O   UNL     1      -0.292 -12.090 -11.558  1.00  0.00    -0.237 OA
ATOM     97  O   UNL     1      -1.188 -14.373 -11.262  1.00  0.00    -0.237 OA
ATOM     98  O   UNL     1      -2.634 -12.421 -10.848  1.00  0.00    -0.744 OA
ENDBRANCH  94  95
ENDBRANCH  66  89
BRANCH  78  99
ATOM     99  C   UNL     1      -1.783 -14.477  -0.068  1.00  0.00    -0.014 A 
ATOM    100  C   UNL     1      -2.835 -13.771   0.539  1.00  0.00     0.010 A 
ATOM    101  C   UNL     1      -1.794 -15.883  -0.051  1.00  0.00     0.010 A 
ATOM    102  C   UNL     1      -3.874 -14.457   1.172  1.00  0.00     0.020 A 
ATOM    103  C   UNL     1      -2.838 -16.573   0.571  1.00  0.00     0.020 A 
ATOM    104  C   UNL     1      -3.861 -15.855   1.196  1.00  0.00     0.054 A 
BRANCH 104 105
ATOM    105  S   UNL     1      -5.205 -16.742   2.032  1.00  0.00     0.124 S 
ATOM    106  O   UNL     1      -4.734 -16.781   3.413  1.00  0.00    -0.237 OA
ATOM    107  O   UNL     1      -6.366 -15.889   1.787  1.00  0.00    -0.237 OA
ATOM    108  O   UNL     1      -5.236 -18.031   1.343  1.00  0.00    -0.744 OA
ENDBRANCH 104 105
ENDBRANCH  78  99
ENDBRANCH  52  53
ENDBRANCH  44  47
ENDBRANCH  42  43
ENDBRANCH  41  42
ENDBRANCH  40  41
ENDBRANCH   1  40
TORSDOF 19
