REMARK SMILES Cc1cc(=O)n2cc(-c3ccccc3)nc2n1[C@H](C)C(=O)NCCCCCCNC(=O)c1ccc(-c2c3nc(c(-c4ccc(S(=O)(=O)[O-])cc4)c4ccc([nH]4)c(-c4ccc(S(=O)(=O)[O-])cc4)c4nc(c(-c5ccc(S(=O)(=O)[O-])cc5)c5ccc2[nH]5)C=C4)C=C3)cc1
REMARK SMILES IDX 26 1 25 2 24 3 23 4 22 5 20 6 21 7 18 9 19 10 17 11 1 12
REMARK SMILES IDX 2 13 3 14 4 15 16 16 5 17 6 18 15 19 7 20 8 21 9 22 10 23
REMARK SMILES IDX 14 24 11 25 13 26 12 27 27 28 28 29 29 30 30 31 31 33 32 34
REMARK SMILES IDX 33 35 91 36 34 37 90 38 35 39 36 40 37 41 84 42 38 43 89 44
REMARK SMILES IDX 83 45 85 46 39 47 88 48 82 49 81 50 40 52 70 53 51 54 69 55
REMARK SMILES IDX 52 56 55 57 68 58 86 59 53 60 54 61 67 63 87 64 56 65 41 66
REMARK SMILES IDX 42 67 50 68 43 69 49 70 44 71 45 72 46 73 47 74 48 75 71 76
REMARK SMILES IDX 72 77 80 78 73 79 79 80 74 81 75 82 76 83 77 84 78 85 57 86
REMARK SMILES IDX 58 87 66 88 59 89 65 90 60 91 61 92 62 93 63 94 64 95
REMARK H PARENT 22 8 29 32 85 51 55 62
REMARK Flexibility Score: inf
ROOT
ATOM      1  C   UNL     1      -4.580  -1.596   6.106  1.00  0.00     0.002 C 
ENDROOT
BRANCH   1   2
ATOM      2  C   UNL     1      -4.493  -0.562   4.969  1.00  0.00     0.002 C 
BRANCH   2   3
ATOM      3  C   UNL     1      -3.102  -0.031   4.629  1.00  0.00     0.021 C 
BRANCH   3   4
ATOM      4  C   UNL     1      -2.036  -1.088   4.404  1.00  0.00     0.116 C 
BRANCH   4   5
ATOM      5  N   UNL     1      -2.218  -1.870   3.209  1.00  0.00    -0.354 N 
ATOM      6  C   UNL     1      -1.257  -2.313   2.353  1.00  0.00     0.242 C 
ATOM      7  O   UNL     1      -1.602  -3.172   1.529  1.00  0.00    -0.273 OA
ATOM      8  H   UNL     1      -3.146  -2.113   2.985  1.00  0.00     0.163 HD
BRANCH   6   9
ATOM      9  C   UNL     1       0.206  -1.799   2.375  1.00  0.00     0.176 C 
ATOM     10  C   UNL     1       0.429  -0.292   2.473  1.00  0.00     0.042 C 
BRANCH   9  11
ATOM     11  N   UNL     1       1.105  -2.666   3.213  1.00  0.00    -0.303 N 
ATOM     12  C   UNL     1       1.864  -3.983   1.162  1.00  0.00     0.065 C 
ATOM     13  C   UNL     1       1.808  -3.765   2.657  1.00  0.00     0.024 A 
ATOM     14  C   UNL     1       2.450  -4.668   3.422  1.00  0.00     0.093 A 
ATOM     15  C   UNL     1       2.402  -4.572   4.886  1.00  0.00     0.259 A 
ATOM     16  C   UNL     1       1.123  -2.494   4.585  1.00  0.00     0.218 A 
ATOM     17  O   UNL     1       2.897  -5.396   5.647  1.00  0.00    -0.269 OA
ATOM     18  N   UNL     1       1.728  -3.465   5.373  1.00  0.00    -0.251 N 
ATOM     19  N   UNL     1       0.639  -1.541   5.359  1.00  0.00    -0.212 NA
ATOM     20  C   UNL     1       1.494  -3.146   6.690  1.00  0.00     0.127 A 
ATOM     21  C   UNL     1       0.826  -1.950   6.660  1.00  0.00     0.091 A 
BRANCH  21  22
ATOM     22  C   UNL     1       0.322  -1.267   7.835  1.00  0.00     0.002 A 
ATOM     23  C   UNL     1       0.802  -0.006   8.200  1.00  0.00     0.010 A 
ATOM     24  C   UNL     1      -0.662  -1.877   8.629  1.00  0.00     0.010 A 
ATOM     25  C   UNL     1       0.298   0.638   9.337  1.00  0.00     0.001 A 
ATOM     26  C   UNL     1      -1.181  -1.222   9.750  1.00  0.00     0.001 A 
ATOM     27  C   UNL     1      -0.702   0.037  10.103  1.00  0.00     0.000 A 
ENDBRANCH  21  22
ENDBRANCH   9  11
ENDBRANCH   6   9
ENDBRANCH   4   5
ENDBRANCH   3   4
ENDBRANCH   2   3
ENDBRANCH   1   2
BRANCH   1  28
ATOM     28  C   UNL     1      -3.777  -1.289   7.374  1.00  0.00     0.021 C 
BRANCH  28  29
ATOM     29  C   UNL     1      -4.210  -0.025   8.082  1.00  0.00     0.116 C 
BRANCH  29  30
ATOM     30  N   UNL     1      -5.299  -0.216   9.033  1.00  0.00    -0.352 N 
ATOM     31  C   UNL     1      -5.662   0.621  10.077  1.00  0.00     0.251 C 
ATOM     32  H   UNL     1      -5.839  -1.032   8.920  1.00  0.00     0.163 HD
ATOM     33  O   UNL     1      -6.412   0.222  10.961  1.00  0.00    -0.269 OA
BRANCH  31  34
ATOM     34  C   UNL     1      -5.111   1.995  10.117  1.00  0.00     0.039 A 
ATOM     35  C   UNL     1      -4.808   2.641  11.318  1.00  0.00     0.014 A 
ATOM     36  C   UNL     1      -4.860   2.635   8.909  1.00  0.00     0.014 A 
ATOM     37  C   UNL     1      -4.195   3.896  11.272  1.00  0.00     0.010 A 
ATOM     38  C   UNL     1      -4.056   3.738   8.864  1.00  0.00     0.010 A 
ATOM     39  C   UNL     1      -3.805   4.433  10.033  1.00  0.00    -0.014 A 
BRANCH  39  40
ATOM     40  C   UNL     1      -3.088   5.698   9.922  1.00  0.00     0.031 A 
ATOM     41  C   UNL     1      -1.898   5.819  10.800  1.00  0.00     0.074 A 
ATOM     42  C   UNL     1      -3.354   6.623   8.970  1.00  0.00     0.049 A 
ATOM     43  N   UNL     1      -1.777   6.569  11.842  1.00  0.00    -0.248 NA
ATOM     44  C   UNL     1      -0.764   4.905  10.586  1.00  0.00     0.031 C 
ATOM     45  C   UNL     1      -4.300   6.551   7.845  1.00  0.00     0.029 A 
ATOM     46  N   UNL     1      -2.732   7.810   8.745  1.00  0.00    -0.354 N 
ATOM     47  C   UNL     1      -0.476   6.392  12.297  1.00  0.00     0.074 A 
ATOM     48  C   UNL     1       0.040   5.240  11.599  1.00  0.00     0.031 C 
ATOM     49  C   UNL     1      -4.004   7.506   6.935  1.00  0.00     0.029 A 
ATOM     50  C   UNL     1      -2.997   8.379   7.504  1.00  0.00     0.049 A 
ATOM     51  H   UNL     1      -2.141   8.233   9.408  1.00  0.00     0.167 HD
ATOM     52  C   UNL     1       0.147   7.346  13.045  1.00  0.00     0.031 A 
ATOM     53  C   UNL     1      -2.428   9.493   6.981  1.00  0.00     0.031 A 
ATOM     54  C   UNL     1      -0.782   8.344  13.512  1.00  0.00     0.049 A 
ATOM     55  C   UNL     1      -1.909  10.276   8.128  1.00  0.00     0.074 A 
ATOM     56  C   UNL     1      -1.903   8.327  14.317  1.00  0.00     0.029 A 
ATOM     57  N   UNL     1      -0.845   9.518  12.798  1.00  0.00    -0.354 N 
ATOM     58  N   UNL     1      -2.681  10.805   9.037  1.00  0.00    -0.248 NA
ATOM     59  C   UNL     1      -0.525  10.074   8.524  1.00  0.00     0.031 C 
ATOM     60  C   UNL     1      -2.812   9.233  13.695  1.00  0.00     0.029 A 
ATOM     61  C   UNL     1      -2.170   9.809  12.596  1.00  0.00     0.049 A 
ATOM     62  H   UNL     1      -0.078  10.053  12.487  1.00  0.00     0.167 HD
ATOM     63  C   UNL     1      -2.013  10.595  10.235  1.00  0.00     0.074 A 
ATOM     64  C   UNL     1      -0.650  10.230   9.846  1.00  0.00     0.031 C 
ATOM     65  C   UNL     1      -2.692  10.465  11.413  1.00  0.00     0.031 A 
BRANCH  52  66
ATOM     66  C   UNL     1       1.633   7.597  13.028  1.00  0.00    -0.014 A 
ATOM     67  C   UNL     1       2.166   8.562  13.906  1.00  0.00     0.010 A 
ATOM     68  C   UNL     1       2.475   7.130  11.999  1.00  0.00     0.010 A 
ATOM     69  C   UNL     1       3.451   9.085  13.718  1.00  0.00     0.020 A 
ATOM     70  C   UNL     1       3.773   7.614  11.828  1.00  0.00     0.020 A 
ATOM     71  C   UNL     1       4.240   8.616  12.668  1.00  0.00     0.054 A 
BRANCH  71  72
ATOM     72  S   UNL     1       5.851   9.382  12.365  1.00  0.00     0.124 S 
ATOM     73  O   UNL     1       5.473  10.746  12.010  1.00  0.00    -0.237 OA
ATOM     74  O   UNL     1       6.516   9.222  13.655  1.00  0.00    -0.237 OA
ATOM     75  O   UNL     1       6.410   8.583  11.277  1.00  0.00    -0.744 OA
ENDBRANCH  71  72
ENDBRANCH  52  66
BRANCH  53  76
ATOM     76  C   UNL     1      -2.022   9.752   5.576  1.00  0.00    -0.014 A 
ATOM     77  C   UNL     1      -1.627  11.039   5.165  1.00  0.00     0.010 A 
ATOM     78  C   UNL     1      -1.729   8.673   4.716  1.00  0.00     0.010 A 
ATOM     79  C   UNL     1      -0.897  11.230   3.979  1.00  0.00     0.020 A 
ATOM     80  C   UNL     1      -1.006   8.856   3.530  1.00  0.00     0.020 A 
ATOM     81  C   UNL     1      -0.567  10.132   3.182  1.00  0.00     0.054 A 
BRANCH  81  82
ATOM     82  S   UNL     1       0.543  10.362   1.759  1.00  0.00     0.124 S 
ATOM     83  O   UNL     1      -0.278  11.151   0.846  1.00  0.00    -0.237 OA
ATOM     84  O   UNL     1       1.679  11.062   2.354  1.00  0.00    -0.237 OA
ATOM     85  O   UNL     1       0.825   8.997   1.317  1.00  0.00    -0.744 OA
ENDBRANCH  81  82
ENDBRANCH  53  76
BRANCH  65  86
ATOM     86  C   UNL     1      -4.165  10.818  11.444  1.00  0.00    -0.014 A 
ATOM     87  C   UNL     1      -5.154  10.140  10.702  1.00  0.00     0.010 A 
ATOM     88  C   UNL     1      -4.579  11.767  12.395  1.00  0.00     0.010 A 
ATOM     89  C   UNL     1      -6.517  10.419  10.899  1.00  0.00     0.020 A 
ATOM     90  C   UNL     1      -5.933  12.036  12.608  1.00  0.00     0.020 A 
ATOM     91  C   UNL     1      -6.897  11.365  11.856  1.00  0.00     0.054 A 
BRANCH  91  92
ATOM     92  S   UNL     1      -8.660  11.689  12.148  1.00  0.00     0.124 S 
ATOM     93  O   UNL     1      -9.085  12.301  10.893  1.00  0.00    -0.237 OA
ATOM     94  O   UNL     1      -9.196  10.355  12.410  1.00  0.00    -0.237 OA
ATOM     95  O   UNL     1      -8.664  12.585  13.304  1.00  0.00    -0.744 OA
ENDBRANCH  91  92
ENDBRANCH  65  86
ENDBRANCH  39  40
ENDBRANCH  31  34
ENDBRANCH  29  30
ENDBRANCH  28  29
ENDBRANCH   1  28
TORSDOF 18
