REMARK SMILES O=C(CCCOc1ccc([N+](=O)[O-])cc1F)NCCCCCCNC(=O)c1ccc(-c2c3nc(c(-c4ccc(S(=O)(=O)[O-])cc4)c4ccc([nH]4)c(-c4ccc(S(=O)(=O)[O-])cc4)c4nc(c(-c5ccc(S(=O)(=O)[O-])cc5)c5ccc2[nH]5)C=C4)C=C3)cc1
REMARK SMILES IDX 19 1 18 2 17 3 1 4 2 5 3 7 4 8 5 9 6 10 7 11 8 12 15 13 9 14
REMARK SMILES IDX 14 15 16 16 10 17 11 18 12 19 13 20 20 21 21 22 22 23 23 24
REMARK SMILES IDX 24 25 25 26 26 28 27 29 28 30 86 31 29 32 85 33 30 34 31 35
REMARK SMILES IDX 32 36 79 37 33 38 84 39 78 40 80 41 34 42 83 43 77 44 76 45
REMARK SMILES IDX 35 47 65 48 46 49 64 50 47 51 50 52 63 53 81 54 48 55 49 56
REMARK SMILES IDX 62 58 82 59 51 60 36 61 37 62 45 63 38 64 44 65 39 66 40 67
REMARK SMILES IDX 41 68 42 69 43 70 66 71 67 72 75 73 68 74 74 75 69 76 70 77
REMARK SMILES IDX 71 78 72 79 73 80 52 81 53 82 61 83 54 84 60 85 55 86 56 87
REMARK SMILES IDX 57 88 58 89 59 90
REMARK H PARENT 17 6 24 27 80 46 50 57
REMARK Flexibility Score: inf
ROOT
ATOM      1  C   UNL     1       2.524   1.913   3.070  1.00  0.00     0.021 C 
ENDROOT
BRANCH   1   2
ATOM      2  C   UNL     1       1.914   2.017   1.673  1.00  0.00     0.116 C 
BRANCH   2   3
ATOM      3  N   UNL     1       2.443   0.999   0.788  1.00  0.00    -0.356 N 
ATOM      4  O   UNL     1       0.831   1.229  -0.824  1.00  0.00    -0.275 OA
ATOM      5  C   UNL     1       1.854   0.694  -0.414  1.00  0.00     0.220 C 
ATOM      6  H   UNL     1       3.253   0.509   1.057  1.00  0.00     0.163 HD
BRANCH   5   7
ATOM      7  C   UNL     1       2.548  -0.414  -1.179  1.00  0.00     0.103 C 
BRANCH   7   8
ATOM      8  C   UNL     1       3.862  -0.016  -1.861  1.00  0.00     0.051 C 
BRANCH   8   9
ATOM      9  C   UNL     1       5.090   0.279  -0.982  1.00  0.00     0.230 C 
BRANCH   9  10
ATOM     10  O   UNL     1       5.786  -0.903  -0.549  1.00  0.00    -0.490 OA
BRANCH  10  11
ATOM     11  C   UNL     1       5.313  -1.409   0.627  1.00  0.00     0.155 A 
ATOM     12  C   UNL     1       5.657  -0.840   1.852  1.00  0.00     0.056 A 
ATOM     13  C   UNL     1       4.492  -2.535   0.591  1.00  0.00     0.171 A 
ATOM     14  C   UNL     1       5.053  -1.310   3.025  1.00  0.00     0.089 A 
ATOM     15  C   UNL     1       3.861  -2.997   1.738  1.00  0.00     0.128 A 
ATOM     16  F   UNL     1       4.221  -3.127  -0.581  1.00  0.00    -0.203 F 
ATOM     17  C   UNL     1       4.122  -2.358   2.952  1.00  0.00     0.272 A 
BRANCH  17  18
ATOM     18  N   UNL     1       3.384  -2.767   4.151  1.00  0.00     0.062 N 
ATOM     19  O   UNL     1       3.787  -2.348   5.243  1.00  0.00    -0.258 OA
ATOM     20  O   UNL     1       2.392  -3.491   3.990  1.00  0.00    -0.258 OA
ENDBRANCH  17  18
ENDBRANCH  10  11
ENDBRANCH   9  10
ENDBRANCH   8   9
ENDBRANCH   7   8
ENDBRANCH   5   7
ENDBRANCH   2   3
ENDBRANCH   1   2
BRANCH   1  21
ATOM     21  C   UNL     1       4.031   2.191   3.127  1.00  0.00     0.002 C 
BRANCH  21  22
ATOM     22  C   UNL     1       4.477   3.583   2.686  1.00  0.00     0.002 C 
BRANCH  22  23
ATOM     23  C   UNL     1       3.839   4.738   3.453  1.00  0.00     0.021 C 
BRANCH  23  24
ATOM     24  C   UNL     1       4.014   4.674   4.966  1.00  0.00     0.116 C 
BRANCH  24  25
ATOM     25  N   UNL     1       5.410   4.743   5.370  1.00  0.00    -0.352 N 
ATOM     26  C   UNL     1       6.017   5.582   6.273  1.00  0.00     0.251 C 
ATOM     27  H   UNL     1       6.006   4.093   4.932  1.00  0.00     0.163 HD
ATOM     28  O   UNL     1       7.239   5.604   6.356  1.00  0.00    -0.269 OA
BRANCH  26  29
ATOM     29  C   UNL     1       5.196   6.478   7.120  1.00  0.00     0.039 A 
ATOM     30  C   UNL     1       5.602   7.803   7.286  1.00  0.00     0.014 A 
ATOM     31  C   UNL     1       4.030   6.021   7.742  1.00  0.00     0.014 A 
ATOM     32  C   UNL     1       4.804   8.684   8.019  1.00  0.00     0.010 A 
ATOM     33  C   UNL     1       3.195   6.920   8.402  1.00  0.00     0.010 A 
ATOM     34  C   UNL     1       3.573   8.262   8.549  1.00  0.00    -0.014 A 
BRANCH  34  35
ATOM     35  C   UNL     1       2.668   9.228   9.227  1.00  0.00     0.031 A 
ATOM     36  C   UNL     1       2.317   9.069  10.681  1.00  0.00     0.074 A 
ATOM     37  C   UNL     1       2.130  10.236   8.512  1.00  0.00     0.049 A 
ATOM     38  N   UNL     1       1.580   9.842  11.439  1.00  0.00    -0.248 NA
ATOM     39  C   UNL     1       2.840   7.878  11.370  1.00  0.00     0.031 C 
ATOM     40  C   UNL     1       2.348  10.470   7.082  1.00  0.00     0.029 A 
ATOM     41  N   UNL     1       1.299  11.261   8.890  1.00  0.00    -0.354 N 
ATOM     42  C   UNL     1       1.541   9.227  12.686  1.00  0.00     0.074 A 
ATOM     43  C   UNL     1       2.283   7.991  12.568  1.00  0.00     0.031 C 
ATOM     44  C   UNL     1       1.715  11.596   6.718  1.00  0.00     0.029 A 
ATOM     45  C   UNL     1       1.011  12.142   7.874  1.00  0.00     0.049 A 
ATOM     46  H   UNL     1       0.943  11.357   9.803  1.00  0.00     0.167 HD
ATOM     47  C   UNL     1       0.955   9.659  13.829  1.00  0.00     0.031 A 
ATOM     48  C   UNL     1       0.271  13.267   7.870  1.00  0.00     0.031 A 
ATOM     49  C   UNL     1       0.213  10.889  13.941  1.00  0.00     0.049 A 
ATOM     50  C   UNL     1      -0.376  13.722   9.149  1.00  0.00     0.074 A 
ATOM     51  C   UNL     1      -0.359  11.450  15.070  1.00  0.00     0.029 A 
ATOM     52  N   UNL     1      -0.075  11.741  12.884  1.00  0.00    -0.354 N 
ATOM     53  N   UNL     1      -0.323  13.175  10.340  1.00  0.00    -0.248 NA
ATOM     54  C   UNL     1      -1.172  14.954   9.082  1.00  0.00     0.031 C 
ATOM     55  C   UNL     1      -1.051  12.604  14.684  1.00  0.00     0.029 A 
ATOM     56  C   UNL     1      -0.850  12.802  13.327  1.00  0.00     0.049 A 
ATOM     57  H   UNL     1       0.227  11.612  11.957  1.00  0.00     0.167 HD
ATOM     58  C   UNL     1      -1.062  14.009  11.171  1.00  0.00     0.074 A 
ATOM     59  C   UNL     1      -1.527  15.109  10.350  1.00  0.00     0.031 C 
ATOM     60  C   UNL     1      -1.331  13.878  12.495  1.00  0.00     0.031 A 
BRANCH  47  61
ATOM     61  C   UNL     1       1.075   8.779  15.049  1.00  0.00    -0.014 A 
ATOM     62  C   UNL     1       2.313   8.570  15.685  1.00  0.00     0.010 A 
ATOM     63  C   UNL     1      -0.075   8.170  15.584  1.00  0.00     0.010 A 
ATOM     64  C   UNL     1       2.407   7.727  16.797  1.00  0.00     0.020 A 
ATOM     65  C   UNL     1       0.008   7.353  16.715  1.00  0.00     0.020 A 
ATOM     66  C   UNL     1       1.254   7.119  17.302  1.00  0.00     0.054 A 
BRANCH  66  67
ATOM     67  S   UNL     1       1.405   6.033  18.747  1.00  0.00     0.124 S 
ATOM     68  O   UNL     1       2.074   4.867  18.177  1.00  0.00    -0.237 OA
ATOM     69  O   UNL     1       2.211   6.833  19.665  1.00  0.00    -0.237 OA
ATOM     70  O   UNL     1       0.022   5.815  19.164  1.00  0.00    -0.744 OA
ENDBRANCH  66  67
ENDBRANCH  47  61
BRANCH  48  71
ATOM     71  C   UNL     1       0.135  14.061   6.618  1.00  0.00    -0.014 A 
ATOM     72  C   UNL     1       0.755  15.318   6.501  1.00  0.00     0.010 A 
ATOM     73  C   UNL     1      -0.593  13.555   5.525  1.00  0.00     0.010 A 
ATOM     74  C   UNL     1       0.641  16.058   5.321  1.00  0.00     0.020 A 
ATOM     75  C   UNL     1      -0.684  14.278   4.333  1.00  0.00     0.020 A 
ATOM     76  C   UNL     1      -0.072  15.530   4.241  1.00  0.00     0.054 A 
BRANCH  76  77
ATOM     77  S   UNL     1      -0.147  16.479   2.697  1.00  0.00     0.124 S 
ATOM     78  O   UNL     1      -1.035  17.579   3.058  1.00  0.00    -0.237 OA
ATOM     79  O   UNL     1       1.252  16.838   2.481  1.00  0.00    -0.237 OA
ATOM     80  O   UNL     1      -0.692  15.524   1.735  1.00  0.00    -0.744 OA
ENDBRANCH  76  77
ENDBRANCH  48  71
BRANCH  60  81
ATOM     81  C   UNL     1      -2.157  14.963  13.137  1.00  0.00    -0.014 A 
ATOM     82  C   UNL     1      -3.518  15.129  12.822  1.00  0.00     0.010 A 
ATOM     83  C   UNL     1      -1.566  15.823  14.081  1.00  0.00     0.010 A 
ATOM     84  C   UNL     1      -4.256  16.169  13.394  1.00  0.00     0.020 A 
ATOM     85  C   UNL     1      -2.309  16.841  14.682  1.00  0.00     0.020 A 
ATOM     86  C   UNL     1      -3.644  17.022  14.317  1.00  0.00     0.054 A 
BRANCH  86  87
ATOM     87  S   UNL     1      -4.624  18.361  15.050  1.00  0.00     0.124 S 
ATOM     88  O   UNL     1      -4.744  19.295  13.933  1.00  0.00    -0.237 OA
ATOM     89  O   UNL     1      -5.857  17.681  15.437  1.00  0.00    -0.237 OA
ATOM     90  O   UNL     1      -3.799  18.825  16.163  1.00  0.00    -0.744 OA
ENDBRANCH  86  87
ENDBRANCH  60  81
ENDBRANCH  34  35
ENDBRANCH  26  29
ENDBRANCH  24  25
ENDBRANCH  23  24
ENDBRANCH  22  23
ENDBRANCH  21  22
ENDBRANCH   1  21
TORSDOF 21
