REMARK SMILES Cc1ccc2cc(C[N@H+]3CC[NH2+][C@H](C(=O)NCCCCCCNC(=O)c4ccc(-c5c6nc(c(-c7ccc(S(=O)(=O)[O-])cc7)c7ccc([nH]7)c(-c7ccc(S(=O)(=O)[O-])cc7)c7nc(c(-c8ccc(S(=O)(=O)[O-])cc8)c8ccc5[nH]8)C=C7)C=C6)cc4)C3)c(N3CCOCC3)nc2c1
REMARK SMILES IDX 19 1 18 2 17 3 16 4 14 5 15 6 13 8 9 9 10 10 86 11 11 13
REMARK SMILES IDX 12 14 8 17 7 18 1 19 2 20 3 21 96 22 4 23 95 24 5 25 94 26
REMARK SMILES IDX 6 27 87 28 88 29 89 30 93 31 90 32 92 33 91 34 20 35 21 36
REMARK SMILES IDX 22 37 23 38 24 39 25 41 26 42 27 43 85 44 28 45 84 46 29 47
REMARK SMILES IDX 30 48 31 49 78 50 32 51 83 52 77 53 79 54 33 55 82 56 76 57
REMARK SMILES IDX 75 58 34 60 64 61 45 62 63 63 46 64 49 65 62 66 80 67 47 68
REMARK SMILES IDX 48 69 61 71 81 72 50 73 35 74 36 75 44 76 37 77 43 78 38 79
REMARK SMILES IDX 39 80 40 81 41 82 42 83 65 84 66 85 74 86 67 87 73 88 68 89
REMARK SMILES IDX 69 90 70 91 71 92 72 93 51 94 52 95 60 96 53 97 59 98 54 99
REMARK SMILES IDX 55 100 56 101 57 102 58 103
REMARK H PARENT 16 7 9 12 12 15 12 16 23 40 79 59 49 70
REMARK Flexibility Score: inf
ROOT
ATOM      1  C   UNL     1       4.828  -4.232   1.391  1.00  0.00     0.002 C 
ENDROOT
BRANCH   1   2
ATOM      2  C   UNL     1       3.999  -4.771   2.562  1.00  0.00     0.021 C 
BRANCH   2   3
ATOM      3  C   UNL     1       2.492  -4.958   2.361  1.00  0.00     0.116 C 
BRANCH   3   4
ATOM      4  N   UNL     1       1.999  -6.096   1.587  1.00  0.00    -0.351 N 
ATOM      5  C   UNL     1       0.709  -6.631   1.515  1.00  0.00     0.284 C 
ATOM      6  O   UNL     1       0.529  -7.616   0.795  1.00  0.00    -0.268 OA
ATOM      7  H   UNL     1       2.674  -6.554   1.036  1.00  0.00     0.163 HD
BRANCH   5   8
ATOM      8  C   UNL     1      -0.446  -5.979   2.321  1.00  0.00     0.328 C 
ATOM      9  N   UNL     1      -1.480  -5.766   4.664  1.00  0.00    -0.321 N 
ATOM     10  C   UNL     1      -2.775  -5.550   4.007  1.00  0.00     0.324 C 
ATOM     11  C   UNL     1      -0.505  -6.456   3.796  1.00  0.00     0.339 C 
ATOM     12  H   UNL     1      -1.638  -6.463   5.392  1.00  0.00     0.348 HD
ATOM     13  C   UNL     1      -2.716  -5.193   2.496  1.00  0.00     0.323 C 
ATOM     14  N   UNL     1      -1.793  -6.030   1.681  1.00  0.00    -0.327 N 
ATOM     15  H   UNL     1      -1.740  -5.664   0.731  1.00  0.00     0.347 HD
ATOM     16  H   UNL     1      -2.130  -6.992   1.636  1.00  0.00     0.347 HD
BRANCH   9  17
ATOM     17  C   UNL     1      -1.011  -4.681   5.565  1.00  0.00     0.303 C 
BRANCH  17  18
ATOM     18  C   UNL     1      -0.789  -3.300   4.984  1.00  0.00     0.049 A 
ATOM     19  C   UNL     1       0.591   1.194   0.463  1.00  0.00     0.044 C 
ATOM     20  C   UNL     1       0.178   0.036   1.319  1.00  0.00    -0.049 A 
ATOM     21  C   UNL     1       0.373  -1.227   0.784  1.00  0.00     0.004 A 
ATOM     22  C   UNL     1      -0.317   0.168   2.647  1.00  0.00     0.032 A 
ATOM     23  C   UNL     1       0.228  -2.309   1.612  1.00  0.00     0.010 A 
ATOM     24  C   UNL     1      -0.547  -0.938   3.495  1.00  0.00     0.073 A 
ATOM     25  C   UNL     1      -0.128  -2.142   2.961  1.00  0.00     0.001 A 
ATOM     26  N   UNL     1      -1.084  -0.921   4.762  1.00  0.00    -0.230 NA
ATOM     27  C   UNL     1      -0.080  -3.219   3.816  1.00  0.00     0.023 A 
ATOM     28  C   UNL     1      -1.228  -2.085   5.484  1.00  0.00     0.138 A 
BRANCH  28  29
ATOM     29  N   UNL     1      -1.823  -2.034   6.717  1.00  0.00    -0.352 N 
ATOM     30  C   UNL     1      -1.138  -2.394   7.958  1.00  0.00     0.146 C 
ATOM     31  C   UNL     1      -3.148  -1.459   6.866  1.00  0.00     0.146 C 
ATOM     32  C   UNL     1      -2.064  -3.266   8.833  1.00  0.00     0.181 C 
ATOM     33  C   UNL     1      -3.980  -2.473   7.672  1.00  0.00     0.181 C 
ATOM     34  O   UNL     1      -3.390  -2.722   8.964  1.00  0.00    -0.378 OA
ENDBRANCH  28  29
ENDBRANCH  17  18
ENDBRANCH   9  17
ENDBRANCH   5   8
ENDBRANCH   3   4
ENDBRANCH   2   3
ENDBRANCH   1   2
BRANCH   1  35
ATOM     35  C   UNL     1       4.524  -2.823   0.860  1.00  0.00     0.002 C 
BRANCH  35  36
ATOM     36  C   UNL     1       4.626  -1.634   1.823  1.00  0.00     0.021 C 
BRANCH  36  37
ATOM     37  C   UNL     1       5.914  -1.477   2.632  1.00  0.00     0.116 C 
BRANCH  37  38
ATOM     38  N   UNL     1       7.129  -1.425   1.830  1.00  0.00    -0.352 N 
ATOM     39  C   UNL     1       8.208  -0.571   1.904  1.00  0.00     0.251 C 
ATOM     40  H   UNL     1       7.190  -2.108   1.124  1.00  0.00     0.163 HD
ATOM     41  O   UNL     1       9.120  -0.675   1.083  1.00  0.00    -0.269 OA
BRANCH  39  42
ATOM     42  C   UNL     1       8.264   0.501   2.927  1.00  0.00     0.039 A 
ATOM     43  C   UNL     1       7.914   0.256   4.255  1.00  0.00     0.014 A 
ATOM     44  C   UNL     1       8.666   1.786   2.544  1.00  0.00     0.014 A 
ATOM     45  C   UNL     1       7.787   1.320   5.147  1.00  0.00     0.010 A 
ATOM     46  C   UNL     1       8.615   2.841   3.464  1.00  0.00     0.010 A 
ATOM     47  C   UNL     1       8.119   2.629   4.759  1.00  0.00    -0.014 A 
BRANCH  47  48
ATOM     48  C   UNL     1       7.915   3.759   5.708  1.00  0.00     0.031 A 
ATOM     49  C   UNL     1       6.908   4.842   5.404  1.00  0.00     0.074 A 
ATOM     50  C   UNL     1       8.589   3.779   6.877  1.00  0.00     0.049 A 
ATOM     51  N   UNL     1       6.585   5.888   6.122  1.00  0.00    -0.248 NA
ATOM     52  C   UNL     1       6.164   4.742   4.136  1.00  0.00     0.031 C 
ATOM     53  C   UNL     1       9.559   2.768   7.305  1.00  0.00     0.029 A 
ATOM     54  N   UNL     1       8.540   4.656   7.934  1.00  0.00    -0.354 N 
ATOM     55  C   UNL     1       5.618   6.572   5.392  1.00  0.00     0.074 A 
ATOM     56  C   UNL     1       5.425   5.844   4.159  1.00  0.00     0.031 C 
ATOM     57  C   UNL     1       9.960   3.044   8.555  1.00  0.00     0.029 A 
ATOM     58  C   UNL     1       9.340   4.290   8.994  1.00  0.00     0.049 A 
ATOM     59  H   UNL     1       7.986   5.470   7.933  1.00  0.00     0.167 HD
ATOM     60  C   UNL     1       4.941   7.695   5.730  1.00  0.00     0.031 A 
ATOM     61  C   UNL     1       9.559   4.888  10.183  1.00  0.00     0.031 A 
ATOM     62  C   UNL     1       5.113   8.397   6.976  1.00  0.00     0.049 A 
ATOM     63  C   UNL     1       8.845   6.174  10.498  1.00  0.00     0.074 A 
ATOM     64  C   UNL     1       4.449   9.531   7.413  1.00  0.00     0.029 A 
ATOM     65  N   UNL     1       5.992   8.035   7.984  1.00  0.00    -0.354 N 
ATOM     66  N   UNL     1       7.929   6.798   9.796  1.00  0.00    -0.248 NA
ATOM     67  C   UNL     1       9.193   6.841  11.761  1.00  0.00     0.031 C 
ATOM     68  C   UNL     1       4.979   9.898   8.649  1.00  0.00     0.029 A 
ATOM     69  C   UNL     1       5.912   8.945   9.025  1.00  0.00     0.049 A 
ATOM     70  H   UNL     1       6.585   7.250   7.964  1.00  0.00     0.167 HD
ATOM     71  C   UNL     1       7.574   7.914  10.544  1.00  0.00     0.074 A 
ATOM     72  C   UNL     1       8.357   7.872  11.760  1.00  0.00     0.031 C 
ATOM     73  C   UNL     1       6.681   8.888  10.243  1.00  0.00     0.031 A 
BRANCH  60  74
ATOM     74  C   UNL     1       3.926   8.259   4.767  1.00  0.00    -0.014 A 
ATOM     75  C   UNL     1       4.152   9.521   4.182  1.00  0.00     0.010 A 
ATOM     76  C   UNL     1       2.675   7.641   4.596  1.00  0.00     0.010 A 
ATOM     77  C   UNL     1       3.127  10.181   3.500  1.00  0.00     0.020 A 
ATOM     78  C   UNL     1       1.656   8.287   3.889  1.00  0.00     0.020 A 
ATOM     79  C   UNL     1       1.878   9.568   3.375  1.00  0.00     0.054 A 
BRANCH  79  80
ATOM     80  S   UNL     1       0.533  10.482   2.569  1.00  0.00     0.124 S 
ATOM     81  O   UNL     1       0.215  11.502   3.563  1.00  0.00    -0.237 OA
ATOM     82  O   UNL     1       1.168  10.967   1.346  1.00  0.00    -0.237 OA
ATOM     83  O   UNL     1      -0.496   9.465   2.364  1.00  0.00    -0.744 OA
ENDBRANCH  79  80
ENDBRANCH  60  74
BRANCH  61  84
ATOM     84  C   UNL     1      10.483   4.259  11.171  1.00  0.00    -0.014 A 
ATOM     85  C   UNL     1      11.852   4.109  10.881  1.00  0.00     0.010 A 
ATOM     86  C   UNL     1       9.990   3.769  12.394  1.00  0.00     0.010 A 
ATOM     87  C   UNL     1      12.699   3.438  11.767  1.00  0.00     0.020 A 
ATOM     88  C   UNL     1      10.842   3.130  13.301  1.00  0.00     0.020 A 
ATOM     89  C   UNL     1      12.186   2.945  12.969  1.00  0.00     0.054 A 
BRANCH  89  90
ATOM     90  S   UNL     1      13.300   2.061  14.094  1.00  0.00     0.124 S 
ATOM     91  O   UNL     1      13.438   0.770  13.425  1.00  0.00    -0.237 OA
ATOM     92  O   UNL     1      14.493   2.903  14.088  1.00  0.00    -0.237 OA
ATOM     93  O   UNL     1      12.565   2.036  15.355  1.00  0.00    -0.744 OA
ENDBRANCH  89  90
ENDBRANCH  61  84
BRANCH  73  94
ATOM     94  C   UNL     1       6.466   9.999  11.238  1.00  0.00    -0.014 A 
ATOM     95  C   UNL     1       5.213  10.139  11.865  1.00  0.00     0.010 A 
ATOM     96  C   UNL     1       7.444  10.989  11.436  1.00  0.00     0.010 A 
ATOM     97  C   UNL     1       4.924  11.271  12.631  1.00  0.00     0.020 A 
ATOM     98  C   UNL     1       7.170  12.107  12.230  1.00  0.00     0.020 A 
ATOM     99  C   UNL     1       5.902  12.254  12.797  1.00  0.00     0.054 A 
BRANCH  99 100
ATOM    100  S   UNL     1       5.489  13.742  13.748  1.00  0.00     0.124 S 
ATOM    101  O   UNL     1       4.633  14.474  12.819  1.00  0.00    -0.237 OA
ATOM    102  O   UNL     1       4.820  13.195  14.926  1.00  0.00    -0.237 OA
ATOM    103  O   UNL     1       6.791  14.354  14.010  1.00  0.00    -0.744 OA
ENDBRANCH  99 100
ENDBRANCH  73  94
ENDBRANCH  47  48
ENDBRANCH  39  42
ENDBRANCH  37  38
ENDBRANCH  36  37
ENDBRANCH  35  36
ENDBRANCH   1  35
TORSDOF 19
