REMARK SMILES Cc1c(CCC(=O)N[C@@H](C)C(=O)NCCCCCCNC(=O)c2ccc(-c3c4nc(c(-c5ccc(S(=O)(=O)[O-])cc5)c5ccc([nH]5)c(-c5ccc(S(=O)(=O)[O-])cc5)c5nc(c(-c6ccc(S(=O)(=O)[O-])cc6)c6ccc3[nH]6)C=C5)C=C4)cc2)c(=O)oc2cc3oc4c(c3cc12)CCCC4
REMARK SMILES IDX 16 1 15 2 14 3 13 4 11 5 12 6 9 8 10 9 8 10 6 11 7 12 5 14
REMARK SMILES IDX 4 15 3 16 1 17 2 18 94 19 83 20 86 21 93 22 84 23 85 24
REMARK SMILES IDX 87 25 92 26 88 27 91 28 89 29 90 30 95 31 98 32 96 33 97 34
REMARK SMILES IDX 17 35 18 36 19 37 20 38 21 39 22 41 23 42 24 43 82 44 25 45
REMARK SMILES IDX 81 46 26 47 27 48 28 49 75 50 29 51 80 52 74 53 76 54 30 55
REMARK SMILES IDX 79 56 73 57 72 58 31 60 61 61 42 62 60 63 43 64 46 65 59 66
REMARK SMILES IDX 77 67 44 68 45 69 58 71 78 72 47 73 32 74 33 75 41 76 34 77
REMARK SMILES IDX 40 78 35 79 36 80 37 81 38 82 39 83 62 84 63 85 71 86 64 87
REMARK SMILES IDX 70 88 65 89 66 90 67 91 68 92 69 93 48 94 49 95 57 96 50 97
REMARK SMILES IDX 56 98 51 99 52 100 53 101 54 102 55 103
REMARK H PARENT 13 7 8 13 20 40 76 59 46 70
REMARK Flexibility Score: inf
ROOT
ATOM      1  C   UNL     1       4.547  -3.888   3.995  1.00  0.00     0.002 C 
ENDROOT
BRANCH   1   2
ATOM      2  C   UNL     1       4.066  -3.173   2.730  1.00  0.00     0.021 C 
BRANCH   2   3
ATOM      3  C   UNL     1       3.099  -2.028   3.015  1.00  0.00     0.116 C 
BRANCH   3   4
ATOM      4  N   UNL     1       3.812  -0.760   3.068  1.00  0.00    -0.354 N 
ATOM      5  C   UNL     1       3.892   0.335   2.266  1.00  0.00     0.242 C 
ATOM      6  O   UNL     1       4.812   1.122   2.533  1.00  0.00    -0.273 OA
ATOM      7  H   UNL     1       4.369  -0.675   3.876  1.00  0.00     0.163 HD
BRANCH   5   8
ATOM      8  C   UNL     1       2.897   0.690   1.130  1.00  0.00     0.168 C 
ATOM      9  C   UNL     1       1.904  -0.373   0.731  1.00  0.00     0.041 C 
BRANCH   8  10
ATOM     10  N   UNL     1       3.574   1.082  -0.111  1.00  0.00    -0.345 N 
ATOM     11  C   UNL     1       3.034   1.907  -1.062  1.00  0.00     0.220 C 
ATOM     12  O   UNL     1       3.115   1.587  -2.247  1.00  0.00    -0.275 OA
ATOM     13  H   UNL     1       4.478   0.728  -0.271  1.00  0.00     0.164 HD
BRANCH  11  14
ATOM     14  C   UNL     1       2.449   3.244  -0.633  1.00  0.00     0.105 C 
BRANCH  14  15
ATOM     15  C   UNL     1       0.934   3.417  -0.833  1.00  0.00     0.053 C 
BRANCH  15  16
ATOM     16  C   UNL     1       0.133   2.991   0.375  1.00  0.00     0.042 A 
ATOM     17  C   UNL     1      -1.167   1.200  -0.849  1.00  0.00     0.046 C 
ATOM     18  C   UNL     1      -0.686   1.926   0.381  1.00  0.00    -0.030 A 
ATOM     19  C   UNL     1      -0.962   1.363   1.699  1.00  0.00     0.022 A 
ATOM     20  C   UNL     1       0.266   3.840   1.605  1.00  0.00     0.339 A 
ATOM     21  C   UNL     1      -0.937   2.169   2.836  1.00  0.00     0.142 A 
ATOM     22  C   UNL     1      -1.052  -0.015   1.858  1.00  0.00     0.024 A 
ATOM     23  O   UNL     1       0.967   4.847   1.606  1.00  0.00    -0.246 OA
ATOM     24  O   UNL     1      -0.511   3.501   2.710  1.00  0.00    -0.422 OA
ATOM     25  C   UNL     1      -1.254   1.697   4.121  1.00  0.00     0.095 A 
ATOM     26  C   UNL     1      -1.121  -0.536   3.148  1.00  0.00     0.025 A 
ATOM     27  C   UNL     1      -1.400   0.317   4.205  1.00  0.00     0.138 A 
ATOM     28  C   UNL     1      -1.126  -1.843   3.664  1.00  0.00     0.001 A 
ATOM     29  O   UNL     1      -1.934  -0.422   5.231  1.00  0.00    -0.461 OA
ATOM     30  C   UNL     1      -1.935  -1.708   4.772  1.00  0.00     0.108 A 
ATOM     31  C   UNL     1      -1.083  -3.120   2.922  1.00  0.00     0.040 C 
ATOM     32  C   UNL     1      -3.144  -2.583   4.902  1.00  0.00     0.076 C 
ATOM     33  C   UNL     1      -2.516  -3.422   2.472  1.00  0.00     0.005 C 
ATOM     34  C   UNL     1      -3.611  -2.833   3.423  1.00  0.00     0.008 C 
ENDBRANCH  15  16
ENDBRANCH  14  15
ENDBRANCH  11  14
ENDBRANCH   8  10
ENDBRANCH   5   8
ENDBRANCH   3   4
ENDBRANCH   2   3
ENDBRANCH   1   2
BRANCH   1  35
ATOM     35  C   UNL     1       3.449  -4.590   4.811  1.00  0.00     0.002 C 
BRANCH  35  36
ATOM     36  C   UNL     1       2.434  -5.394   3.995  1.00  0.00     0.021 C 
BRANCH  36  37
ATOM     37  C   UNL     1       3.068  -6.430   3.069  1.00  0.00     0.116 C 
BRANCH  37  38
ATOM     38  N   UNL     1       3.448  -7.642   3.763  1.00  0.00    -0.352 N 
ATOM     39  C   UNL     1       2.656  -8.713   4.115  1.00  0.00     0.251 C 
ATOM     40  H   UNL     1       4.397  -7.711   4.016  1.00  0.00     0.163 HD
ATOM     41  O   UNL     1       3.096  -9.610   4.806  1.00  0.00    -0.269 OA
BRANCH  39  42
ATOM     42  C   UNL     1       1.248  -8.728   3.662  1.00  0.00     0.039 A 
ATOM     43  C   UNL     1       0.939  -8.650   2.300  1.00  0.00     0.014 A 
ATOM     44  C   UNL     1       0.237  -8.824   4.619  1.00  0.00     0.014 A 
ATOM     45  C   UNL     1      -0.389  -8.581   1.895  1.00  0.00     0.010 A 
ATOM     46  C   UNL     1      -1.094  -8.796   4.207  1.00  0.00     0.010 A 
ATOM     47  C   UNL     1      -1.411  -8.665   2.845  1.00  0.00    -0.014 A 
BRANCH  47  48
ATOM     48  C   UNL     1      -2.793  -8.760   2.331  1.00  0.00     0.031 A 
ATOM     49  C   UNL     1      -3.431 -10.070   2.641  1.00  0.00     0.074 A 
ATOM     50  C   UNL     1      -3.626  -7.699   2.297  1.00  0.00     0.049 A 
ATOM     51  N   UNL     1      -3.849 -10.369   3.836  1.00  0.00    -0.248 NA
ATOM     52  C   UNL     1      -3.382 -11.199   1.717  1.00  0.00     0.031 C 
ATOM     53  C   UNL     1      -3.563  -6.630   3.294  1.00  0.00     0.029 A 
ATOM     54  N   UNL     1      -4.827  -7.498   1.646  1.00  0.00    -0.354 N 
ATOM     55  C   UNL     1      -4.079 -11.728   3.850  1.00  0.00     0.074 A 
ATOM     56  C   UNL     1      -3.793 -12.200   2.510  1.00  0.00     0.031 C 
ATOM     57  C   UNL     1      -4.753  -6.006   3.320  1.00  0.00     0.029 A 
ATOM     58  C   UNL     1      -5.596  -6.499   2.240  1.00  0.00     0.049 A 
ATOM     59  H   UNL     1      -5.109  -8.005   0.851  1.00  0.00     0.167 HD
ATOM     60  C   UNL     1      -4.475 -12.400   4.961  1.00  0.00     0.031 A 
ATOM     61  C   UNL     1      -6.955  -6.418   2.225  1.00  0.00     0.031 A 
ATOM     62  C   UNL     1      -4.651 -11.611   6.143  1.00  0.00     0.049 A 
ATOM     63  C   UNL     1      -7.278  -7.346   3.373  1.00  0.00     0.074 A 
ATOM     64  C   UNL     1      -3.888 -11.232   7.227  1.00  0.00     0.029 A 
ATOM     65  N   UNL     1      -5.830 -10.920   6.301  1.00  0.00    -0.354 N 
ATOM     66  N   UNL     1      -7.143  -7.098   4.649  1.00  0.00    -0.248 NA
ATOM     67  C   UNL     1      -7.383  -8.767   3.033  1.00  0.00     0.031 C 
ATOM     68  C   UNL     1      -4.470 -10.012   7.701  1.00  0.00     0.029 A 
ATOM     69  C   UNL     1      -5.510  -9.691   6.828  1.00  0.00     0.049 A 
ATOM     70  H   UNL     1      -6.732 -11.244   6.079  1.00  0.00     0.167 HD
ATOM     71  C   UNL     1      -6.806  -8.325   5.225  1.00  0.00     0.074 A 
ATOM     72  C   UNL     1      -7.013  -9.313   4.182  1.00  0.00     0.031 C 
ATOM     73  C   UNL     1      -6.179  -8.464   6.432  1.00  0.00     0.031 A 
BRANCH  60  74
ATOM     74  C   UNL     1      -4.855 -13.824   4.917  1.00  0.00    -0.014 A 
ATOM     75  C   UNL     1      -3.909 -14.853   5.017  1.00  0.00     0.010 A 
ATOM     76  C   UNL     1      -6.223 -14.139   4.851  1.00  0.00     0.010 A 
ATOM     77  C   UNL     1      -4.334 -16.185   5.074  1.00  0.00     0.020 A 
ATOM     78  C   UNL     1      -6.650 -15.462   4.912  1.00  0.00     0.020 A 
ATOM     79  C   UNL     1      -5.703 -16.478   5.029  1.00  0.00     0.054 A 
BRANCH  79  80
ATOM     80  S   UNL     1      -6.237 -18.204   5.172  1.00  0.00     0.124 S 
ATOM     81  O   UNL     1      -5.713 -18.788   3.940  1.00  0.00    -0.237 OA
ATOM     82  O   UNL     1      -5.581 -18.635   6.403  1.00  0.00    -0.237 OA
ATOM     83  O   UNL     1      -7.693 -18.111   5.247  1.00  0.00    -0.744 OA
ENDBRANCH  79  80
ENDBRANCH  60  74
BRANCH  61  84
ATOM     84  C   UNL     1      -7.633  -6.517   0.891  1.00  0.00    -0.014 A 
ATOM     85  C   UNL     1      -8.764  -7.310   0.645  1.00  0.00     0.010 A 
ATOM     86  C   UNL     1      -7.103  -5.782  -0.193  1.00  0.00     0.010 A 
ATOM     87  C   UNL     1      -9.211  -7.537  -0.663  1.00  0.00     0.020 A 
ATOM     88  C   UNL     1      -7.562  -5.977  -1.500  1.00  0.00     0.020 A 
ATOM     89  C   UNL     1      -8.572  -6.905  -1.731  1.00  0.00     0.054 A 
BRANCH  89  90
ATOM     90  S   UNL     1      -9.033  -7.361  -3.423  1.00  0.00     0.124 S 
ATOM     91  O   UNL     1      -8.472  -8.705  -3.528  1.00  0.00    -0.237 OA
ATOM     92  O   UNL     1     -10.491  -7.282  -3.390  1.00  0.00    -0.237 OA
ATOM     93  O   UNL     1      -8.375  -6.346  -4.243  1.00  0.00    -0.744 OA
ENDBRANCH  89  90
ENDBRANCH  61  84
BRANCH  73  94
ATOM     94  C   UNL     1      -5.990  -7.222   7.258  1.00  0.00    -0.014 A 
ATOM     95  C   UNL     1      -4.699  -6.783   7.617  1.00  0.00     0.010 A 
ATOM     96  C   UNL     1      -7.100  -6.543   7.786  1.00  0.00     0.010 A 
ATOM     97  C   UNL     1      -4.523  -5.770   8.564  1.00  0.00     0.020 A 
ATOM     98  C   UNL     1      -6.931  -5.512   8.716  1.00  0.00     0.020 A 
ATOM     99  C   UNL     1      -5.644  -5.162   9.131  1.00  0.00     0.054 A 
BRANCH  99 100
ATOM    100  S   UNL     1      -5.396  -3.945  10.452  1.00  0.00     0.124 S 
ATOM    101  O   UNL     1      -4.854  -4.769  11.531  1.00  0.00    -0.237 OA
ATOM    102  O   UNL     1      -4.454  -3.006   9.847  1.00  0.00    -0.237 OA
ATOM    103  O   UNL     1      -6.734  -3.411  10.693  1.00  0.00    -0.744 OA
ENDBRANCH  99 100
ENDBRANCH  73  94
ENDBRANCH  47  48
ENDBRANCH  39  42
ENDBRANCH  37  38
ENDBRANCH  36  37
ENDBRANCH  35  36
ENDBRANCH   1  35
TORSDOF 20
