REMARK SMILES CC[C@H](C)N1C(=O)c2ccccc2[C@@H](C(=O)NCCCCCCNC(=O)c2ccc(-c3c4nc(c(-c5ccc(S(=O)(=O)[O-])cc5)c5ccc([nH]5)c(-c5ccc(S(=O)(=O)[O-])cc5)c5nc(c(-c6ccc(S(=O)(=O)[O-])cc6)c6ccc3[nH]6)C=C5)C=C4)cc2)C12CCCCC2
REMARK SMILES IDX 21 1 20 2 19 3 18 4 17 5 15 6 16 7 14 9 5 10 6 11 87 12 7 13
REMARK SMILES IDX 8 14 88 15 92 16 9 17 13 18 89 19 91 20 10 21 12 22 90 23
REMARK SMILES IDX 11 24 3 25 4 26 2 27 1 28 22 29 23 30 24 31 25 32 26 34
REMARK SMILES IDX 27 35 28 36 86 37 29 38 85 39 30 40 31 41 32 42 79 43 33 44
REMARK SMILES IDX 84 45 78 46 80 47 34 48 83 49 77 50 76 51 35 53 65 54 46 55
REMARK SMILES IDX 64 56 47 57 50 58 63 59 81 60 48 61 49 62 62 64 82 65 51 66
REMARK SMILES IDX 36 67 37 68 45 69 38 70 44 71 39 72 40 73 41 74 42 75 43 76
REMARK SMILES IDX 66 77 67 78 75 79 68 80 74 81 69 82 70 83 71 84 72 85 73 86
REMARK SMILES IDX 52 87 53 88 61 89 54 90 60 91 55 92 56 93 57 94 58 95 59 96
REMARK H PARENT 17 8 24 33 80 52 50 63
REMARK Flexibility Score: inf
ROOT
ATOM      1  C   UNL     1       2.067  -5.714  -9.451  1.00  0.00     0.002 C 
ENDROOT
BRANCH   1   2
ATOM      2  C   UNL     1       2.535  -5.673  -7.999  1.00  0.00     0.002 C 
BRANCH   2   3
ATOM      3  C   UNL     1       1.949  -4.521  -7.180  1.00  0.00     0.021 C 
BRANCH   3   4
ATOM      4  C   UNL     1       0.507  -4.722  -6.714  1.00  0.00     0.116 C 
BRANCH   4   5
ATOM      5  N   UNL     1       0.340  -5.938  -5.930  1.00  0.00    -0.355 N 
ATOM      6  C   UNL     1      -0.044  -6.172  -4.644  1.00  0.00     0.229 C 
ATOM      7  O   UNL     1      -0.119  -7.361  -4.310  1.00  0.00    -0.274 OA
ATOM      8  H   UNL     1       0.547  -6.759  -6.432  1.00  0.00     0.163 HD
BRANCH   6   9
ATOM      9  C   UNL     1      -0.444  -5.062  -3.650  1.00  0.00     0.135 C 
ATOM     10  N   UNL     1       0.243  -2.897  -2.457  1.00  0.00    -0.329 N 
ATOM     11  C   UNL     1      -0.360  -2.144  -3.485  1.00  0.00     0.254 C 
ATOM     12  C   UNL     1       0.727  -4.311  -2.861  1.00  0.00     0.059 C 
ATOM     13  O   UNL     1      -0.128  -0.971  -3.749  1.00  0.00    -0.269 OA
ATOM     14  C   UNL     1      -1.408  -2.813  -4.275  1.00  0.00     0.044 A 
ATOM     15  C   UNL     1       2.048  -4.087  -3.655  1.00  0.00     0.030 C 
ATOM     16  C   UNL     1       1.123  -5.181  -1.620  1.00  0.00     0.030 C 
ATOM     17  C   UNL     1      -2.313  -2.028  -5.008  1.00  0.00     0.014 A 
ATOM     18  C   UNL     1      -1.526  -4.196  -4.269  1.00  0.00    -0.020 A 
ATOM     19  C   UNL     1       2.933  -5.314  -3.911  1.00  0.00     0.002 C 
ATOM     20  C   UNL     1       1.921  -6.450  -1.911  1.00  0.00     0.002 C 
ATOM     21  C   UNL     1      -3.371  -2.621  -5.694  1.00  0.00     0.001 A 
ATOM     22  C   UNL     1      -2.635  -4.780  -4.915  1.00  0.00     0.005 A 
ATOM     23  C   UNL     1       3.201  -6.137  -2.665  1.00  0.00     0.000 C 
ATOM     24  C   UNL     1      -3.546  -3.998  -5.627  1.00  0.00     0.000 A 
BRANCH  10  25
ATOM     25  C   UNL     1       0.826  -2.168  -1.266  1.00  0.00     0.082 C 
ATOM     26  C   UNL     1       0.667  -0.630  -1.279  1.00  0.00     0.031 C 
BRANCH  25  27
ATOM     27  C   UNL     1       0.223  -2.660   0.079  1.00  0.00     0.021 C 
ATOM     28  C   UNL     1       0.997  -2.160   1.299  1.00  0.00     0.006 C 
ENDBRANCH  25  27
ENDBRANCH  10  25
ENDBRANCH   6   9
ENDBRANCH   4   5
ENDBRANCH   3   4
ENDBRANCH   2   3
ENDBRANCH   1   2
BRANCH   1  29
ATOM     29  C   UNL     1       2.282  -4.415 -10.229  1.00  0.00     0.021 C 
BRANCH  29  30
ATOM     30  C   UNL     1       3.674  -3.807 -10.089  1.00  0.00     0.116 C 
BRANCH  30  31
ATOM     31  N   UNL     1       4.698  -4.617 -10.730  1.00  0.00    -0.352 N 
ATOM     32  C   UNL     1       5.597  -4.218 -11.691  1.00  0.00     0.251 C 
ATOM     33  H   UNL     1       4.755  -5.557 -10.443  1.00  0.00     0.163 HD
ATOM     34  O   UNL     1       6.307  -5.029 -12.276  1.00  0.00    -0.269 OA
BRANCH  32  35
ATOM     35  C   UNL     1       5.659  -2.781 -12.018  1.00  0.00     0.039 A 
ATOM     36  C   UNL     1       5.880  -1.854 -10.996  1.00  0.00     0.014 A 
ATOM     37  C   UNL     1       5.375  -2.361 -13.319  1.00  0.00     0.014 A 
ATOM     38  C   UNL     1       5.681  -0.503 -11.248  1.00  0.00     0.010 A 
ATOM     39  C   UNL     1       5.251  -0.996 -13.584  1.00  0.00     0.010 A 
ATOM     40  C   UNL     1       5.366  -0.059 -12.544  1.00  0.00    -0.014 A 
BRANCH  40  41
ATOM     41  C   UNL     1       5.186   1.393 -12.796  1.00  0.00     0.031 A 
ATOM     42  C   UNL     1       3.849   1.952 -13.202  1.00  0.00     0.074 A 
ATOM     43  C   UNL     1       6.237   2.216 -12.614  1.00  0.00     0.049 A 
ATOM     44  N   UNL     1       3.527   3.192 -13.467  1.00  0.00    -0.248 NA
ATOM     45  C   UNL     1       2.729   1.004 -13.325  1.00  0.00     0.031 C 
ATOM     46  C   UNL     1       7.573   1.788 -12.191  1.00  0.00     0.029 A 
ATOM     47  N   UNL     1       6.347   3.578 -12.732  1.00  0.00    -0.354 N 
ATOM     48  C   UNL     1       2.178   3.174 -13.801  1.00  0.00     0.074 A 
ATOM     49  C   UNL     1       1.743   1.796 -13.729  1.00  0.00     0.031 C 
ATOM     50  C   UNL     1       8.348   2.868 -12.026  1.00  0.00     0.029 A 
ATOM     51  C   UNL     1       7.594   4.058 -12.406  1.00  0.00     0.049 A 
ATOM     52  H   UNL     1       5.605   4.157 -13.022  1.00  0.00     0.167 HD
ATOM     53  C   UNL     1       1.377   4.216 -14.127  1.00  0.00     0.031 A 
ATOM     54  C   UNL     1       8.089   5.311 -12.424  1.00  0.00     0.031 A 
ATOM     55  C   UNL     1       1.819   5.586 -14.182  1.00  0.00     0.049 A 
ATOM     56  C   UNL     1       7.197   6.441 -12.847  1.00  0.00     0.074 A 
ATOM     57  C   UNL     1       1.076   6.712 -14.494  1.00  0.00     0.029 A 
ATOM     58  N   UNL     1       3.109   6.020 -13.916  1.00  0.00    -0.354 N 
ATOM     59  N   UNL     1       5.927   6.401 -13.172  1.00  0.00    -0.248 NA
ATOM     60  C   UNL     1       7.799   7.779 -12.916  1.00  0.00     0.031 C 
ATOM     61  C   UNL     1       1.930   7.817 -14.476  1.00  0.00     0.029 A 
ATOM     62  C   UNL     1       3.190   7.392 -14.085  1.00  0.00     0.049 A 
ATOM     63  H   UNL     1       3.857   5.438 -13.648  1.00  0.00     0.167 HD
ATOM     64  C   UNL     1       5.575   7.709 -13.480  1.00  0.00     0.074 A 
ATOM     65  C   UNL     1       6.760   8.520 -13.283  1.00  0.00     0.031 C 
ATOM     66  C   UNL     1       4.377   8.188 -13.893  1.00  0.00     0.031 A 
BRANCH  53  67
ATOM     67  C   UNL     1      -0.068   3.939 -14.457  1.00  0.00    -0.014 A 
ATOM     68  C   UNL     1      -0.533   4.134 -15.771  1.00  0.00     0.010 A 
ATOM     69  C   UNL     1      -0.991   3.613 -13.447  1.00  0.00     0.010 A 
ATOM     70  C   UNL     1      -1.896   4.038 -16.066  1.00  0.00     0.020 A 
ATOM     71  C   UNL     1      -2.353   3.491 -13.743  1.00  0.00     0.020 A 
ATOM     72  C   UNL     1      -2.799   3.727 -15.046  1.00  0.00     0.054 A 
BRANCH  72  73
ATOM     73  S   UNL     1      -4.568   3.628 -15.441  1.00  0.00     0.124 S 
ATOM     74  O   UNL     1      -4.943   5.035 -15.536  1.00  0.00    -0.237 OA
ATOM     75  O   UNL     1      -4.574   2.885 -16.699  1.00  0.00    -0.237 OA
ATOM     76  O   UNL     1      -5.130   2.905 -14.301  1.00  0.00    -0.744 OA
ENDBRANCH  72  73
ENDBRANCH  53  67
BRANCH  54  77
ATOM     77  C   UNL     1       9.502   5.531 -12.014  1.00  0.00    -0.014 A 
ATOM     78  C   UNL     1      10.556   5.020 -12.796  1.00  0.00     0.010 A 
ATOM     79  C   UNL     1       9.798   6.147 -10.786  1.00  0.00     0.010 A 
ATOM     80  C   UNL     1      11.870   5.057 -12.327  1.00  0.00     0.020 A 
ATOM     81  C   UNL     1      11.117   6.213 -10.327  1.00  0.00     0.020 A 
ATOM     82  C   UNL     1      12.140   5.637 -11.085  1.00  0.00     0.054 A 
BRANCH  82  83
ATOM     83  S   UNL     1      13.843   5.610 -10.461  1.00  0.00     0.124 S 
ATOM     84  O   UNL     1      13.966   4.234  -9.988  1.00  0.00    -0.237 OA
ATOM     85  O   UNL     1      14.626   5.940 -11.650  1.00  0.00    -0.237 OA
ATOM     86  O   UNL     1      13.839   6.633  -9.418  1.00  0.00    -0.744 OA
ENDBRANCH  82  83
ENDBRANCH  54  77
BRANCH  66  87
ATOM     87  C   UNL     1       4.262   9.662 -14.177  1.00  0.00    -0.014 A 
ATOM     88  C   UNL     1       3.476  10.474 -13.339  1.00  0.00     0.010 A 
ATOM     89  C   UNL     1       4.807  10.209 -15.352  1.00  0.00     0.010 A 
ATOM     90  C   UNL     1       3.200  11.797 -13.692  1.00  0.00     0.020 A 
ATOM     91  C   UNL     1       4.554  11.540 -15.695  1.00  0.00     0.020 A 
ATOM     92  C   UNL     1       3.729  12.316 -14.877  1.00  0.00     0.054 A 
BRANCH  92  93
ATOM     93  S   UNL     1       3.315  14.019 -15.347  1.00  0.00     0.124 S 
ATOM     94  O   UNL     1       1.951  13.876 -15.847  1.00  0.00    -0.237 OA
ATOM     95  O   UNL     1       3.452  14.743 -14.085  1.00  0.00    -0.237 OA
ATOM     96  O   UNL     1       4.320  14.348 -16.356  1.00  0.00    -0.744 OA
ENDBRANCH  92  93
ENDBRANCH  66  87
ENDBRANCH  40  41
ENDBRANCH  32  35
ENDBRANCH  30  31
ENDBRANCH  29  30
ENDBRANCH   1  29
TORSDOF 18
