REMARK SMILES C[N@H+](Cc1cc(Cl)ccc1[N+](=O)[O-])[C@H]1COC[C@@H]1C(=O)NCCCCCCNC(=O)c1ccc(-c2c3nc(c(-c4ccc(S(=O)(=O)[O-])cc4)c4ccc([nH]4)c(-c4ccc(S(=O)(=O)[O-])cc4)c4nc(c(-c5ccc(S(=O)(=O)[O-])cc5)c5ccc2[nH]5)C=C4)C=C3)cc1
REMARK SMILES IDX 24 1 23 2 22 3 21 4 19 5 20 6 18 8 14 9 15 10 16 11 17 12
REMARK SMILES IDX 2 13 1 14 3 16 4 17 5 18 10 19 6 20 9 21 7 22 8 23 11 24
REMARK SMILES IDX 12 25 13 26 25 27 26 28 27 29 28 30 29 31 30 33 31 34 32 35
REMARK SMILES IDX 90 36 33 37 89 38 34 39 35 40 36 41 83 42 37 43 88 44 82 45
REMARK SMILES IDX 84 46 38 47 87 48 81 49 80 50 39 52 69 53 50 54 68 55 51 56
REMARK SMILES IDX 54 57 67 58 85 59 52 60 53 61 66 63 86 64 55 65 40 66 41 67
REMARK SMILES IDX 49 68 42 69 48 70 43 71 44 72 45 73 46 74 47 75 70 76 71 77
REMARK SMILES IDX 79 78 72 79 78 80 73 81 74 82 75 83 76 84 77 85 56 86 57 87
REMARK SMILES IDX 65 88 58 89 64 90 59 91 60 92 61 93 62 94 63 95
REMARK H PARENT 21 7 2 15 28 32 84 51 54 62
REMARK Flexibility Score: inf
ROOT
ATOM      1  C   UNL     1       5.470   3.181  -0.842  1.00  0.00     0.002 C 
ENDROOT
BRANCH   1   2
ATOM      2  C   UNL     1       4.410   2.885  -1.911  1.00  0.00     0.021 C 
BRANCH   2   3
ATOM      3  C   UNL     1       4.326   1.425  -2.355  1.00  0.00     0.116 C 
BRANCH   3   4
ATOM      4  N   UNL     1       3.992   0.543  -1.250  1.00  0.00    -0.356 N 
ATOM      5  C   UNL     1       3.003  -0.390  -1.146  1.00  0.00     0.231 C 
ATOM      6  O   UNL     1       2.885  -0.990  -0.077  1.00  0.00    -0.274 OA
ATOM      7  H   UNL     1       4.567   0.632  -0.456  1.00  0.00     0.163 HD
BRANCH   5   8
ATOM      8  C   UNL     1       2.068  -0.617  -2.326  1.00  0.00     0.164 C 
ATOM      9  C   UNL     1       0.909  -1.564  -1.964  1.00  0.00     0.225 C 
ATOM     10  C   UNL     1       1.620  -2.913  -2.214  1.00  0.00     0.226 C 
ATOM     11  O   UNL     1       2.498  -2.741  -3.331  1.00  0.00    -0.374 OA
ATOM     12  C   UNL     1       2.774  -1.342  -3.460  1.00  0.00     0.180 C 
BRANCH   9  13
ATOM     13  N   UNL     1      -0.305  -1.275  -2.808  1.00  0.00    -0.328 N 
ATOM     14  C   UNL     1      -0.886   0.015  -2.377  1.00  0.00     0.333 C 
ATOM     15  H   UNL     1      -0.012  -1.235  -3.784  1.00  0.00     0.348 HD
BRANCH  13  16
ATOM     16  C   UNL     1      -1.333  -2.342  -2.698  1.00  0.00     0.306 C 
BRANCH  16  17
ATOM     17  C   UNL     1      -2.475  -2.203  -3.696  1.00  0.00     0.085 A 
ATOM     18  C   UNL     1      -3.551  -1.349  -3.373  1.00  0.00     0.037 A 
ATOM     19  C   UNL     1      -2.515  -2.831  -4.958  1.00  0.00     0.278 A 
ATOM     20  C   UNL     1      -4.568  -1.076  -4.292  1.00  0.00     0.042 A 
ATOM     21  C   UNL     1      -3.548  -2.568  -5.879  1.00  0.00     0.088 A 
ATOM     22  Cl  UNL     1      -5.821   0.024  -3.869  1.00  0.00    -0.084 Cl
ATOM     23  C   UNL     1      -4.566  -1.675  -5.547  1.00  0.00     0.027 A 
BRANCH  19  24
ATOM     24  N   UNL     1      -1.549  -3.854  -5.347  1.00  0.00     0.063 N 
ATOM     25  O   UNL     1      -1.055  -3.766  -6.479  1.00  0.00    -0.258 OA
ATOM     26  O   UNL     1      -1.377  -4.797  -4.561  1.00  0.00    -0.258 OA
ENDBRANCH  19  24
ENDBRANCH  16  17
ENDBRANCH  13  16
ENDBRANCH   9  13
ENDBRANCH   5   8
ENDBRANCH   3   4
ENDBRANCH   2   3
ENDBRANCH   1   2
BRANCH   1  27
ATOM     27  C   UNL     1       6.894   2.725  -1.177  1.00  0.00     0.002 C 
BRANCH  27  28
ATOM     28  C   UNL     1       7.458   3.248  -2.500  1.00  0.00     0.021 C 
BRANCH  28  29
ATOM     29  C   UNL     1       7.484   4.766  -2.637  1.00  0.00     0.116 C 
BRANCH  29  30
ATOM     30  N   UNL     1       8.365   5.402  -1.670  1.00  0.00    -0.352 N 
ATOM     31  C   UNL     1       9.307   6.381  -1.881  1.00  0.00     0.251 C 
ATOM     32  H   UNL     1       8.276   5.089  -0.741  1.00  0.00     0.163 HD
ATOM     33  O   UNL     1      10.073   6.709  -0.980  1.00  0.00    -0.269 OA
BRANCH  31  34
ATOM     34  C   UNL     1       9.408   7.015  -3.214  1.00  0.00     0.039 A 
ATOM     35  C   UNL     1      10.660   7.111  -3.828  1.00  0.00     0.014 A 
ATOM     36  C   UNL     1       8.265   7.486  -3.864  1.00  0.00     0.014 A 
ATOM     37  C   UNL     1      10.755   7.617  -5.128  1.00  0.00     0.010 A 
ATOM     38  C   UNL     1       8.353   7.931  -5.179  1.00  0.00     0.010 A 
ATOM     39  C   UNL     1       9.598   7.997  -5.827  1.00  0.00    -0.014 A 
BRANCH  39  40
ATOM     40  C   UNL     1       9.652   8.464  -7.235  1.00  0.00     0.031 A 
ATOM     41  C   UNL     1       9.232   9.869  -7.574  1.00  0.00     0.074 A 
ATOM     42  C   UNL     1       9.984   7.603  -8.217  1.00  0.00     0.049 A 
ATOM     43  N   UNL     1       9.071  10.422  -8.748  1.00  0.00    -0.248 NA
ATOM     44  C   UNL     1       8.926  10.759  -6.442  1.00  0.00     0.031 C 
ATOM     45  C   UNL     1      10.384   6.207  -8.024  1.00  0.00     0.029 A 
ATOM     46  N   UNL     1      10.018   7.771  -9.580  1.00  0.00    -0.354 N 
ATOM     47  C   UNL     1       8.619  11.712  -8.499  1.00  0.00     0.074 A 
ATOM     48  C   UNL     1       8.496  11.847  -7.064  1.00  0.00     0.031 C 
ATOM     49  C   UNL     1      10.635   5.652  -9.221  1.00  0.00     0.029 A 
ATOM     50  C   UNL     1      10.371   6.634 -10.268  1.00  0.00     0.049 A 
ATOM     51  H   UNL     1       9.810   8.626 -10.022  1.00  0.00     0.167 HD
ATOM     52  C   UNL     1       8.343  12.700  -9.384  1.00  0.00     0.031 A 
ATOM     53  C   UNL     1      10.456   6.401 -11.592  1.00  0.00     0.031 A 
ATOM     54  C   UNL     1       8.483  12.568 -10.809  1.00  0.00     0.049 A 
ATOM     55  C   UNL     1      10.143   7.513 -12.557  1.00  0.00     0.074 A 
ATOM     56  C   UNL     1       8.274  13.526 -11.786  1.00  0.00     0.029 A 
ATOM     57  N   UNL     1       8.874  11.409 -11.462  1.00  0.00    -0.354 N 
ATOM     58  N   UNL     1       9.755   8.739 -12.300  1.00  0.00    -0.248 NA
ATOM     59  C   UNL     1      10.286   7.212 -13.988  1.00  0.00     0.031 C 
ATOM     60  C   UNL     1       8.498  12.934 -13.033  1.00  0.00     0.029 A 
ATOM     61  C   UNL     1       8.899  11.623 -12.829  1.00  0.00     0.049 A 
ATOM     62  H   UNL     1       9.100  10.559 -11.019  1.00  0.00     0.167 HD
ATOM     63  C   UNL     1       9.643   9.366 -13.536  1.00  0.00     0.074 A 
ATOM     64  C   UNL     1      10.006   8.386 -14.539  1.00  0.00     0.031 C 
ATOM     65  C   UNL     1       9.276  10.641 -13.814  1.00  0.00     0.031 A 
BRANCH  52  66
ATOM     66  C   UNL     1       7.850  14.010  -8.830  1.00  0.00    -0.014 A 
ATOM     67  C   UNL     1       8.708  14.866  -8.115  1.00  0.00     0.010 A 
ATOM     68  C   UNL     1       6.519  14.407  -9.054  1.00  0.00     0.010 A 
ATOM     69  C   UNL     1       8.232  16.072  -7.595  1.00  0.00     0.020 A 
ATOM     70  C   UNL     1       6.047  15.626  -8.560  1.00  0.00     0.020 A 
ATOM     71  C   UNL     1       6.902  16.442  -7.816  1.00  0.00     0.054 A 
BRANCH  71  72
ATOM     72  S   UNL     1       6.313  18.018  -7.140  1.00  0.00     0.124 S 
ATOM     73  O   UNL     1       6.186  17.706  -5.719  1.00  0.00    -0.237 OA
ATOM     74  O   UNL     1       7.392  18.940  -7.487  1.00  0.00    -0.237 OA
ATOM     75  O   UNL     1       5.053  18.247  -7.843  1.00  0.00    -0.744 OA
ENDBRANCH  71  72
ENDBRANCH  52  66
BRANCH  53  76
ATOM     76  C   UNL     1      10.870   5.059 -12.085  1.00  0.00    -0.014 A 
ATOM     77  C   UNL     1      12.140   4.873 -12.659  1.00  0.00     0.010 A 
ATOM     78  C   UNL     1      10.004   3.957 -11.968  1.00  0.00     0.010 A 
ATOM     79  C   UNL     1      12.530   3.614 -13.123  1.00  0.00     0.020 A 
ATOM     80  C   UNL     1      10.400   2.691 -12.408  1.00  0.00     0.020 A 
ATOM     81  C   UNL     1      11.658   2.530 -12.993  1.00  0.00     0.054 A 
BRANCH  81  82
ATOM     82  S   UNL     1      12.206   0.893 -13.552  1.00  0.00     0.124 S 
ATOM     83  O   UNL     1      12.102   1.018 -15.002  1.00  0.00    -0.237 OA
ATOM     84  O   UNL     1      13.564   0.815 -13.018  1.00  0.00    -0.237 OA
ATOM     85  O   UNL     1      11.248  -0.018 -12.930  1.00  0.00    -0.744 OA
ENDBRANCH  81  82
ENDBRANCH  53  76
BRANCH  65  86
ATOM     86  C   UNL     1       9.299  11.075 -15.255  1.00  0.00    -0.014 A 
ATOM     87  C   UNL     1       8.306  10.661 -16.159  1.00  0.00     0.010 A 
ATOM     88  C   UNL     1      10.291  11.976 -15.686  1.00  0.00     0.010 A 
ATOM     89  C   UNL     1       8.317  11.125 -17.477  1.00  0.00     0.020 A 
ATOM     90  C   UNL     1      10.290  12.460 -16.996  1.00  0.00     0.020 A 
ATOM     91  C   UNL     1       9.308  12.024 -17.887  1.00  0.00     0.054 A 
BRANCH  91  92
ATOM     92  S   UNL     1       9.263  12.663 -19.584  1.00  0.00     0.124 S 
ATOM     93  O   UNL     1       9.746  11.518 -20.352  1.00  0.00    -0.237 OA
ATOM     94  O   UNL     1       7.852  12.992 -19.767  1.00  0.00    -0.237 OA
ATOM     95  O   UNL     1      10.164  13.812 -19.545  1.00  0.00    -0.744 OA
ENDBRANCH  91  92
ENDBRANCH  65  86
ENDBRANCH  39  40
ENDBRANCH  31  34
ENDBRANCH  29  30
ENDBRANCH  28  29
ENDBRANCH  27  28
ENDBRANCH   1  27
TORSDOF 20
