REMARK SMILES Cc1c(CC(=O)NCCCCCCNC(=O)c2ccc(-c3c4nc(c(-c5ccc(S(=O)(=O)[O-])cc5)c5ccc([nH]5)c(-c5ccc(S(=O)(=O)[O-])cc5)c5nc(c(-c6ccc(S(=O)(=O)[O-])cc6)c6ccc3[nH]6)C=C5)C=C4)cc2)cccc1-c1ccn(C(F)F)c(=O)c1
REMARK SMILES IDX 10 1 9 2 8 3 7 4 5 5 6 6 4 8 3 9 1 10 2 11 80 12 77 13 79 14
REMARK SMILES IDX 78 15 81 16 82 17 90 18 83 19 88 20 84 21 89 22 85 23 86 24
REMARK SMILES IDX 87 25 11 26 12 27 13 28 14 29 15 30 16 32 17 33 18 34 76 35
REMARK SMILES IDX 19 36 75 37 20 38 21 39 22 40 69 41 23 42 74 43 68 44 70 45
REMARK SMILES IDX 24 46 73 47 67 48 66 49 25 51 55 52 36 53 54 54 37 55 40 56
REMARK SMILES IDX 53 57 71 58 38 59 39 60 52 62 72 63 41 64 26 65 27 66 35 67
REMARK SMILES IDX 28 68 34 69 29 70 30 71 31 72 32 73 33 74 56 75 57 76 65 77
REMARK SMILES IDX 58 78 64 79 59 80 60 81 61 82 62 83 63 84 42 85 43 86 51 87
REMARK SMILES IDX 44 88 50 89 45 90 46 91 47 92 48 93 49 94
REMARK H PARENT 7 7 14 31 70 50 40 61
REMARK Flexibility Score: inf
ROOT
ATOM      1  C   UNL     1       0.332  -1.353   5.066  1.00  0.00     0.002 C 
ENDROOT
BRANCH   1   2
ATOM      2  C   UNL     1       0.606  -0.958   3.609  1.00  0.00     0.021 C 
BRANCH   2   3
ATOM      3  C   UNL     1       1.499  -1.927   2.834  1.00  0.00     0.116 C 
BRANCH   3   4
ATOM      4  N   UNL     1       0.775  -3.081   2.335  1.00  0.00    -0.356 N 
ATOM      5  C   UNL     1       0.471  -3.418   1.047  1.00  0.00     0.224 C 
ATOM      6  O   UNL     1      -0.140  -4.469   0.838  1.00  0.00    -0.275 OA
ATOM      7  H   UNL     1       0.458  -3.711   3.023  1.00  0.00     0.163 HD
BRANCH   5   8
ATOM      8  C   UNL     1       0.929  -2.540  -0.113  1.00  0.00     0.135 C 
BRANCH   8   9
ATOM      9  C   UNL     1       0.282  -1.167  -0.157  1.00  0.00    -0.035 A 
ATOM     10  C   UNL     1       2.527   0.011  -0.407  1.00  0.00     0.045 C 
ATOM     11  C   UNL     1       1.025   0.041  -0.231  1.00  0.00    -0.040 A 
ATOM     12  C   UNL     1       0.330   1.277  -0.181  1.00  0.00    -0.015 A 
ATOM     13  C   UNL     1      -1.125  -1.111  -0.115  1.00  0.00     0.004 A 
ATOM     14  C   UNL     1      -1.073   1.294  -0.122  1.00  0.00     0.009 A 
ATOM     15  C   UNL     1      -1.796   0.107  -0.101  1.00  0.00     0.001 A 
BRANCH  12  16
ATOM     16  C   UNL     1       1.036   2.575  -0.120  1.00  0.00    -0.011 A 
ATOM     17  C   UNL     1       1.752   3.150  -1.242  1.00  0.00     0.027 A 
ATOM     18  C   UNL     1       1.066   3.203   1.069  1.00  0.00     0.080 A 
ATOM     19  C   UNL     1       2.493   4.252  -1.078  1.00  0.00     0.095 A 
ATOM     20  C   UNL     1       1.862   4.445   1.260  1.00  0.00     0.255 A 
ATOM     21  N   UNL     1       2.568   4.884   0.150  1.00  0.00    -0.258 N 
ATOM     22  O   UNL     1       1.874   4.969   2.368  1.00  0.00    -0.269 OA
BRANCH  21  23
ATOM     23  C   UNL     1       3.400   6.045   0.329  1.00  0.00     0.451 C 
ATOM     24  F   UNL     1       2.672   7.127   0.689  1.00  0.00    -0.185 F 
ATOM     25  F   UNL     1       4.339   5.829   1.284  1.00  0.00    -0.185 F 
ENDBRANCH  21  23
ENDBRANCH  12  16
ENDBRANCH   8   9
ENDBRANCH   5   8
ENDBRANCH   3   4
ENDBRANCH   2   3
ENDBRANCH   1   2
BRANCH   1  26
ATOM     26  C   UNL     1       1.560  -1.658   5.940  1.00  0.00     0.002 C 
BRANCH  26  27
ATOM     27  C   UNL     1       2.704  -0.642   5.887  1.00  0.00     0.021 C 
BRANCH  27  28
ATOM     28  C   UNL     1       2.364   0.697   6.534  1.00  0.00     0.116 C 
BRANCH  28  29
ATOM     29  N   UNL     1       3.220   1.008   7.673  1.00  0.00    -0.352 N 
ATOM     30  C   UNL     1       3.313   2.201   8.358  1.00  0.00     0.251 C 
ATOM     31  H   UNL     1       3.801   0.280   7.990  1.00  0.00     0.163 HD
ATOM     32  O   UNL     1       4.197   2.433   9.179  1.00  0.00    -0.269 OA
BRANCH  30  33
ATOM     33  C   UNL     1       2.197   3.149   8.199  1.00  0.00     0.039 A 
ATOM     34  C   UNL     1       1.341   3.297   9.297  1.00  0.00     0.014 A 
ATOM     35  C   UNL     1       1.849   3.628   6.937  1.00  0.00     0.014 A 
ATOM     36  C   UNL     1       0.051   3.768   9.091  1.00  0.00     0.010 A 
ATOM     37  C   UNL     1       0.541   4.016   6.719  1.00  0.00     0.010 A 
ATOM     38  C   UNL     1      -0.368   4.028   7.784  1.00  0.00    -0.014 A 
BRANCH  38  39
ATOM     39  C   UNL     1      -1.774   4.228   7.452  1.00  0.00     0.031 A 
ATOM     40  C   UNL     1      -2.300   5.601   7.307  1.00  0.00     0.074 A 
ATOM     41  C   UNL     1      -2.602   3.166   7.339  1.00  0.00     0.049 A 
ATOM     42  N   UNL     1      -3.510   5.958   7.587  1.00  0.00    -0.248 NA
ATOM     43  C   UNL     1      -1.444   6.709   6.898  1.00  0.00     0.031 C 
ATOM     44  C   UNL     1      -3.981   3.181   6.862  1.00  0.00     0.029 A 
ATOM     45  N   UNL     1      -2.439   1.885   7.878  1.00  0.00    -0.354 N 
ATOM     46  C   UNL     1      -3.664   7.256   7.149  1.00  0.00     0.074 A 
ATOM     47  C   UNL     1      -2.332   7.702   6.808  1.00  0.00     0.031 C 
ATOM     48  C   UNL     1      -4.623   2.129   7.394  1.00  0.00     0.029 A 
ATOM     49  C   UNL     1      -3.706   1.482   8.321  1.00  0.00     0.049 A 
ATOM     50  H   UNL     1      -1.602   1.370   7.934  1.00  0.00     0.167 HD
ATOM     51  C   UNL     1      -4.910   7.781   6.972  1.00  0.00     0.031 A 
ATOM     52  C   UNL     1      -3.995   1.143   9.609  1.00  0.00     0.031 A 
ATOM     53  C   UNL     1      -5.956   6.849   7.382  1.00  0.00     0.049 A 
ATOM     54  C   UNL     1      -5.109   1.980  10.197  1.00  0.00     0.074 A 
ATOM     55  C   UNL     1      -6.735   5.949   6.672  1.00  0.00     0.029 A 
ATOM     56  N   UNL     1      -6.105   6.525   8.727  1.00  0.00    -0.354 N 
ATOM     57  N   UNL     1      -5.501   3.122   9.700  1.00  0.00    -0.248 NA
ATOM     58  C   UNL     1      -5.840   1.618  11.409  1.00  0.00     0.031 C 
ATOM     59  C   UNL     1      -7.276   5.017   7.594  1.00  0.00     0.029 A 
ATOM     60  C   UNL     1      -6.859   5.374   8.864  1.00  0.00     0.049 A 
ATOM     61  H   UNL     1      -5.727   7.042   9.475  1.00  0.00     0.167 HD
ATOM     62  C   UNL     1      -6.512   3.632  10.471  1.00  0.00     0.074 A 
ATOM     63  C   UNL     1      -6.691   2.652  11.529  1.00  0.00     0.031 C 
ATOM     64  C   UNL     1      -7.129   4.814  10.181  1.00  0.00     0.031 A 
BRANCH  51  65
ATOM     65  C   UNL     1      -5.145   8.993   6.095  1.00  0.00    -0.014 A 
ATOM     66  C   UNL     1      -6.298   9.057   5.287  1.00  0.00     0.010 A 
ATOM     67  C   UNL     1      -4.226  10.050   5.952  1.00  0.00     0.010 A 
ATOM     68  C   UNL     1      -6.455  10.036   4.293  1.00  0.00     0.020 A 
ATOM     69  C   UNL     1      -4.344  11.007   4.931  1.00  0.00     0.020 A 
ATOM     70  C   UNL     1      -5.452  10.982   4.092  1.00  0.00     0.054 A 
BRANCH  70  71
ATOM     71  S   UNL     1      -5.598  12.145   2.709  1.00  0.00     0.124 S 
ATOM     72  O   UNL     1      -5.841  11.261   1.572  1.00  0.00    -0.237 OA
ATOM     73  O   UNL     1      -6.730  12.973   3.116  1.00  0.00    -0.237 OA
ATOM     74  O   UNL     1      -4.305  12.826   2.690  1.00  0.00    -0.744 OA
ENDBRANCH  70  71
ENDBRANCH  51  65
BRANCH  52  75
ATOM     75  C   UNL     1      -2.873   0.553  10.385  1.00  0.00    -0.014 A 
ATOM     76  C   UNL     1      -2.475  -0.763  10.070  1.00  0.00     0.010 A 
ATOM     77  C   UNL     1      -2.000   1.363  11.131  1.00  0.00     0.010 A 
ATOM     78  C   UNL     1      -1.190  -1.217  10.379  1.00  0.00     0.020 A 
ATOM     79  C   UNL     1      -0.706   0.912  11.437  1.00  0.00     0.020 A 
ATOM     80  C   UNL     1      -0.293  -0.353  11.008  1.00  0.00     0.054 A 
BRANCH  80  81
ATOM     81  S   UNL     1       1.441  -0.876  11.168  1.00  0.00     0.124 S 
ATOM     82  O   UNL     1       1.316  -2.225  11.715  1.00  0.00    -0.237 OA
ATOM     83  O   UNL     1       1.912  -0.805   9.785  1.00  0.00    -0.237 OA
ATOM     84  O   UNL     1       2.007   0.115  12.077  1.00  0.00    -0.744 OA
ENDBRANCH  80  81
ENDBRANCH  52  75
BRANCH  64  85
ATOM     85  C   UNL     1      -8.130   5.511  11.065  1.00  0.00    -0.014 A 
ATOM     86  C   UNL     1      -8.133   5.416  12.466  1.00  0.00     0.010 A 
ATOM     87  C   UNL     1      -9.042   6.420  10.478  1.00  0.00     0.010 A 
ATOM     88  C   UNL     1      -9.043   6.148  13.242  1.00  0.00     0.020 A 
ATOM     89  C   UNL     1      -9.925   7.184  11.244  1.00  0.00     0.020 A 
ATOM     90  C   UNL     1      -9.936   7.026  12.625  1.00  0.00     0.054 A 
BRANCH  90  91
ATOM     91  S   UNL     1     -11.057   8.030  13.633  1.00  0.00     0.124 S 
ATOM     92  O   UNL     1     -12.245   7.183  13.697  1.00  0.00    -0.237 OA
ATOM     93  O   UNL     1     -10.328   8.181  14.891  1.00  0.00    -0.237 OA
ATOM     94  O   UNL     1     -11.202   9.258  12.856  1.00  0.00    -0.744 OA
ENDBRANCH  90  91
ENDBRANCH  64  85
ENDBRANCH  38  39
ENDBRANCH  30  33
ENDBRANCH  28  29
ENDBRANCH  27  28
ENDBRANCH  26  27
ENDBRANCH   1  26
TORSDOF 19
