REMARK SMILES COc1ccc(C(=O)Nc2cccc(C(=O)NCCCCCCNC(=O)c3ccc(-c4c5nc(c(-c6ccc(S(=O)(=O)[O-])cc6)c6ccc([nH]6)c(-c6ccc(S(=O)(=O)[O-])cc6)c6nc(c(-c7ccc(S(=O)(=O)[O-])cc7)c7ccc4[nH]7)C=C6)C=C5)cc3)c2)cc1
REMARK SMILES IDX 20 1 19 2 18 3 17 4 15 5 16 6 14 8 10 9 11 10 87 11 12 12
REMARK SMILES IDX 13 13 9 14 7 15 8 16 6 18 3 19 4 20 89 21 5 22 88 23 2 24
REMARK SMILES IDX 1 25 21 26 22 27 23 28 24 29 25 30 26 32 27 33 28 34 86 35
REMARK SMILES IDX 29 36 85 37 30 38 31 39 32 40 79 41 33 42 84 43 78 44 80 45
REMARK SMILES IDX 34 46 83 47 77 48 76 49 35 51 65 52 46 53 64 54 47 55 50 56
REMARK SMILES IDX 63 57 81 58 48 59 49 60 62 62 82 63 51 64 36 65 37 66 45 67
REMARK SMILES IDX 38 68 44 69 39 70 40 71 41 72 42 73 43 74 66 75 67 76 75 77
REMARK SMILES IDX 68 78 74 79 69 80 70 81 71 82 72 83 73 84 52 85 53 86 61 87
REMARK SMILES IDX 54 88 60 89 55 90 56 91 57 92 58 93 59 94
REMARK H PARENT 17 7 9 17 24 31 80 50 50 61
REMARK Flexibility Score: inf
ROOT
ATOM      1  C   UNL     1       3.875   3.936  -4.868  1.00  0.00     0.002 C 
ENDROOT
BRANCH   1   2
ATOM      2  C   UNL     1       3.954   4.564  -3.472  1.00  0.00     0.021 C 
BRANCH   2   3
ATOM      3  C   UNL     1       3.863   3.524  -2.354  1.00  0.00     0.116 C 
BRANCH   3   4
ATOM      4  N   UNL     1       5.176   2.982  -2.057  1.00  0.00    -0.352 N 
ATOM      5  C   UNL     1       6.100   3.228  -1.076  1.00  0.00     0.251 C 
ATOM      6  O   UNL     1       7.147   2.577  -1.123  1.00  0.00    -0.269 OA
ATOM      7  H   UNL     1       5.464   2.292  -2.697  1.00  0.00     0.163 HD
BRANCH   5   8
ATOM      8  C   UNL     1       5.893   4.168   0.066  1.00  0.00     0.041 A 
ATOM      9  C   UNL     1       4.707   5.895   1.289  1.00  0.00     0.042 A 
ATOM     10  C   UNL     1       5.559   5.744   2.381  1.00  0.00     0.026 A 
ATOM     11  C   UNL     1       4.949   5.193   0.103  1.00  0.00     0.040 A 
ATOM     12  C   UNL     1       6.556   4.774   2.338  1.00  0.00     0.003 A 
ATOM     13  C   UNL     1       6.700   3.973   1.201  1.00  0.00     0.014 A 
BRANCH   9  14
ATOM     14  N   UNL     1       3.569   6.696   1.444  1.00  0.00    -0.322 N 
ATOM     15  C   UNL     1       2.276   6.469   1.002  1.00  0.00     0.255 C 
ATOM     16  O   UNL     1       1.480   7.407   0.990  1.00  0.00    -0.269 OA
ATOM     17  H   UNL     1       3.707   7.538   1.935  1.00  0.00     0.170 HD
BRANCH  15  18
ATOM     18  C   UNL     1       1.783   5.098   0.647  1.00  0.00     0.040 A 
ATOM     19  C   UNL     1       0.786   2.556  -0.086  1.00  0.00     0.118 A 
ATOM     20  C   UNL     1       0.197   3.723  -0.580  1.00  0.00     0.047 A 
ATOM     21  C   UNL     1       1.844   2.662   0.814  1.00  0.00     0.047 A 
ATOM     22  C   UNL     1       0.691   4.985  -0.221  1.00  0.00     0.017 A 
ATOM     23  C   UNL     1       2.312   3.925   1.205  1.00  0.00     0.017 A 
BRANCH  19  24
ATOM     24  O   UNL     1       0.241   1.391  -0.548  1.00  0.00    -0.497 OA
ATOM     25  C   UNL     1       0.795   0.177  -0.056  1.00  0.00     0.278 C 
ENDBRANCH  19  24
ENDBRANCH  15  18
ENDBRANCH   9  14
ENDBRANCH   5   8
ENDBRANCH   3   4
ENDBRANCH   2   3
ENDBRANCH   1   2
BRANCH   1  26
ATOM     26  C   UNL     1       2.532   3.267  -5.190  1.00  0.00     0.002 C 
BRANCH  26  27
ATOM     27  C   UNL     1       1.304   4.173  -5.051  1.00  0.00     0.021 C 
BRANCH  27  28
ATOM     28  C   UNL     1       1.325   5.409  -5.947  1.00  0.00     0.116 C 
BRANCH  28  29
ATOM     29  N   UNL     1       1.354   5.049  -7.356  1.00  0.00    -0.352 N 
ATOM     30  C   UNL     1       0.499   5.409  -8.366  1.00  0.00     0.251 C 
ATOM     31  H   UNL     1       2.097   4.461  -7.624  1.00  0.00     0.163 HD
ATOM     32  O   UNL     1       0.545   4.824  -9.443  1.00  0.00    -0.269 OA
BRANCH  30  33
ATOM     33  C   UNL     1      -0.482   6.495  -8.152  1.00  0.00     0.039 A 
ATOM     34  C   UNL     1      -1.792   6.320  -8.606  1.00  0.00     0.014 A 
ATOM     35  C   UNL     1      -0.106   7.690  -7.533  1.00  0.00     0.014 A 
ATOM     36  C   UNL     1      -2.738   7.325  -8.393  1.00  0.00     0.010 A 
ATOM     37  C   UNL     1      -1.065   8.665  -7.267  1.00  0.00     0.010 A 
ATOM     38  C   UNL     1      -2.389   8.495  -7.698  1.00  0.00    -0.014 A 
BRANCH  38  39
ATOM     39  C   UNL     1      -3.400   9.542  -7.404  1.00  0.00     0.031 A 
ATOM     40  C   UNL     1      -3.273  10.914  -8.011  1.00  0.00     0.074 A 
ATOM     41  C   UNL     1      -4.394   9.276  -6.533  1.00  0.00     0.049 A 
ATOM     42  N   UNL     1      -4.027  11.967  -7.828  1.00  0.00    -0.248 NA
ATOM     43  C   UNL     1      -2.139  11.140  -8.924  1.00  0.00     0.031 C 
ATOM     44  C   UNL     1      -4.592   8.003  -5.835  1.00  0.00     0.029 A 
ATOM     45  N   UNL     1      -5.419  10.066  -6.074  1.00  0.00    -0.354 N 
ATOM     46  C   UNL     1      -3.448  12.984  -8.578  1.00  0.00     0.074 A 
ATOM     47  C   UNL     1      -2.262  12.432  -9.195  1.00  0.00     0.031 C 
ATOM     48  C   UNL     1      -5.675   8.096  -5.047  1.00  0.00     0.029 A 
ATOM     49  C   UNL     1      -6.230   9.441  -5.156  1.00  0.00     0.049 A 
ATOM     50  H   UNL     1      -5.561  10.993  -6.375  1.00  0.00     0.167 HD
ATOM     51  C   UNL     1      -3.873  14.259  -8.746  1.00  0.00     0.031 A 
ATOM     52  C   UNL     1      -7.293   9.901  -4.468  1.00  0.00     0.031 A 
ATOM     53  C   UNL     1      -5.071  14.795  -8.155  1.00  0.00     0.049 A 
ATOM     54  C   UNL     1      -7.759  11.313  -4.698  1.00  0.00     0.074 A 
ATOM     55  C   UNL     1      -5.632  16.047  -8.340  1.00  0.00     0.029 A 
ATOM     56  N   UNL     1      -5.888  14.117  -7.264  1.00  0.00    -0.354 N 
ATOM     57  N   UNL     1      -7.252  12.229  -5.488  1.00  0.00    -0.248 NA
ATOM     58  C   UNL     1      -8.950  11.749  -3.955  1.00  0.00     0.031 C 
ATOM     59  C   UNL     1      -6.761  16.144  -7.521  1.00  0.00     0.029 A 
ATOM     60  C   UNL     1      -6.933  14.934  -6.869  1.00  0.00     0.049 A 
ATOM     61  H   UNL     1      -5.746  13.192  -6.958  1.00  0.00     0.167 HD
ATOM     62  C   UNL     1      -8.076  13.341  -5.354  1.00  0.00     0.074 A 
ATOM     63  C   UNL     1      -9.125  12.976  -4.425  1.00  0.00     0.031 C 
ATOM     64  C   UNL     1      -7.973  14.556  -5.947  1.00  0.00     0.031 A 
BRANCH  51  65
ATOM     65  C   UNL     1      -3.044  15.175  -9.606  1.00  0.00    -0.014 A 
ATOM     66  C   UNL     1      -3.012  15.030 -11.005  1.00  0.00     0.010 A 
ATOM     67  C   UNL     1      -2.357  16.251  -9.014  1.00  0.00     0.010 A 
ATOM     68  C   UNL     1      -2.293  15.933 -11.793  1.00  0.00     0.020 A 
ATOM     69  C   UNL     1      -1.657  17.170  -9.800  1.00  0.00     0.020 A 
ATOM     70  C   UNL     1      -1.623  16.999 -11.186  1.00  0.00     0.054 A 
BRANCH  70  71
ATOM     71  S   UNL     1      -0.750  18.191 -12.239  1.00  0.00     0.124 S 
ATOM     72  O   UNL     1       0.415  17.420 -12.665  1.00  0.00    -0.237 OA
ATOM     73  O   UNL     1      -1.732  18.474 -13.284  1.00  0.00    -0.237 OA
ATOM     74  O   UNL     1      -0.464  19.306 -11.340  1.00  0.00    -0.744 OA
ENDBRANCH  70  71
ENDBRANCH  51  65
BRANCH  52  75
ATOM     75  C   UNL     1      -7.990   9.020  -3.490  1.00  0.00    -0.014 A 
ATOM     76  C   UNL     1      -9.286   8.542  -3.750  1.00  0.00     0.010 A 
ATOM     77  C   UNL     1      -7.360   8.667  -2.283  1.00  0.00     0.010 A 
ATOM     78  C   UNL     1      -9.953   7.756  -2.806  1.00  0.00     0.020 A 
ATOM     79  C   UNL     1      -8.013   7.857  -1.349  1.00  0.00     0.020 A 
ATOM     80  C   UNL     1      -9.313   7.422  -1.609  1.00  0.00     0.054 A 
BRANCH  80  81
ATOM     81  S   UNL     1     -10.187   6.381  -0.407  1.00  0.00     0.124 S 
ATOM     82  O   UNL     1     -11.128   7.327   0.184  1.00  0.00    -0.237 OA
ATOM     83  O   UNL     1     -10.776   5.346  -1.252  1.00  0.00    -0.237 OA
ATOM     84  O   UNL     1      -9.122   5.918   0.480  1.00  0.00    -0.744 OA
ENDBRANCH  80  81
ENDBRANCH  52  75
BRANCH  64  85
ATOM     85  C   UNL     1      -9.038  15.571  -5.636  1.00  0.00    -0.014 A 
ATOM     86  C   UNL     1      -9.093  16.210  -4.384  1.00  0.00     0.010 A 
ATOM     87  C   UNL     1      -9.966  15.929  -6.631  1.00  0.00     0.010 A 
ATOM     88  C   UNL     1     -10.078  17.165  -4.122  1.00  0.00     0.020 A 
ATOM     89  C   UNL     1     -10.935  16.904  -6.382  1.00  0.00     0.020 A 
ATOM     90  C   UNL     1     -10.994  17.505  -5.123  1.00  0.00     0.054 A 
BRANCH  90  91
ATOM     91  S   UNL     1     -12.239  18.777  -4.773  1.00  0.00     0.124 S 
ATOM     92  O   UNL     1     -13.178  18.056  -3.920  1.00  0.00    -0.237 OA
ATOM     93  O   UNL     1     -11.458  19.818  -4.109  1.00  0.00    -0.237 OA
ATOM     94  O   UNL     1     -12.747  19.137  -6.095  1.00  0.00    -0.744 OA
ENDBRANCH  90  91
ENDBRANCH  64  85
ENDBRANCH  38  39
ENDBRANCH  30  33
ENDBRANCH  28  29
ENDBRANCH  27  28
ENDBRANCH  26  27
ENDBRANCH   1  26
TORSDOF 19
