REMARK SMILES Cc1ccsc1CNS(=O)(=O)c1ccc(C(=O)NCCCCCCNC(=O)c2ccc(-c3c4nc(c(-c5ccc(S(=O)(=O)[O-])cc5)c5ccc([nH]5)c(-c5ccc(S(=O)(=O)[O-])cc5)c5nc(c(-c6ccc(S(=O)(=O)[O-])cc6)c6ccc3[nH]6)C=C5)C=C4)cc2)s1
REMARK SMILES IDX 21 1 20 2 19 3 18 4 16 5 17 6 15 8 12 9 13 10 88 11 14 12
REMARK SMILES IDX 9 13 10 14 11 15 8 16 7 18 6 19 1 20 2 21 3 22 4 23 5 24
REMARK SMILES IDX 22 25 23 26 24 27 25 28 26 29 27 31 28 32 29 33 87 34 30 35
REMARK SMILES IDX 86 36 31 37 32 38 33 39 80 40 34 41 85 42 79 43 81 44 35 45
REMARK SMILES IDX 84 46 78 47 77 48 36 50 66 51 47 52 65 53 48 54 51 55 64 56
REMARK SMILES IDX 82 57 49 58 50 59 63 61 83 62 52 63 37 64 38 65 46 66 39 67
REMARK SMILES IDX 45 68 40 69 41 70 42 71 43 72 44 73 67 74 68 75 76 76 69 77
REMARK SMILES IDX 75 78 70 79 71 80 72 81 73 82 74 83 53 84 54 85 62 86 55 87
REMARK SMILES IDX 61 88 56 89 57 90 58 91 59 92 60 93
REMARK H PARENT 18 7 8 17 25 30 81 49 51 60
REMARK Flexibility Score: inf
ROOT
ATOM      1  C   UNL     1      -3.139 -10.071  -5.429  1.00  0.00     0.002 C 
ENDROOT
BRANCH   1   2
ATOM      2  C   UNL     1      -2.459  -9.711  -4.099  1.00  0.00     0.021 C 
BRANCH   2   3
ATOM      3  C   UNL     1      -1.312  -8.715  -4.262  1.00  0.00     0.116 C 
BRANCH   3   4
ATOM      4  N   UNL     1      -1.832  -7.370  -4.384  1.00  0.00    -0.351 N 
ATOM      5  C   UNL     1      -1.962  -6.344  -3.483  1.00  0.00     0.261 C 
ATOM      6  O   UNL     1      -2.480  -5.320  -3.941  1.00  0.00    -0.268 OA
ATOM      7  H   UNL     1      -2.155  -7.150  -5.287  1.00  0.00     0.163 HD
BRANCH   5   8
ATOM      8  C   UNL     1      -1.469  -6.444  -2.114  1.00  0.00     0.093 A 
ATOM      9  C   UNL     1      -0.489  -5.705   0.056  1.00  0.00     0.135 A 
ATOM     10  C   UNL     1      -0.541  -7.080  -0.058  1.00  0.00     0.034 A 
ATOM     11  S   UNL     1      -1.249  -4.960  -1.268  1.00  0.00    -0.117 S 
ATOM     12  C   UNL     1      -1.147  -7.503  -1.282  1.00  0.00     0.027 A 
BRANCH   9  13
ATOM     13  S   UNL     1       0.196  -4.657   1.314  1.00  0.00     0.250 S 
ATOM     14  O   UNL     1       1.627  -4.850   1.217  1.00  0.00    -0.206 OA
ATOM     15  O   UNL     1      -0.525  -5.009   2.516  1.00  0.00    -0.206 OA
BRANCH  13  16
ATOM     16  N   UNL     1      -0.120  -3.031   1.032  1.00  0.00    -0.205 NA
ATOM     17  H   UNL     1      -1.106  -2.948   0.783  1.00  0.00     0.141 HD
BRANCH  16  18
ATOM     18  C   UNL     1       0.661  -2.375  -0.025  1.00  0.00     0.145 C 
BRANCH  18  19
ATOM     19  C   UNL     1       0.406  -0.891   0.017  1.00  0.00     0.022 A 
ATOM     20  C   UNL     1       2.813   0.028   0.090  1.00  0.00     0.045 C 
ATOM     21  C   UNL     1       1.323   0.152   0.068  1.00  0.00    -0.036 A 
ATOM     22  C   UNL     1       0.657   1.425   0.084  1.00  0.00     0.015 A 
ATOM     23  C   UNL     1      -0.711   1.314   0.024  1.00  0.00     0.065 A 
ATOM     24  S   UNL     1      -1.213  -0.310  -0.070  1.00  0.00    -0.147 S 
ENDBRANCH  18  19
ENDBRANCH  16  18
ENDBRANCH  13  16
ENDBRANCH   9  13
ENDBRANCH   5   8
ENDBRANCH   3   4
ENDBRANCH   2   3
ENDBRANCH   1   2
BRANCH   1  25
ATOM     25  C   UNL     1      -2.231 -10.769  -6.450  1.00  0.00     0.002 C 
BRANCH  25  26
ATOM     26  C   UNL     1      -1.510 -12.019  -5.934  1.00  0.00     0.021 C 
BRANCH  26  27
ATOM     27  C   UNL     1      -2.433 -13.134  -5.448  1.00  0.00     0.116 C 
BRANCH  27  28
ATOM     28  N   UNL     1      -3.279 -13.635  -6.518  1.00  0.00    -0.352 N 
ATOM     29  C   UNL     1      -3.459 -14.918  -6.968  1.00  0.00     0.251 C 
ATOM     30  H   UNL     1      -3.802 -12.949  -6.992  1.00  0.00     0.163 HD
ATOM     31  O   UNL     1      -4.043 -15.103  -8.033  1.00  0.00    -0.269 OA
BRANCH  29  32
ATOM     32  C   UNL     1      -2.955 -16.072  -6.191  1.00  0.00     0.039 A 
ATOM     33  C   UNL     1      -2.397 -17.149  -6.886  1.00  0.00     0.014 A 
ATOM     34  C   UNL     1      -3.078 -16.130  -4.799  1.00  0.00     0.014 A 
ATOM     35  C   UNL     1      -1.933 -18.263  -6.184  1.00  0.00     0.010 A 
ATOM     36  C   UNL     1      -2.554 -17.215  -4.094  1.00  0.00     0.010 A 
ATOM     37  C   UNL     1      -1.988 -18.298  -4.780  1.00  0.00    -0.014 A 
BRANCH  37  38
ATOM     38  C   UNL     1      -1.446 -19.465  -4.039  1.00  0.00     0.031 A 
ATOM     39  C   UNL     1      -2.357 -20.375  -3.260  1.00  0.00     0.074 A 
ATOM     40  C   UNL     1      -0.119 -19.698  -4.061  1.00  0.00     0.049 A 
ATOM     41  N   UNL     1      -2.063 -21.475  -2.613  1.00  0.00    -0.248 NA
ATOM     42  C   UNL     1      -3.776 -19.993  -3.178  1.00  0.00     0.031 C 
ATOM     43  C   UNL     1       0.876 -18.856  -4.730  1.00  0.00     0.029 A 
ATOM     44  N   UNL     1       0.621 -20.716  -3.515  1.00  0.00    -0.354 N 
ATOM     45  C   UNL     1      -3.254 -21.912  -2.043  1.00  0.00     0.074 A 
ATOM     46  C   UNL     1      -4.264 -20.931  -2.378  1.00  0.00     0.031 C 
ATOM     47  C   UNL     1       2.089 -19.415  -4.592  1.00  0.00     0.029 A 
ATOM     48  C   UNL     1       1.962 -20.638  -3.805  1.00  0.00     0.049 A 
ATOM     49  H   UNL     1       0.229 -21.435  -2.968  1.00  0.00     0.167 HD
ATOM     50  C   UNL     1      -3.491 -23.036  -1.325  1.00  0.00     0.031 A 
ATOM     51  C   UNL     1       2.977 -21.464  -3.487  1.00  0.00     0.031 A 
ATOM     52  C   UNL     1      -2.485 -24.014  -0.998  1.00  0.00     0.049 A 
ATOM     53  C   UNL     1       2.686 -22.719  -2.714  1.00  0.00     0.074 A 
ATOM     54  C   UNL     1      -2.636 -25.215  -0.326  1.00  0.00     0.029 A 
ATOM     55  N   UNL     1      -1.140 -23.901  -1.316  1.00  0.00    -0.354 N 
ATOM     56  N   UNL     1       1.537 -23.154  -2.254  1.00  0.00    -0.248 NA
ATOM     57  C   UNL     1       3.825 -23.603  -2.436  1.00  0.00     0.031 C 
ATOM     58  C   UNL     1      -1.374 -25.807  -0.198  1.00  0.00     0.029 A 
ATOM     59  C   UNL     1      -0.446 -25.000  -0.836  1.00  0.00     0.049 A 
ATOM     60  H   UNL     1      -0.738 -23.151  -1.810  1.00  0.00     0.167 HD
ATOM     61  C   UNL     1       1.813 -24.373  -1.645  1.00  0.00     0.074 A 
ATOM     62  C   UNL     1       3.231 -24.616  -1.820  1.00  0.00     0.031 C 
ATOM     63  C   UNL     1       0.969 -25.217  -0.999  1.00  0.00     0.031 A 
BRANCH  50  64
ATOM     64  C   UNL     1      -4.900 -23.268  -0.842  1.00  0.00    -0.014 A 
ATOM     65  C   UNL     1      -5.931 -23.594  -1.741  1.00  0.00     0.010 A 
ATOM     66  C   UNL     1      -5.191 -23.193   0.532  1.00  0.00     0.010 A 
ATOM     67  C   UNL     1      -7.235 -23.798  -1.282  1.00  0.00     0.020 A 
ATOM     68  C   UNL     1      -6.489 -23.423   1.000  1.00  0.00     0.020 A 
ATOM     69  C   UNL     1      -7.507 -23.706   0.086  1.00  0.00     0.054 A 
BRANCH  69  70
ATOM     70  S   UNL     1      -9.205 -23.990   0.658  1.00  0.00     0.124 S 
ATOM     71  O   UNL     1      -9.871 -22.758   0.245  1.00  0.00    -0.237 OA
ATOM     72  O   UNL     1      -9.595 -25.191  -0.077  1.00  0.00    -0.237 OA
ATOM     73  O   UNL     1      -9.060 -24.167   2.101  1.00  0.00    -0.744 OA
ENDBRANCH  69  70
ENDBRANCH  50  64
BRANCH  51  74
ATOM     74  C   UNL     1       4.359 -21.144  -3.938  1.00  0.00    -0.014 A 
ATOM     75  C   UNL     1       4.965 -21.888  -4.965  1.00  0.00     0.010 A 
ATOM     76  C   UNL     1       5.065 -20.076  -3.357  1.00  0.00     0.010 A 
ATOM     77  C   UNL     1       6.259 -21.579  -5.394  1.00  0.00     0.020 A 
ATOM     78  C   UNL     1       6.349 -19.748  -3.800  1.00  0.00     0.020 A 
ATOM     79  C   UNL     1       6.942 -20.509  -4.809  1.00  0.00     0.054 A 
BRANCH  79  80
ATOM     80  S   UNL     1       8.597 -20.085  -5.422  1.00  0.00     0.124 S 
ATOM     81  O   UNL     1       9.419 -21.131  -4.825  1.00  0.00    -0.237 OA
ATOM     82  O   UNL     1       8.427 -20.161  -6.871  1.00  0.00    -0.237 OA
ATOM     83  O   UNL     1       8.818 -18.738  -4.900  1.00  0.00    -0.744 OA
ENDBRANCH  79  80
ENDBRANCH  51  74
BRANCH  63  84
ATOM     84  C   UNL     1       1.564 -26.484  -0.446  1.00  0.00    -0.014 A 
ATOM     85  C   UNL     1       2.417 -26.459   0.671  1.00  0.00     0.010 A 
ATOM     86  C   UNL     1       1.257 -27.718  -1.048  1.00  0.00     0.010 A 
ATOM     87  C   UNL     1       2.996 -27.640   1.145  1.00  0.00     0.020 A 
ATOM     88  C   UNL     1       1.812 -28.904  -0.560  1.00  0.00     0.020 A 
ATOM     89  C   UNL     1       2.696 -28.854   0.519  1.00  0.00     0.054 A 
BRANCH  89  90
ATOM     90  S   UNL     1       3.457 -30.375   1.151  1.00  0.00     0.124 S 
ATOM     91  O   UNL     1       4.814 -30.276   0.622  1.00  0.00    -0.237 OA
ATOM     92  O   UNL     1       3.333 -30.221   2.599  1.00  0.00    -0.237 OA
ATOM     93  O   UNL     1       2.637 -31.436   0.572  1.00  0.00    -0.744 OA
ENDBRANCH  89  90
ENDBRANCH  63  84
ENDBRANCH  37  38
ENDBRANCH  29  32
ENDBRANCH  27  28
ENDBRANCH  26  27
ENDBRANCH  25  26
ENDBRANCH   1  25
TORSDOF 20
