REMARK SMILES C[C@@H]1CN(C(=O)Nc2ccc(O)c(C(=O)NCCCCCCNC(=O)c3ccc(-c4c5nc(c(-c6ccc(S(=O)(=O)[O-])cc6)c6ccc([nH]6)c(-c6ccc(S(=O)(=O)[O-])cc6)c6nc(c(-c7ccc(S(=O)(=O)[O-])cc7)c7ccc4[nH]7)C=C6)C=C5)cc3)c2)C[C@H]1C
REMARK SMILES IDX 20 1 19 2 18 3 17 4 16 5 14 6 15 7 13 9 8 10 9 11 86 12
REMARK SMILES IDX 10 13 11 14 7 15 1 16 2 17 3 18 88 19 4 20 87 21 89 22 5 23
REMARK SMILES IDX 6 24 12 26 21 28 22 29 23 30 24 31 25 33 26 34 27 35 85 36
REMARK SMILES IDX 28 37 84 38 29 39 30 40 31 41 78 42 32 43 83 44 77 45 79 46
REMARK SMILES IDX 33 47 82 48 76 49 75 50 34 52 64 53 45 54 63 55 46 56 49 57
REMARK SMILES IDX 62 58 80 59 47 60 48 61 61 63 81 64 50 65 35 66 36 67 44 68
REMARK SMILES IDX 37 69 43 70 38 71 39 72 40 73 41 74 42 75 65 76 66 77 74 78
REMARK SMILES IDX 67 79 73 80 68 81 69 82 70 83 71 84 72 85 51 86 52 87 60 88
REMARK SMILES IDX 53 89 59 90 54 91 55 92 56 93 57 94 58 95
REMARK H PARENT 16 8 7 25 12 27 23 32 79 51 49 62
REMARK Flexibility Score: inf
ROOT
ATOM      1  C   UNL     1      10.297  -0.437  -0.641  1.00  0.00     0.002 C 
ENDROOT
BRANCH   1   2
ATOM      2  C   UNL     1      10.038   1.028  -1.003  1.00  0.00     0.002 C 
BRANCH   2   3
ATOM      3  C   UNL     1       8.598   1.333  -1.425  1.00  0.00     0.021 C 
BRANCH   3   4
ATOM      4  C   UNL     1       7.568   1.125  -0.311  1.00  0.00     0.116 C 
BRANCH   4   5
ATOM      5  N   UNL     1       7.500   2.303   0.523  1.00  0.00    -0.352 N 
ATOM      6  C   UNL     1       6.685   3.401   0.498  1.00  0.00     0.255 C 
ATOM      7  O   UNL     1       6.934   4.279   1.332  1.00  0.00    -0.269 OA
ATOM      8  H   UNL     1       8.168   2.318   1.246  1.00  0.00     0.163 HD
BRANCH   6   9
ATOM      9  C   UNL     1       5.483   3.580  -0.372  1.00  0.00     0.083 A 
ATOM     10  C   UNL     1       3.228   4.521  -0.393  1.00  0.00     0.043 A 
ATOM     11  C   UNL     1       3.077   4.170  -1.730  1.00  0.00     0.030 A 
ATOM     12  C   UNL     1       4.447   4.307   0.249  1.00  0.00     0.044 A 
ATOM     13  C   UNL     1       4.088   3.463  -2.370  1.00  0.00     0.049 A 
ATOM     14  C   UNL     1       5.269   3.143  -1.686  1.00  0.00     0.128 A 
BRANCH  10  15
ATOM     15  N   UNL     1       2.177   5.062   0.350  1.00  0.00    -0.308 N 
ATOM     16  C   UNL     1       0.758  -0.188   0.090  1.00  0.00     0.010 C 
ATOM     17  C   UNL     1       0.216   1.162  -0.348  1.00  0.00     0.010 C 
ATOM     18  C   UNL     1       1.219   2.285  -0.113  1.00  0.00     0.125 C 
ATOM     19  C   UNL     1      -1.006   1.662   0.425  1.00  0.00     0.010 C 
ATOM     20  N   UNL     1       0.422   3.504   0.007  1.00  0.00    -0.324 N 
ATOM     21  C   UNL     1      -0.990   3.163   0.115  1.00  0.00     0.125 C 
ATOM     22  C   UNL     1      -2.299   0.980   0.019  1.00  0.00     0.010 C 
ATOM     23  C   UNL     1       0.844   4.777   0.316  1.00  0.00     0.321 C 
ATOM     24  O   UNL     1       0.059   5.648   0.699  1.00  0.00    -0.248 OA
ATOM     25  H   UNL     1       2.438   5.756   0.997  1.00  0.00     0.171 HD
ENDBRANCH  10  15
BRANCH  14  26
ATOM     26  O   UNL     1       6.180   2.417  -2.391  1.00  0.00    -0.507 OA
ATOM     27  H   UNL     1       5.988   2.149  -3.268  1.00  0.00     0.293 HD
ENDBRANCH  14  26
ENDBRANCH   6   9
ENDBRANCH   4   5
ENDBRANCH   3   4
ENDBRANCH   2   3
ENDBRANCH   1   2
BRANCH   1  28
ATOM     28  C   UNL     1       9.902  -1.443  -1.725  1.00  0.00     0.021 C 
BRANCH  28  29
ATOM     29  C   UNL     1      10.659  -1.268  -3.036  1.00  0.00     0.116 C 
BRANCH  29  30
ATOM     30  N   UNL     1      12.080  -1.543  -2.869  1.00  0.00    -0.352 N 
ATOM     31  C   UNL     1      12.845  -2.505  -3.483  1.00  0.00     0.251 C 
ATOM     32  H   UNL     1      12.555  -0.962  -2.232  1.00  0.00     0.163 HD
ATOM     33  O   UNL     1      13.955  -2.789  -3.055  1.00  0.00    -0.269 OA
BRANCH  31  34
ATOM     34  C   UNL     1      12.296  -3.197  -4.666  1.00  0.00     0.039 A 
ATOM     35  C   UNL     1      12.346  -4.591  -4.735  1.00  0.00     0.014 A 
ATOM     36  C   UNL     1      11.702  -2.455  -5.690  1.00  0.00     0.014 A 
ATOM     37  C   UNL     1      11.738  -5.247  -5.808  1.00  0.00     0.010 A 
ATOM     38  C   UNL     1      11.034  -3.111  -6.715  1.00  0.00     0.010 A 
ATOM     39  C   UNL     1      11.047  -4.513  -6.787  1.00  0.00    -0.014 A 
BRANCH  39  40
ATOM     40  C   UNL     1      10.332  -5.175  -7.907  1.00  0.00     0.031 A 
ATOM     41  C   UNL     1      10.760  -4.900  -9.323  1.00  0.00     0.074 A 
ATOM     42  C   UNL     1       9.244  -5.932  -7.658  1.00  0.00     0.049 A 
ATOM     43  N   UNL     1      10.181  -5.250 -10.441  1.00  0.00    -0.248 NA
ATOM     44  C   UNL     1      11.984  -4.099  -9.505  1.00  0.00     0.031 C 
ATOM     45  C   UNL     1       8.713  -6.246  -6.330  1.00  0.00     0.029 A 
ATOM     46  N   UNL     1       8.374  -6.557  -8.517  1.00  0.00    -0.354 N 
ATOM     47  C   UNL     1      10.949  -4.688 -11.455  1.00  0.00     0.074 A 
ATOM     48  C   UNL     1      12.011  -3.941 -10.820  1.00  0.00     0.031 C 
ATOM     49  C   UNL     1       7.617  -7.010  -6.463  1.00  0.00     0.029 A 
ATOM     50  C   UNL     1       7.335  -7.198  -7.883  1.00  0.00     0.049 A 
ATOM     51  H   UNL     1       8.484  -6.548  -9.496  1.00  0.00     0.167 HD
ATOM     52  C   UNL     1      10.790  -4.797 -12.795  1.00  0.00     0.031 A 
ATOM     53  C   UNL     1       6.263  -7.841  -8.386  1.00  0.00     0.031 A 
ATOM     54  C   UNL     1       9.743  -5.561 -13.418  1.00  0.00     0.049 A 
ATOM     55  C   UNL     1       6.102  -7.936  -9.881  1.00  0.00     0.074 A 
ATOM     56  C   UNL     1       9.536  -5.788 -14.767  1.00  0.00     0.029 A 
ATOM     57  N   UNL     1       8.730  -6.220 -12.739  1.00  0.00    -0.354 N 
ATOM     58  N   UNL     1       6.876  -7.453 -10.824  1.00  0.00    -0.248 NA
ATOM     59  C   UNL     1       4.929  -8.668 -10.380  1.00  0.00     0.031 C 
ATOM     60  C   UNL     1       8.361  -6.532 -14.907  1.00  0.00     0.029 A 
ATOM     61  C   UNL     1       7.878  -6.830 -13.643  1.00  0.00     0.049 A 
ATOM     62  H   UNL     1       8.632  -6.249 -11.760  1.00  0.00     0.167 HD
ATOM     63  C   UNL     1       6.303  -7.855 -12.026  1.00  0.00     0.074 A 
ATOM     64  C   UNL     1       5.124  -8.626 -11.692  1.00  0.00     0.031 C 
ATOM     65  C   UNL     1       6.719  -7.610 -13.292  1.00  0.00     0.031 A 
BRANCH  52  66
ATOM     66  C   UNL     1      11.762  -4.068 -13.683  1.00  0.00    -0.014 A 
ATOM     67  C   UNL     1      13.103  -4.477 -13.790  1.00  0.00     0.010 A 
ATOM     68  C   UNL     1      11.308  -2.999 -14.479  1.00  0.00     0.010 A 
ATOM     69  C   UNL     1      13.978  -3.815 -14.654  1.00  0.00     0.020 A 
ATOM     70  C   UNL     1      12.172  -2.354 -15.368  1.00  0.00     0.020 A 
ATOM     71  C   UNL     1      13.506  -2.760 -15.441  1.00  0.00     0.054 A 
BRANCH  71  72
ATOM     72  S   UNL     1      14.653  -1.955 -16.592  1.00  0.00     0.124 S 
ATOM     73  O   UNL     1      15.535  -1.230 -15.681  1.00  0.00    -0.237 OA
ATOM     74  O   UNL     1      15.259  -3.090 -17.283  1.00  0.00    -0.237 OA
ATOM     75  O   UNL     1      13.787  -1.117 -17.417  1.00  0.00    -0.744 OA
ENDBRANCH  71  72
ENDBRANCH  52  66
BRANCH  53  76
ATOM     76  C   UNL     1       5.246  -8.433  -7.472  1.00  0.00    -0.014 A 
ATOM     77  C   UNL     1       5.083  -9.827  -7.383  1.00  0.00     0.010 A 
ATOM     78  C   UNL     1       4.424  -7.600  -6.690  1.00  0.00     0.010 A 
ATOM     79  C   UNL     1       4.096 -10.375  -6.557  1.00  0.00     0.020 A 
ATOM     80  C   UNL     1       3.460  -8.145  -5.837  1.00  0.00     0.020 A 
ATOM     81  C   UNL     1       3.291  -9.529  -5.789  1.00  0.00     0.054 A 
BRANCH  81  82
ATOM     82  S   UNL     1       2.035 -10.262  -4.704  1.00  0.00     0.124 S 
ATOM     83  O   UNL     1       1.038 -10.725  -5.664  1.00  0.00    -0.237 OA
ATOM     84  O   UNL     1       2.786 -11.308  -4.015  1.00  0.00    -0.237 OA
ATOM     85  O   UNL     1       1.620  -9.144  -3.860  1.00  0.00    -0.744 OA
ENDBRANCH  81  82
ENDBRANCH  53  76
BRANCH  65  86
ATOM     86  C   UNL     1       5.934  -8.223 -14.422  1.00  0.00    -0.014 A 
ATOM     87  C   UNL     1       4.667  -7.737 -14.784  1.00  0.00     0.010 A 
ATOM     88  C   UNL     1       6.525  -9.242 -15.193  1.00  0.00     0.010 A 
ATOM     89  C   UNL     1       3.998  -8.269 -15.890  1.00  0.00     0.020 A 
ATOM     90  C   UNL     1       5.874  -9.754 -16.317  1.00  0.00     0.020 A 
ATOM     91  C   UNL     1       4.609  -9.269 -16.653  1.00  0.00     0.054 A 
BRANCH  91  92
ATOM     92  S   UNL     1       3.753  -9.885 -18.128  1.00  0.00     0.124 S 
ATOM     93  O   UNL     1       2.661 -10.659 -17.545  1.00  0.00    -0.237 OA
ATOM     94  O   UNL     1       3.359  -8.652 -18.806  1.00  0.00    -0.237 OA
ATOM     95  O   UNL     1       4.773 -10.671 -18.820  1.00  0.00    -0.744 OA
ENDBRANCH  91  92
ENDBRANCH  65  86
ENDBRANCH  39  40
ENDBRANCH  31  34
ENDBRANCH  29  30
ENDBRANCH  28  29
ENDBRANCH   1  28
TORSDOF 18
