REMARK SMILES O=C(NCCCCCCNC(=O)[C@@]1(Nc2ccc(Cl)c(Br)c2)CCCOCC1)c1ccc(-c2c3nc(c(-c4ccc(S(=O)(=O)[O-])cc4)c4ccc([nH]4)c(-c4ccc(S(=O)(=O)[O-])cc4)c4nc(c(-c5ccc(S(=O)(=O)[O-])cc5)c5ccc2[nH]5)C=C4)C=C3)cc1
REMARK SMILES IDX 7 1 6 2 5 3 4 4 3 5 1 6 2 7 29 9 30 10 88 11 31 12 87 13
REMARK SMILES IDX 32 14 33 15 34 16 81 17 35 18 86 19 80 20 82 21 36 22 85 23
REMARK SMILES IDX 79 24 78 25 37 27 67 28 48 29 66 30 49 31 52 32 65 33 83 34
REMARK SMILES IDX 50 35 51 36 64 38 84 39 53 40 38 41 39 42 47 43 40 44 46 45
REMARK SMILES IDX 41 46 42 47 43 48 44 49 45 50 68 51 69 52 77 53 70 54 76 55
REMARK SMILES IDX 71 56 72 57 73 58 74 59 75 60 54 61 55 62 63 63 56 64 62 65
REMARK SMILES IDX 57 66 58 67 59 68 60 69 61 70 8 71 9 72 10 73 11 74 12 76
REMARK SMILES IDX 13 77 23 78 24 79 28 81 27 82 26 83 25 84 14 86 15 88 16 89
REMARK SMILES IDX 22 90 17 91 20 92 18 93 21 94 19 95
REMARK H PARENT 3 8 82 26 52 37 10 75 14 87
REMARK Flexibility Score: 90.00
ROOT
ATOM      1  C   UNL     1      14.273  -0.791  -8.888  1.00  0.00     0.002 C 
ENDROOT
BRANCH   1   2
ATOM      2  C   UNL     1      15.079   0.501  -8.712  1.00  0.00     0.002 C 
BRANCH   2   3
ATOM      3  C   UNL     1      15.556   0.815  -7.289  1.00  0.00     0.021 C 
BRANCH   3   4
ATOM      4  C   UNL     1      16.386  -0.275  -6.614  1.00  0.00     0.116 C 
BRANCH   4   5
ATOM      5  N   UNL     1      17.549  -0.641  -7.399  1.00  0.00    -0.352 N 
ATOM      6  O   UNL     1      19.708  -0.760  -7.982  1.00  0.00    -0.269 OA
ATOM      7  C   UNL     1      18.883  -0.599  -7.087  1.00  0.00     0.251 C 
ATOM      8  H   UNL     1      17.348  -0.974  -8.303  1.00  0.00     0.163 HD
BRANCH   7   9
ATOM      9  C   UNL     1      19.341  -0.369  -5.697  1.00  0.00     0.039 A 
ATOM     10  C   UNL     1      20.495   0.396  -5.496  1.00  0.00     0.014 A 
ATOM     11  C   UNL     1      18.711  -0.973  -4.604  1.00  0.00     0.014 A 
ATOM     12  C   UNL     1      21.012   0.559  -4.209  1.00  0.00     0.010 A 
ATOM     13  C   UNL     1      19.188  -0.754  -3.312  1.00  0.00     0.010 A 
ATOM     14  C   UNL     1      20.362  -0.014  -3.105  1.00  0.00    -0.014 A 
BRANCH  14  15
ATOM     15  C   UNL     1      20.945   0.076  -1.742  1.00  0.00     0.031 A 
ATOM     16  C   UNL     1      21.458  -1.169  -1.068  1.00  0.00     0.074 A 
ATOM     17  C   UNL     1      21.008   1.263  -1.108  1.00  0.00     0.049 A 
ATOM     18  N   UNL     1      21.957  -1.310   0.133  1.00  0.00    -0.248 NA
ATOM     19  C   UNL     1      21.386  -2.424  -1.837  1.00  0.00     0.031 C 
ATOM     20  C   UNL     1      20.549   2.538  -1.658  1.00  0.00     0.029 A 
ATOM     21  N   UNL     1      21.493   1.590   0.135  1.00  0.00    -0.354 N 
ATOM     22  C   UNL     1      22.248  -2.663   0.264  1.00  0.00     0.074 A 
ATOM     23  C   UNL     1      21.820  -3.311  -0.954  1.00  0.00     0.031 C 
ATOM     24  C   UNL     1      20.808   3.515  -0.774  1.00  0.00     0.029 A 
ATOM     25  C   UNL     1      21.411   2.933   0.423  1.00  0.00     0.049 A 
ATOM     26  H   UNL     1      21.864   0.927   0.760  1.00  0.00     0.167 HD
ATOM     27  C   UNL     1      22.848  -3.303   1.295  1.00  0.00     0.031 A 
ATOM     28  C   UNL     1      21.782   3.620   1.522  1.00  0.00     0.031 A 
ATOM     29  C   UNL     1      23.298  -2.648   2.494  1.00  0.00     0.049 A 
ATOM     30  C   UNL     1      22.419   2.885   2.670  1.00  0.00     0.074 A 
ATOM     31  C   UNL     1      23.940  -3.208   3.584  1.00  0.00     0.029 A 
ATOM     32  N   UNL     1      23.171  -1.292   2.755  1.00  0.00    -0.354 N 
ATOM     33  N   UNL     1      22.697   1.607   2.771  1.00  0.00    -0.248 NA
ATOM     34  C   UNL     1      22.800   3.680   3.846  1.00  0.00     0.031 C 
ATOM     35  C   UNL     1      24.153  -2.201   4.527  1.00  0.00     0.029 A 
ATOM     36  C   UNL     1      23.705  -1.001   3.998  1.00  0.00     0.049 A 
ATOM     37  H   UNL     1      22.761  -0.635   2.147  1.00  0.00     0.167 HD
ATOM     38  C   UNL     1      23.301   1.447   4.013  1.00  0.00     0.074 A 
ATOM     39  C   UNL     1      23.361   2.760   4.622  1.00  0.00     0.031 C 
ATOM     40  C   UNL     1      23.761   0.311   4.594  1.00  0.00     0.031 A 
BRANCH  27  41
ATOM     41  C   UNL     1      23.077  -4.787   1.172  1.00  0.00    -0.014 A 
ATOM     42  C   UNL     1      22.396  -5.677   2.022  1.00  0.00     0.010 A 
ATOM     43  C   UNL     1      24.041  -5.294   0.282  1.00  0.00     0.010 A 
ATOM     44  C   UNL     1      22.690  -7.043   2.002  1.00  0.00     0.020 A 
ATOM     45  C   UNL     1      24.317  -6.663   0.238  1.00  0.00     0.020 A 
ATOM     46  C   UNL     1      23.655  -7.526   1.115  1.00  0.00     0.054 A 
BRANCH  46  47
ATOM     47  S   UNL     1      24.032  -9.300   1.108  1.00  0.00     0.124 S 
ATOM     48  O   UNL     1      24.858  -9.444   2.303  1.00  0.00    -0.237 OA
ATOM     49  O   UNL     1      22.706  -9.910   1.178  1.00  0.00    -0.237 OA
ATOM     50  O   UNL     1      24.729  -9.496  -0.162  1.00  0.00    -0.744 OA
ENDBRANCH  46  47
ENDBRANCH  27  41
BRANCH  28  51
ATOM     51  C   UNL     1      21.597   5.097   1.549  1.00  0.00    -0.014 A 
ATOM     52  C   UNL     1      20.306   5.656   1.595  1.00  0.00     0.010 A 
ATOM     53  C   UNL     1      22.707   5.952   1.428  1.00  0.00     0.010 A 
ATOM     54  C   UNL     1      20.125   7.035   1.460  1.00  0.00     0.020 A 
ATOM     55  C   UNL     1      22.531   7.335   1.319  1.00  0.00     0.020 A 
ATOM     56  C   UNL     1      21.239   7.864   1.303  1.00  0.00     0.054 A 
BRANCH  56  57
ATOM     57  S   UNL     1      20.976   9.642   1.052  1.00  0.00     0.124 S 
ATOM     58  O   UNL     1      20.533   9.684  -0.340  1.00  0.00    -0.237 OA
ATOM     59  O   UNL     1      19.954   9.957   2.046  1.00  0.00    -0.237 OA
ATOM     60  O   UNL     1      22.291  10.222   1.308  1.00  0.00    -0.744 OA
ENDBRANCH  56  57
ENDBRANCH  28  51
BRANCH  40  61
ATOM     61  C   UNL     1      24.379   0.407   5.963  1.00  0.00    -0.014 A 
ATOM     62  C   UNL     1      25.755   0.158   6.125  1.00  0.00     0.010 A 
ATOM     63  C   UNL     1      23.575   0.585   7.103  1.00  0.00     0.010 A 
ATOM     64  C   UNL     1      26.309   0.041   7.402  1.00  0.00     0.020 A 
ATOM     65  C   UNL     1      24.132   0.496   8.382  1.00  0.00     0.020 A 
ATOM     66  C   UNL     1      25.489   0.195   8.523  1.00  0.00     0.054 A 
BRANCH  66  67
ATOM     67  S   UNL     1      26.214  -0.014  10.172  1.00  0.00     0.124 S 
ATOM     68  O   UNL     1      26.326  -1.466  10.277  1.00  0.00    -0.237 OA
ATOM     69  O   UNL     1      27.479   0.709  10.063  1.00  0.00    -0.237 OA
ATOM     70  O   UNL     1      25.229   0.602  11.059  1.00  0.00    -0.744 OA
ENDBRANCH  66  67
ENDBRANCH  40  61
ENDBRANCH  14  15
ENDBRANCH   7   9
ENDBRANCH   4   5
ENDBRANCH   3   4
ENDBRANCH   2   3
ENDBRANCH   1   2
BRANCH   1  71
ATOM     71  C   UNL     1      13.123  -0.995  -7.902  1.00  0.00     0.021 C 
BRANCH  71  72
ATOM     72  C   UNL     1      12.086   0.126  -7.887  1.00  0.00     0.116 C 
BRANCH  72  73
ATOM     73  N   UNL     1      10.921  -0.189  -8.675  1.00  0.00    -0.354 N 
ATOM     74  C   UNL     1       9.595  -0.156  -8.380  1.00  0.00     0.245 C 
ATOM     75  H   UNL     1      11.122  -0.482  -9.593  1.00  0.00     0.163 HD
ATOM     76  O   UNL     1       8.842  -0.508  -9.306  1.00  0.00    -0.272 OA
BRANCH  74  77
ATOM     77  C   UNL     1       8.962   0.259  -6.971  1.00  0.00     0.119 C 
BRANCH  77  78
ATOM     78  C   UNL     1       8.988  -0.983  -6.036  1.00  0.00     0.041 C 
BRANCH  78  79
ATOM     79  C   UNL     1      10.303  -1.447  -5.434  1.00  0.00     0.031 CG0
ATOM     80  G   UNL     1      10.897  -0.514  -4.388  1.00  0.00     0.000 G0
ENDBRANCH  78  79
ENDBRANCH  77  78
BRANCH  77  81
ATOM     81  C   UNL     1       9.540   1.603  -6.461  1.00  0.00     0.067 C 
BRANCH  81  82
ATOM     82  C   UNL     1      10.447   1.663  -5.233  1.00  0.00     0.163 C 
BRANCH  82  83
ATOM     83  O   UNL     1      10.160   0.692  -4.245  1.00  0.00    -0.381 OA
BRANCH  83  84
ATOM     84  C   UNL     1      10.897  -0.514  -4.388  1.00  0.00     0.160 CG0
ATOM     85  G   UNL     1      10.303  -1.447  -5.434  1.00  0.00     0.000 G0
ENDBRANCH  83  84
ENDBRANCH  82  83
ENDBRANCH  81  82
ENDBRANCH  77  81
BRANCH  77  86
ATOM     86  N   UNL     1       7.499   0.523  -7.339  1.00  0.00    -0.371 N 
ATOM     87  H   UNL     1       7.280   0.752  -8.271  1.00  0.00     0.161 HD
BRANCH  86  88
ATOM     88  C   UNL     1       6.467   0.454  -6.410  1.00  0.00     0.036 A 
ATOM     89  C   UNL     1       6.203   1.509  -5.535  1.00  0.00     0.027 A 
ATOM     90  C   UNL     1       5.740  -0.734  -6.253  1.00  0.00     0.043 A 
ATOM     91  C   UNL     1       5.266   1.379  -4.506  1.00  0.00     0.024 A 
ATOM     92  C   UNL     1       4.812  -0.881  -5.213  1.00  0.00     0.038 A 
ATOM     93  C   UNL     1       4.580   0.178  -4.332  1.00  0.00     0.055 A 
ATOM     94  Br  UNL     1       3.945  -2.563  -5.044  1.00  0.00    -0.049 Br
ATOM     95  Cl  UNL     1       3.475   0.074  -3.008  1.00  0.00    -0.083 Cl
ENDBRANCH  86  88
ENDBRANCH  77  86
ENDBRANCH  74  77
ENDBRANCH  72  73
ENDBRANCH  71  72
ENDBRANCH   1  71
TORSDOF 18
