REMARK SMILES C[C@H](Oc1ccc(C(=O)NCc2ccccc2)cc1)C(=O)NCCCCCCNC(=O)c1ccc(-c2c3nc(c(-c4ccc(S(=O)(=O)[O-])cc4)c4ccc([nH]4)c(-c4ccc(S(=O)(=O)[O-])cc4)c4nc(c(-c5ccc(S(=O)(=O)[O-])cc5)c5ccc2[nH]5)C=C4)C=C3)cc1
REMARK SMILES IDX 24 1 23 2 22 3 20 4 21 5 2 7 1 8 3 9 4 10 5 11 19 12 6 13
REMARK SMILES IDX 18 14 7 15 8 16 9 17 10 18 11 20 12 21 13 22 17 23 14 24
REMARK SMILES IDX 16 25 15 26 25 27 26 28 27 29 28 30 29 31 30 32 31 34 32 35
REMARK SMILES IDX 33 36 91 37 34 38 90 39 35 40 36 41 37 42 84 43 38 44 89 45
REMARK SMILES IDX 83 46 85 47 39 48 88 49 82 50 81 51 40 53 70 54 51 55 69 56
REMARK SMILES IDX 52 57 55 58 68 59 86 60 53 61 54 62 67 64 87 65 56 66 41 67
REMARK SMILES IDX 42 68 50 69 43 70 49 71 44 72 45 73 46 74 47 75 48 76 71 77
REMARK SMILES IDX 72 78 80 79 73 80 79 81 74 82 75 83 76 84 77 85 78 86 57 87
REMARK SMILES IDX 58 88 66 89 59 90 65 91 60 92 61 93 62 94 63 95 64 96
REMARK H PARENT 22 6 10 19 29 33 85 52 55 63
REMARK Flexibility Score: inf
ROOT
ATOM      1  C   UNL     1      -1.576   2.328  -0.760  1.00  0.00     0.021 C 
ENDROOT
BRANCH   1   2
ATOM      2  C   UNL     1      -1.052   1.946   0.620  1.00  0.00     0.116 C 
BRANCH   2   3
ATOM      3  N   UNL     1      -1.570   0.659   1.054  1.00  0.00    -0.353 N 
ATOM      4  C   UNL     1      -0.896  -0.415   1.571  1.00  0.00     0.260 C 
ATOM      5  O   UNL     1      -1.544  -1.422   1.865  1.00  0.00    -0.271 OA
ATOM      6  H   UNL     1      -2.543   0.543   0.963  1.00  0.00     0.163 HD
BRANCH   4   7
ATOM      7  C   UNL     1       0.618  -0.328   1.829  1.00  0.00     0.258 C 
ATOM      8  C   UNL     1       0.847   0.721   2.922  1.00  0.00     0.064 C 
BRANCH   7   9
ATOM      9  O   UNL     1       1.212  -0.190   0.534  1.00  0.00    -0.481 OA
BRANCH   9  10
ATOM     10  C   UNL     1       2.311   0.562   0.281  1.00  0.00     0.120 A 
ATOM     11  C   UNL     1       3.334   0.858   1.166  1.00  0.00     0.047 A 
ATOM     12  C   UNL     1       2.365   1.080  -1.017  1.00  0.00     0.047 A 
ATOM     13  C   UNL     1       4.353   1.738   0.780  1.00  0.00     0.017 A 
ATOM     14  C   UNL     1       3.382   1.959  -1.406  1.00  0.00     0.017 A 
ATOM     15  C   UNL     1       4.394   2.298  -0.509  1.00  0.00     0.040 A 
BRANCH  15  16
ATOM     16  C   UNL     1       5.479   3.284  -0.770  1.00  0.00     0.251 C 
ATOM     17  O   UNL     1       5.976   3.870   0.193  1.00  0.00    -0.269 OA
ATOM     18  N   UNL     1       5.977   3.580  -2.006  1.00  0.00    -0.348 N 
ATOM     19  H   UNL     1       6.666   4.283  -1.984  1.00  0.00     0.164 HD
BRANCH  18  20
ATOM     20  C   UNL     1       5.715   3.088  -3.343  1.00  0.00     0.152 C 
BRANCH  20  21
ATOM     21  C   UNL     1       5.038   4.140  -4.189  1.00  0.00    -0.029 A 
ATOM     22  C   UNL     1       5.469   4.370  -5.504  1.00  0.00     0.005 A 
ATOM     23  C   UNL     1       3.973   4.910  -3.692  1.00  0.00     0.005 A 
ATOM     24  C   UNL     1       4.872   5.362  -6.286  1.00  0.00     0.000 A 
ATOM     25  C   UNL     1       3.373   5.896  -4.476  1.00  0.00     0.000 A 
ATOM     26  C   UNL     1       3.827   6.126  -5.771  1.00  0.00     0.000 A 
ENDBRANCH  20  21
ENDBRANCH  18  20
ENDBRANCH  15  16
ENDBRANCH   9  10
ENDBRANCH   7   9
ENDBRANCH   4   7
ENDBRANCH   2   3
ENDBRANCH   1   2
BRANCH   1  27
ATOM     27  C   UNL     1      -3.071   2.655  -0.787  1.00  0.00     0.002 C 
BRANCH  27  28
ATOM     28  C   UNL     1      -3.498   3.794   0.144  1.00  0.00     0.002 C 
BRANCH  28  29
ATOM     29  C   UNL     1      -2.759   5.117  -0.070  1.00  0.00     0.021 C 
BRANCH  29  30
ATOM     30  C   UNL     1      -2.864   5.677  -1.484  1.00  0.00     0.116 C 
BRANCH  30  31
ATOM     31  N   UNL     1      -4.238   5.976  -1.854  1.00  0.00    -0.352 N 
ATOM     32  C   UNL     1      -4.766   7.139  -2.358  1.00  0.00     0.251 C 
ATOM     33  H   UNL     1      -4.880   5.241  -1.724  1.00  0.00     0.163 HD
ATOM     34  O   UNL     1      -5.980   7.284  -2.430  1.00  0.00    -0.269 OA
BRANCH  32  35
ATOM     35  C   UNL     1      -3.857   8.221  -2.794  1.00  0.00     0.039 A 
ATOM     36  C   UNL     1      -4.134   9.535  -2.411  1.00  0.00     0.014 A 
ATOM     37  C   UNL     1      -2.733   7.936  -3.574  1.00  0.00     0.014 A 
ATOM     38  C   UNL     1      -3.249  10.557  -2.762  1.00  0.00     0.010 A 
ATOM     39  C   UNL     1      -1.814   8.943  -3.856  1.00  0.00     0.010 A 
ATOM     40  C   UNL     1      -2.066  10.265  -3.460  1.00  0.00    -0.014 A 
BRANCH  40  41
ATOM     41  C   UNL     1      -1.082  11.327  -3.795  1.00  0.00     0.031 A 
ATOM     42  C   UNL     1      -0.781  11.644  -5.236  1.00  0.00     0.074 A 
ATOM     43  C   UNL     1      -0.415  11.959  -2.809  1.00  0.00     0.049 A 
ATOM     44  N   UNL     1       0.099  12.477  -5.730  1.00  0.00    -0.248 NA
ATOM     45  C   UNL     1      -1.551  10.912  -6.257  1.00  0.00     0.031 C 
ATOM     46  C   UNL     1      -0.593  11.719  -1.374  1.00  0.00     0.029 A 
ATOM     47  N   UNL     1       0.556  12.929  -2.863  1.00  0.00    -0.354 N 
ATOM     48  C   UNL     1       0.001  12.357  -7.112  1.00  0.00     0.074 A 
ATOM     49  C   UNL     1      -0.986  11.334  -7.378  1.00  0.00     0.031 C 
ATOM     50  C   UNL     1       0.222  12.536  -0.687  1.00  0.00     0.029 A 
ATOM     51  C   UNL     1       1.014  13.322  -1.626  1.00  0.00     0.049 A 
ATOM     52  H   UNL     1       0.892  13.307  -3.707  1.00  0.00     0.167 HD
ATOM     53  C   UNL     1       0.659  13.048  -8.072  1.00  0.00     0.031 A 
ATOM     54  C   UNL     1       1.973  14.206  -1.287  1.00  0.00     0.031 A 
ATOM     55  C   UNL     1       1.629  14.076  -7.801  1.00  0.00     0.049 A 
ATOM     56  C   UNL     1       2.705  14.946  -2.375  1.00  0.00     0.074 A 
ATOM     57  C   UNL     1       2.310  14.872  -8.706  1.00  0.00     0.029 A 
ATOM     58  N   UNL     1       2.056  14.450  -6.537  1.00  0.00    -0.354 N 
ATOM     59  N   UNL     1       2.552  14.862  -3.675  1.00  0.00    -0.248 NA
ATOM     60  C   UNL     1       3.731  15.909  -1.950  1.00  0.00     0.031 C 
ATOM     61  C   UNL     1       3.195  15.684  -7.991  1.00  0.00     0.029 A 
ATOM     62  C   UNL     1       3.012  15.447  -6.638  1.00  0.00     0.049 A 
ATOM     63  H   UNL     1       1.729  14.065  -5.692  1.00  0.00     0.167 HD
ATOM     64  C   UNL     1       3.436  15.789  -4.220  1.00  0.00     0.074 A 
ATOM     65  C   UNL     1       4.109  16.428  -3.110  1.00  0.00     0.031 C 
ATOM     66  C   UNL     1       3.665  16.085  -5.523  1.00  0.00     0.031 A 
BRANCH  53  67
ATOM     67  C   UNL     1       0.358  12.715  -9.510  1.00  0.00    -0.014 A 
ATOM     68  C   UNL     1      -0.885  13.035 -10.088  1.00  0.00     0.010 A 
ATOM     69  C   UNL     1       1.355  12.132 -10.314  1.00  0.00     0.010 A 
ATOM     70  C   UNL     1      -1.135  12.748 -11.432  1.00  0.00     0.020 A 
ATOM     71  C   UNL     1       1.119  11.873 -11.667  1.00  0.00     0.020 A 
ATOM     72  C   UNL     1      -0.130  12.171 -12.214  1.00  0.00     0.054 A 
BRANCH  72  73
ATOM     73  S   UNL     1      -0.470  11.849 -13.966  1.00  0.00     0.124 S 
ATOM     74  O   UNL     1      -1.419  10.741 -13.890  1.00  0.00    -0.237 OA
ATOM     75  O   UNL     1      -1.026  13.121 -14.421  1.00  0.00    -0.237 OA
ATOM     76  O   UNL     1       0.839  11.510 -14.518  1.00  0.00    -0.744 OA
ENDBRANCH  72  73
ENDBRANCH  53  67
BRANCH  54  77
ATOM     77  C   UNL     1       2.298  14.446   0.148  1.00  0.00    -0.014 A 
ATOM     78  C   UNL     1       2.013  15.685   0.750  1.00  0.00     0.010 A 
ATOM     79  C   UNL     1       2.910  13.440   0.917  1.00  0.00     0.010 A 
ATOM     80  C   UNL     1       2.361  15.923   2.083  1.00  0.00     0.020 A 
ATOM     81  C   UNL     1       3.230  13.662   2.260  1.00  0.00     0.020 A 
ATOM     82  C   UNL     1       2.968  14.909   2.829  1.00  0.00     0.054 A 
BRANCH  82  83
ATOM     83  S   UNL     1       3.387  15.232   4.565  1.00  0.00     0.124 S 
ATOM     84  O   UNL     1       4.520  16.143   4.439  1.00  0.00    -0.237 OA
ATOM     85  O   UNL     1       2.154  15.822   5.082  1.00  0.00    -0.237 OA
ATOM     86  O   UNL     1       3.704  13.907   5.093  1.00  0.00    -0.744 OA
ENDBRANCH  82  83
ENDBRANCH  54  77
BRANCH  66  87
ATOM     87  C   UNL     1       4.646  17.187  -5.828  1.00  0.00    -0.014 A 
ATOM     88  C   UNL     1       6.027  17.018  -5.630  1.00  0.00     0.010 A 
ATOM     89  C   UNL     1       4.176  18.390  -6.389  1.00  0.00     0.010 A 
ATOM     90  C   UNL     1       6.918  18.044  -5.960  1.00  0.00     0.020 A 
ATOM     91  C   UNL     1       5.066  19.404  -6.750  1.00  0.00     0.020 A 
ATOM     92  C   UNL     1       6.431  19.229  -6.521  1.00  0.00     0.054 A 
BRANCH  92  93
ATOM     93  S   UNL     1       7.613  20.522  -6.992  1.00  0.00     0.124 S 
ATOM     94  O   UNL     1       8.040  21.032  -5.692  1.00  0.00    -0.237 OA
ATOM     95  O   UNL     1       8.624  19.774  -7.737  1.00  0.00    -0.237 OA
ATOM     96  O   UNL     1       6.815  21.448  -7.793  1.00  0.00    -0.744 OA
ENDBRANCH  92  93
ENDBRANCH  66  87
ENDBRANCH  40  41
ENDBRANCH  32  35
ENDBRANCH  30  31
ENDBRANCH  29  30
ENDBRANCH  28  29
ENDBRANCH  27  28
ENDBRANCH   1  27
TORSDOF 21
