REMARK SMILES O=C(NCCCCCCNC(=O)c1cc(/C=C/c2cc(O)cc(O)c2)ccc1O)c1ccc(-c2c3nc(c(-c4ccc(S(=O)(=O)[O-])cc4)c4ccc([nH]4)c(-c4ccc(S(=O)(=O)[O-])cc4)c4nc(c(-c5ccc(S(=O)(=O)[O-])cc5)c5ccc2[nH]5)C=C4)C=C3)cc1
REMARK SMILES IDX 6 1 5 2 4 3 3 4 1 5 2 6 30 8 31 9 89 10 32 11 88 12 33 13
REMARK SMILES IDX 34 14 35 15 82 16 36 17 87 18 81 19 83 20 37 21 86 22 80 23
REMARK SMILES IDX 79 24 38 26 68 27 49 28 67 29 50 30 53 31 66 32 84 33 51 34
REMARK SMILES IDX 52 35 65 37 85 38 54 39 39 40 40 41 48 42 41 43 47 44 42 45
REMARK SMILES IDX 43 46 44 47 45 48 46 49 69 50 70 51 78 52 71 53 77 54 72 55
REMARK SMILES IDX 73 56 74 57 75 58 76 59 55 60 56 61 64 62 57 63 63 64 58 65
REMARK SMILES IDX 59 66 60 67 61 68 62 69 7 70 8 71 9 72 10 73 11 74 12 76
REMARK SMILES IDX 13 77 14 78 28 79 15 80 27 81 26 82 29 83 16 85 17 86 18 87
REMARK SMILES IDX 19 88 25 89 20 90 23 91 22 92 21 93 24 95
REMARK H PARENT 3 7 83 25 53 36 10 75 29 84 21 94 24 96
REMARK Flexibility Score: inf
ROOT
ATOM      1  C   UNL     1       4.211  -3.421  -2.056  1.00  0.00     0.002 C 
ENDROOT
BRANCH   1   2
ATOM      2  C   UNL     1       4.671  -2.669  -0.807  1.00  0.00     0.021 C 
BRANCH   2   3
ATOM      3  C   UNL     1       4.465  -1.160  -0.833  1.00  0.00     0.116 C 
BRANCH   3   4
ATOM      4  N   UNL     1       3.065  -0.772  -0.894  1.00  0.00    -0.352 N 
ATOM      5  O   UNL     1       1.160   0.241  -0.236  1.00  0.00    -0.269 OA
ATOM      6  C   UNL     1       2.376   0.125  -0.111  1.00  0.00     0.251 C 
ATOM      7  H   UNL     1       2.534  -1.215  -1.595  1.00  0.00     0.163 HD
BRANCH   6   8
ATOM      8  C   UNL     1       3.097   0.923   0.908  1.00  0.00     0.039 A 
ATOM      9  C   UNL     1       4.307   1.549   0.606  1.00  0.00     0.014 A 
ATOM     10  C   UNL     1       2.557   1.031   2.193  1.00  0.00     0.014 A 
ATOM     11  C   UNL     1       5.052   2.141   1.622  1.00  0.00     0.010 A 
ATOM     12  C   UNL     1       3.268   1.701   3.195  1.00  0.00     0.010 A 
ATOM     13  C   UNL     1       4.544   2.223   2.929  1.00  0.00    -0.014 A 
BRANCH  13  14
ATOM     14  C   UNL     1       5.359   2.876   3.987  1.00  0.00     0.031 A 
ATOM     15  C   UNL     1       5.888   2.093   5.161  1.00  0.00     0.074 A 
ATOM     16  C   UNL     1       5.667   4.182   3.859  1.00  0.00     0.049 A 
ATOM     17  N   UNL     1       6.675   2.494   6.128  1.00  0.00    -0.248 NA
ATOM     18  C   UNL     1       5.477   0.684   5.271  1.00  0.00     0.031 C 
ATOM     19  C   UNL     1       5.208   5.054   2.773  1.00  0.00     0.029 A 
ATOM     20  N   UNL     1       6.462   4.997   4.624  1.00  0.00    -0.354 N 
ATOM     21  C   UNL     1       6.832   1.401   6.973  1.00  0.00     0.074 A 
ATOM     22  C   UNL     1       6.044   0.323   6.414  1.00  0.00     0.031 C 
ATOM     23  C   UNL     1       5.777   6.261   2.908  1.00  0.00     0.029 A 
ATOM     24  C   UNL     1       6.597   6.267   4.115  1.00  0.00     0.049 A 
ATOM     25  H   UNL     1       6.893   4.702   5.458  1.00  0.00     0.167 HD
ATOM     26  C   UNL     1       7.568   1.300   8.107  1.00  0.00     0.031 A 
ATOM     27  C   UNL     1       7.303   7.322   4.563  1.00  0.00     0.031 A 
ATOM     28  C   UNL     1       8.364   2.368   8.656  1.00  0.00     0.049 A 
ATOM     29  C   UNL     1       8.116   7.182   5.817  1.00  0.00     0.074 A 
ATOM     30  C   UNL     1       9.174   2.349   9.779  1.00  0.00     0.029 A 
ATOM     31  N   UNL     1       8.451   3.646   8.125  1.00  0.00    -0.354 N 
ATOM     32  N   UNL     1       8.277   6.127   6.579  1.00  0.00    -0.248 NA
ATOM     33  C   UNL     1       8.845   8.375   6.267  1.00  0.00     0.031 C 
ATOM     34  C   UNL     1       9.719   3.626   9.949  1.00  0.00     0.029 A 
ATOM     35  C   UNL     1       9.286   4.428   8.906  1.00  0.00     0.049 A 
ATOM     36  H   UNL     1       7.987   3.952   7.312  1.00  0.00     0.167 HD
ATOM     37  C   UNL     1       9.142   6.525   7.591  1.00  0.00     0.074 A 
ATOM     38  C   UNL     1       9.482   7.910   7.333  1.00  0.00     0.031 C 
ATOM     39  C   UNL     1       9.611   5.806   8.640  1.00  0.00     0.031 A 
BRANCH  26  40
ATOM     40  C   UNL     1       7.528  -0.009   8.851  1.00  0.00    -0.014 A 
ATOM     41  C   UNL     1       8.194  -1.147   8.362  1.00  0.00     0.010 A 
ATOM     42  C   UNL     1       6.846  -0.090  10.079  1.00  0.00     0.010 A 
ATOM     43  C   UNL     1       8.144  -2.353   9.068  1.00  0.00     0.020 A 
ATOM     44  C   UNL     1       6.814  -1.288  10.799  1.00  0.00     0.020 A 
ATOM     45  C   UNL     1       7.448  -2.418  10.279  1.00  0.00     0.054 A 
BRANCH  45  46
ATOM     46  S   UNL     1       7.408  -3.991  11.181  1.00  0.00     0.124 S 
ATOM     47  O   UNL     1       6.439  -4.758  10.402  1.00  0.00    -0.237 OA
ATOM     48  O   UNL     1       8.791  -4.452  11.089  1.00  0.00    -0.237 OA
ATOM     49  O   UNL     1       6.970  -3.611  12.522  1.00  0.00    -0.744 OA
ENDBRANCH  45  46
ENDBRANCH  26  40
BRANCH  27  50
ATOM     50  C   UNL     1       7.277   8.600   3.803  1.00  0.00    -0.014 A 
ATOM     51  C   UNL     1       8.405   9.020   3.078  1.00  0.00     0.010 A 
ATOM     52  C   UNL     1       6.111   9.385   3.775  1.00  0.00     0.010 A 
ATOM     53  C   UNL     1       8.371  10.209   2.345  1.00  0.00     0.020 A 
ATOM     54  C   UNL     1       6.064  10.561   3.022  1.00  0.00     0.020 A 
ATOM     55  C   UNL     1       7.199  10.971   2.320  1.00  0.00     0.054 A 
BRANCH  55  56
ATOM     56  S   UNL     1       7.151  12.477   1.309  1.00  0.00     0.124 S 
ATOM     57  O   UNL     1       7.880  13.425   2.146  1.00  0.00    -0.237 OA
ATOM     58  O   UNL     1       7.830  12.060   0.085  1.00  0.00    -0.237 OA
ATOM     59  O   UNL     1       5.722  12.739   1.159  1.00  0.00    -0.744 OA
ENDBRANCH  55  56
ENDBRANCH  27  50
BRANCH  39  60
ATOM     60  C   UNL     1      10.568   6.500   9.570  1.00  0.00    -0.014 A 
ATOM     61  C   UNL     1      10.122   7.474  10.480  1.00  0.00     0.010 A 
ATOM     62  C   UNL     1      11.931   6.154   9.546  1.00  0.00     0.010 A 
ATOM     63  C   UNL     1      11.030   8.121  11.322  1.00  0.00     0.020 A 
ATOM     64  C   UNL     1      12.838   6.782  10.403  1.00  0.00     0.020 A 
ATOM     65  C   UNL     1      12.384   7.775  11.274  1.00  0.00     0.054 A 
BRANCH  65  66
ATOM     66  S   UNL     1      13.545   8.610  12.390  1.00  0.00     0.124 S 
ATOM     67  O   UNL     1      13.737   9.894  11.721  1.00  0.00    -0.237 OA
ATOM     68  O   UNL     1      12.805   8.661  13.648  1.00  0.00    -0.237 OA
ATOM     69  O   UNL     1      14.710   7.729  12.396  1.00  0.00    -0.744 OA
ENDBRANCH  65  66
ENDBRANCH  39  60
ENDBRANCH  13  14
ENDBRANCH   6   8
ENDBRANCH   3   4
ENDBRANCH   2   3
ENDBRANCH   1   2
BRANCH   1  70
ATOM     70  C   UNL     1       4.775  -2.919  -3.387  1.00  0.00     0.002 C 
BRANCH  70  71
ATOM     71  C   UNL     1       6.300  -2.785  -3.469  1.00  0.00     0.021 C 
BRANCH  71  72
ATOM     72  C   UNL     1       7.095  -4.035  -3.100  1.00  0.00     0.116 C 
BRANCH  72  73
ATOM     73  N   UNL     1       6.797  -5.157  -3.970  1.00  0.00    -0.352 N 
ATOM     74  C   UNL     1       7.670  -6.014  -4.589  1.00  0.00     0.255 C 
ATOM     75  H   UNL     1       5.841  -5.324  -4.139  1.00  0.00     0.163 HD
ATOM     76  O   UNL     1       7.250  -6.883  -5.351  1.00  0.00    -0.269 OA
BRANCH  74  77
ATOM     77  C   UNL     1       9.127  -5.844  -4.421  1.00  0.00     0.082 A 
ATOM     78  C   UNL     1       9.873  -5.607  -5.585  1.00  0.00     0.025 A 
ATOM     79  C   UNL     1       9.768  -5.947  -3.184  1.00  0.00     0.128 A 
ATOM     80  C   UNL     1      11.261  -5.430  -5.525  1.00  0.00    -0.025 A 
ATOM     81  C   UNL     1      11.146  -5.763  -3.105  1.00  0.00     0.047 A 
ATOM     82  C   UNL     1      11.882  -5.501  -4.267  1.00  0.00     0.012 A 
BRANCH  79  83
ATOM     83  O   UNL     1       9.055  -6.227  -2.054  1.00  0.00    -0.507 OA
ATOM     84  H   UNL     1       8.128  -6.351  -2.103  1.00  0.00     0.293 HD
ENDBRANCH  79  83
BRANCH  80  85
ATOM     85  C   UNL     1      12.101  -5.184  -6.713  1.00  0.00     0.009 C 
ATOM     86  C   UNL     1      11.673  -5.136  -7.985  1.00  0.00     0.009 C 
BRANCH  86  87
ATOM     87  C   UNL     1      12.567  -4.918  -9.131  1.00  0.00    -0.018 A 
ATOM     88  C   UNL     1      13.768  -5.629  -9.270  1.00  0.00     0.054 A 
ATOM     89  C   UNL     1      12.173  -4.032 -10.143  1.00  0.00     0.054 A 
ATOM     90  C   UNL     1      14.562  -5.434 -10.399  1.00  0.00     0.119 A 
ATOM     91  C   UNL     1      12.985  -3.851 -11.262  1.00  0.00     0.119 A 
ATOM     92  C   UNL     1      14.179  -4.547 -11.397  1.00  0.00     0.092 A 
BRANCH  90  93
ATOM     93  O   UNL     1      15.734  -6.114 -10.565  1.00  0.00    -0.508 OA
ATOM     94  H   UNL     1      16.021  -6.720  -9.910  1.00  0.00     0.293 HD
ENDBRANCH  90  93
BRANCH  91  95
ATOM     95  O   UNL     1      12.632  -2.992 -12.261  1.00  0.00    -0.508 OA
ATOM     96  H   UNL     1      13.191  -2.884 -13.006  1.00  0.00     0.293 HD
ENDBRANCH  91  95
ENDBRANCH  86  87
ENDBRANCH  80  85
ENDBRANCH  74  77
ENDBRANCH  72  73
ENDBRANCH  71  72
ENDBRANCH  70  71
ENDBRANCH   1  70
TORSDOF 21
