REMARK SMILES COC(=O)c1c(NC(=O)[C@@H]2C[C@@H]2C(=O)NCCCCCCNC(=O)c2ccc(-c3c4nc(c(-c5ccc(S(=O)(=O)[O-])cc5)c5ccc([nH]5)c(-c5ccc(S(=O)(=O)[O-])cc5)c5nc(c(-c6ccc(S(=O)(=O)[O-])cc6)c6ccc3[nH]6)C=C5)C=C4)cc2)sc2c1CC[N@@H+](Cc1ccccc1)C2
REMARK SMILES IDX 18 1 17 2 16 3 15 4 13 5 14 6 12 8 10 9 11 10 8 11 7 12 9 14
REMARK SMILES IDX 6 15 5 16 87 17 85 18 86 19 88 20 98 21 89 22 90 23 3 25
REMARK SMILES IDX 4 26 2 27 1 28 91 29 92 30 93 31 97 32 94 33 96 34 95 35
REMARK SMILES IDX 19 36 20 37 21 38 22 39 23 40 24 42 25 43 26 44 84 45 27 46
REMARK SMILES IDX 83 47 28 48 29 49 30 50 77 51 31 52 82 53 76 54 78 55 32 56
REMARK SMILES IDX 81 57 75 58 74 59 33 61 63 62 44 63 62 64 45 65 48 66 61 67
REMARK SMILES IDX 79 68 46 69 47 70 60 72 80 73 49 74 34 75 35 76 43 77 36 78
REMARK SMILES IDX 42 79 37 80 38 81 39 82 40 83 41 84 64 85 65 86 73 87 66 88
REMARK SMILES IDX 72 89 67 90 68 91 69 92 70 93 71 94 50 95 51 96 59 97 52 98
REMARK SMILES IDX 58 99 53 100 54 101 55 102 56 103 57 104
REMARK H PARENT 15 7 7 13 90 24 22 41 78 60 48 71
REMARK Flexibility Score: inf
ROOT
ATOM      1  C   UNL     1      -3.221  -5.934   0.691  1.00  0.00     0.002 C 
ENDROOT
BRANCH   1   2
ATOM      2  C   UNL     1      -2.240  -4.869   1.186  1.00  0.00     0.021 C 
BRANCH   2   3
ATOM      3  C   UNL     1      -1.546  -4.069   0.086  1.00  0.00     0.116 C 
BRANCH   3   4
ATOM      4  N   UNL     1      -2.482  -3.308  -0.709  1.00  0.00    -0.356 N 
ATOM      5  C   UNL     1      -2.490  -1.975  -0.995  1.00  0.00     0.223 C 
ATOM      6  O   UNL     1      -3.339  -1.526  -1.763  1.00  0.00    -0.275 OA
ATOM      7  H   UNL     1      -3.221  -3.827  -1.101  1.00  0.00     0.163 HD
BRANCH   5   8
ATOM      8  C   UNL     1      -1.423  -1.090  -0.453  1.00  0.00     0.091 C 
ATOM      9  C   UNL     1      -1.479  -0.418   0.907  1.00  0.00     0.092 C 
ATOM     10  C   UNL     1      -1.775   0.379  -0.334  1.00  0.00     0.028 C 
BRANCH   9  11
ATOM     11  C   UNL     1      -2.506  -0.796   1.881  1.00  0.00     0.228 C 
ATOM     12  N   UNL     1      -2.202  -1.612   2.929  1.00  0.00    -0.317 N 
ATOM     13  H   UNL     1      -2.959  -1.712   3.550  1.00  0.00     0.170 HD
ATOM     14  O   UNL     1      -3.646  -0.350   1.769  1.00  0.00    -0.274 OA
BRANCH  12  15
ATOM     15  C   UNL     1      -1.100  -2.334   3.336  1.00  0.00     0.110 A 
ATOM     16  C   UNL     1       0.211  -2.640   2.983  1.00  0.00     0.098 A 
ATOM     17  C   UNL     1       0.772  -3.605   3.918  1.00  0.00    -0.006 A 
ATOM     18  S   UNL     1      -1.593  -3.177   4.761  1.00  0.00    -0.116 S 
ATOM     19  C   UNL     1      -0.071  -3.861   4.976  1.00  0.00     0.065 A 
ATOM     20  C   UNL     1       2.180  -4.143   3.924  1.00  0.00     0.099 C 
ATOM     21  C   UNL     1       0.319  -4.585   6.228  1.00  0.00     0.310 C 
ATOM     22  C   UNL     1       2.522  -4.907   5.230  1.00  0.00     0.267 C 
ATOM     23  N   UNL     1       1.775  -4.542   6.443  1.00  0.00    -0.326 N 
ATOM     24  H   UNL     1       1.991  -5.280   7.113  1.00  0.00     0.348 HD
BRANCH  16  25
ATOM     25  C   UNL     1       1.024  -2.163   1.867  1.00  0.00     0.341 C 
ATOM     26  O   UNL     1       1.492  -2.917   1.026  1.00  0.00    -0.246 OA
BRANCH  25  27
ATOM     27  O   UNL     1       1.286  -0.827   1.912  1.00  0.00    -0.465 OA
ATOM     28  C   UNL     1       2.041  -0.318   0.808  1.00  0.00     0.282 C 
ENDBRANCH  25  27
ENDBRANCH  16  25
BRANCH  23  29
ATOM     29  C   UNL     1       2.255  -3.342   7.162  1.00  0.00     0.299 C 
BRANCH  29  30
ATOM     30  C   UNL     1       2.295  -2.030   6.404  1.00  0.00     0.006 A 
ATOM     31  C   UNL     1       3.470  -1.607   5.763  1.00  0.00     0.009 A 
ATOM     32  C   UNL     1       1.151  -1.226   6.293  1.00  0.00     0.009 A 
ATOM     33  C   UNL     1       3.469  -0.469   4.951  1.00  0.00     0.001 A 
ATOM     34  C   UNL     1       1.143  -0.102   5.466  1.00  0.00     0.001 A 
ATOM     35  C   UNL     1       2.299   0.268   4.783  1.00  0.00     0.000 A 
ENDBRANCH  29  30
ENDBRANCH  23  29
ENDBRANCH  12  15
ENDBRANCH   9  11
ENDBRANCH   5   8
ENDBRANCH   3   4
ENDBRANCH   2   3
ENDBRANCH   1   2
BRANCH   1  36
ATOM     36  C   UNL     1      -2.654  -6.974  -0.284  1.00  0.00     0.002 C 
BRANCH  36  37
ATOM     37  C   UNL     1      -1.433  -7.774   0.191  1.00  0.00     0.021 C 
BRANCH  37  38
ATOM     38  C   UNL     1      -1.666  -8.600   1.449  1.00  0.00     0.116 C 
BRANCH  38  39
ATOM     39  N   UNL     1      -2.685  -9.638   1.272  1.00  0.00    -0.352 N 
ATOM     40  C   UNL     1      -3.222 -10.497   2.214  1.00  0.00     0.251 C 
ATOM     41  H   UNL     1      -3.035  -9.738   0.357  1.00  0.00     0.163 HD
ATOM     42  O   UNL     1      -3.753 -11.546   1.866  1.00  0.00    -0.269 OA
BRANCH  40  43
ATOM     43  C   UNL     1      -3.153 -10.132   3.642  1.00  0.00     0.039 A 
ATOM     44  C   UNL     1      -2.986 -11.088   4.649  1.00  0.00     0.014 A 
ATOM     45  C   UNL     1      -3.250  -8.784   3.965  1.00  0.00     0.014 A 
ATOM     46  C   UNL     1      -2.844 -10.655   5.967  1.00  0.00     0.010 A 
ATOM     47  C   UNL     1      -2.900  -8.351   5.213  1.00  0.00     0.010 A 
ATOM     48  C   UNL     1      -2.784  -9.278   6.236  1.00  0.00    -0.014 A 
BRANCH  48  49
ATOM     49  C   UNL     1      -2.492  -8.761   7.566  1.00  0.00     0.031 A 
ATOM     50  C   UNL     1      -1.220  -9.263   8.135  1.00  0.00     0.074 A 
ATOM     51  C   UNL     1      -3.171  -7.736   8.127  1.00  0.00     0.049 A 
ATOM     52  N   UNL     1      -1.077 -10.184   9.028  1.00  0.00    -0.248 NA
ATOM     53  C   UNL     1       0.042  -8.839   7.505  1.00  0.00     0.031 C 
ATOM     54  C   UNL     1      -4.248  -6.929   7.536  1.00  0.00     0.029 A 
ATOM     55  N   UNL     1      -2.958  -7.112   9.316  1.00  0.00    -0.354 N 
ATOM     56  C   UNL     1       0.287 -10.236   9.283  1.00  0.00     0.074 A 
ATOM     57  C   UNL     1       0.923  -9.603   8.155  1.00  0.00     0.031 C 
ATOM     58  C   UNL     1      -4.418  -5.798   8.255  1.00  0.00     0.029 A 
ATOM     59  C   UNL     1      -3.597  -5.882   9.448  1.00  0.00     0.049 A 
ATOM     60  H   UNL     1      -2.396  -7.498  10.026  1.00  0.00     0.167 HD
ATOM     61  C   UNL     1       0.753 -10.475  10.542  1.00  0.00     0.031 A 
ATOM     62  C   UNL     1      -3.448  -4.988  10.459  1.00  0.00     0.031 A 
ATOM     63  C   UNL     1      -0.305 -10.934  11.415  1.00  0.00     0.049 A 
ATOM     64  C   UNL     1      -2.916  -5.741  11.620  1.00  0.00     0.074 A 
ATOM     65  C   UNL     1      -1.216 -11.971  11.395  1.00  0.00     0.029 A 
ATOM     66  N   UNL     1      -0.800 -10.012  12.309  1.00  0.00    -0.354 N 
ATOM     67  N   UNL     1      -3.593  -6.666  12.240  1.00  0.00    -0.248 NA
ATOM     68  C   UNL     1      -1.475  -5.795  11.804  1.00  0.00     0.031 C 
ATOM     69  C   UNL     1      -2.422 -11.416  11.919  1.00  0.00     0.029 A 
ATOM     70  C   UNL     1      -2.166 -10.099  12.307  1.00  0.00     0.049 A 
ATOM     71  H   UNL     1      -0.263  -9.394  12.857  1.00  0.00     0.167 HD
ATOM     72  C   UNL     1      -2.666  -7.665  12.502  1.00  0.00     0.074 A 
ATOM     73  C   UNL     1      -1.364  -7.024  12.315  1.00  0.00     0.031 C 
ATOM     74  C   UNL     1      -3.046  -8.976  12.560  1.00  0.00     0.031 A 
BRANCH  61  75
ATOM     75  C   UNL     1       2.006  -9.837  11.105  1.00  0.00    -0.014 A 
ATOM     76  C   UNL     1       2.370 -10.145  12.433  1.00  0.00     0.010 A 
ATOM     77  C   UNL     1       2.655  -8.737  10.507  1.00  0.00     0.010 A 
ATOM     78  C   UNL     1       3.246  -9.326  13.155  1.00  0.00     0.020 A 
ATOM     79  C   UNL     1       3.568  -7.944  11.202  1.00  0.00     0.020 A 
ATOM     80  C   UNL     1       3.825  -8.219  12.536  1.00  0.00     0.054 A 
BRANCH  80  81
ATOM     81  S   UNL     1       4.860  -7.100  13.507  1.00  0.00     0.124 S 
ATOM     82  O   UNL     1       3.887  -6.521  14.428  1.00  0.00    -0.237 OA
ATOM     83  O   UNL     1       5.830  -8.017  14.099  1.00  0.00    -0.237 OA
ATOM     84  O   UNL     1       5.403  -6.185  12.506  1.00  0.00    -0.744 OA
ENDBRANCH  80  81
ENDBRANCH  61  75
BRANCH  62  85
ATOM     85  C   UNL     1      -3.455  -3.505  10.399  1.00  0.00    -0.014 A 
ATOM     86  C   UNL     1      -3.480  -2.732  11.577  1.00  0.00     0.010 A 
ATOM     87  C   UNL     1      -3.136  -2.847   9.193  1.00  0.00     0.010 A 
ATOM     88  C   UNL     1      -3.121  -1.373  11.562  1.00  0.00     0.020 A 
ATOM     89  C   UNL     1      -2.784  -1.491   9.169  1.00  0.00     0.020 A 
ATOM     90  C   UNL     1      -2.750  -0.767  10.359  1.00  0.00     0.054 A 
BRANCH  90  91
ATOM     91  S   UNL     1      -2.095   0.930  10.370  1.00  0.00     0.124 S 
ATOM     92  O   UNL     1      -3.283   1.721  10.677  1.00  0.00    -0.237 OA
ATOM     93  O   UNL     1      -1.083   0.874  11.421  1.00  0.00    -0.237 OA
ATOM     94  O   UNL     1      -1.569   1.100   9.016  1.00  0.00    -0.744 OA
ENDBRANCH  90  91
ENDBRANCH  62  85
BRANCH  74  95
ATOM     95  C   UNL     1      -4.518  -9.294  12.698  1.00  0.00    -0.014 A 
ATOM     96  C   UNL     1      -5.503  -8.934  11.758  1.00  0.00     0.010 A 
ATOM     97  C   UNL     1      -4.893 -10.108  13.781  1.00  0.00     0.010 A 
ATOM     98  C   UNL     1      -6.835  -9.349  11.921  1.00  0.00     0.020 A 
ATOM     99  C   UNL     1      -6.210 -10.540  13.939  1.00  0.00     0.020 A 
ATOM    100  C   UNL     1      -7.179 -10.149  13.016  1.00  0.00     0.054 A 
BRANCH 100 101
ATOM    101  S   UNL     1      -8.896 -10.703  13.218  1.00  0.00     0.124 S 
ATOM    102  O   UNL     1      -9.598  -9.458  13.516  1.00  0.00    -0.237 OA
ATOM    103  O   UNL     1      -9.199 -11.302  11.921  1.00  0.00    -0.237 OA
ATOM    104  O   UNL     1      -8.827 -11.653  14.328  1.00  0.00    -0.744 OA
ENDBRANCH 100 101
ENDBRANCH  74  95
ENDBRANCH  48  49
ENDBRANCH  40  43
ENDBRANCH  38  39
ENDBRANCH  37  38
ENDBRANCH  36  37
ENDBRANCH   1  36
TORSDOF 22
