REMARK SMILES Cc1ccccc1NC(=S)NN1C(=O)CS[C@H]1c1ccccc1C(=O)NCCCCCCNC(=O)c1ccc(-c2c3nc(c(-c4ccc(S(=O)(=O)[O-])cc4)c4ccc([nH]4)c(-c4ccc(S(=O)(=O)[O-])cc4)c4nc(c(-c5ccc(S(=O)(=O)[O-])cc5)c5ccc2[nH]5)C=C4)C=C3)cc1
REMARK SMILES IDX 28 1 27 2 26 3 24 4 25 5 23 7 18 8 19 9 20 10 22 11 21 12
REMARK SMILES IDX 17 13 12 14 13 15 14 16 15 17 16 18 11 19 9 21 10 22 8 23
REMARK SMILES IDX 7 25 1 26 2 27 3 28 4 29 6 30 5 31 29 32 30 33 31 34 32 35
REMARK SMILES IDX 33 36 34 37 35 39 36 40 37 41 95 42 38 43 94 44 39 45 40 46
REMARK SMILES IDX 41 47 88 48 42 49 93 50 87 51 89 52 43 53 92 54 86 55 85 56
REMARK SMILES IDX 44 58 74 59 55 60 73 61 56 62 59 63 72 64 90 65 57 66 58 67
REMARK SMILES IDX 71 69 91 70 60 71 45 72 46 73 54 74 47 75 53 76 48 77 49 78
REMARK SMILES IDX 50 79 51 80 52 81 75 82 76 83 84 84 77 85 83 86 78 87 79 88
REMARK SMILES IDX 80 89 81 90 82 91 61 92 62 93 70 94 63 95 69 96 64 97 65 98
REMARK SMILES IDX 66 99 67 100 68 101
REMARK H PARENT 26 6 11 20 8 24 33 38 89 57 59 68
REMARK Flexibility Score: inf
ROOT
ATOM      1  C   UNL     1      -0.420   1.789  -1.804  1.00  0.00     0.021 C 
ENDROOT
BRANCH   1   2
ATOM      2  C   UNL     1      -0.452   3.268  -1.261  1.00  0.00     0.116 C 
BRANCH   2   3
ATOM      3  N   UNL     1      -1.468   4.287  -1.725  1.00  0.00    -0.352 N 
ATOM      4  C   UNL     1      -1.763   5.454  -0.964  1.00  0.00     0.251 C 
ATOM      5  O   UNL     1      -0.892   6.327  -0.900  1.00  0.00    -0.269 OA
ATOM      6  H   UNL     1      -1.938   4.140  -2.578  1.00  0.00     0.163 HD
BRANCH   4   7
ATOM      7  C   UNL     1      -3.177   5.832  -0.415  1.00  0.00     0.046 A 
ATOM      8  C   UNL     1      -4.206   5.003   0.087  1.00  0.00    -0.001 A 
ATOM      9  C   UNL     1      -5.505   5.534   0.372  1.00  0.00     0.007 A 
ATOM     10  C   UNL     1      -5.791   6.878   0.258  1.00  0.00     0.000 A 
ATOM     11  C   UNL     1      -3.486   7.214  -0.427  1.00  0.00     0.014 A 
ATOM     12  C   UNL     1      -4.764   7.726  -0.106  1.00  0.00     0.001 A 
BRANCH   8  13
ATOM     13  C   UNL     1      -4.134   3.533   0.045  1.00  0.00     0.197 C 
ATOM     14  N   UNL     1      -2.873   2.864   0.134  1.00  0.00    -0.236 N 
ATOM     15  C   UNL     1      -3.328   1.661  -0.512  1.00  0.00     0.252 C 
ATOM     16  O   UNL     1      -3.325   1.495  -1.734  1.00  0.00    -0.272 OA
ATOM     17  C   UNL     1      -4.399   0.990   0.325  1.00  0.00     0.174 C 
ATOM     18  S   UNL     1      -5.212   2.449   1.069  1.00  0.00    -0.120 SA
BRANCH  14  19
ATOM     19  N   UNL     1      -2.206   2.912   1.600  1.00  0.00    -0.270 N 
ATOM     20  H   UNL     1      -2.784   2.673   2.360  1.00  0.00     0.191 HD
BRANCH  19  21
ATOM     21  C   UNL     1      -0.878   3.261   1.898  1.00  0.00     0.189 C 
ATOM     22  S   UNL     1      -0.604   4.737   2.663  1.00  0.00    -0.039 S 
BRANCH  21  23
ATOM     23  N   UNL     1       0.239   2.461   1.702  1.00  0.00    -0.331 N 
ATOM     24  H   UNL     1       1.067   2.812   2.104  1.00  0.00     0.169 HD
BRANCH  23  25
ATOM     25  C   UNL     1       0.393   1.232   1.027  1.00  0.00     0.043 A 
ATOM     26  C   UNL     1       3.322   0.947   0.910  1.00  0.00     0.046 C 
ATOM     27  C   UNL     1       1.956   0.426   0.601  1.00  0.00    -0.028 A 
ATOM     28  C   UNL     1       1.958  -0.951  -0.585  1.00  0.00     0.005 A 
ATOM     29  C   UNL     1       0.409  -1.571  -1.269  1.00  0.00     0.000 A 
ATOM     30  C   UNL     1      -1.106   0.553   0.379  1.00  0.00     0.026 A 
ATOM     31  C   UNL     1      -1.124  -0.762  -0.831  1.00  0.00     0.002 A 
ENDBRANCH  23  25
ENDBRANCH  21  23
ENDBRANCH  19  21
ENDBRANCH  14  19
ENDBRANCH   8  13
ENDBRANCH   4   7
ENDBRANCH   2   3
ENDBRANCH   1   2
BRANCH   1  32
ATOM     32  C   UNL     1       0.506   0.534  -0.957  1.00  0.00     0.002 C 
BRANCH  32  33
ATOM     33  C   UNL     1       0.293  -0.902   0.706  1.00  0.00     0.002 C 
BRANCH  33  34
ATOM     34  C   UNL     1      -0.828  -2.181   1.207  1.00  0.00     0.021 C 
BRANCH  34  35
ATOM     35  C   UNL     1      -1.373  -3.381   0.415  1.00  0.00     0.116 C 
BRANCH  35  36
ATOM     36  N   UNL     1      -0.497  -4.495   0.095  1.00  0.00    -0.352 N 
ATOM     37  C   UNL     1      -1.045  -5.649  -0.475  1.00  0.00     0.251 C 
ATOM     38  H   UNL     1       0.469  -4.438   0.276  1.00  0.00     0.163 HD
ATOM     39  O   UNL     1      -1.685  -6.514   0.109  1.00  0.00    -0.269 OA
BRANCH  37  40
ATOM     40  C   UNL     1      -1.145  -5.543  -1.940  1.00  0.00     0.039 A 
ATOM     41  C   UNL     1      -0.265  -6.136  -2.845  1.00  0.00     0.014 A 
ATOM     42  C   UNL     1      -2.053  -4.562  -2.332  1.00  0.00     0.014 A 
ATOM     43  C   UNL     1      -0.214  -5.615  -4.133  1.00  0.00     0.010 A 
ATOM     44  C   UNL     1      -1.823  -3.888  -3.485  1.00  0.00     0.010 A 
ATOM     45  C   UNL     1      -0.924  -4.439  -4.390  1.00  0.00    -0.014 A 
BRANCH  45  46
ATOM     46  C   UNL     1      -1.089  -3.836  -5.690  1.00  0.00     0.031 A 
ATOM     47  C   UNL     1      -2.153  -4.499  -6.476  1.00  0.00     0.074 A 
ATOM     48  C   UNL     1      -0.435  -2.668  -5.886  1.00  0.00     0.049 A 
ATOM     49  N   UNL     1      -2.133  -4.711  -7.739  1.00  0.00    -0.248 NA
ATOM     50  C   UNL     1      -3.322  -5.148  -5.840  1.00  0.00     0.031 C 
ATOM     51  C   UNL     1      -0.542  -1.662  -6.931  1.00  0.00     0.029 A 
ATOM     52  N   UNL     1       0.705  -2.267  -5.171  1.00  0.00    -0.354 N 
ATOM     53  C   UNL     1      -3.441  -5.013  -8.076  1.00  0.00     0.074 A 
ATOM     54  C   UNL     1      -4.049  -5.535  -6.891  1.00  0.00     0.031 C 
ATOM     55  C   UNL     1       0.647  -1.029  -7.037  1.00  0.00     0.029 A 
ATOM     56  C   UNL     1       1.569  -1.676  -6.108  1.00  0.00     0.049 A 
ATOM     57  H   UNL     1       0.867  -2.378  -4.206  1.00  0.00     0.167 HD
ATOM     58  C   UNL     1      -3.959  -4.467  -9.210  1.00  0.00     0.031 A 
ATOM     59  C   UNL     1       2.689  -2.372  -6.472  1.00  0.00     0.031 A 
ATOM     60  C   UNL     1      -2.937  -3.630  -9.834  1.00  0.00     0.049 A 
ATOM     61  C   UNL     1       2.547  -2.902  -7.880  1.00  0.00     0.074 A 
ATOM     62  C   UNL     1      -2.710  -2.265  -9.799  1.00  0.00     0.029 A 
ATOM     63  N   UNL     1      -1.739  -4.222 -10.199  1.00  0.00    -0.354 N 
ATOM     64  N   UNL     1       1.410  -3.220  -8.441  1.00  0.00    -0.248 NA
ATOM     65  C   UNL     1       3.678  -2.992  -8.795  1.00  0.00     0.031 C 
ATOM     66  C   UNL     1      -1.334  -2.051 -10.102  1.00  0.00     0.029 A 
ATOM     67  C   UNL     1      -0.732  -3.284 -10.295  1.00  0.00     0.049 A 
ATOM     68  H   UNL     1      -1.621  -5.184 -10.368  1.00  0.00     0.167 HD
ATOM     69  C   UNL     1       1.616  -3.460  -9.775  1.00  0.00     0.074 A 
ATOM     70  C   UNL     1       3.053  -3.312  -9.940  1.00  0.00     0.031 C 
ATOM     71  C   UNL     1       0.608  -3.719 -10.663  1.00  0.00     0.031 A 
BRANCH  58  72
ATOM     72  C   UNL     1      -5.420  -4.397  -9.584  1.00  0.00    -0.014 A 
ATOM     73  C   UNL     1      -5.803  -3.454 -10.560  1.00  0.00     0.010 A 
ATOM     74  C   UNL     1      -6.449  -5.211  -9.066  1.00  0.00     0.010 A 
ATOM     75  C   UNL     1      -7.126  -3.310 -10.987  1.00  0.00     0.020 A 
ATOM     76  C   UNL     1      -7.788  -5.069  -9.480  1.00  0.00     0.020 A 
ATOM     77  C   UNL     1      -8.115  -4.122 -10.447  1.00  0.00     0.054 A 
BRANCH  77  78
ATOM     78  S   UNL     1      -9.806  -3.939 -11.069  1.00  0.00     0.124 S 
ATOM     79  O   UNL     1     -10.107  -2.545 -10.753  1.00  0.00    -0.237 OA
ATOM     80  O   UNL     1      -9.651  -4.242 -12.489  1.00  0.00    -0.237 OA
ATOM     81  O   UNL     1     -10.568  -4.924 -10.303  1.00  0.00    -0.744 OA
ENDBRANCH  77  78
ENDBRANCH  58  72
BRANCH  59  82
ATOM     82  C   UNL     1       3.312  -3.098  -5.318  1.00  0.00    -0.014 A 
ATOM     83  C   UNL     1       3.873  -2.321  -4.279  1.00  0.00     0.010 A 
ATOM     84  C   UNL     1       2.994  -4.439  -5.046  1.00  0.00     0.010 A 
ATOM     85  C   UNL     1       3.977  -2.825  -2.977  1.00  0.00     0.020 A 
ATOM     86  C   UNL     1       3.078  -4.938  -3.736  1.00  0.00     0.020 A 
ATOM     87  C   UNL     1       3.508  -4.108  -2.700  1.00  0.00     0.054 A 
BRANCH  87  88
ATOM     88  S   UNL     1       3.371  -4.665  -0.976  1.00  0.00     0.124 S 
ATOM     89  O   UNL     1       4.532  -4.047  -0.341  1.00  0.00    -0.237 OA
ATOM     90  O   UNL     1       2.077  -4.108  -0.587  1.00  0.00    -0.237 OA
ATOM     91  O   UNL     1       3.407  -6.119  -1.082  1.00  0.00    -0.744 OA
ENDBRANCH  87  88
ENDBRANCH  59  82
BRANCH  71  92
ATOM     92  C   UNL     1       0.778  -4.382 -12.014  1.00  0.00    -0.014 A 
ATOM     93  C   UNL     1       1.988  -4.894 -12.492  1.00  0.00     0.010 A 
ATOM     94  C   UNL     1      -0.367  -4.627 -12.818  1.00  0.00     0.010 A 
ATOM     95  C   UNL     1       2.073  -5.528 -13.733  1.00  0.00     0.020 A 
ATOM     96  C   UNL     1      -0.313  -5.340 -14.014  1.00  0.00     0.020 A 
ATOM     97  C   UNL     1       0.921  -5.750 -14.483  1.00  0.00     0.054 A 
BRANCH  97  98
ATOM     98  S   UNL     1       1.071  -6.595 -16.065  1.00  0.00     0.124 S 
ATOM     99  O   UNL     1       1.729  -5.578 -16.881  1.00  0.00    -0.237 OA
ATOM    100  O   UNL     1       1.892  -7.755 -15.725  1.00  0.00    -0.237 OA
ATOM    101  O   UNL     1      -0.309  -6.897 -16.433  1.00  0.00    -0.744 OA
ENDBRANCH  97  98
ENDBRANCH  71  92
ENDBRANCH  45  46
ENDBRANCH  37  40
ENDBRANCH  35  36
ENDBRANCH  34  35
ENDBRANCH  33  34
ENDBRANCH  32  33
ENDBRANCH   1  32
TORSDOF 21
