REMARK SMILES C[C@@H]1C[N@@H+](C[C@]2(C(=O)NCCCCCCNC(=O)c3ccc(-c4c5nc(c(-c6ccc(S(=O)(=O)[O-])cc6)c6ccc([nH]6)c(-c6ccc(S(=O)(=O)[O-])cc6)c6nc(c(-c7ccc(S(=O)(=O)[O-])cc7)c7ccc4[nH]7)C=C6)C=C5)cc3)CCOC2)C[C@@H]1C
REMARK SMILES IDX 13 1 12 2 11 3 10 4 9 5 7 6 8 7 6 9 79 10 82 11 80 12 81 13
REMARK SMILES IDX 5 14 4 15 1 16 2 17 3 18 84 19 83 20 85 21 14 23 15 24 16 25
REMARK SMILES IDX 17 26 18 28 19 29 20 30 78 31 21 32 77 33 22 34 23 35 24 36
REMARK SMILES IDX 71 37 25 38 76 39 70 40 72 41 26 42 75 43 69 44 68 45 27 47
REMARK SMILES IDX 57 48 38 49 56 50 39 51 42 52 55 53 73 54 40 55 41 56 54 58
REMARK SMILES IDX 74 59 43 60 28 61 29 62 37 63 30 64 36 65 31 66 32 67 33 68
REMARK SMILES IDX 34 69 35 70 58 71 59 72 67 73 60 74 66 75 61 76 62 77 63 78
REMARK SMILES IDX 64 79 65 80 44 81 45 82 53 83 46 84 52 85 47 86 48 87 49 88
REMARK SMILES IDX 50 89 51 90
REMARK H PARENT 9 8 4 22 16 27 72 46 42 57
REMARK Flexibility Score: inf
ROOT
ATOM      1  C   UNL     1      -3.741   5.142  -6.514  1.00  0.00     0.002 C 
ENDROOT
BRANCH   1   2
ATOM      2  C   UNL     1      -4.011   3.752  -5.932  1.00  0.00     0.002 C 
BRANCH   2   3
ATOM      3  C   UNL     1      -2.976   2.677  -6.265  1.00  0.00     0.021 C 
BRANCH   3   4
ATOM      4  C   UNL     1      -1.531   3.049  -5.961  1.00  0.00     0.116 C 
BRANCH   4   5
ATOM      5  N   UNL     1      -1.294   3.350  -4.559  1.00  0.00    -0.355 N 
ATOM      6  C   UNL     1      -0.247   3.024  -3.744  1.00  0.00     0.234 C 
ATOM      7  O   UNL     1      -0.205   3.584  -2.646  1.00  0.00    -0.274 OA
ATOM      8  H   UNL     1      -2.005   3.875  -4.125  1.00  0.00     0.163 HD
BRANCH   6   9
ATOM      9  C   UNL     1       0.809   1.994  -4.179  1.00  0.00     0.123 C 
ATOM     10  C   UNL     1       1.737   1.641  -3.008  1.00  0.00     0.054 C 
ATOM     11  C   UNL     1       0.088   0.656  -4.351  1.00  0.00     0.183 C 
ATOM     12  C   UNL     1       2.023   0.166  -3.165  1.00  0.00     0.161 C 
ATOM     13  O   UNL     1       0.940  -0.404  -3.896  1.00  0.00    -0.380 OA
BRANCH   9  14
ATOM     14  C   UNL     1       1.615   2.603  -5.370  1.00  0.00     0.281 C 
BRANCH  14  15
ATOM     15  N   UNL     1       2.467   1.815  -6.231  1.00  0.00    -0.333 N 
ATOM     16  C   UNL     1       2.774  -1.507  -7.828  1.00  0.00     0.014 C 
ATOM     17  C   UNL     1       2.857  -0.392  -6.801  1.00  0.00     0.049 C 
ATOM     18  C   UNL     1       1.951   0.791  -7.112  1.00  0.00     0.265 C 
ATOM     19  C   UNL     1       4.228   0.270  -6.590  1.00  0.00     0.049 C 
ATOM     20  C   UNL     1       3.865   1.605  -5.915  1.00  0.00     0.265 C 
ATOM     21  C   UNL     1       5.017   0.489  -7.881  1.00  0.00     0.014 C 
ATOM     22  H   UNL     1       2.414   2.662  -6.797  1.00  0.00     0.348 HD
ENDBRANCH  14  15
ENDBRANCH   9  14
ENDBRANCH   6   9
ENDBRANCH   4   5
ENDBRANCH   3   4
ENDBRANCH   2   3
ENDBRANCH   1   2
BRANCH   1  23
ATOM     23  C   UNL     1      -3.532   5.205  -8.030  1.00  0.00     0.021 C 
BRANCH  23  24
ATOM     24  C   UNL     1      -4.624   4.555  -8.873  1.00  0.00     0.116 C 
BRANCH  24  25
ATOM     25  N   UNL     1      -5.937   5.119  -8.618  1.00  0.00    -0.352 N 
ATOM     26  C   UNL     1      -6.888   5.565  -9.501  1.00  0.00     0.251 C 
ATOM     27  H   UNL     1      -6.182   5.192  -7.668  1.00  0.00     0.163 HD
ATOM     28  O   UNL     1      -7.878   6.153  -9.076  1.00  0.00    -0.269 OA
BRANCH  26  29
ATOM     29  C   UNL     1      -6.713   5.367 -10.958  1.00  0.00     0.039 A 
ATOM     30  C   UNL     1      -7.038   6.421 -11.816  1.00  0.00     0.014 A 
ATOM     31  C   UNL     1      -6.256   4.155 -11.485  1.00  0.00     0.014 A 
ATOM     32  C   UNL     1      -6.852   6.278 -13.192  1.00  0.00     0.010 A 
ATOM     33  C   UNL     1      -6.002   4.040 -12.852  1.00  0.00     0.010 A 
ATOM     34  C   UNL     1      -6.300   5.099 -13.721  1.00  0.00    -0.014 A 
BRANCH  34  35
ATOM     35  C   UNL     1      -6.009   4.987 -15.175  1.00  0.00     0.031 A 
ATOM     36  C   UNL     1      -6.723   3.971 -16.028  1.00  0.00     0.074 A 
ATOM     37  C   UNL     1      -5.069   5.785 -15.722  1.00  0.00     0.049 A 
ATOM     38  N   UNL     1      -6.601   3.746 -17.311  1.00  0.00    -0.248 NA
ATOM     39  C   UNL     1      -7.681   3.080 -15.353  1.00  0.00     0.031 C 
ATOM     40  C   UNL     1      -4.268   6.772 -14.991  1.00  0.00     0.029 A 
ATOM     41  N   UNL     1      -4.627   5.896 -17.017  1.00  0.00    -0.354 N 
ATOM     42  C   UNL     1      -7.453   2.684 -17.595  1.00  0.00     0.074 A 
ATOM     43  C   UNL     1      -8.054   2.281 -16.343  1.00  0.00     0.031 C 
ATOM     44  C   UNL     1      -3.459   7.408 -15.852  1.00  0.00     0.029 A 
ATOM     45  C   UNL     1      -3.650   6.850 -17.187  1.00  0.00     0.049 A 
ATOM     46  H   UNL     1      -4.976   5.346 -17.754  1.00  0.00     0.167 HD
ATOM     47  C   UNL     1      -7.723   2.110 -18.792  1.00  0.00     0.031 A 
ATOM     48  C   UNL     1      -2.976   7.231 -18.290  1.00  0.00     0.031 A 
ATOM     49  C   UNL     1      -7.132   2.524 -20.038  1.00  0.00     0.049 A 
ATOM     50  C   UNL     1      -3.301   6.579 -19.606  1.00  0.00     0.074 A 
ATOM     51  C   UNL     1      -7.397   2.051 -21.312  1.00  0.00     0.029 A 
ATOM     52  N   UNL     1      -6.154   3.498 -20.170  1.00  0.00    -0.354 N 
ATOM     53  N   UNL     1      -4.179   5.639 -19.866  1.00  0.00    -0.248 NA
ATOM     54  C   UNL     1      -2.554   7.049 -20.781  1.00  0.00     0.031 C 
ATOM     55  C   UNL     1      -6.534   2.693 -22.206  1.00  0.00     0.029 A 
ATOM     56  C   UNL     1      -5.781   3.616 -21.499  1.00  0.00     0.049 A 
ATOM     57  H   UNL     1      -5.781   4.028 -19.429  1.00  0.00     0.167 HD
ATOM     58  C   UNL     1      -4.105   5.423 -21.238  1.00  0.00     0.074 A 
ATOM     59  C   UNL     1      -3.118   6.348 -21.755  1.00  0.00     0.031 C 
ATOM     60  C   UNL     1      -4.790   4.535 -22.000  1.00  0.00     0.031 A 
BRANCH  47  61
ATOM     61  C   UNL     1      -8.700   0.962 -18.823  1.00  0.00    -0.014 A 
ATOM     62  C   UNL     1     -10.074   1.168 -18.603  1.00  0.00     0.010 A 
ATOM     63  C   UNL     1      -8.247  -0.327 -19.160  1.00  0.00     0.010 A 
ATOM     64  C   UNL     1     -10.973   0.102 -18.698  1.00  0.00     0.020 A 
ATOM     65  C   UNL     1      -9.147  -1.390 -19.283  1.00  0.00     0.020 A 
ATOM     66  C   UNL     1     -10.504  -1.170 -19.042  1.00  0.00     0.054 A 
BRANCH  66  67
ATOM     67  S   UNL     1     -11.703  -2.521 -19.213  1.00  0.00     0.124 S 
ATOM     68  O   UNL     1     -12.096  -2.753 -17.825  1.00  0.00    -0.237 OA
ATOM     69  O   UNL     1     -12.730  -1.929 -20.066  1.00  0.00    -0.237 OA
ATOM     70  O   UNL     1     -10.930  -3.597 -19.828  1.00  0.00    -0.744 OA
ENDBRANCH  66  67
ENDBRANCH  47  61
BRANCH  48  71
ATOM     71  C   UNL     1      -1.923   8.281 -18.198  1.00  0.00    -0.014 A 
ATOM     72  C   UNL     1      -2.099   9.537 -18.803  1.00  0.00     0.010 A 
ATOM     73  C   UNL     1      -0.726   8.020 -17.506  1.00  0.00     0.010 A 
ATOM     74  C   UNL     1      -1.087  10.500 -18.747  1.00  0.00     0.020 A 
ATOM     75  C   UNL     1       0.275   8.991 -17.418  1.00  0.00     0.020 A 
ATOM     76  C   UNL     1       0.095  10.220 -18.055  1.00  0.00     0.054 A 
BRANCH  76  77
ATOM     77  S   UNL     1       1.385  11.492 -17.970  1.00  0.00     0.124 S 
ATOM     78  O   UNL     1       1.922  11.471 -19.327  1.00  0.00    -0.237 OA
ATOM     79  O   UNL     1       0.626  12.687 -17.607  1.00  0.00    -0.237 OA
ATOM     80  O   UNL     1       2.285  10.996 -16.931  1.00  0.00    -0.744 OA
ENDBRANCH  76  77
ENDBRANCH  48  71
BRANCH  60  81
ATOM     81  C   UNL     1      -4.515   4.540 -23.482  1.00  0.00    -0.014 A 
ATOM     82  C   UNL     1      -3.290   4.084 -23.999  1.00  0.00     0.010 A 
ATOM     83  C   UNL     1      -5.513   4.979 -24.372  1.00  0.00     0.010 A 
ATOM     84  C   UNL     1      -3.050   4.109 -25.376  1.00  0.00     0.020 A 
ATOM     85  C   UNL     1      -5.290   4.973 -25.751  1.00  0.00     0.020 A 
ATOM     86  C   UNL     1      -4.052   4.556 -26.243  1.00  0.00     0.054 A 
BRANCH  86  87
ATOM     87  S   UNL     1      -3.724   4.558 -28.026  1.00  0.00     0.124 S 
ATOM     88  O   UNL     1      -2.796   5.676 -28.164  1.00  0.00    -0.237 OA
ATOM     89  O   UNL     1      -3.150   3.233 -28.248  1.00  0.00    -0.237 OA
ATOM     90  O   UNL     1      -5.043   4.766 -28.621  1.00  0.00    -0.744 OA
ENDBRANCH  86  87
ENDBRANCH  60  81
ENDBRANCH  34  35
ENDBRANCH  26  29
ENDBRANCH  24  25
ENDBRANCH  23  24
ENDBRANCH   1  23
TORSDOF 18
