REMARK SMILES COc1ccc(NCc2ccc(C(=O)NCCCCCCNC(=O)c3ccc(-c4c5nc(c(-c6ccc(S(=O)(=O)[O-])cc6)c6ccc([nH]6)c(-c6ccc(S(=O)(=O)[O-])cc6)c6nc(c(-c7ccc(S(=O)(=O)[O-])cc7)c7ccc4[nH]7)C=C6)C=C5)cc3)o2)cc1
REMARK SMILES IDX 18 1 17 2 16 3 15 4 13 5 14 6 12 8 9 9 10 10 85 11 11 12
REMARK SMILES IDX 8 13 7 14 6 16 3 17 4 18 87 19 5 20 86 21 2 22 1 23 19 24
REMARK SMILES IDX 20 25 21 26 22 27 23 28 24 30 25 31 26 32 84 33 27 34 83 35
REMARK SMILES IDX 28 36 29 37 30 38 77 39 31 40 82 41 76 42 78 43 32 44 81 45
REMARK SMILES IDX 75 46 74 47 33 49 63 50 44 51 62 52 45 53 48 54 61 55 79 56
REMARK SMILES IDX 46 57 47 58 60 60 80 61 49 62 34 63 35 64 43 65 36 66 42 67
REMARK SMILES IDX 37 68 38 69 39 70 40 71 41 72 64 73 65 74 73 75 66 76 72 77
REMARK SMILES IDX 67 78 68 79 69 80 70 81 71 82 50 83 51 84 59 85 52 86 58 87
REMARK SMILES IDX 53 88 54 89 55 90 56 91 57 92
REMARK H PARENT 15 7 7 15 22 29 78 48 48 59
REMARK Flexibility Score: inf
ROOT
ATOM      1  C   UNL     1       1.680  12.299  -4.605  1.00  0.00     0.002 C 
ENDROOT
BRANCH   1   2
ATOM      2  C   UNL     1       1.266  10.853  -4.297  1.00  0.00     0.021 C 
BRANCH   2   3
ATOM      3  C   UNL     1       0.477  10.193  -5.427  1.00  0.00     0.116 C 
BRANCH   3   4
ATOM      4  N   UNL     1       1.361   9.725  -6.470  1.00  0.00    -0.349 N 
ATOM      5  C   UNL     1       1.754   8.467  -6.858  1.00  0.00     0.286 C 
ATOM      6  O   UNL     1       2.517   8.438  -7.828  1.00  0.00    -0.266 OA
ATOM      7  H   UNL     1       1.760  10.448  -7.007  1.00  0.00     0.163 HD
BRANCH   5   8
ATOM      8  C   UNL     1       1.296   7.260  -6.189  1.00  0.00     0.191 A 
ATOM      9  C   UNL     1       1.127   5.048  -6.075  1.00  0.00     0.124 A 
ATOM     10  C   UNL     1       0.480   5.540  -4.967  1.00  0.00     0.048 A 
ATOM     11  O   UNL     1       1.609   6.077  -6.822  1.00  0.00    -0.454 OA
ATOM     12  C   UNL     1       0.621   6.949  -5.020  1.00  0.00     0.056 A 
BRANCH   9  13
ATOM     13  C   UNL     1       1.434   3.673  -6.555  1.00  0.00     0.188 C 
BRANCH  13  14
ATOM     14  N   UNL     1       2.257   2.905  -5.631  1.00  0.00    -0.378 N 
ATOM     15  H   UNL     1       3.229   2.903  -5.783  1.00  0.00     0.161 HD
BRANCH  14  16
ATOM     16  C   UNL     1       1.777   2.179  -4.557  1.00  0.00     0.035 A 
ATOM     17  C   UNL     1       0.940   0.598  -2.361  1.00  0.00     0.119 A 
ATOM     18  C   UNL     1       0.030   0.997  -3.336  1.00  0.00     0.048 A 
ATOM     19  C   UNL     1       2.275   0.965  -2.489  1.00  0.00     0.048 A 
ATOM     20  C   UNL     1       0.444   1.784  -4.418  1.00  0.00     0.029 A 
ATOM     21  C   UNL     1       2.684   1.742  -3.581  1.00  0.00     0.029 A 
BRANCH  17  22
ATOM     22  O   UNL     1       0.439  -0.198  -1.370  1.00  0.00    -0.497 OA
ATOM     23  C   UNL     1       1.019   0.009  -0.086  1.00  0.00     0.278 C 
ENDBRANCH  17  22
ENDBRANCH  14  16
ENDBRANCH  13  14
ENDBRANCH   9  13
ENDBRANCH   5   8
ENDBRANCH   3   4
ENDBRANCH   2   3
ENDBRANCH   1   2
BRANCH   1  24
ATOM     24  C   UNL     1       0.519  13.263  -4.885  1.00  0.00     0.002 C 
BRANCH  24  25
ATOM     25  C   UNL     1      -0.585  13.281  -3.823  1.00  0.00     0.021 C 
BRANCH  25  26
ATOM     26  C   UNL     1      -0.117  13.699  -2.432  1.00  0.00     0.116 C 
BRANCH  26  27
ATOM     27  N   UNL     1       0.362  15.072  -2.415  1.00  0.00    -0.352 N 
ATOM     28  C   UNL     1      -0.033  16.122  -1.625  1.00  0.00     0.251 C 
ATOM     29  H   UNL     1       1.073  15.277  -3.065  1.00  0.00     0.163 HD
ATOM     30  O   UNL     1       0.325  17.262  -1.903  1.00  0.00    -0.269 OA
BRANCH  28  31
ATOM     31  C   UNL     1      -0.895  15.881  -0.448  1.00  0.00     0.039 A 
ATOM     32  C   UNL     1      -1.957  16.754  -0.198  1.00  0.00     0.014 A 
ATOM     33  C   UNL     1      -0.642  14.817   0.423  1.00  0.00     0.014 A 
ATOM     34  C   UNL     1      -2.792  16.533   0.900  1.00  0.00     0.010 A 
ATOM     35  C   UNL     1      -1.516  14.558   1.476  1.00  0.00     0.010 A 
ATOM     36  C   UNL     1      -2.594  15.419   1.732  1.00  0.00    -0.014 A 
BRANCH  36  37
ATOM     37  C   UNL     1      -3.499  15.146   2.877  1.00  0.00     0.031 A 
ATOM     38  C   UNL     1      -2.972  15.194   4.287  1.00  0.00     0.074 A 
ATOM     39  C   UNL     1      -4.781  14.801   2.647  1.00  0.00     0.049 A 
ATOM     40  N   UNL     1      -3.597  14.944   5.409  1.00  0.00    -0.248 NA
ATOM     41  C   UNL     1      -1.553  15.546   4.456  1.00  0.00     0.031 C 
ATOM     42  C   UNL     1      -5.401  14.679   1.325  1.00  0.00     0.029 A 
ATOM     43  N   UNL     1      -5.793  14.484   3.518  1.00  0.00    -0.354 N 
ATOM     44  C   UNL     1      -2.646  15.091   6.413  1.00  0.00     0.074 A 
ATOM     45  C   UNL     1      -1.391  15.403   5.763  1.00  0.00     0.031 C 
ATOM     46  C   UNL     1      -6.692  14.341   1.474  1.00  0.00     0.029 A 
ATOM     47  C   UNL     1      -6.982  14.184   2.896  1.00  0.00     0.049 A 
ATOM     48  H   UNL     1      -5.678  14.473   4.495  1.00  0.00     0.167 HD
ATOM     49  C   UNL     1      -2.805  14.993   7.755  1.00  0.00     0.031 A 
ATOM     50  C   UNL     1      -8.173  13.821   3.411  1.00  0.00     0.031 A 
ATOM     51  C   UNL     1      -4.057  14.694   8.398  1.00  0.00     0.049 A 
ATOM     52  C   UNL     1      -8.326  13.719   4.904  1.00  0.00     0.074 A 
ATOM     53  C   UNL     1      -4.334  14.628   9.752  1.00  0.00     0.029 A 
ATOM     54  N   UNL     1      -5.240  14.410   7.733  1.00  0.00    -0.354 N 
ATOM     55  N   UNL     1      -7.430  13.924   5.839  1.00  0.00    -0.248 NA
ATOM     56  C   UNL     1      -9.655  13.350   5.410  1.00  0.00     0.031 C 
ATOM     57  C   UNL     1      -5.674  14.255   9.906  1.00  0.00     0.029 A 
ATOM     58  C   UNL     1      -6.245  14.146   8.649  1.00  0.00     0.049 A 
ATOM     59  H   UNL     1      -5.350  14.397   6.755  1.00  0.00     0.167 HD
ATOM     60  C   UNL     1      -8.094  13.736   7.046  1.00  0.00     0.074 A 
ATOM     61  C   UNL     1      -9.469  13.415   6.722  1.00  0.00     0.031 C 
ATOM     62  C   UNL     1      -7.609  13.824   8.310  1.00  0.00     0.031 A 
BRANCH  49  63
ATOM     63  C   UNL     1      -1.588  15.206   8.617  1.00  0.00    -0.014 A 
ATOM     64  C   UNL     1      -1.000  16.478   8.743  1.00  0.00     0.010 A 
ATOM     65  C   UNL     1      -1.042  14.127   9.336  1.00  0.00     0.010 A 
ATOM     66  C   UNL     1       0.138  16.658   9.534  1.00  0.00     0.020 A 
ATOM     67  C   UNL     1       0.079  14.309  10.152  1.00  0.00     0.020 A 
ATOM     68  C   UNL     1       0.673  15.570  10.230  1.00  0.00     0.054 A 
BRANCH  68  69
ATOM     69  S   UNL     1       2.143  15.834  11.261  1.00  0.00     0.124 S 
ATOM     70  O   UNL     1       3.192  15.978  10.255  1.00  0.00    -0.237 OA
ATOM     71  O   UNL     1       1.806  17.050  11.995  1.00  0.00    -0.237 OA
ATOM     72  O   UNL     1       2.220  14.621  12.072  1.00  0.00    -0.744 OA
ENDBRANCH  68  69
ENDBRANCH  49  63
BRANCH  50  73
ATOM     73  C   UNL     1      -9.320  13.547   2.503  1.00  0.00    -0.014 A 
ATOM     74  C   UNL     1     -10.404  14.440   2.433  1.00  0.00     0.010 A 
ATOM     75  C   UNL     1      -9.325  12.400   1.688  1.00  0.00     0.010 A 
ATOM     76  C   UNL     1     -11.478  14.183   1.576  1.00  0.00     0.020 A 
ATOM     77  C   UNL     1     -10.385  12.154   0.811  1.00  0.00     0.020 A 
ATOM     78  C   UNL     1     -11.460  13.043   0.769  1.00  0.00     0.054 A 
BRANCH  78  79
ATOM     79  S   UNL     1     -12.839  12.759  -0.377  1.00  0.00     0.124 S 
ATOM     80  O   UNL     1     -13.902  12.334   0.527  1.00  0.00    -0.237 OA
ATOM     81  O   UNL     1     -13.015  14.074  -0.990  1.00  0.00    -0.237 OA
ATOM     82  O   UNL     1     -12.328  11.726  -1.276  1.00  0.00    -0.744 OA
ENDBRANCH  78  79
ENDBRANCH  50  73
BRANCH  62  83
ATOM     83  C   UNL     1      -8.579  13.602   9.440  1.00  0.00    -0.014 A 
ATOM     84  C   UNL     1      -9.074  12.320   9.736  1.00  0.00     0.010 A 
ATOM     85  C   UNL     1      -8.960  14.689  10.249  1.00  0.00     0.010 A 
ATOM     86  C   UNL     1      -9.960  12.135  10.800  1.00  0.00     0.020 A 
ATOM     87  C   UNL     1      -9.823  14.503  11.331  1.00  0.00     0.020 A 
ATOM     88  C   UNL     1     -10.330  13.228  11.591  1.00  0.00     0.054 A 
BRANCH  88  89
ATOM     89  S   UNL     1     -11.450  12.955  12.991  1.00  0.00     0.124 S 
ATOM     90  O   UNL     1     -12.734  12.767  12.321  1.00  0.00    -0.237 OA
ATOM     91  O   UNL     1     -10.890  11.762  13.622  1.00  0.00    -0.237 OA
ATOM     92  O   UNL     1     -11.330  14.182  13.775  1.00  0.00    -0.744 OA
ENDBRANCH  88  89
ENDBRANCH  62  83
ENDBRANCH  36  37
ENDBRANCH  28  31
ENDBRANCH  26  27
ENDBRANCH  25  26
ENDBRANCH  24  25
ENDBRANCH   1  24
TORSDOF 20
