REMARK SMILES O=C(CC[C@H]1CCCC[N@H+]1C[C@@H]1COc2ccccc21)NCCCCCCNC(=O)c1ccc(-c2c3nc(c(-c4ccc(S(=O)(=O)[O-])cc4)c4ccc([nH]4)c(-c4ccc(S(=O)(=O)[O-])cc4)c4nc(c(-c5ccc(S(=O)(=O)[O-])cc5)c5ccc2[nH]5)C=C4)C=C3)cc1
REMARK SMILES IDX 24 1 23 2 22 3 21 4 1 5 2 6 3 8 4 9 5 10 6 11 10 12 7 13
REMARK SMILES IDX 9 14 8 16 11 17 12 18 13 19 20 20 14 21 15 22 19 23 16 24
REMARK SMILES IDX 18 25 17 26 25 27 26 28 27 29 28 30 29 31 30 33 31 34 32 35
REMARK SMILES IDX 90 36 33 37 89 38 34 39 35 40 36 41 83 42 37 43 88 44 82 45
REMARK SMILES IDX 84 46 38 47 87 48 81 49 80 50 39 52 69 53 50 54 68 55 51 56
REMARK SMILES IDX 54 57 67 58 85 59 52 60 53 61 66 63 86 64 55 65 40 66 41 67
REMARK SMILES IDX 49 68 42 69 48 70 43 71 44 72 45 73 46 74 47 75 70 76 71 77
REMARK SMILES IDX 79 78 72 79 78 80 73 81 74 82 75 83 76 84 77 85 56 86 57 87
REMARK SMILES IDX 65 88 58 89 64 90 59 91 60 92 61 93 62 94 63 95
REMARK H PARENT 21 7 10 15 28 32 84 51 54 62
REMARK Flexibility Score: inf
ROOT
ATOM      1  C   UNL     1       7.309   5.349  -9.437  1.00  0.00     0.002 C 
ENDROOT
BRANCH   1   2
ATOM      2  C   UNL     1       8.482   5.899  -8.614  1.00  0.00     0.021 C 
BRANCH   2   3
ATOM      3  C   UNL     1       8.190   6.171  -7.133  1.00  0.00     0.116 C 
BRANCH   3   4
ATOM      4  N   UNL     1       7.783   4.963  -6.445  1.00  0.00    -0.356 N 
ATOM      5  O   UNL     1       9.867   4.455  -5.680  1.00  0.00    -0.275 OA
ATOM      6  C   UNL     1       8.691   4.132  -5.846  1.00  0.00     0.220 C 
ATOM      7  H   UNL     1       6.826   4.733  -6.406  1.00  0.00     0.163 HD
BRANCH   6   8
ATOM      8  C   UNL     1       8.244   2.714  -5.541  1.00  0.00     0.106 C 
BRANCH   8   9
ATOM      9  C   UNL     1       6.804   2.402  -5.139  1.00  0.00     0.075 C 
BRANCH   9  10
ATOM     10  C   UNL     1       5.650   2.477  -6.162  1.00  0.00     0.184 C 
ATOM     11  C   UNL     1       6.100   2.312  -7.628  1.00  0.00     0.065 C 
ATOM     12  N   UNL     1       4.522   1.570  -5.887  1.00  0.00    -0.332 N 
ATOM     13  C   UNL     1       6.344   0.873  -8.050  1.00  0.00     0.012 C 
ATOM     14  C   UNL     1       4.710   0.185  -6.311  1.00  0.00     0.262 C 
ATOM     15  H   UNL     1       3.861   1.966  -6.555  1.00  0.00     0.348 HD
ATOM     16  C   UNL     1       5.095   0.062  -7.781  1.00  0.00     0.062 C 
BRANCH  12  17
ATOM     17  C   UNL     1       3.714   1.754  -4.672  1.00  0.00     0.274 C 
BRANCH  17  18
ATOM     18  C   UNL     1       4.007   1.159  -3.257  1.00  0.00     0.116 C 
ATOM     19  C   UNL     1       4.894   2.043  -2.365  1.00  0.00     0.244 C 
ATOM     20  C   UNL     1       4.774  -0.110  -3.159  1.00  0.00     0.006 A 
ATOM     21  O   UNL     1       6.207   1.452  -2.236  1.00  0.00    -0.492 OA
ATOM     22  C   UNL     1       6.029   0.154  -2.634  1.00  0.00     0.123 A 
ATOM     23  C   UNL     1       4.440  -1.390  -3.572  1.00  0.00     0.008 A 
ATOM     24  C   UNL     1       7.029  -0.797  -2.613  1.00  0.00     0.047 A 
ATOM     25  C   UNL     1       5.438  -2.370  -3.560  1.00  0.00     0.001 A 
ATOM     26  C   UNL     1       6.731  -2.069  -3.103  1.00  0.00     0.004 A 
ENDBRANCH  17  18
ENDBRANCH  12  17
ENDBRANCH   9  10
ENDBRANCH   8   9
ENDBRANCH   6   8
ENDBRANCH   3   4
ENDBRANCH   2   3
ENDBRANCH   1   2
BRANCH   1  27
ATOM     27  C   UNL     1       5.982   6.096  -9.298  1.00  0.00     0.002 C 
BRANCH  27  28
ATOM     28  C   UNL     1       6.044   7.566  -9.702  1.00  0.00     0.021 C 
BRANCH  28  29
ATOM     29  C   UNL     1       6.524   7.807 -11.128  1.00  0.00     0.116 C 
BRANCH  29  30
ATOM     30  N   UNL     1       5.615   7.264 -12.126  1.00  0.00    -0.352 N 
ATOM     31  C   UNL     1       5.171   7.854 -13.284  1.00  0.00     0.251 C 
ATOM     32  H   UNL     1       5.275   6.357 -11.948  1.00  0.00     0.163 HD
ATOM     33  O   UNL     1       4.287   7.328 -13.951  1.00  0.00    -0.269 OA
BRANCH  31  34
ATOM     34  C   UNL     1       5.749   9.152 -13.696  1.00  0.00     0.039 A 
ATOM     35  C   UNL     1       4.890  10.196 -14.041  1.00  0.00     0.014 A 
ATOM     36  C   UNL     1       7.134   9.346 -13.694  1.00  0.00     0.014 A 
ATOM     37  C   UNL     1       5.419  11.459 -14.319  1.00  0.00     0.010 A 
ATOM     38  C   UNL     1       7.652  10.621 -13.898  1.00  0.00     0.010 A 
ATOM     39  C   UNL     1       6.801  11.691 -14.212  1.00  0.00    -0.014 A 
BRANCH  39  40
ATOM     40  C   UNL     1       7.371  13.047 -14.414  1.00  0.00     0.031 A 
ATOM     41  C   UNL     1       8.325  13.307 -15.549  1.00  0.00     0.074 A 
ATOM     42  C   UNL     1       7.079  14.030 -13.539  1.00  0.00     0.049 A 
ATOM     43  N   UNL     1       8.957  14.410 -15.857  1.00  0.00    -0.248 NA
ATOM     44  C   UNL     1       8.626  12.173 -16.438  1.00  0.00     0.031 C 
ATOM     45  C   UNL     1       6.204  13.894 -12.371  1.00  0.00     0.029 A 
ATOM     46  N   UNL     1       7.490  15.339 -13.492  1.00  0.00    -0.354 N 
ATOM     47  C   UNL     1       9.740  14.101 -16.963  1.00  0.00     0.074 A 
ATOM     48  C   UNL     1       9.543  12.695 -17.240  1.00  0.00     0.031 C 
ATOM     49  C   UNL     1       6.122  15.078 -11.742  1.00  0.00     0.029 A 
ATOM     50  C   UNL     1       6.968  16.045 -12.434  1.00  0.00     0.049 A 
ATOM     51  H   UNL     1       8.102  15.735 -14.154  1.00  0.00     0.167 HD
ATOM     52  C   UNL     1      10.536  14.917 -17.694  1.00  0.00     0.031 A 
ATOM     53  C   UNL     1       7.152  17.326 -12.058  1.00  0.00     0.031 A 
ATOM     54  C   UNL     1      10.724  16.317 -17.421  1.00  0.00     0.049 A 
ATOM     55  C   UNL     1       8.047  18.211 -12.881  1.00  0.00     0.074 A 
ATOM     56  C   UNL     1      11.465  17.241 -18.137  1.00  0.00     0.029 A 
ATOM     57  N   UNL     1      10.171  16.995 -16.346  1.00  0.00    -0.354 N 
ATOM     58  N   UNL     1       8.724  17.917 -13.966  1.00  0.00    -0.248 NA
ATOM     59  C   UNL     1       8.193  19.604 -12.437  1.00  0.00     0.031 C 
ATOM     60  C   UNL     1      11.402  18.466 -17.466  1.00  0.00     0.029 A 
ATOM     61  C   UNL     1      10.573  18.320 -16.365  1.00  0.00     0.049 A 
ATOM     62  H   UNL     1       9.579  16.594 -15.668  1.00  0.00     0.167 HD
ATOM     63  C   UNL     1       9.356  19.095 -14.348  1.00  0.00     0.074 A 
ATOM     64  C   UNL     1       8.967  20.108 -13.388  1.00  0.00     0.031 C 
ATOM     65  C   UNL     1      10.181  19.318 -15.401  1.00  0.00     0.031 A 
BRANCH  52  66
ATOM     66  C   UNL     1      11.270  14.309 -18.861  1.00  0.00    -0.014 A 
ATOM     67  C   UNL     1      10.580  13.889 -20.014  1.00  0.00     0.010 A 
ATOM     68  C   UNL     1      12.671  14.190 -18.822  1.00  0.00     0.010 A 
ATOM     69  C   UNL     1      11.273  13.320 -21.086  1.00  0.00     0.020 A 
ATOM     70  C   UNL     1      13.371  13.648 -19.905  1.00  0.00     0.020 A 
ATOM     71  C   UNL     1      12.664  13.200 -21.023  1.00  0.00     0.054 A 
BRANCH  71  72
ATOM     72  S   UNL     1      13.539  12.477 -22.437  1.00  0.00     0.124 S 
ATOM     73  O   UNL     1      13.189  11.063 -22.315  1.00  0.00    -0.237 OA
ATOM     74  O   UNL     1      12.943  13.174 -23.574  1.00  0.00    -0.237 OA
ATOM     75  O   UNL     1      14.941  12.796 -22.179  1.00  0.00    -0.744 OA
ENDBRANCH  71  72
ENDBRANCH  52  66
BRANCH  53  76
ATOM     76  C   UNL     1       6.458  17.852 -10.850  1.00  0.00    -0.014 A 
ATOM     77  C   UNL     1       5.406  18.776 -10.978  1.00  0.00     0.010 A 
ATOM     78  C   UNL     1       6.836  17.419  -9.566  1.00  0.00     0.010 A 
ATOM     79  C   UNL     1       4.754  19.269  -9.843  1.00  0.00     0.020 A 
ATOM     80  C   UNL     1       6.169  17.889  -8.431  1.00  0.00     0.020 A 
ATOM     81  C   UNL     1       5.138  18.820  -8.577  1.00  0.00     0.054 A 
BRANCH  81  82
ATOM     82  S   UNL     1       4.242  19.431  -7.122  1.00  0.00     0.124 S 
ATOM     83  O   UNL     1       4.744  20.796  -7.007  1.00  0.00    -0.237 OA
ATOM     84  O   UNL     1       2.846  19.302  -7.535  1.00  0.00    -0.237 OA
ATOM     85  O   UNL     1       4.655  18.518  -6.058  1.00  0.00    -0.744 OA
ENDBRANCH  81  82
ENDBRANCH  53  76
BRANCH  65  86
ATOM     86  C   UNL     1      10.698  20.719 -15.592  1.00  0.00    -0.014 A 
ATOM     87  C   UNL     1      11.670  21.262 -14.733  1.00  0.00     0.010 A 
ATOM     88  C   UNL     1      10.242  21.483 -16.682  1.00  0.00     0.010 A 
ATOM     89  C   UNL     1      12.153  22.557 -14.943  1.00  0.00     0.020 A 
ATOM     90  C   UNL     1      10.743  22.766 -16.912  1.00  0.00     0.020 A 
ATOM     91  C   UNL     1      11.686  23.301 -16.031  1.00  0.00     0.054 A 
BRANCH  91  92
ATOM     92  S   UNL     1      12.360  24.962 -16.307  1.00  0.00     0.124 S 
ATOM     93  O   UNL     1      11.711  25.732 -15.249  1.00  0.00    -0.237 OA
ATOM     94  O   UNL     1      13.797  24.757 -16.144  1.00  0.00    -0.237 OA
ATOM     95  O   UNL     1      11.934  25.288 -17.666  1.00  0.00    -0.744 OA
ENDBRANCH  91  92
ENDBRANCH  65  86
ENDBRANCH  39  40
ENDBRANCH  31  34
ENDBRANCH  29  30
ENDBRANCH  28  29
ENDBRANCH  27  28
ENDBRANCH   1  27
TORSDOF 20
