REMARK SMILES C[C@@H]1C[N@@H+](CC(C)(C)C(=O)NCCCCCCNC(=O)c2ccc(-c3c4nc(c(-c5ccc(S(=O)(=O)[O-])cc5)c5ccc([nH]5)c(-c5ccc(S(=O)(=O)[O-])cc5)c5nc(c(-c6ccc(S(=O)(=O)[O-])cc6)c6ccc3[nH]6)C=C5)C=C4)cc2)CC[C@@H]1[NH3+]
REMARK SMILES IDX 14 1 13 2 12 3 11 4 9 5 10 6 6 8 7 9 8 10 5 11 4 12 1 13
REMARK SMILES IDX 2 14 3 15 83 16 82 17 81 18 84 20 15 24 16 25 17 26 18 27
REMARK SMILES IDX 19 28 20 30 21 31 22 32 80 33 23 34 79 35 24 36 25 37 26 38
REMARK SMILES IDX 73 39 27 40 78 41 72 42 74 43 28 44 77 45 71 46 70 47 29 49
REMARK SMILES IDX 59 50 40 51 58 52 41 53 44 54 57 55 75 56 42 57 43 58 56 60
REMARK SMILES IDX 76 61 45 62 30 63 31 64 39 65 32 66 38 67 33 68 34 69 35 70
REMARK SMILES IDX 36 71 37 72 60 73 61 74 69 75 62 76 68 77 63 78 64 79 65 80
REMARK SMILES IDX 66 81 67 82 46 83 47 84 55 85 48 86 54 87 49 88 50 89 51 90
REMARK SMILES IDX 52 91 53 92
REMARK H PARENT 11 7 4 19 84 21 84 22 84 23 18 29 74 48 44 59
REMARK Flexibility Score: inf
ROOT
ATOM      1  C   UNL     1      -6.212   4.225   2.828  1.00  0.00     0.002 C 
ENDROOT
BRANCH   1   2
ATOM      2  C   UNL     1      -6.102   4.400   1.309  1.00  0.00     0.021 C 
BRANCH   2   3
ATOM      3  C   UNL     1      -4.675   4.599   0.804  1.00  0.00     0.116 C 
BRANCH   3   4
ATOM      4  N   UNL     1      -3.918   3.382   0.991  1.00  0.00    -0.355 N 
ATOM      5  C   UNL     1      -3.528   2.468   0.068  1.00  0.00     0.231 C 
ATOM      6  O   UNL     1      -3.554   1.291   0.442  1.00  0.00    -0.274 OA
ATOM      7  H   UNL     1      -3.648   3.189   1.918  1.00  0.00     0.163 HD
BRANCH   5   8
ATOM      8  C   UNL     1      -3.122   2.860  -1.364  1.00  0.00     0.092 C 
ATOM      9  C   UNL     1      -2.600   4.297  -1.530  1.00  0.00     0.027 C 
ATOM     10  C   UNL     1      -4.394   2.705  -2.226  1.00  0.00     0.027 C 
BRANCH   8  11
ATOM     11  C   UNL     1      -2.047   1.827  -1.885  1.00  0.00     0.278 C 
BRANCH  11  12
ATOM     12  N   UNL     1      -0.682   1.721  -1.311  1.00  0.00    -0.333 N 
ATOM     13  C   UNL     1       1.367  -0.225   0.011  1.00  0.00     0.020 C 
ATOM     14  C   UNL     1       0.743   1.025   0.644  1.00  0.00     0.099 C 
ATOM     15  C   UNL     1      -0.669   1.282   0.089  1.00  0.00     0.271 C 
ATOM     16  C   UNL     1       1.565   2.311   0.450  1.00  0.00     0.194 C 
ATOM     17  C   UNL     1       1.618   2.682  -1.032  1.00  0.00     0.126 C 
ATOM     18  C   UNL     1       0.196   2.861  -1.574  1.00  0.00     0.268 C 
ATOM     19  H   UNL     1      -0.255   0.962  -1.844  1.00  0.00     0.348 HD
BRANCH  16  20
ATOM     20  N   UNL     1       2.909   2.208   1.024  1.00  0.00    -0.355 N 
ATOM     21  H   UNL     1       3.426   1.469   0.548  1.00  0.00     0.344 HD
ATOM     22  H   UNL     1       2.838   1.987   2.018  1.00  0.00     0.344 HD
ATOM     23  H   UNL     1       3.397   3.095   0.907  1.00  0.00     0.344 HD
ENDBRANCH  16  20
ENDBRANCH  11  12
ENDBRANCH   8  11
ENDBRANCH   5   8
ENDBRANCH   3   4
ENDBRANCH   2   3
ENDBRANCH   1   2
BRANCH   1  24
ATOM     24  C   UNL     1      -5.607   5.364   3.654  1.00  0.00     0.002 C 
BRANCH  24  25
ATOM     25  C   UNL     1      -6.087   6.763   3.265  1.00  0.00     0.021 C 
BRANCH  25  26
ATOM     26  C   UNL     1      -7.602   6.935   3.266  1.00  0.00     0.116 C 
BRANCH  26  27
ATOM     27  N   UNL     1      -8.174   6.713   4.584  1.00  0.00    -0.352 N 
ATOM     28  C   UNL     1      -8.940   7.560   5.348  1.00  0.00     0.251 C 
ATOM     29  H   UNL     1      -7.986   5.833   4.984  1.00  0.00     0.163 HD
ATOM     30  O   UNL     1      -9.169   7.298   6.521  1.00  0.00    -0.269 OA
BRANCH  28  31
ATOM     31  C   UNL     1      -9.460   8.804   4.742  1.00  0.00     0.039 A 
ATOM     32  C   UNL     1      -9.287  10.009   5.425  1.00  0.00     0.014 A 
ATOM     33  C   UNL     1     -10.084   8.780   3.492  1.00  0.00     0.014 A 
ATOM     34  C   UNL     1      -9.670  11.205   4.815  1.00  0.00     0.010 A 
ATOM     35  C   UNL     1     -10.403   9.978   2.858  1.00  0.00     0.010 A 
ATOM     36  C   UNL     1     -10.186  11.202   3.508  1.00  0.00    -0.014 A 
BRANCH  36  37
ATOM     37  C   UNL     1     -10.452  12.470   2.784  1.00  0.00     0.031 A 
ATOM     38  C   UNL     1     -11.850  12.831   2.365  1.00  0.00     0.074 A 
ATOM     39  C   UNL     1      -9.415  13.259   2.436  1.00  0.00     0.049 A 
ATOM     40  N   UNL     1     -12.258  13.857   1.664  1.00  0.00    -0.248 NA
ATOM     41  C   UNL     1     -12.925  11.912   2.770  1.00  0.00     0.031 C 
ATOM     42  C   UNL     1      -8.009  12.998   2.756  1.00  0.00     0.029 A 
ATOM     43  N   UNL     1      -9.380  14.434   1.729  1.00  0.00    -0.354 N 
ATOM     44  C   UNL     1     -13.634  13.704   1.535  1.00  0.00     0.074 A 
ATOM     45  C   UNL     1     -13.983  12.463   2.191  1.00  0.00     0.031 C 
ATOM     46  C   UNL     1      -7.254  13.993   2.267  1.00  0.00     0.029 A 
ATOM     47  C   UNL     1      -8.110  14.935   1.554  1.00  0.00     0.049 A 
ATOM     48  H   UNL     1     -10.186  14.877   1.379  1.00  0.00     0.167 HD
ATOM     49  C   UNL     1     -14.525  14.530   0.935  1.00  0.00     0.031 A 
ATOM     50  C   UNL     1      -7.679  16.019   0.880  1.00  0.00     0.031 A 
ATOM     51  C   UNL     1     -14.168  15.761   0.279  1.00  0.00     0.049 A 
ATOM     52  C   UNL     1      -8.683  16.893   0.180  1.00  0.00     0.074 A 
ATOM     53  C   UNL     1     -15.004  16.694  -0.310  1.00  0.00     0.029 A 
ATOM     54  N   UNL     1     -12.872  16.224   0.110  1.00  0.00    -0.354 N 
ATOM     55  N   UNL     1      -9.988  16.772   0.136  1.00  0.00    -0.248 NA
ATOM     56  C   UNL     1      -8.157  18.048  -0.559  1.00  0.00     0.031 C 
ATOM     57  C   UNL     1     -14.209  17.685  -0.893  1.00  0.00     0.029 A 
ATOM     58  C   UNL     1     -12.882  17.407  -0.611  1.00  0.00     0.049 A 
ATOM     59  H   UNL     1     -12.063  15.778   0.453  1.00  0.00     0.167 HD
ATOM     60  C   UNL     1     -10.441  17.844  -0.625  1.00  0.00     0.074 A 
ATOM     61  C   UNL     1      -9.273  18.616  -0.997  1.00  0.00     0.031 C 
ATOM     62  C   UNL     1     -11.709  18.158  -0.986  1.00  0.00     0.031 A 
BRANCH  49  63
ATOM     63  C   UNL     1     -15.975  14.122   0.948  1.00  0.00    -0.014 A 
ATOM     64  C   UNL     1     -16.723  14.126   2.139  1.00  0.00     0.010 A 
ATOM     65  C   UNL     1     -16.615  13.780  -0.258  1.00  0.00     0.010 A 
ATOM     66  C   UNL     1     -18.071  13.758   2.131  1.00  0.00     0.020 A 
ATOM     67  C   UNL     1     -17.971  13.441  -0.275  1.00  0.00     0.020 A 
ATOM     68  C   UNL     1     -18.687  13.417   0.923  1.00  0.00     0.054 A 
BRANCH  68  69
ATOM     69  S   UNL     1     -20.444  12.969   0.941  1.00  0.00     0.124 S 
ATOM     70  O   UNL     1     -20.416  11.666   1.602  1.00  0.00    -0.237 OA
ATOM     71  O   UNL     1     -21.042  14.053   1.717  1.00  0.00    -0.237 OA
ATOM     72  O   UNL     1     -20.811  12.941  -0.472  1.00  0.00    -0.744 OA
ENDBRANCH  68  69
ENDBRANCH  49  63
BRANCH  50  73
ATOM     73  C   UNL     1      -6.223  16.327   0.824  1.00  0.00    -0.014 A 
ATOM     74  C   UNL     1      -5.703  17.453   1.487  1.00  0.00     0.010 A 
ATOM     75  C   UNL     1      -5.345  15.486   0.115  1.00  0.00     0.010 A 
ATOM     76  C   UNL     1      -4.336  17.738   1.432  1.00  0.00     0.020 A 
ATOM     77  C   UNL     1      -3.973  15.751   0.084  1.00  0.00     0.020 A 
ATOM     78  C   UNL     1      -3.479  16.882   0.734  1.00  0.00     0.054 A 
BRANCH  78  79
ATOM     79  S   UNL     1      -1.700  17.242   0.724  1.00  0.00     0.124 S 
ATOM     80  O   UNL     1      -1.632  18.407  -0.153  1.00  0.00    -0.237 OA
ATOM     81  O   UNL     1      -1.423  17.493   2.136  1.00  0.00    -0.237 OA
ATOM     82  O   UNL     1      -1.107  16.019   0.188  1.00  0.00    -0.744 OA
ENDBRANCH  78  79
ENDBRANCH  50  73
BRANCH  62  83
ATOM     83  C   UNL     1     -11.906  19.392  -1.826  1.00  0.00    -0.014 A 
ATOM     84  C   UNL     1     -11.519  19.416  -3.178  1.00  0.00     0.010 A 
ATOM     85  C   UNL     1     -12.548  20.517  -1.277  1.00  0.00     0.010 A 
ATOM     86  C   UNL     1     -11.751  20.551  -3.959  1.00  0.00     0.020 A 
ATOM     87  C   UNL     1     -12.809  21.642  -2.063  1.00  0.00     0.020 A 
ATOM     88  C   UNL     1     -12.400  21.655  -3.398  1.00  0.00     0.054 A 
BRANCH  88  89
ATOM     89  S   UNL     1     -12.746  23.088  -4.454  1.00  0.00     0.124 S 
ATOM     90  O   UNL     1     -11.413  23.652  -4.649  1.00  0.00    -0.237 OA
ATOM     91  O   UNL     1     -13.349  22.476  -5.635  1.00  0.00    -0.237 OA
ATOM     92  O   UNL     1     -13.654  23.902  -3.648  1.00  0.00    -0.744 OA
ENDBRANCH  88  89
ENDBRANCH  62  83
ENDBRANCH  36  37
ENDBRANCH  28  31
ENDBRANCH  26  27
ENDBRANCH  25  26
ENDBRANCH  24  25
ENDBRANCH   1  24
TORSDOF 19
