REMARK SMILES CCc1cc(/C=C/C(=O)NCCCCCCNC(=O)c2ccc(-c3c4nc(c(-c5ccc(S(=O)(=O)[O-])cc5)c5ccc([nH]5)c(-c5ccc(S(=O)(=O)[O-])cc5)c5nc(c(-c6ccc(S(=O)(=O)[O-])cc6)c6ccc3[nH]6)C=C5)C=C4)cc2)cc(C(=O)c2ccccc2)c1
REMARK SMILES IDX 13 1 12 2 11 3 10 4 8 5 9 6 7 8 6 9 5 10 3 11 4 12 90 13
REMARK SMILES IDX 81 14 80 15 2 16 1 17 82 18 83 19 84 20 85 21 89 22 86 23
REMARK SMILES IDX 88 24 87 25 14 26 15 27 16 28 17 29 18 30 19 32 20 33 21 34
REMARK SMILES IDX 79 35 22 36 78 37 23 38 24 39 25 40 72 41 26 42 77 43 71 44
REMARK SMILES IDX 73 45 27 46 76 47 70 48 69 49 28 51 58 52 39 53 57 54 40 55
REMARK SMILES IDX 43 56 56 57 74 58 41 59 42 60 55 62 75 63 44 64 29 65 30 66
REMARK SMILES IDX 38 67 31 68 37 69 32 70 33 71 34 72 35 73 36 74 59 75 60 76
REMARK SMILES IDX 68 77 61 78 67 79 62 80 63 81 64 82 65 83 66 84 45 85 46 86
REMARK SMILES IDX 54 87 47 88 53 89 48 90 49 91 50 92 51 93 52 94
REMARK H PARENT 10 7 17 31 73 50 43 61
REMARK Flexibility Score: inf
ROOT
ATOM      1  C   UNL     1      -2.054 -10.458  -0.373  1.00  0.00     0.002 C 
ENDROOT
BRANCH   1   2
ATOM      2  C   UNL     1      -1.261  -9.144  -0.328  1.00  0.00     0.021 C 
BRANCH   2   3
ATOM      3  C   UNL     1      -0.820  -8.654  -1.708  1.00  0.00     0.116 C 
BRANCH   3   4
ATOM      4  N   UNL     1      -1.927  -8.006  -2.388  1.00  0.00    -0.353 N 
ATOM      5  C   UNL     1      -2.151  -6.709  -2.717  1.00  0.00     0.243 C 
ATOM      6  O   UNL     1      -3.166  -6.418  -3.350  1.00  0.00    -0.270 OA
ATOM      7  H   UNL     1      -2.647  -8.620  -2.661  1.00  0.00     0.163 HD
BRANCH   5   8
ATOM      8  C   UNL     1      -1.175  -5.636  -2.410  1.00  0.00     0.072 C 
ATOM      9  C   UNL     1      -0.454  -5.521  -1.286  1.00  0.00     0.014 C 
BRANCH   9  10
ATOM     10  C   UNL     1       0.469  -4.416  -0.994  1.00  0.00    -0.024 A 
ATOM     11  C   UNL     1       1.004  -2.030  -0.927  1.00  0.00    -0.047 A 
ATOM     12  C   UNL     1       0.168  -3.087  -1.323  1.00  0.00     0.011 A 
ATOM     13  C   UNL     1       2.183  -2.329  -0.234  1.00  0.00     0.016 A 
ATOM     14  C   UNL     1       2.477  -3.646   0.140  1.00  0.00     0.023 A 
ATOM     15  C   UNL     1       1.630  -4.686  -0.258  1.00  0.00     0.020 A 
BRANCH  11  16
ATOM     16  C   UNL     1       0.615  -0.607  -1.253  1.00  0.00     0.032 C 
ATOM     17  C   UNL     1       0.878   0.382  -0.121  1.00  0.00     0.009 C 
ENDBRANCH  11  16
BRANCH  14  18
ATOM     18  C   UNL     1       3.667  -3.975   0.972  1.00  0.00     0.193 C 
ATOM     19  O   UNL     1       4.159  -5.097   0.915  1.00  0.00    -0.289 OA
BRANCH  18  20
ATOM     20  C   UNL     1       4.271  -2.961   1.871  1.00  0.00     0.022 A 
ATOM     21  C   UNL     1       5.663  -2.829   1.892  1.00  0.00     0.012 A 
ATOM     22  C   UNL     1       3.475  -2.144   2.685  1.00  0.00     0.012 A 
ATOM     23  C   UNL     1       6.253  -1.843   2.683  1.00  0.00     0.001 A 
ATOM     24  C   UNL     1       4.071  -1.158   3.473  1.00  0.00     0.001 A 
ATOM     25  C   UNL     1       5.457  -1.003   3.463  1.00  0.00     0.000 A 
ENDBRANCH  18  20
ENDBRANCH  14  18
ENDBRANCH   9  10
ENDBRANCH   5   8
ENDBRANCH   3   4
ENDBRANCH   2   3
ENDBRANCH   1   2
BRANCH   1  26
ATOM     26  C   UNL     1      -1.292 -11.648  -0.972  1.00  0.00     0.002 C 
BRANCH  26  27
ATOM     27  C   UNL     1       0.065 -11.935  -0.324  1.00  0.00     0.021 C 
BRANCH  27  28
ATOM     28  C   UNL     1      -0.015 -12.289   1.157  1.00  0.00     0.116 C 
BRANCH  28  29
ATOM     29  N   UNL     1      -0.761 -13.520   1.370  1.00  0.00    -0.352 N 
ATOM     30  C   UNL     1      -0.357 -14.685   1.971  1.00  0.00     0.251 C 
ATOM     31  H   UNL     1      -1.687 -13.516   1.034  1.00  0.00     0.163 HD
ATOM     32  O   UNL     1      -1.020 -15.708   1.835  1.00  0.00    -0.269 OA
BRANCH  30  33
ATOM     33  C   UNL     1       0.881 -14.700   2.778  1.00  0.00     0.039 A 
ATOM     34  C   UNL     1       1.770 -15.767   2.640  1.00  0.00     0.014 A 
ATOM     35  C   UNL     1       1.151 -13.668   3.682  1.00  0.00     0.014 A 
ATOM     36  C   UNL     1       2.958 -15.774   3.375  1.00  0.00     0.010 A 
ATOM     37  C   UNL     1       2.367 -13.640   4.357  1.00  0.00     0.010 A 
ATOM     38  C   UNL     1       3.278 -14.698   4.219  1.00  0.00    -0.014 A 
BRANCH  38  39
ATOM     39  C   UNL     1       4.558 -14.662   4.969  1.00  0.00     0.031 A 
ATOM     40  C   UNL     1       4.554 -14.686   6.473  1.00  0.00     0.074 A 
ATOM     41  C   UNL     1       5.720 -14.547   4.295  1.00  0.00     0.049 A 
ATOM     42  N   UNL     1       5.564 -14.611   7.302  1.00  0.00    -0.248 NA
ATOM     43  C   UNL     1       3.242 -14.783   7.135  1.00  0.00     0.031 C 
ATOM     44  C   UNL     1       5.850 -14.473   2.837  1.00  0.00     0.029 A 
ATOM     45  N   UNL     1       7.013 -14.466   4.747  1.00  0.00    -0.354 N 
ATOM     46  C   UNL     1       5.010 -14.636   8.577  1.00  0.00     0.074 A 
ATOM     47  C   UNL     1       3.574 -14.681   8.413  1.00  0.00     0.031 C 
ATOM     48  C   UNL     1       7.151 -14.385   2.516  1.00  0.00     0.029 A 
ATOM     49  C   UNL     1       7.943 -14.352   3.741  1.00  0.00     0.049 A 
ATOM     50  H   UNL     1       7.252 -14.487   5.702  1.00  0.00     0.167 HD
ATOM     51  C   UNL     1       5.641 -14.640   9.775  1.00  0.00     0.031 A 
ATOM     52  C   UNL     1       9.283 -14.228   3.797  1.00  0.00     0.031 A 
ATOM     53  C   UNL     1       7.071 -14.602   9.931  1.00  0.00     0.049 A 
ATOM     54  C   UNL     1       9.960 -14.221   5.141  1.00  0.00     0.074 A 
ATOM     55  C   UNL     1       7.811 -14.657  11.099  1.00  0.00     0.029 A 
ATOM     56  N   UNL     1       7.979 -14.495   8.887  1.00  0.00    -0.354 N 
ATOM     57  N   UNL     1       9.424 -14.315   6.335  1.00  0.00    -0.248 NA
ATOM     58  C   UNL     1      11.425 -14.105   5.144  1.00  0.00     0.031 C 
ATOM     59  C   UNL     1       9.163 -14.526  10.766  1.00  0.00     0.029 A 
ATOM     60  C   UNL     1       9.270 -14.456   9.386  1.00  0.00     0.049 A 
ATOM     61  H   UNL     1       7.740 -14.452   7.933  1.00  0.00     0.167 HD
ATOM     62  C   UNL     1      10.488 -14.297   7.230  1.00  0.00     0.074 A 
ATOM     63  C   UNL     1      11.698 -14.200   6.439  1.00  0.00     0.031 C 
ATOM     64  C   UNL     1      10.465 -14.358   8.584  1.00  0.00     0.031 A 
BRANCH  51  65
ATOM     65  C   UNL     1       4.785 -14.679  11.015  1.00  0.00    -0.014 A 
ATOM     66  C   UNL     1       4.043 -15.827  11.352  1.00  0.00     0.010 A 
ATOM     67  C   UNL     1       4.750 -13.568  11.877  1.00  0.00     0.010 A 
ATOM     68  C   UNL     1       3.250 -15.846  12.502  1.00  0.00     0.020 A 
ATOM     69  C   UNL     1       3.982 -13.594  13.045  1.00  0.00     0.020 A 
ATOM     70  C   UNL     1       3.223 -14.728  13.341  1.00  0.00     0.054 A 
BRANCH  70  71
ATOM     71  S   UNL     1       2.201 -14.790  14.838  1.00  0.00     0.124 S 
ATOM     72  O   UNL     1       0.851 -14.707  14.285  1.00  0.00    -0.237 OA
ATOM     73  O   UNL     1       2.564 -16.079  15.420  1.00  0.00    -0.237 OA
ATOM     74  O   UNL     1       2.632 -13.621  15.602  1.00  0.00    -0.744 OA
ENDBRANCH  70  71
ENDBRANCH  51  65
BRANCH  52  75
ATOM     75  C   UNL     1      10.073 -14.116   2.540  1.00  0.00    -0.014 A 
ATOM     76  C   UNL     1      10.906 -15.169   2.123  1.00  0.00     0.010 A 
ATOM     77  C   UNL     1       9.983 -12.960   1.743  1.00  0.00     0.010 A 
ATOM     78  C   UNL     1      11.650 -15.061   0.945  1.00  0.00     0.020 A 
ATOM     79  C   UNL     1      10.702 -12.860   0.548  1.00  0.00     0.020 A 
ATOM     80  C   UNL     1      11.541 -13.907   0.163  1.00  0.00     0.054 A 
BRANCH  80  81
ATOM     81  S   UNL     1      12.478 -13.810  -1.388  1.00  0.00     0.124 S 
ATOM     82  O   UNL     1      13.843 -13.622  -0.906  1.00  0.00    -0.237 OA
ATOM     83  O   UNL     1      12.197 -15.103  -2.007  1.00  0.00    -0.237 OA
ATOM     84  O   UNL     1      11.890 -12.660  -2.072  1.00  0.00    -0.744 OA
ENDBRANCH  80  81
ENDBRANCH  52  75
BRANCH  64  85
ATOM     85  C   UNL     1      11.789 -14.357   9.301  1.00  0.00    -0.014 A 
ATOM     86  C   UNL     1      12.583 -13.199   9.371  1.00  0.00     0.010 A 
ATOM     87  C   UNL     1      12.218 -15.523   9.962  1.00  0.00     0.010 A 
ATOM     88  C   UNL     1      13.797 -13.216  10.063  1.00  0.00     0.020 A 
ATOM     89  C   UNL     1      13.416 -15.535  10.681  1.00  0.00     0.020 A 
ATOM     90  C   UNL     1      14.205 -14.384  10.715  1.00  0.00     0.054 A 
BRANCH  90  91
ATOM     91  S   UNL     1      15.762 -14.367  11.644  1.00  0.00     0.124 S 
ATOM     92  O   UNL     1      16.755 -14.358  10.573  1.00  0.00    -0.237 OA
ATOM     93  O   UNL     1      15.660 -13.131  12.416  1.00  0.00    -0.237 OA
ATOM     94  O   UNL     1      15.709 -15.594  12.435  1.00  0.00    -0.744 OA
ENDBRANCH  90  91
ENDBRANCH  64  85
ENDBRANCH  38  39
ENDBRANCH  30  33
ENDBRANCH  28  29
ENDBRANCH  27  28
ENDBRANCH  26  27
ENDBRANCH   1  26
TORSDOF 20
