REMARK SMILES C#CCNC(=O)C[N@@H+](CC(=O)NCCCCCCNC(=O)c1ccc(-c2c3nc(c(-c4ccc(S(=O)(=O)[O-])cc4)c4ccc([nH]4)c(-c4ccc(S(=O)(=O)[O-])cc4)c4nc(c(-c5ccc(S(=O)(=O)[O-])cc5)c5ccc2[nH]5)C=C4)C=C3)cc1)C(C)(C)C
REMARK SMILES IDX 14 1 13 2 12 3 10 4 11 5 9 7 8 8 7 10 5 11 4 12 6 14 3 15
REMARK SMILES IDX 2 16 1 17 82 18 83 19 84 20 85 21 15 22 16 23 17 24 18 25
REMARK SMILES IDX 19 26 20 27 21 29 22 30 23 31 81 32 24 33 80 34 25 35 26 36
REMARK SMILES IDX 27 37 74 38 28 39 79 40 73 41 75 42 29 43 78 44 72 45 71 46
REMARK SMILES IDX 30 48 60 49 41 50 59 51 42 52 45 53 58 54 76 55 43 56 44 57
REMARK SMILES IDX 57 59 77 60 46 61 31 62 32 63 40 64 33 65 39 66 34 67 35 68
REMARK SMILES IDX 36 69 37 70 38 71 61 72 62 73 70 74 63 75 69 76 64 77 65 78
REMARK SMILES IDX 66 79 67 80 68 81 47 82 48 83 56 84 49 85 55 86 50 87 51 88
REMARK SMILES IDX 52 89 53 90 54 91
REMARK H PARENT 12 6 8 9 4 13 19 28 75 47 45 58
REMARK Flexibility Score: inf
ROOT
ATOM      1  C   UNL     1      -6.192  -3.485  -2.270  1.00  0.00     0.021 C 
ENDROOT
BRANCH   1   2
ATOM      2  C   UNL     1      -5.875  -3.996  -0.863  1.00  0.00     0.116 C 
BRANCH   2   3
ATOM      3  N   UNL     1      -4.915  -5.083  -0.899  1.00  0.00    -0.351 N 
ATOM      4  C   UNL     1      -3.588  -5.125  -0.587  1.00  0.00     0.275 C 
ATOM      5  O   UNL     1      -3.049  -6.237  -0.608  1.00  0.00    -0.269 OA
ATOM      6  H   UNL     1      -5.288  -5.943  -1.201  1.00  0.00     0.163 HD
BRANCH   4   7
ATOM      7  C   UNL     1      -2.798  -3.879  -0.160  1.00  0.00     0.364 C 
BRANCH   7   8
ATOM      8  N   UNL     1      -2.235  -3.014  -1.238  1.00  0.00    -0.315 N 
ATOM      9  H   UNL     1      -1.563  -2.404  -0.771  1.00  0.00     0.349 HD
BRANCH   8  10
ATOM     10  C   UNL     1      -3.268  -2.127  -1.803  1.00  0.00     0.364 C 
BRANCH  10  11
ATOM     11  C   UNL     1      -2.823  -0.747  -2.268  1.00  0.00     0.275 C 
ATOM     12  N   UNL     1      -2.288   0.141  -1.390  1.00  0.00    -0.340 N 
ATOM     13  H   UNL     1      -2.181   1.060  -1.724  1.00  0.00     0.164 HD
ATOM     14  O   UNL     1      -3.056  -0.364  -3.418  1.00  0.00    -0.268 OA
BRANCH  12  15
ATOM     15  C   UNL     1      -1.857  -0.086  -0.037  1.00  0.00     0.206 C 
BRANCH  15  16
ATOM     16  C   UNL     1      -0.338  -0.086  -0.037  1.00  0.00    -0.085 C 
ATOM     17  C   UNL     1       0.966  -0.086  -0.037  1.00  0.00     0.006 C 
ENDBRANCH  15  16
ENDBRANCH  12  15
ENDBRANCH  10  11
ENDBRANCH   8  10
BRANCH   8  18
ATOM     18  C   UNL     1      -1.282  -3.643  -2.200  1.00  0.00     0.090 C 
ATOM     19  C   UNL     1      -1.924  -4.631  -3.200  1.00  0.00     0.078 C 
ATOM     20  C   UNL     1      -0.562  -2.569  -3.053  1.00  0.00     0.078 C 
ATOM     21  C   UNL     1      -0.156  -4.384  -1.437  1.00  0.00     0.078 C 
ENDBRANCH   8  18
ENDBRANCH   7   8
ENDBRANCH   4   7
ENDBRANCH   2   3
ENDBRANCH   1   2
BRANCH   1  22
ATOM     22  C   UNL     1      -7.445  -4.065  -2.922  1.00  0.00     0.002 C 
BRANCH  22  23
ATOM     23  C   UNL     1      -8.771  -3.697  -2.256  1.00  0.00     0.002 C 
BRANCH  23  24
ATOM     24  C   UNL     1      -9.015  -2.204  -2.020  1.00  0.00     0.021 C 
BRANCH  24  25
ATOM     25  C   UNL     1      -8.851  -1.298  -3.241  1.00  0.00     0.116 C 
BRANCH  25  26
ATOM     26  N   UNL     1      -9.715  -1.687  -4.341  1.00  0.00    -0.352 N 
ATOM     27  C   UNL     1     -10.746  -1.010  -4.941  1.00  0.00     0.251 C 
ATOM     28  H   UNL     1      -9.532  -2.579  -4.716  1.00  0.00     0.163 HD
ATOM     29  O   UNL     1     -11.479  -1.599  -5.730  1.00  0.00    -0.269 OA
BRANCH  27  30
ATOM     30  C   UNL     1     -10.992   0.417  -4.632  1.00  0.00     0.039 A 
ATOM     31  C   UNL     1     -12.307   0.836  -4.413  1.00  0.00     0.014 A 
ATOM     32  C   UNL     1      -9.948   1.347  -4.603  1.00  0.00     0.014 A 
ATOM     33  C   UNL     1     -12.570   2.176  -4.114  1.00  0.00     0.010 A 
ATOM     34  C   UNL     1     -10.205   2.671  -4.246  1.00  0.00     0.010 A 
ATOM     35  C   UNL     1     -11.518   3.100  -4.003  1.00  0.00    -0.014 A 
BRANCH  35  36
ATOM     36  C   UNL     1     -11.785   4.513  -3.628  1.00  0.00     0.031 A 
ATOM     37  C   UNL     1     -11.531   5.625  -4.611  1.00  0.00     0.074 A 
ATOM     38  C   UNL     1     -12.219   4.798  -2.384  1.00  0.00     0.049 A 
ATOM     39  N   UNL     1     -11.692   6.915  -4.453  1.00  0.00    -0.248 NA
ATOM     40  C   UNL     1     -11.010   5.244  -5.934  1.00  0.00     0.031 C 
ATOM     41  C   UNL     1     -12.456   3.816  -1.323  1.00  0.00     0.029 A 
ATOM     42  N   UNL     1     -12.533   5.999  -1.798  1.00  0.00    -0.354 N 
ATOM     43  C   UNL     1     -11.279   7.498  -5.645  1.00  0.00     0.074 A 
ATOM     44  C   UNL     1     -10.823   6.427  -6.504  1.00  0.00     0.031 C 
ATOM     45  C   UNL     1     -12.899   4.451  -0.225  1.00  0.00     0.029 A 
ATOM     46  C   UNL     1     -12.951   5.884  -0.492  1.00  0.00     0.049 A 
ATOM     47  H   UNL     1     -12.466   6.862  -2.268  1.00  0.00     0.167 HD
ATOM     48  C   UNL     1     -11.293   8.806  -6.000  1.00  0.00     0.031 A 
ATOM     49  C   UNL     1     -13.332   6.826   0.392  1.00  0.00     0.031 A 
ATOM     50  C   UNL     1     -11.768   9.869  -5.154  1.00  0.00     0.049 A 
ATOM     51  C   UNL     1     -13.361   8.268  -0.036  1.00  0.00     0.074 A 
ATOM     52  C   UNL     1     -11.883  11.217  -5.450  1.00  0.00     0.029 A 
ATOM     53  N   UNL     1     -12.207   9.708  -3.850  1.00  0.00    -0.354 N 
ATOM     54  N   UNL     1     -13.035   8.789  -1.195  1.00  0.00    -0.248 NA
ATOM     55  C   UNL     1     -13.826   9.245   0.958  1.00  0.00     0.031 C 
ATOM     56  C   UNL     1     -12.354  11.877  -4.310  1.00  0.00     0.029 A 
ATOM     57  C   UNL     1     -12.578  10.933  -3.321  1.00  0.00     0.049 A 
ATOM     58  H   UNL     1     -12.251   8.849  -3.370  1.00  0.00     0.167 HD
ATOM     59  C   UNL     1     -13.279  10.152  -1.076  1.00  0.00     0.074 A 
ATOM     60  C   UNL     1     -13.796  10.372   0.259  1.00  0.00     0.031 C 
ATOM     61  C   UNL     1     -13.090  11.135  -1.991  1.00  0.00     0.031 A 
BRANCH  48  62
ATOM     62  C   UNL     1     -10.784   9.166  -7.370  1.00  0.00    -0.014 A 
ATOM     63  C   UNL     1     -11.531   8.865  -8.523  1.00  0.00     0.010 A 
ATOM     64  C   UNL     1      -9.576   9.876  -7.503  1.00  0.00     0.010 A 
ATOM     65  C   UNL     1     -11.067   9.243  -9.786  1.00  0.00     0.020 A 
ATOM     66  C   UNL     1      -9.121  10.277  -8.763  1.00  0.00     0.020 A 
ATOM     67  C   UNL     1      -9.864   9.947  -9.898  1.00  0.00     0.054 A 
BRANCH  67  68
ATOM     68  S   UNL     1      -9.310  10.467 -11.546  1.00  0.00     0.124 S 
ATOM     69  O   UNL     1      -8.846   9.206 -12.119  1.00  0.00    -0.237 OA
ATOM     70  O   UNL     1     -10.529  11.014 -12.137  1.00  0.00    -0.237 OA
ATOM     71  O   UNL     1      -8.264  11.447 -11.266  1.00  0.00    -0.744 OA
ENDBRANCH  67  68
ENDBRANCH  48  62
BRANCH  49  72
ATOM     72  C   UNL     1     -13.732   6.437   1.772  1.00  0.00    -0.014 A 
ATOM     73  C   UNL     1     -15.077   6.510   2.175  1.00  0.00     0.010 A 
ATOM     74  C   UNL     1     -12.764   5.997   2.693  1.00  0.00     0.010 A 
ATOM     75  C   UNL     1     -15.443   6.179   3.482  1.00  0.00     0.020 A 
ATOM     76  C   UNL     1     -13.130   5.640   3.993  1.00  0.00     0.020 A 
ATOM     77  C   UNL     1     -14.466   5.749   4.385  1.00  0.00     0.054 A 
BRANCH  77  78
ATOM     78  S   UNL     1     -14.964   5.290   6.068  1.00  0.00     0.124 S 
ATOM     79  O   UNL     1     -15.140   6.594   6.698  1.00  0.00    -0.237 OA
ATOM     80  O   UNL     1     -16.189   4.525   5.841  1.00  0.00    -0.237 OA
ATOM     81  O   UNL     1     -13.832   4.504   6.554  1.00  0.00    -0.744 OA
ENDBRANCH  77  78
ENDBRANCH  49  72
BRANCH  61  82
ATOM     82  C   UNL     1     -13.474  12.533  -1.588  1.00  0.00    -0.014 A 
ATOM     83  C   UNL     1     -12.694  13.266  -0.676  1.00  0.00     0.010 A 
ATOM     84  C   UNL     1     -14.611  13.132  -2.158  1.00  0.00     0.010 A 
ATOM     85  C   UNL     1     -13.069  14.562  -0.311  1.00  0.00     0.020 A 
ATOM     86  C   UNL     1     -14.974  14.437  -1.815  1.00  0.00     0.020 A 
ATOM     87  C   UNL     1     -14.210  15.137  -0.879  1.00  0.00     0.054 A 
BRANCH  87  88
ATOM     88  S   UNL     1     -14.662  16.830  -0.412  1.00  0.00     0.124 S 
ATOM     89  O   UNL     1     -15.255  16.632   0.908  1.00  0.00    -0.237 OA
ATOM     90  O   UNL     1     -13.377  17.524  -0.425  1.00  0.00    -0.237 OA
ATOM     91  O   UNL     1     -15.595  17.240  -1.459  1.00  0.00    -0.744 OA
ENDBRANCH  87  88
ENDBRANCH  61  82
ENDBRANCH  35  36
ENDBRANCH  27  30
ENDBRANCH  25  26
ENDBRANCH  24  25
ENDBRANCH  23  24
ENDBRANCH  22  23
ENDBRANCH   1  22
TORSDOF 22
