REMARK SMILES O=C(NCCCCCCNC(=O)c1cccn2c(=O)c3ccc(Cl)cc3nc12)c1ccc(-c2c3nc(c(-c4ccc(S(=O)(=O)[O-])cc4)c4ccc([nH]4)c(-c4ccc(S(=O)(=O)[O-])cc4)c4nc(c(-c5ccc(S(=O)(=O)[O-])cc5)c5ccc2[nH]5)C=C4)C=C3)cc1
REMARK SMILES IDX 5 1 4 2 3 3 1 4 2 5 29 7 30 8 88 9 31 10 87 11 32 12 33 13
REMARK SMILES IDX 34 14 81 15 35 16 86 17 80 18 82 19 36 20 85 21 79 22 78 23
REMARK SMILES IDX 37 25 67 26 48 27 66 28 49 29 52 30 65 31 83 32 50 33 51 34
REMARK SMILES IDX 64 36 84 37 53 38 38 39 39 40 47 41 40 42 46 43 41 44 42 45
REMARK SMILES IDX 43 46 44 47 45 48 68 49 69 50 77 51 70 52 76 53 71 54 72 55
REMARK SMILES IDX 73 56 74 57 75 58 54 59 55 60 63 61 56 62 62 63 57 64 58 65
REMARK SMILES IDX 59 66 60 67 61 68 6 69 7 70 8 71 9 72 10 73 11 74 12 76
REMARK SMILES IDX 13 77 14 78 28 79 15 80 17 81 27 82 16 83 18 84 26 85 19 86
REMARK SMILES IDX 20 87 25 88 21 89 23 90 22 91 24 92
REMARK H PARENT 3 6 82 24 52 35 10 75
REMARK Flexibility Score: inf
ROOT
ATOM      1  C   UNL     1       4.732   0.945  -2.502  1.00  0.00     0.021 C 
ENDROOT
BRANCH   1   2
ATOM      2  C   UNL     1       4.448   0.799  -1.013  1.00  0.00     0.116 C 
BRANCH   2   3
ATOM      3  N   UNL     1       3.026   0.806  -0.715  1.00  0.00    -0.352 N 
ATOM      4  O   UNL     1       1.067   0.001   0.046  1.00  0.00    -0.269 OA
ATOM      5  C   UNL     1       2.296  -0.070   0.048  1.00  0.00     0.251 C 
ATOM      6  H   UNL     1       2.514   1.545  -1.117  1.00  0.00     0.163 HD
BRANCH   5   7
ATOM      7  C   UNL     1       2.978  -1.106   0.854  1.00  0.00     0.039 A 
ATOM      8  C   UNL     1       2.425  -2.386   0.915  1.00  0.00     0.014 A 
ATOM      9  C   UNL     1       4.146  -0.816   1.567  1.00  0.00     0.014 A 
ATOM     10  C   UNL     1       3.059  -3.378   1.667  1.00  0.00     0.010 A 
ATOM     11  C   UNL     1       4.829  -1.831   2.230  1.00  0.00     0.010 A 
ATOM     12  C   UNL     1       4.277  -3.115   2.317  1.00  0.00    -0.014 A 
BRANCH  12  13
ATOM     13  C   UNL     1       4.950  -4.165   3.127  1.00  0.00     0.031 A 
ATOM     14  C   UNL     1       5.150  -3.969   4.607  1.00  0.00     0.074 A 
ATOM     15  C   UNL     1       5.386  -5.293   2.532  1.00  0.00     0.049 A 
ATOM     16  N   UNL     1       5.677  -4.788   5.481  1.00  0.00    -0.248 NA
ATOM     17  C   UNL     1       4.726  -2.680   5.179  1.00  0.00     0.031 C 
ATOM     18  C   UNL     1       5.293  -5.578   1.099  1.00  0.00     0.029 A 
ATOM     19  N   UNL     1       5.973  -6.417   3.058  1.00  0.00    -0.354 N 
ATOM     20  C   UNL     1       5.639  -4.118   6.698  1.00  0.00     0.074 A 
ATOM     21  C   UNL     1       5.125  -2.794   6.437  1.00  0.00     0.031 C 
ATOM     22  C   UNL     1       5.750  -6.818   0.869  1.00  0.00     0.029 A 
ATOM     23  C   UNL     1       6.208  -7.402   2.128  1.00  0.00     0.049 A 
ATOM     24  H   UNL     1       6.205  -6.508   4.011  1.00  0.00     0.167 HD
ATOM     25  C   UNL     1       5.956  -4.578   7.931  1.00  0.00     0.031 A 
ATOM     26  C   UNL     1       6.718  -8.643   2.267  1.00  0.00     0.031 A 
ATOM     27  C   UNL     1       6.456  -5.904   8.186  1.00  0.00     0.049 A 
ATOM     28  C   UNL     1       7.080  -9.133   3.641  1.00  0.00     0.074 A 
ATOM     29  C   UNL     1       6.776  -6.479   9.403  1.00  0.00     0.029 A 
ATOM     30  N   UNL     1       6.704  -6.862   7.213  1.00  0.00    -0.354 N 
ATOM     31  N   UNL     1       6.979  -8.506   4.790  1.00  0.00    -0.248 NA
ATOM     32  C   UNL     1       7.607 -10.500   3.743  1.00  0.00     0.031 C 
ATOM     33  C   UNL     1       7.284  -7.758   9.159  1.00  0.00     0.029 A 
ATOM     34  C   UNL     1       7.205  -8.014   7.799  1.00  0.00     0.049 A 
ATOM     35  H   UNL     1       6.547  -6.742   6.249  1.00  0.00     0.167 HD
ATOM     36  C   UNL     1       7.429  -9.402   5.753  1.00  0.00     0.074 A 
ATOM     37  C   UNL     1       7.763 -10.628   5.055  1.00  0.00     0.031 C 
ATOM     38  C   UNL     1       7.564  -9.220   7.091  1.00  0.00     0.031 A 
BRANCH  25  39
ATOM     39  C   UNL     1       5.737  -3.655   9.106  1.00  0.00    -0.014 A 
ATOM     40  C   UNL     1       6.826  -3.236   9.891  1.00  0.00     0.010 A 
ATOM     41  C   UNL     1       4.438  -3.266   9.483  1.00  0.00     0.010 A 
ATOM     42  C   UNL     1       6.620  -2.468  11.041  1.00  0.00     0.020 A 
ATOM     43  C   UNL     1       4.230  -2.466  10.610  1.00  0.00     0.020 A 
ATOM     44  C   UNL     1       5.321  -2.093  11.396  1.00  0.00     0.054 A 
BRANCH  44  45
ATOM     45  S   UNL     1       5.072  -1.108  12.899  1.00  0.00     0.124 S 
ATOM     46  O   UNL     1       5.296  -2.092  13.952  1.00  0.00    -0.237 OA
ATOM     47  O   UNL     1       6.094  -0.072  12.773  1.00  0.00    -0.237 OA
ATOM     48  O   UNL     1       3.696  -0.630  12.771  1.00  0.00    -0.744 OA
ENDBRANCH  44  45
ENDBRANCH  25  39
BRANCH  26  49
ATOM     49  C   UNL     1       6.840  -9.508   1.059  1.00  0.00    -0.014 A 
ATOM     50  C   UNL     1       7.733  -9.164   0.026  1.00  0.00     0.010 A 
ATOM     51  C   UNL     1       5.973 -10.599   0.874  1.00  0.00     0.010 A 
ATOM     52  C   UNL     1       7.697  -9.838  -1.197  1.00  0.00     0.020 A 
ATOM     53  C   UNL     1       5.958 -11.299  -0.337  1.00  0.00     0.020 A 
ATOM     54  C   UNL     1       6.793 -10.886  -1.378  1.00  0.00     0.054 A 
BRANCH  54  55
ATOM     55  S   UNL     1       6.683 -11.664  -3.014  1.00  0.00     0.124 S 
ATOM     56  O   UNL     1       6.023 -10.621  -3.795  1.00  0.00    -0.237 OA
ATOM     57  O   UNL     1       8.085 -11.905  -3.345  1.00  0.00    -0.237 OA
ATOM     58  O   UNL     1       5.885 -12.863  -2.772  1.00  0.00    -0.744 OA
ENDBRANCH  54  55
ENDBRANCH  26  49
BRANCH  38  59
ATOM     59  C   UNL     1       8.139 -10.356   7.901  1.00  0.00    -0.014 A 
ATOM     60  C   UNL     1       7.358 -10.988   8.888  1.00  0.00     0.010 A 
ATOM     61  C   UNL     1       9.487 -10.731   7.756  1.00  0.00     0.010 A 
ATOM     62  C   UNL     1       7.920 -11.952   9.729  1.00  0.00     0.020 A 
ATOM     63  C   UNL     1      10.042 -11.722   8.570  1.00  0.00     0.020 A 
ATOM     64  C   UNL     1       9.261 -12.310   9.567  1.00  0.00     0.054 A 
BRANCH  64  65
ATOM     65  S   UNL     1       9.973 -13.561  10.670  1.00  0.00     0.124 S 
ATOM     66  O   UNL     1      10.141 -12.816  11.913  1.00  0.00    -0.237 OA
ATOM     67  O   UNL     1       8.942 -14.596  10.689  1.00  0.00    -0.237 OA
ATOM     68  O   UNL     1      11.214 -13.944   9.998  1.00  0.00    -0.744 OA
ENDBRANCH  64  65
ENDBRANCH  38  59
ENDBRANCH  12  13
ENDBRANCH   5   7
ENDBRANCH   2   3
ENDBRANCH   1   2
BRANCH   1  69
ATOM     69  C   UNL     1       4.260   2.259  -3.124  1.00  0.00     0.002 C 
BRANCH  69  70
ATOM     70  C   UNL     1       4.791   3.532  -2.457  1.00  0.00     0.002 C 
BRANCH  70  71
ATOM     71  C   UNL     1       6.313   3.621  -2.319  1.00  0.00     0.021 C 
BRANCH  71  72
ATOM     72  C   UNL     1       7.095   3.435  -3.615  1.00  0.00     0.116 C 
BRANCH  72  73
ATOM     73  N   UNL     1       6.773   4.447  -4.609  1.00  0.00    -0.352 N 
ATOM     74  C   UNL     1       7.609   5.258  -5.327  1.00  0.00     0.255 C 
ATOM     75  H   UNL     1       5.813   4.566  -4.791  1.00  0.00     0.163 HD
ATOM     76  O   UNL     1       7.138   6.071  -6.118  1.00  0.00    -0.269 OA
BRANCH  74  77
ATOM     77  C   UNL     1       9.072   5.098  -5.157  1.00  0.00     0.083 A 
ATOM     78  C   UNL     1       9.620   3.914  -5.479  1.00  0.00     0.019 A 
ATOM     79  C   UNL     1       9.956   6.232  -4.733  1.00  0.00     0.153 A 
ATOM     80  C   UNL     1      11.026   3.681  -5.304  1.00  0.00     0.019 A 
ATOM     81  N   UNL     1      11.322   5.947  -4.614  1.00  0.00    -0.267 N 
ATOM     82  N   UNL     1       9.453   7.403  -4.487  1.00  0.00    -0.229 NA
ATOM     83  C   UNL     1      11.815   4.673  -4.883  1.00  0.00     0.096 A 
ATOM     84  C   UNL     1      12.231   6.933  -4.219  1.00  0.00     0.265 A 
ATOM     85  C   UNL     1      10.306   8.453  -4.138  1.00  0.00     0.080 A 
ATOM     86  O   UNL     1      13.439   6.756  -4.064  1.00  0.00    -0.268 OA
ATOM     87  C   UNL     1      11.679   8.278  -3.991  1.00  0.00     0.066 A 
ATOM     88  C   UNL     1       9.763   9.728  -3.955  1.00  0.00     0.049 A 
ATOM     89  C   UNL     1      12.514   9.354  -3.660  1.00  0.00     0.017 A 
ATOM     90  C   UNL     1      10.590  10.805  -3.632  1.00  0.00     0.043 A 
ATOM     91  C   UNL     1      11.964  10.623  -3.482  1.00  0.00     0.021 A 
ATOM     92  Cl  UNL     1       9.913  12.374  -3.427  1.00  0.00    -0.084 Cl
ENDBRANCH  74  77
ENDBRANCH  72  73
ENDBRANCH  71  72
ENDBRANCH  70  71
ENDBRANCH  69  70
ENDBRANCH   1  69
TORSDOF 16
