REMARK SMILES CC[C@@H](NC(=O)c1ccc(CNC(=O)[C@H]2CCCO2)cc1)C(=O)NCCCCCCNC(=O)c1ccc(-c2c3nc(c(-c4ccc(S(=O)(=O)[O-])cc4)c4ccc([nH]4)c(-c4ccc(S(=O)(=O)[O-])cc4)c4nc(c(-c5ccc(S(=O)(=O)[O-])cc5)c5ccc2[nH]5)C=C4)C=C3)cc1
REMARK SMILES IDX 26 1 25 2 24 3 22 4 23 5 3 7 2 8 1 9 4 10 5 11 6 13 7 14
REMARK SMILES IDX 8 15 21 16 9 17 20 18 10 19 11 20 12 21 13 22 14 24 15 25
REMARK SMILES IDX 16 26 19 27 17 28 18 29 27 30 28 31 29 32 30 33 31 34 32 35
REMARK SMILES IDX 33 37 34 38 35 39 93 40 36 41 92 42 37 43 38 44 39 45 86 46
REMARK SMILES IDX 40 47 91 48 85 49 87 50 41 51 90 52 84 53 83 54 42 56 72 57
REMARK SMILES IDX 53 58 71 59 54 60 57 61 70 62 88 63 55 64 56 65 69 67 89 68
REMARK SMILES IDX 58 69 43 70 44 71 52 72 45 73 51 74 46 75 47 76 48 77 49 78
REMARK SMILES IDX 50 79 73 80 74 81 82 82 75 83 81 84 76 85 77 86 78 87 79 88
REMARK SMILES IDX 80 89 59 90 60 91 68 92 61 93 67 94 62 95 63 96 64 97 65 98
REMARK SMILES IDX 66 99
REMARK H PARENT 24 6 4 12 12 23 31 36 87 55 57 66
REMARK Flexibility Score: inf
ROOT
ATOM      1  C   UNL     1     -10.229   1.330  -9.451  1.00  0.00     0.021 C 
ENDROOT
BRANCH   1   2
ATOM      2  C   UNL     1     -10.291   0.511  -8.172  1.00  0.00     0.116 C 
BRANCH   2   3
ATOM      3  N   UNL     1     -10.668   1.365  -7.061  1.00  0.00    -0.354 N 
ATOM      4  C   UNL     1     -11.466   1.091  -5.995  1.00  0.00     0.242 C 
ATOM      5  O   UNL     1     -11.796   2.025  -5.258  1.00  0.00    -0.273 OA
ATOM      6  H   UNL     1     -10.291   2.274  -7.082  1.00  0.00     0.163 HD
BRANCH   4   7
ATOM      7  C   UNL     1     -12.047  -0.318  -5.794  1.00  0.00     0.171 C 
BRANCH   7   8
ATOM      8  C   UNL     1     -13.245  -0.402  -6.777  1.00  0.00     0.032 C 
ATOM      9  C   UNL     1     -14.013  -1.710  -6.802  1.00  0.00     0.006 C 
ENDBRANCH   7   8
BRANCH   7  10
ATOM     10  N   UNL     1     -11.082  -1.425  -5.940  1.00  0.00    -0.340 N 
ATOM     11  C   UNL     1      -9.841  -1.624  -5.365  1.00  0.00     0.251 C 
ATOM     12  H   UNL     1     -11.370  -2.142  -6.550  1.00  0.00     0.164 HD
ATOM     13  O   UNL     1      -9.382  -2.763  -5.311  1.00  0.00    -0.269 OA
BRANCH  11  14
ATOM     14  C   UNL     1      -8.965  -0.484  -5.001  1.00  0.00     0.039 A 
ATOM     15  C   UNL     1      -7.781  -0.326  -5.734  1.00  0.00     0.014 A 
ATOM     16  C   UNL     1      -9.315   0.472  -4.053  1.00  0.00     0.014 A 
ATOM     17  C   UNL     1      -7.046   0.862  -5.644  1.00  0.00     0.006 A 
ATOM     18  C   UNL     1      -8.584   1.668  -3.975  1.00  0.00     0.006 A 
ATOM     19  C   UNL     1      -7.470   1.900  -4.803  1.00  0.00    -0.029 A 
BRANCH  19  20
ATOM     20  C   UNL     1      -6.853   3.284  -4.865  1.00  0.00     0.151 C 
BRANCH  20  21
ATOM     21  N   UNL     1      -5.425   3.259  -5.093  1.00  0.00    -0.350 N 
ATOM     22  C   UNL     1      -4.591   3.756  -6.038  1.00  0.00     0.249 C 
ATOM     23  H   UNL     1      -4.943   2.763  -4.393  1.00  0.00     0.163 HD
ATOM     24  O   UNL     1      -3.388   3.539  -5.827  1.00  0.00    -0.272 OA
BRANCH  22  25
ATOM     25  C   UNL     1      -4.992   4.580  -7.283  1.00  0.00     0.207 C 
ATOM     26  C   UNL     1      -6.370   4.454  -7.904  1.00  0.00     0.044 C 
ATOM     27  O   UNL     1      -4.773   5.986  -7.058  1.00  0.00    -0.368 OA
ATOM     28  C   UNL     1      -7.027   5.779  -7.599  1.00  0.00     0.032 C 
ATOM     29  C   UNL     1      -5.846   6.713  -7.663  1.00  0.00     0.161 C 
ENDBRANCH  22  25
ENDBRANCH  20  21
ENDBRANCH  19  20
ENDBRANCH  11  14
ENDBRANCH   7  10
ENDBRANCH   4   7
ENDBRANCH   2   3
ENDBRANCH   1   2
BRANCH   1  30
ATOM     30  C   UNL     1      -9.034   2.287  -9.476  1.00  0.00     0.002 C 
BRANCH  30  31
ATOM     31  C   UNL     1      -7.677   1.583  -9.376  1.00  0.00     0.002 C 
BRANCH  31  32
ATOM     32  C   UNL     1      -7.415   0.529 -10.442  1.00  0.00     0.021 C 
BRANCH  32  33
ATOM     33  C   UNL     1      -7.588   1.061 -11.855  1.00  0.00     0.116 C 
BRANCH  33  34
ATOM     34  N   UNL     1      -6.756   2.230 -12.107  1.00  0.00    -0.352 N 
ATOM     35  C   UNL     1      -5.959   2.491 -13.190  1.00  0.00     0.251 C 
ATOM     36  H   UNL     1      -6.768   2.922 -11.408  1.00  0.00     0.163 HD
ATOM     37  O   UNL     1      -5.173   3.434 -13.168  1.00  0.00    -0.269 OA
BRANCH  35  38
ATOM     38  C   UNL     1      -6.060   1.613 -14.368  1.00  0.00     0.039 A 
ATOM     39  C   UNL     1      -4.894   1.165 -14.988  1.00  0.00     0.014 A 
ATOM     40  C   UNL     1      -7.316   1.213 -14.833  1.00  0.00     0.014 A 
ATOM     41  C   UNL     1      -4.994   0.284 -16.064  1.00  0.00     0.010 A 
ATOM     42  C   UNL     1      -7.407   0.253 -15.827  1.00  0.00     0.010 A 
ATOM     43  C   UNL     1      -6.250  -0.191 -16.479  1.00  0.00    -0.014 A 
BRANCH  43  44
ATOM     44  C   UNL     1      -6.381  -1.101 -17.640  1.00  0.00     0.031 A 
ATOM     45  C   UNL     1      -7.145  -0.646 -18.856  1.00  0.00     0.074 A 
ATOM     46  C   UNL     1      -5.855  -2.340 -17.584  1.00  0.00     0.049 A 
ATOM     47  N   UNL     1      -7.389  -1.292 -19.966  1.00  0.00    -0.248 NA
ATOM     48  C   UNL     1      -7.744   0.700 -18.807  1.00  0.00     0.031 C 
ATOM     49  C   UNL     1      -5.135  -2.906 -16.440  1.00  0.00     0.029 A 
ATOM     50  N   UNL     1      -5.839  -3.344 -18.516  1.00  0.00    -0.354 N 
ATOM     51  C   UNL     1      -8.183  -0.444 -20.729  1.00  0.00     0.074 A 
ATOM     52  C   UNL     1      -8.438   0.733 -19.933  1.00  0.00     0.031 C 
ATOM     53  C   UNL     1      -4.706  -4.138 -16.758  1.00  0.00     0.029 A 
ATOM     54  C   UNL     1      -5.155  -4.464 -18.108  1.00  0.00     0.049 A 
ATOM     55  H   UNL     1      -6.276  -3.270 -19.395  1.00  0.00     0.167 HD
ATOM     56  C   UNL     1      -8.637  -0.617 -21.992  1.00  0.00     0.031 A 
ATOM     57  C   UNL     1      -4.912  -5.621 -18.754  1.00  0.00     0.031 A 
ATOM     58  C   UNL     1      -8.357  -1.782 -22.786  1.00  0.00     0.049 A 
ATOM     59  C   UNL     1      -5.422  -5.787 -20.160  1.00  0.00     0.074 A 
ATOM     60  C   UNL     1      -8.710  -2.033 -24.100  1.00  0.00     0.029 A 
ATOM     61  N   UNL     1      -7.655  -2.892 -22.339  1.00  0.00    -0.354 N 
ATOM     62  N   UNL     1      -6.109  -4.944 -20.895  1.00  0.00    -0.248 NA
ATOM     63  C   UNL     1      -5.104  -7.054 -20.832  1.00  0.00     0.031 C 
ATOM     64  C   UNL     1      -8.274  -3.320 -24.428  1.00  0.00     0.029 A 
ATOM     65  C   UNL     1      -7.586  -3.842 -23.343  1.00  0.00     0.049 A 
ATOM     66  H   UNL     1      -7.264  -2.989 -21.441  1.00  0.00     0.167 HD
ATOM     67  C   UNL     1      -6.271  -5.563 -22.130  1.00  0.00     0.074 A 
ATOM     68  C   UNL     1      -5.601  -6.845 -22.043  1.00  0.00     0.031 C 
ATOM     69  C   UNL     1      -6.911  -5.111 -23.237  1.00  0.00     0.031 A 
BRANCH  56  70
ATOM     70  C   UNL     1      -9.490   0.475 -22.584  1.00  0.00    -0.014 A 
ATOM     71  C   UNL     1      -8.958   1.745 -22.878  1.00  0.00     0.010 A 
ATOM     72  C   UNL     1     -10.842   0.220 -22.875  1.00  0.00     0.010 A 
ATOM     73  C   UNL     1      -9.772   2.750 -23.407  1.00  0.00     0.020 A 
ATOM     74  C   UNL     1     -11.652   1.211 -23.436  1.00  0.00     0.020 A 
ATOM     75  C   UNL     1     -11.115   2.477 -23.681  1.00  0.00     0.054 A 
BRANCH  75  76
ATOM     76  S   UNL     1     -12.143   3.793 -24.387  1.00  0.00     0.124 S 
ATOM     77  O   UNL     1     -12.298   4.697 -23.250  1.00  0.00    -0.237 OA
ATOM     78  O   UNL     1     -11.312   4.295 -25.479  1.00  0.00    -0.237 OA
ATOM     79  O   UNL     1     -13.360   3.100 -24.801  1.00  0.00    -0.744 OA
ENDBRANCH  75  76
ENDBRANCH  56  70
BRANCH  57  80
ATOM     80  C   UNL     1      -4.117  -6.692 -18.094  1.00  0.00    -0.014 A 
ATOM     81  C   UNL     1      -2.827  -7.010 -18.555  1.00  0.00     0.010 A 
ATOM     82  C   UNL     1      -4.642  -7.398 -16.995  1.00  0.00     0.010 A 
ATOM     83  C   UNL     1      -2.087  -8.030 -17.948  1.00  0.00     0.020 A 
ATOM     84  C   UNL     1      -3.893  -8.396 -16.366  1.00  0.00     0.020 A 
ATOM     85  C   UNL     1      -2.626  -8.716 -16.856  1.00  0.00     0.054 A 
BRANCH  85  86
ATOM     86  S   UNL     1      -1.631 -10.009 -16.061  1.00  0.00     0.124 S 
ATOM     87  O   UNL     1      -1.661 -11.072 -17.061  1.00  0.00    -0.237 OA
ATOM     88  O   UNL     1      -0.343  -9.346 -15.878  1.00  0.00    -0.237 OA
ATOM     89  O   UNL     1      -2.361 -10.290 -14.827  1.00  0.00    -0.744 OA
ENDBRANCH  85  86
ENDBRANCH  57  80
BRANCH  69  90
ATOM     90  C   UNL     1      -6.869  -5.982 -24.465  1.00  0.00    -0.014 A 
ATOM     91  C   UNL     1      -7.570  -7.199 -24.530  1.00  0.00     0.010 A 
ATOM     92  C   UNL     1      -6.144  -5.548 -25.590  1.00  0.00     0.010 A 
ATOM     93  C   UNL     1      -7.507  -7.987 -25.683  1.00  0.00     0.020 A 
ATOM     94  C   UNL     1      -6.108  -6.315 -26.756  1.00  0.00     0.020 A 
ATOM     95  C   UNL     1      -6.775  -7.540 -26.787  1.00  0.00     0.054 A 
BRANCH  95  96
ATOM     96  S   UNL     1      -6.730  -8.570 -28.279  1.00  0.00     0.124 S 
ATOM     97  O   UNL     1      -5.862  -9.668 -27.864  1.00  0.00    -0.237 OA
ATOM     98  O   UNL     1      -8.136  -8.917 -28.470  1.00  0.00    -0.237 OA
ATOM     99  O   UNL     1      -6.169  -7.683 -29.296  1.00  0.00    -0.744 OA
ENDBRANCH  95  96
ENDBRANCH  69  90
ENDBRANCH  43  44
ENDBRANCH  35  38
ENDBRANCH  33  34
ENDBRANCH  32  33
ENDBRANCH  31  32
ENDBRANCH  30  31
ENDBRANCH   1  30
TORSDOF 22
