REMARK SMILES [NH3+]CCOCC(=O)N[C@H](C(=O)NCCCCCCNC(=O)c1ccc(-c2c3nc(c(-c4ccc(S(=O)(=O)[O-])cc4)c4ccc([nH]4)c(-c4ccc(S(=O)(=O)[O-])cc4)c4nc(c(-c5ccc(S(=O)(=O)[O-])cc5)c5ccc2[nH]5)C=C4)C=C3)cc1)C1CCCCC1
REMARK SMILES IDX 14 1 13 2 12 3 10 4 11 5 9 7 8 8 6 9 7 10 5 12 4 13 3 14
REMARK SMILES IDX 2 15 1 16 82 20 83 21 87 22 84 23 86 24 85 25 15 26 16 27
REMARK SMILES IDX 17 28 18 29 19 30 20 31 21 33 22 34 23 35 81 36 24 37 80 38
REMARK SMILES IDX 25 39 26 40 27 41 74 42 28 43 79 44 73 45 75 46 29 47 78 48
REMARK SMILES IDX 72 49 71 50 30 52 60 53 41 54 59 55 42 56 45 57 58 58 76 59
REMARK SMILES IDX 43 60 44 61 57 63 77 64 46 65 31 66 32 67 40 68 33 69 39 70
REMARK SMILES IDX 34 71 35 72 36 73 37 74 38 75 61 76 62 77 70 78 63 79 69 80
REMARK SMILES IDX 64 81 65 82 66 83 67 84 68 85 47 86 48 87 56 88 49 89 55 90
REMARK SMILES IDX 50 91 51 92 52 93 53 94 54 95
REMARK H PARENT 12 6 8 11 1 17 1 18 1 19 19 32 75 51 45 62
REMARK Flexibility Score: inf
ROOT
ATOM      1  C   UNL     1       0.672   0.477   1.204  1.00  0.00     0.021 C 
ENDROOT
BRANCH   1   2
ATOM      2  C   UNL     1       1.496  -0.183   2.309  1.00  0.00     0.116 C 
BRANCH   2   3
ATOM      3  N   UNL     1       2.827   0.395   2.390  1.00  0.00    -0.354 N 
ATOM      4  C   UNL     1       3.351   1.277   3.298  1.00  0.00     0.242 C 
ATOM      5  O   UNL     1       4.513   1.648   3.134  1.00  0.00    -0.273 OA
ATOM      6  H   UNL     1       3.448   0.109   1.682  1.00  0.00     0.163 HD
BRANCH   4   7
ATOM      7  C   UNL     1       2.525   1.630   4.552  1.00  0.00     0.174 C 
BRANCH   7   8
ATOM      8  N   UNL     1       2.820   0.558   5.527  1.00  0.00    -0.342 N 
ATOM      9  C   UNL     1       3.808   0.376   6.445  1.00  0.00     0.246 C 
ATOM     10  O   UNL     1       3.977  -0.772   6.872  1.00  0.00    -0.272 OA
ATOM     11  H   UNL     1       2.165  -0.176   5.509  1.00  0.00     0.164 HD
BRANCH   9  12
ATOM     12  C   UNL     1       4.650   1.528   7.017  1.00  0.00     0.260 C 
BRANCH  12  13
ATOM     13  O   UNL     1       5.580   2.223   6.213  1.00  0.00    -0.366 OA
BRANCH  13  14
ATOM     14  C   UNL     1       6.511   1.402   5.509  1.00  0.00     0.222 C 
BRANCH  14  15
ATOM     15  C   UNL     1       7.828   1.222   6.277  1.00  0.00     0.287 C 
BRANCH  15  16
ATOM     16  N   UNL     1       7.707   0.467   7.527  1.00  0.00    -0.356 N 
ATOM     17  H   UNL     1       8.623   0.395   7.970  1.00  0.00     0.344 HD
ATOM     18  H   UNL     1       7.351  -0.467   7.326  1.00  0.00     0.344 HD
ATOM     19  H   UNL     1       7.063   0.949   8.154  1.00  0.00     0.344 HD
ENDBRANCH  15  16
ENDBRANCH  14  15
ENDBRANCH  13  14
ENDBRANCH  12  13
ENDBRANCH   9  12
ENDBRANCH   7   8
BRANCH   7  20
ATOM     20  C   UNL     1       2.679   3.068   5.061  1.00  0.00     0.021 C 
ATOM     21  C   UNL     1       2.584   4.152   3.975  1.00  0.00     0.006 C 
ATOM     22  C   UNL     1       1.623   3.361   6.145  1.00  0.00     0.006 C 
ATOM     23  C   UNL     1       2.869   5.522   4.597  1.00  0.00     0.000 C 
ATOM     24  C   UNL     1       1.863   4.722   6.787  1.00  0.00     0.000 C 
ATOM     25  C   UNL     1       1.915   5.838   5.747  1.00  0.00     0.000 C 
ENDBRANCH   7  20
ENDBRANCH   4   7
ENDBRANCH   2   3
ENDBRANCH   1   2
BRANCH   1  26
ATOM     26  C   UNL     1       1.213   0.230  -0.211  1.00  0.00     0.002 C 
BRANCH  26  27
ATOM     27  C   UNL     1       1.392  -1.244  -0.593  1.00  0.00     0.002 C 
BRANCH  27  28
ATOM     28  C   UNL     1       0.140  -2.110  -0.441  1.00  0.00     0.021 C 
BRANCH  28  29
ATOM     29  C   UNL     1      -1.050  -1.658  -1.280  1.00  0.00     0.116 C 
BRANCH  29  30
ATOM     30  N   UNL     1      -0.777  -1.745  -2.706  1.00  0.00    -0.352 N 
ATOM     31  C   UNL     1      -1.487  -2.391  -3.689  1.00  0.00     0.251 C 
ATOM     32  H   UNL     1       0.032  -1.274  -3.010  1.00  0.00     0.163 HD
ATOM     33  O   UNL     1      -1.002  -2.528  -4.805  1.00  0.00    -0.269 OA
BRANCH  31  34
ATOM     34  C   UNL     1      -2.830  -2.935  -3.386  1.00  0.00     0.039 A 
ATOM     35  C   UNL     1      -3.156  -4.217  -3.833  1.00  0.00     0.014 A 
ATOM     36  C   UNL     1      -3.761  -2.183  -2.665  1.00  0.00     0.014 A 
ATOM     37  C   UNL     1      -4.397  -4.768  -3.503  1.00  0.00     0.010 A 
ATOM     38  C   UNL     1      -4.964  -2.763  -2.272  1.00  0.00     0.010 A 
ATOM     39  C   UNL     1      -5.297  -4.060  -2.689  1.00  0.00    -0.014 A 
BRANCH  39  40
ATOM     40  C   UNL     1      -6.588  -4.661  -2.264  1.00  0.00     0.031 A 
ATOM     41  C   UNL     1      -7.891  -4.038  -2.687  1.00  0.00     0.074 A 
ATOM     42  C   UNL     1      -6.586  -5.735  -1.448  1.00  0.00     0.049 A 
ATOM     43  N   UNL     1      -9.112  -4.388  -2.373  1.00  0.00    -0.248 NA
ATOM     44  C   UNL     1      -7.813  -2.853  -3.557  1.00  0.00     0.031 C 
ATOM     45  C   UNL     1      -5.390  -6.410  -0.938  1.00  0.00     0.029 A 
ATOM     46  N   UNL     1      -7.625  -6.446  -0.900  1.00  0.00    -0.354 N 
ATOM     47  C   UNL     1      -9.944  -3.464  -2.994  1.00  0.00     0.074 A 
ATOM     48  C   UNL     1      -9.088  -2.505  -3.658  1.00  0.00     0.031 C 
ATOM     49  C   UNL     1      -5.763  -7.454  -0.179  1.00  0.00     0.029 A 
ATOM     50  C   UNL     1      -7.220  -7.495  -0.108  1.00  0.00     0.049 A 
ATOM     51  H   UNL     1      -8.571  -6.226  -1.060  1.00  0.00     0.167 HD
ATOM     52  C   UNL     1     -11.298  -3.427  -3.028  1.00  0.00     0.031 A 
ATOM     53  C   UNL     1      -7.938  -8.386   0.604  1.00  0.00     0.031 A 
ATOM     54  C   UNL     1     -12.146  -4.385  -2.370  1.00  0.00     0.049 A 
ATOM     55  C   UNL     1      -9.440  -8.307   0.573  1.00  0.00     0.074 A 
ATOM     56  C   UNL     1     -13.528  -4.462  -2.384  1.00  0.00     0.029 A 
ATOM     57  N   UNL     1     -11.696  -5.430  -1.577  1.00  0.00    -0.354 N 
ATOM     58  N   UNL     1     -10.208  -7.463  -0.074  1.00  0.00    -0.248 NA
ATOM     59  C   UNL     1     -10.173  -9.309   1.359  1.00  0.00     0.031 C 
ATOM     60  C   UNL     1     -13.916  -5.515  -1.550  1.00  0.00     0.029 A 
ATOM     61  C   UNL     1     -12.774  -6.140  -1.073  1.00  0.00     0.049 A 
ATOM     62  H   UNL     1     -10.751  -5.638  -1.398  1.00  0.00     0.167 HD
ATOM     63  C   UNL     1     -11.515  -7.852   0.203  1.00  0.00     0.074 A 
ATOM     64  C   UNL     1     -11.431  -9.016   1.061  1.00  0.00     0.031 C 
ATOM     65  C   UNL     1     -12.678  -7.297  -0.219  1.00  0.00     0.031 A 
BRANCH  52  66
ATOM     66  C   UNL     1     -11.948  -2.306  -3.797  1.00  0.00    -0.014 A 
ATOM     67  C   UNL     1     -11.864  -2.241  -5.201  1.00  0.00     0.010 A 
ATOM     68  C   UNL     1     -12.695  -1.329  -3.114  1.00  0.00     0.010 A 
ATOM     69  C   UNL     1     -12.479  -1.200  -5.901  1.00  0.00     0.020 A 
ATOM     70  C   UNL     1     -13.339  -0.303  -3.812  1.00  0.00     0.020 A 
ATOM     71  C   UNL     1     -13.212  -0.236  -5.201  1.00  0.00     0.054 A 
BRANCH  71  72
ATOM     72  S   UNL     1     -14.021   1.088  -6.140  1.00  0.00     0.124 S 
ATOM     73  O   UNL     1     -12.880   1.890  -6.574  1.00  0.00    -0.237 OA
ATOM     74  O   UNL     1     -14.711   0.354  -7.197  1.00  0.00    -0.237 OA
ATOM     75  O   UNL     1     -14.893   1.728  -5.157  1.00  0.00    -0.744 OA
ENDBRANCH  71  72
ENDBRANCH  52  66
BRANCH  53  76
ATOM     76  C   UNL     1      -7.244  -9.436   1.402  1.00  0.00    -0.014 A 
ATOM     77  C   UNL     1      -7.327 -10.789   1.031  1.00  0.00     0.010 A 
ATOM     78  C   UNL     1      -6.492  -9.085   2.538  1.00  0.00     0.010 A 
ATOM     79  C   UNL     1      -6.692 -11.774   1.794  1.00  0.00     0.020 A 
ATOM     80  C   UNL     1      -5.829 -10.063   3.285  1.00  0.00     0.020 A 
ATOM     81  C   UNL     1      -5.945 -11.404   2.915  1.00  0.00     0.054 A 
BRANCH  81  82
ATOM     82  S   UNL     1      -5.094 -12.695   3.864  1.00  0.00     0.124 S 
ATOM     83  O   UNL     1      -6.206 -13.366   4.528  1.00  0.00    -0.237 OA
ATOM     84  O   UNL     1      -4.423 -13.463   2.818  1.00  0.00    -0.237 OA
ATOM     85  O   UNL     1      -4.202 -11.941   4.742  1.00  0.00    -0.744 OA
ENDBRANCH  81  82
ENDBRANCH  53  76
BRANCH  65  86
ATOM     86  C   UNL     1     -13.961  -7.962   0.207  1.00  0.00    -0.014 A 
ATOM     87  C   UNL     1     -14.409  -7.908   1.539  1.00  0.00     0.010 A 
ATOM     88  C   UNL     1     -14.759  -8.605  -0.758  1.00  0.00     0.010 A 
ATOM     89  C   UNL     1     -15.614  -8.512   1.904  1.00  0.00     0.020 A 
ATOM     90  C   UNL     1     -15.981  -9.183  -0.403  1.00  0.00     0.020 A 
ATOM     91  C   UNL     1     -16.394  -9.144   0.930  1.00  0.00     0.054 A 
BRANCH  91  92
ATOM     92  S   UNL     1     -17.977  -9.881   1.422  1.00  0.00     0.124 S 
ATOM     93  O   UNL     1     -17.544 -11.052   2.180  1.00  0.00    -0.237 OA
ATOM     94  O   UNL     1     -18.593  -8.816   2.209  1.00  0.00    -0.237 OA
ATOM     95  O   UNL     1     -18.636 -10.170   0.150  1.00  0.00    -0.744 OA
ENDBRANCH  91  92
ENDBRANCH  65  86
ENDBRANCH  39  40
ENDBRANCH  31  34
ENDBRANCH  29  30
ENDBRANCH  28  29
ENDBRANCH  27  28
ENDBRANCH  26  27
ENDBRANCH   1  26
TORSDOF 23
