REMARK SMILES O=C(NCCCCCCNC(=O)c1cccc2c(=O)oc(=O)[nH]c12)c1ccc(-c2c3nc(c(-c4ccc(S(=O)(=O)[O-])cc4)c4ccc([nH]4)c(-c4ccc(S(=O)(=O)[O-])cc4)c4nc(c(-c5ccc(S(=O)(=O)[O-])cc5)c5ccc2[nH]5)C=C4)C=C3)cc1
REMARK SMILES IDX 5 1 4 2 3 3 1 4 2 5 25 7 26 8 84 9 27 10 83 11 28 12 29 13
REMARK SMILES IDX 30 14 77 15 31 16 82 17 76 18 78 19 32 20 81 21 75 22 74 23
REMARK SMILES IDX 33 25 63 26 44 27 62 28 45 29 48 30 61 31 79 32 46 33 47 34
REMARK SMILES IDX 60 36 80 37 49 38 34 39 35 40 43 41 36 42 42 43 37 44 38 45
REMARK SMILES IDX 39 46 40 47 41 48 64 49 65 50 73 51 66 52 72 53 67 54 68 55
REMARK SMILES IDX 69 56 70 57 71 58 50 59 51 60 59 61 52 62 58 63 53 64 54 65
REMARK SMILES IDX 55 66 56 67 57 68 6 69 7 70 8 71 9 72 10 73 11 74 12 76
REMARK SMILES IDX 13 77 14 78 24 79 15 80 17 81 23 82 16 83 18 84 21 85 19 87
REMARK SMILES IDX 20 88 22 89
REMARK H PARENT 3 6 78 24 48 35 10 75 23 86
REMARK Flexibility Score: inf
ROOT
ATOM      1  C   UNL     1       4.842  -1.898   1.749  1.00  0.00     0.021 C 
ENDROOT
BRANCH   1   2
ATOM      2  C   UNL     1       4.563  -1.205   0.421  1.00  0.00     0.116 C 
BRANCH   2   3
ATOM      3  N   UNL     1       3.139  -1.092   0.161  1.00  0.00    -0.352 N 
ATOM      4  O   UNL     1       1.159  -0.045  -0.034  1.00  0.00    -0.269 OA
ATOM      5  C   UNL     1       2.385   0.031  -0.063  1.00  0.00     0.251 C 
ATOM      6  H   UNL     1       2.644  -1.943   0.143  1.00  0.00     0.163 HD
BRANCH   5   7
ATOM      7  C   UNL     1       3.042   1.328  -0.342  1.00  0.00     0.039 A 
ATOM      8  C   UNL     1       2.486   2.496   0.187  1.00  0.00     0.014 A 
ATOM      9  C   UNL     1       4.159   1.402  -1.178  1.00  0.00     0.014 A 
ATOM     10  C   UNL     1       3.050   3.736  -0.123  1.00  0.00     0.010 A 
ATOM     11  C   UNL     1       4.772   2.627  -1.416  1.00  0.00     0.010 A 
ATOM     12  C   UNL     1       4.195   3.811  -0.931  1.00  0.00    -0.014 A 
BRANCH  12  13
ATOM     13  C   UNL     1       4.735   5.112  -1.401  1.00  0.00     0.031 A 
ATOM     14  C   UNL     1       4.697   5.421  -2.876  1.00  0.00     0.074 A 
ATOM     15  C   UNL     1       5.280   5.989  -0.536  1.00  0.00     0.049 A 
ATOM     16  N   UNL     1       5.221   6.430  -3.520  1.00  0.00    -0.248 NA
ATOM     17  C   UNL     1       4.000   4.455  -3.747  1.00  0.00     0.031 C 
ATOM     18  C   UNL     1       5.359   5.807   0.914  1.00  0.00     0.029 A 
ATOM     19  N   UNL     1       5.873   7.209  -0.751  1.00  0.00    -0.354 N 
ATOM     20  C   UNL     1       4.934   6.209  -4.862  1.00  0.00     0.074 A 
ATOM     21  C   UNL     1       4.245   4.944  -4.953  1.00  0.00     0.031 C 
ATOM     22  C   UNL     1       5.945   6.886   1.459  1.00  0.00     0.029 A 
ATOM     23  C   UNL     1       6.334   7.812   0.397  1.00  0.00     0.049 A 
ATOM     24  H   UNL     1       5.960   7.615  -1.644  1.00  0.00     0.167 HD
ATOM     25  C   UNL     1       5.192   7.008  -5.920  1.00  0.00     0.031 A 
ATOM     26  C   UNL     1       7.006   8.970   0.574  1.00  0.00     0.031 A 
ATOM     27  C   UNL     1       5.831   8.292  -5.812  1.00  0.00     0.049 A 
ATOM     28  C   UNL     1       7.316   9.827  -0.626  1.00  0.00     0.074 A 
ATOM     29  C   UNL     1       6.095   9.197  -6.824  1.00  0.00     0.029 A 
ATOM     30  N   UNL     1       6.283   8.861  -4.632  1.00  0.00    -0.354 N 
ATOM     31  N   UNL     1       7.008   9.618  -1.884  1.00  0.00    -0.248 NA
ATOM     32  C   UNL     1       8.050  11.079  -0.390  1.00  0.00     0.031 C 
ATOM     33  C   UNL     1       6.777  10.278  -6.268  1.00  0.00     0.029 A 
ATOM     34  C   UNL     1       6.852  10.092  -4.896  1.00  0.00     0.049 A 
ATOM     35  H   UNL     1       6.210   8.449  -3.740  1.00  0.00     0.167 HD
ATOM     36  C   UNL     1       7.480  10.725  -2.582  1.00  0.00     0.074 A 
ATOM     37  C   UNL     1       8.085  11.608  -1.608  1.00  0.00     0.031 C 
ATOM     38  C   UNL     1       7.420  10.981  -3.911  1.00  0.00     0.031 A 
BRANCH  25  39
ATOM     39  C   UNL     1       4.760   6.562  -7.293  1.00  0.00    -0.014 A 
ATOM     40  C   UNL     1       5.728   6.336  -8.289  1.00  0.00     0.010 A 
ATOM     41  C   UNL     1       3.397   6.529  -7.642  1.00  0.00     0.010 A 
ATOM     42  C   UNL     1       5.345   6.148  -9.619  1.00  0.00     0.020 A 
ATOM     43  C   UNL     1       3.010   6.305  -8.965  1.00  0.00     0.020 A 
ATOM     44  C   UNL     1       3.988   6.152  -9.950  1.00  0.00     0.054 A 
BRANCH  44  45
ATOM     45  S   UNL     1       3.516   5.997 -11.694  1.00  0.00     0.124 S 
ATOM     46  O   UNL     1       3.931   7.285 -12.241  1.00  0.00    -0.237 OA
ATOM     47  O   UNL     1       4.297   4.843 -12.132  1.00  0.00    -0.237 OA
ATOM     48  O   UNL     1       2.072   5.777 -11.641  1.00  0.00    -0.744 OA
ENDBRANCH  44  45
ENDBRANCH  25  39
BRANCH  26  49
ATOM     49  C   UNL     1       7.401   9.386   1.952  1.00  0.00    -0.014 A 
ATOM     50  C   UNL     1       8.320   8.620   2.694  1.00  0.00     0.010 A 
ATOM     51  C   UNL     1       6.816  10.512   2.556  1.00  0.00     0.010 A 
ATOM     52  C   UNL     1       8.601   8.935   4.026  1.00  0.00     0.020 A 
ATOM     53  C   UNL     1       7.123  10.855   3.878  1.00  0.00     0.020 A 
ATOM     54  C   UNL     1       7.991  10.045   4.614  1.00  0.00     0.054 A 
BRANCH  54  55
ATOM     55  S   UNL     1       8.336  10.404   6.359  1.00  0.00     0.124 S 
ATOM     56  O   UNL     1       7.588   9.347   7.034  1.00  0.00    -0.237 OA
ATOM     57  O   UNL     1       9.790  10.286   6.425  1.00  0.00    -0.237 OA
ATOM     58  O   UNL     1       7.813  11.755   6.542  1.00  0.00    -0.744 OA
ENDBRANCH  54  55
ENDBRANCH  26  49
BRANCH  38  59
ATOM     59  C   UNL     1       7.988  12.275  -4.436  1.00  0.00    -0.014 A 
ATOM     60  C   UNL     1       7.126  13.210  -5.044  1.00  0.00     0.010 A 
ATOM     61  C   UNL     1       9.378  12.464  -4.527  1.00  0.00     0.010 A 
ATOM     62  C   UNL     1       7.643  14.266  -5.798  1.00  0.00     0.020 A 
ATOM     63  C   UNL     1       9.898  13.541  -5.251  1.00  0.00     0.020 A 
ATOM     64  C   UNL     1       9.027  14.412  -5.913  1.00  0.00     0.054 A 
BRANCH  64  65
ATOM     65  S   UNL     1       9.677  15.723  -6.985  1.00  0.00     0.124 S 
ATOM     66  O   UNL     1       9.359  15.218  -8.317  1.00  0.00    -0.237 OA
ATOM     67  O   UNL     1       8.915  16.892  -6.555  1.00  0.00    -0.237 OA
ATOM     68  O   UNL     1      11.101  15.761  -6.657  1.00  0.00    -0.744 OA
ENDBRANCH  64  65
ENDBRANCH  38  59
ENDBRANCH  12  13
ENDBRANCH   5   7
ENDBRANCH   2   3
ENDBRANCH   1   2
BRANCH   1  69
ATOM     69  C   UNL     1       4.359  -3.347   1.823  1.00  0.00     0.002 C 
BRANCH  69  70
ATOM     70  C   UNL     1       4.902  -4.269   0.728  1.00  0.00     0.002 C 
BRANCH  70  71
ATOM     71  C   UNL     1       6.429  -4.293   0.594  1.00  0.00     0.021 C 
BRANCH  71  72
ATOM     72  C   UNL     1       7.177  -4.633   1.882  1.00  0.00     0.116 C 
BRANCH  72  73
ATOM     73  N   UNL     1       6.847  -5.969   2.349  1.00  0.00    -0.352 N 
ATOM     74  C   UNL     1       7.670  -7.048   2.523  1.00  0.00     0.253 C 
ATOM     75  H   UNL     1       5.899  -6.118   2.570  1.00  0.00     0.163 HD
ATOM     76  O   UNL     1       7.199  -8.177   2.631  1.00  0.00    -0.269 OA
BRANCH  74  77
ATOM     77  C   UNL     1       9.136  -6.870   2.554  1.00  0.00     0.064 A 
ATOM     78  C   UNL     1       9.701  -5.886   3.378  1.00  0.00     0.016 A 
ATOM     79  C   UNL     1       9.964  -7.717   1.805  1.00  0.00     0.071 A 
ATOM     80  C   UNL     1      11.084  -5.711   3.409  1.00  0.00     0.002 A 
ATOM     81  C   UNL     1      11.335  -7.549   1.852  1.00  0.00     0.085 A 
ATOM     82  N   UNL     1       9.465  -8.729   0.997  1.00  0.00    -0.289 N 
ATOM     83  C   UNL     1      11.903  -6.541   2.644  1.00  0.00     0.018 A 
ATOM     84  C   UNL     1      12.180  -8.461   1.068  1.00  0.00     0.349 A 
ATOM     85  C   UNL     1      10.244  -9.544   0.233  1.00  0.00     0.419 A 
ATOM     86  H   UNL     1       8.490  -8.867   0.976  1.00  0.00     0.173 HD
ATOM     87  O   UNL     1      13.401  -8.367   1.143  1.00  0.00    -0.246 OA
ATOM     88  O   UNL     1      11.590  -9.383   0.278  1.00  0.00    -0.372 OA
ATOM     89  O   UNL     1       9.730 -10.404  -0.480  1.00  0.00    -0.224 OA
ENDBRANCH  74  77
ENDBRANCH  72  73
ENDBRANCH  71  72
ENDBRANCH  70  71
ENDBRANCH  69  70
ENDBRANCH   1  69
TORSDOF 16
