REMARK SMILES COc1ccc(OC)c(Nc2c(-c3ccc(C(=O)NCCCCCCNC(=O)c4ccc(-c5c6nc(c(-c7ccc(S(=O)(=O)[O-])cc7)c7ccc([nH]7)c(-c7ccc(S(=O)(=O)[O-])cc7)c7nc(c(-c8ccc(S(=O)(=O)[O-])cc8)c8ccc5[nH]8)C=C7)C=C6)cc4)cc3)nc3cnccn23)c1
REMARK SMILES IDX 22 1 21 2 20 3 19 4 17 5 18 6 16 8 13 9 14 10 90 11 15 12
REMARK SMILES IDX 89 13 12 14 11 15 97 16 91 17 92 18 96 19 93 20 95 21 94 22
REMARK SMILES IDX 10 23 9 25 3 26 4 27 98 28 5 29 6 30 2 31 1 32 7 33 8 34
REMARK SMILES IDX 23 35 24 36 25 37 26 38 27 39 28 41 29 42 30 43 88 44 31 45
REMARK SMILES IDX 87 46 32 47 33 48 34 49 81 50 35 51 86 52 80 53 82 54 36 55
REMARK SMILES IDX 85 56 79 57 78 58 37 60 67 61 48 62 66 63 49 64 52 65 65 66
REMARK SMILES IDX 83 67 50 68 51 69 64 71 84 72 53 73 38 74 39 75 47 76 40 77
REMARK SMILES IDX 46 78 41 79 42 80 43 81 44 82 45 83 68 84 69 85 77 86 70 87
REMARK SMILES IDX 76 88 71 89 72 90 73 91 74 92 75 93 54 94 55 95 63 96 56 97
REMARK SMILES IDX 62 98 57 99 58 100 59 101 60 102 61 103
REMARK H PARENT 19 7 10 24 26 40 82 59 52 70
REMARK Flexibility Score: inf
ROOT
ATOM      1  C   UNL     1      12.296  -2.229   4.221  1.00  0.00     0.002 C 
ENDROOT
BRANCH   1   2
ATOM      2  C   UNL     1      11.226  -3.076   3.525  1.00  0.00     0.021 C 
BRANCH   2   3
ATOM      3  C   UNL     1      10.415  -3.932   4.502  1.00  0.00     0.116 C 
BRANCH   3   4
ATOM      4  N   UNL     1       9.356  -3.135   5.091  1.00  0.00    -0.352 N 
ATOM      5  C   UNL     1       8.023  -3.022   4.793  1.00  0.00     0.251 C 
ATOM      6  O   UNL     1       7.347  -2.244   5.467  1.00  0.00    -0.269 OA
ATOM      7  H   UNL     1       9.648  -2.572   5.844  1.00  0.00     0.163 HD
BRANCH   5   8
ATOM      8  C   UNL     1       7.356  -3.827   3.730  1.00  0.00     0.039 A 
ATOM      9  C   UNL     1       5.955  -5.377   1.844  1.00  0.00     0.004 A 
ATOM     10  C   UNL     1       5.287  -4.853   2.954  1.00  0.00     0.011 A 
ATOM     11  C   UNL     1       7.312  -5.106   1.667  1.00  0.00     0.011 A 
ATOM     12  C   UNL     1       5.987  -4.091   3.895  1.00  0.00     0.014 A 
ATOM     13  C   UNL     1       7.993  -4.299   2.579  1.00  0.00     0.014 A 
BRANCH   9  14
ATOM     14  C   UNL     1       5.264  -6.126   0.820  1.00  0.00     0.114 A 
ATOM     15  C   UNL     1       4.191  -5.645   0.080  1.00  0.00     0.143 A 
ATOM     16  N   UNL     1       4.034  -6.581  -0.919  1.00  0.00    -0.283 N 
ATOM     17  N   UNL     1       5.630  -7.393   0.430  1.00  0.00    -0.225 NA
ATOM     18  C   UNL     1       4.840  -7.645  -0.589  1.00  0.00     0.157 A 
ATOM     19  C   UNL     1       3.252  -6.636  -2.059  1.00  0.00     0.115 A 
ATOM     20  C   UNL     1       4.740  -8.845  -1.370  1.00  0.00     0.158 A 
ATOM     21  C   UNL     1       3.246  -7.780  -2.767  1.00  0.00     0.129 A 
ATOM     22  N   UNL     1       3.962  -8.916  -2.419  1.00  0.00    -0.259 NA
BRANCH  15  23
ATOM     23  N   UNL     1       3.542  -4.462   0.132  1.00  0.00    -0.336 N 
ATOM     24  H   UNL     1       4.079  -3.695  -0.171  1.00  0.00     0.168 HD
BRANCH  23  25
ATOM     25  C   UNL     1       2.220  -4.120   0.545  1.00  0.00     0.086 A 
ATOM     26  C   UNL     1       0.760  -2.107   0.775  1.00  0.00     0.121 A 
ATOM     27  C   UNL     1      -0.271  -2.908   1.217  1.00  0.00     0.050 A 
ATOM     28  C   UNL     1       1.973  -2.708   0.432  1.00  0.00     0.076 A 
ATOM     29  C   UNL     1      -0.079  -4.281   1.301  1.00  0.00     0.052 A 
ATOM     30  C   UNL     1       1.146  -4.918   0.984  1.00  0.00     0.142 A 
BRANCH  26  31
ATOM     31  O   UNL     1       0.491  -0.769   0.783  1.00  0.00    -0.497 OA
ATOM     32  C   UNL     1       1.181   0.021  -0.175  1.00  0.00     0.278 C 
ENDBRANCH  26  31
BRANCH  30  33
ATOM     33  O   UNL     1       0.950  -6.238   1.238  1.00  0.00    -0.495 OA
ATOM     34  C   UNL     1       1.924  -7.245   1.250  1.00  0.00     0.278 C 
ENDBRANCH  30  33
ENDBRANCH  23  25
ENDBRANCH  15  23
ENDBRANCH   9  14
ENDBRANCH   5   8
ENDBRANCH   3   4
ENDBRANCH   2   3
ENDBRANCH   1   2
BRANCH   1  35
ATOM     35  C   UNL     1      13.394  -3.044   4.916  1.00  0.00     0.002 C 
BRANCH  35  36
ATOM     36  C   UNL     1      14.132  -4.029   4.005  1.00  0.00     0.021 C 
BRANCH  36  37
ATOM     37  C   UNL     1      14.881  -3.364   2.854  1.00  0.00     0.116 C 
BRANCH  37  38
ATOM     38  N   UNL     1      15.944  -2.497   3.344  1.00  0.00    -0.352 N 
ATOM     39  C   UNL     1      17.304  -2.618   3.184  1.00  0.00     0.251 C 
ATOM     40  H   UNL     1      15.647  -1.715   3.863  1.00  0.00     0.163 HD
ATOM     41  O   UNL     1      18.069  -1.966   3.882  1.00  0.00    -0.269 OA
BRANCH  39  42
ATOM     42  C   UNL     1      17.829  -3.554   2.169  1.00  0.00     0.039 A 
ATOM     43  C   UNL     1      18.847  -4.442   2.521  1.00  0.00     0.014 A 
ATOM     44  C   UNL     1      17.295  -3.563   0.877  1.00  0.00     0.014 A 
ATOM     45  C   UNL     1      19.274  -5.399   1.598  1.00  0.00     0.010 A 
ATOM     46  C   UNL     1      17.675  -4.558  -0.018  1.00  0.00     0.010 A 
ATOM     47  C   UNL     1      18.656  -5.495   0.340  1.00  0.00    -0.014 A 
BRANCH  47  48
ATOM     48  C   UNL     1      18.972  -6.605  -0.595  1.00  0.00     0.031 A 
ATOM     49  C   UNL     1      19.579  -6.317  -1.940  1.00  0.00     0.074 A 
ATOM     50  C   UNL     1      18.614  -7.863  -0.265  1.00  0.00     0.049 A 
ATOM     51  N   UNL     1      19.817  -7.143  -2.926  1.00  0.00    -0.248 NA
ATOM     52  C   UNL     1      19.947  -4.920  -2.225  1.00  0.00     0.031 C 
ATOM     53  C   UNL     1      17.979  -8.261   0.996  1.00  0.00     0.029 A 
ATOM     54  N   UNL     1      18.709  -9.039  -0.968  1.00  0.00    -0.354 N 
ATOM     55  C   UNL     1      20.339  -6.367  -3.954  1.00  0.00     0.074 A 
ATOM     56  C   UNL     1      20.359  -4.999  -3.484  1.00  0.00     0.031 C 
ATOM     57  C   UNL     1      17.749  -9.583   0.977  1.00  0.00     0.029 A 
ATOM     58  C   UNL     1      18.168 -10.121  -0.312  1.00  0.00     0.049 A 
ATOM     59  H   UNL     1      19.126  -9.101  -1.858  1.00  0.00     0.167 HD
ATOM     60  C   UNL     1      20.766  -6.763  -5.176  1.00  0.00     0.031 A 
ATOM     61  C   UNL     1      17.997 -11.396  -0.713  1.00  0.00     0.031 A 
ATOM     62  C   UNL     1      20.758  -8.129  -5.630  1.00  0.00     0.049 A 
ATOM     63  C   UNL     1      18.461 -11.799  -2.087  1.00  0.00     0.074 A 
ATOM     64  C   UNL     1      21.252  -8.638  -6.818  1.00  0.00     0.029 A 
ATOM     65  N   UNL     1      20.219  -9.197  -4.930  1.00  0.00    -0.354 N 
ATOM     66  N   UNL     1      19.048 -11.068  -3.004  1.00  0.00    -0.248 NA
ATOM     67  C   UNL     1      18.242 -13.198  -2.481  1.00  0.00     0.031 C 
ATOM     68  C   UNL     1      20.944 -10.000  -6.870  1.00  0.00     0.029 A 
ATOM     69  C   UNL     1      20.323 -10.354  -5.684  1.00  0.00     0.049 A 
ATOM     70  H   UNL     1      19.822  -9.142  -4.031  1.00  0.00     0.167 HD
ATOM     71  C   UNL     1      19.285 -11.924  -4.074  1.00  0.00     0.074 A 
ATOM     72  C   UNL     1      18.805 -13.231  -3.680  1.00  0.00     0.031 C 
ATOM     73  C   UNL     1      19.844 -11.650  -5.278  1.00  0.00     0.031 A 
BRANCH  60  74
ATOM     74  C   UNL     1      21.270  -5.715  -6.133  1.00  0.00    -0.014 A 
ATOM     75  C   UNL     1      22.514  -5.089  -5.941  1.00  0.00     0.010 A 
ATOM     76  C   UNL     1      20.537  -5.441  -7.303  1.00  0.00     0.010 A 
ATOM     77  C   UNL     1      23.012  -4.202  -6.899  1.00  0.00     0.020 A 
ATOM     78  C   UNL     1      21.043  -4.574  -8.275  1.00  0.00     0.020 A 
ATOM     79  C   UNL     1      22.277  -3.956  -8.064  1.00  0.00     0.054 A 
BRANCH  79  80
ATOM     80  S   UNL     1      22.988  -2.863  -9.325  1.00  0.00     0.124 S 
ATOM     81  O   UNL     1      22.909  -1.558  -8.673  1.00  0.00    -0.237 OA
ATOM     82  O   UNL     1      24.336  -3.402  -9.490  1.00  0.00    -0.237 OA
ATOM     83  O   UNL     1      22.105  -3.038 -10.476  1.00  0.00    -0.744 OA
ENDBRANCH  79  80
ENDBRANCH  60  74
BRANCH  61  84
ATOM     84  C   UNL     1      17.315 -12.380   0.175  1.00  0.00    -0.014 A 
ATOM     85  C   UNL     1      18.010 -13.486   0.696  1.00  0.00     0.010 A 
ATOM     86  C   UNL     1      15.948 -12.232   0.476  1.00  0.00     0.010 A 
ATOM     87  C   UNL     1      17.343 -14.446   1.463  1.00  0.00     0.020 A 
ATOM     88  C   UNL     1      15.285 -13.170   1.272  1.00  0.00     0.020 A 
ATOM     89  C   UNL     1      15.983 -14.283   1.742  1.00  0.00     0.054 A 
BRANCH  89  90
ATOM     90  S   UNL     1      15.137 -15.537   2.744  1.00  0.00     0.124 S 
ATOM     91  O   UNL     1      15.037 -16.653   1.809  1.00  0.00    -0.237 OA
ATOM     92  O   UNL     1      16.060 -15.725   3.860  1.00  0.00    -0.237 OA
ATOM     93  O   UNL     1      13.871 -14.897   3.093  1.00  0.00    -0.744 OA
ENDBRANCH  89  90
ENDBRANCH  61  84
BRANCH  73  94
ATOM     94  C   UNL     1      19.987 -12.786  -6.255  1.00  0.00    -0.014 A 
ATOM     95  C   UNL     1      18.865 -13.332  -6.903  1.00  0.00     0.010 A 
ATOM     96  C   UNL     1      21.269 -13.265  -6.582  1.00  0.00     0.010 A 
ATOM     97  C   UNL     1      19.021 -14.352  -7.845  1.00  0.00     0.020 A 
ATOM     98  C   UNL     1      21.431 -14.263  -7.547  1.00  0.00     0.020 A 
ATOM     99  C   UNL     1      20.304 -14.807  -8.165  1.00  0.00     0.054 A 
BRANCH  99 100
ATOM    100  S   UNL     1      20.480 -16.086  -9.438  1.00  0.00     0.124 S 
ATOM    101  O   UNL     1      19.959 -17.268  -8.757  1.00  0.00    -0.237 OA
ATOM    102  O   UNL     1      19.652 -15.570 -10.526  1.00  0.00    -0.237 OA
ATOM    103  O   UNL     1      21.916 -16.109  -9.712  1.00  0.00    -0.744 OA
ENDBRANCH  99 100
ENDBRANCH  73  94
ENDBRANCH  47  48
ENDBRANCH  39  42
ENDBRANCH  37  38
ENDBRANCH  36  37
ENDBRANCH  35  36
ENDBRANCH   1  35
TORSDOF 21
