REMARK SMILES CC(=O)O[C@@H]1CC[C@@]23C(=O)O[C@]4(CC[C@]2(O)C1)[C@H]3CC[C@]1(C)[C@H](C(=O)NCCCCCCNC(=O)c2ccc(-c3c5nc(c(-c6ccc(S(=O)(=O)[O-])cc6)c6ccc([nH]6)c(-c6ccc(S(=O)(=O)[O-])cc6)c6nc(c(-c7ccc(S(=O)(=O)[O-])cc7)c7ccc3[nH]7)C=C6)C=C5)cc2)CC[C@@H]14
REMARK SMILES IDX 30 1 29 2 28 3 27 4 26 5 24 6 25 7 23 9 5 10 6 11 17 12 7 13
REMARK SMILES IDX 15 14 8 15 14 16 9 17 18 18 13 19 10 20 11 21 12 22 19 23
REMARK SMILES IDX 98 24 20 25 21 26 97 27 22 28 96 29 4 30 2 31 1 32 3 33
REMARK SMILES IDX 16 34 31 36 32 37 33 38 34 39 35 41 36 42 37 43 95 44 38 45
REMARK SMILES IDX 94 46 39 47 40 48 41 49 88 50 42 51 93 52 87 53 89 54 43 55
REMARK SMILES IDX 92 56 86 57 85 58 44 60 74 61 55 62 73 63 56 64 59 65 72 66
REMARK SMILES IDX 90 67 57 68 58 69 71 71 91 72 60 73 45 74 46 75 54 76 47 77
REMARK SMILES IDX 53 78 48 79 49 80 50 81 51 82 52 83 75 84 76 85 84 86 77 87
REMARK SMILES IDX 83 88 78 89 79 90 80 91 81 92 82 93 61 94 62 95 70 96 63 97
REMARK SMILES IDX 69 98 64 99 65 100 66 101 67 102 68 103
REMARK H PARENT 26 8 16 35 33 40 89 59 59 70
REMARK Flexibility Score: inf
ROOT
ATOM      1  C   UNL     1      -4.827 -10.302  -2.181  1.00  0.00     0.002 C 
ENDROOT
BRANCH   1   2
ATOM      2  C   UNL     1      -4.108 -10.635  -0.873  1.00  0.00     0.002 C 
BRANCH   2   3
ATOM      3  C   UNL     1      -3.099  -9.577  -0.425  1.00  0.00     0.021 C 
BRANCH   3   4
ATOM      4  C   UNL     1      -3.737  -8.254   0.032  1.00  0.00     0.116 C 
BRANCH   4   5
ATOM      5  N   UNL     1      -4.103  -8.364   1.430  1.00  0.00    -0.356 N 
ATOM      6  C   UNL     1      -3.462  -8.050   2.578  1.00  0.00     0.223 C 
ATOM      7  O   UNL     1      -3.932  -8.571   3.601  1.00  0.00    -0.275 OA
ATOM      8  H   UNL     1      -5.000  -8.743   1.572  1.00  0.00     0.163 HD
BRANCH   6   9
ATOM      9  C   UNL     1      -2.308  -7.055   2.734  1.00  0.00     0.085 C 
ATOM     10  C   UNL     1       1.014  -2.550  -2.900  1.00  0.00     0.179 C 
ATOM     11  C   UNL     1      -0.369  -3.123  -2.692  1.00  0.00     0.047 C 
ATOM     12  C   UNL     1       1.972  -3.759  -2.954  1.00  0.00     0.081 C 
ATOM     13  C   UNL     1      -0.382  -3.872  -1.376  1.00  0.00     0.026 C 
ATOM     14  C   UNL     1       1.878  -4.781  -1.777  1.00  0.00     0.085 C 
ATOM     15  C   UNL     1       0.530  -5.321  -1.423  1.00  0.00     0.103 C 
ATOM     16  C   UNL     1       2.344  -4.138  -0.393  1.00  0.00     0.041 C 
ATOM     17  C   UNL     1      -0.712  -6.043  -1.294  1.00  0.00     0.316 C 
ATOM     18  C   UNL     1       1.013  -6.372  -0.066  1.00  0.00     0.054 C 
ATOM     19  C   UNL     1       1.311  -4.299   0.868  1.00  0.00     0.052 C 
ATOM     20  O   UNL     1      -1.458  -6.583  -2.091  1.00  0.00    -0.251 OA
ATOM     21  O   UNL     1      -0.990  -5.683   0.047  1.00  0.00    -0.458 OA
ATOM     22  C   UNL     1       0.260  -5.524   0.840  1.00  0.00     0.120 C 
ATOM     23  C   UNL     1       0.657  -7.870   0.150  1.00  0.00     0.009 C 
ATOM     24  C   UNL     1      -0.181  -5.893   2.241  1.00  0.00     0.040 C 
ATOM     25  C   UNL     1      -0.520  -8.195   1.109  1.00  0.00     0.008 C 
ATOM     26  C   UNL     1      -0.793  -7.323   2.364  1.00  0.00    -0.014 C 
ATOM     27  C   UNL     1      -1.325  -4.910   2.624  1.00  0.00     0.009 C 
ATOM     28  C   UNL     1      -0.153  -8.019   3.588  1.00  0.00     0.012 C 
ATOM     29  C   UNL     1      -2.629  -5.635   2.292  1.00  0.00     0.014 C 
BRANCH  10  30
ATOM     30  O   UNL     1       1.500  -1.630  -1.878  1.00  0.00    -0.462 OA
BRANCH  30  31
ATOM     31  C   UNL     1       0.712  -0.732  -1.227  1.00  0.00     0.302 C 
ATOM     32  C   UNL     1       1.525   0.103  -0.279  1.00  0.00     0.139 C 
ATOM     33  O   UNL     1      -0.498  -0.607  -1.334  1.00  0.00    -0.253 OA
ENDBRANCH  30  31
ENDBRANCH  10  30
BRANCH  14  34
ATOM     34  O   UNL     1       2.747  -5.868  -2.113  1.00  0.00    -0.389 OA
ATOM     35  H   UNL     1       2.721  -6.532  -1.406  1.00  0.00     0.211 HD
ENDBRANCH  14  34
ENDBRANCH   6   9
ENDBRANCH   4   5
ENDBRANCH   3   4
ENDBRANCH   2   3
ENDBRANCH   1   2
BRANCH   1  36
ATOM     36  C   UNL     1      -3.906  -9.989  -3.365  1.00  0.00     0.021 C 
BRANCH  36  37
ATOM     37  C   UNL     1      -2.879 -11.075  -3.675  1.00  0.00     0.116 C 
BRANCH  37  38
ATOM     38  N   UNL     1      -3.519 -12.341  -4.003  1.00  0.00    -0.352 N 
ATOM     39  C   UNL     1      -3.481 -13.050  -5.176  1.00  0.00     0.251 C 
ATOM     40  H   UNL     1      -4.055 -12.744  -3.282  1.00  0.00     0.163 HD
ATOM     41  O   UNL     1      -4.276 -13.964  -5.375  1.00  0.00    -0.269 OA
BRANCH  39  42
ATOM     42  C   UNL     1      -2.477 -12.701  -6.201  1.00  0.00     0.039 A 
ATOM     43  C   UNL     1      -2.874 -12.580  -7.534  1.00  0.00     0.014 A 
ATOM     44  C   UNL     1      -1.141 -12.501  -5.839  1.00  0.00     0.014 A 
ATOM     45  C   UNL     1      -1.939 -12.203  -8.500  1.00  0.00     0.010 A 
ATOM     46  C   UNL     1      -0.227 -12.060  -6.790  1.00  0.00     0.010 A 
ATOM     47  C   UNL     1      -0.615 -11.913  -8.130  1.00  0.00    -0.014 A 
BRANCH  47  48
ATOM     48  C   UNL     1       0.387 -11.462  -9.128  1.00  0.00     0.031 A 
ATOM     49  C   UNL     1       1.590 -12.316  -9.423  1.00  0.00     0.074 A 
ATOM     50  C   UNL     1       0.250 -10.256  -9.714  1.00  0.00     0.049 A 
ATOM     51  N   UNL     1       2.614 -12.059 -10.196  1.00  0.00    -0.248 NA
ATOM     52  C   UNL     1       1.665 -13.618  -8.741  1.00  0.00     0.031 C 
ATOM     53  C   UNL     1      -0.856  -9.323  -9.484  1.00  0.00     0.029 A 
ATOM     54  N   UNL     1       1.053  -9.602 -10.615  1.00  0.00    -0.354 N 
ATOM     55  C   UNL     1       3.460 -13.155 -10.079  1.00  0.00     0.074 A 
ATOM     56  C   UNL     1       2.854 -14.057  -9.124  1.00  0.00     0.031 C 
ATOM     57  C   UNL     1      -0.673  -8.230 -10.242  1.00  0.00     0.029 A 
ATOM     58  C   UNL     1       0.582  -8.362 -10.975  1.00  0.00     0.049 A 
ATOM     59  H   UNL     1       1.887  -9.986 -10.969  1.00  0.00     0.167 HD
ATOM     60  C   UNL     1       4.628 -13.398 -10.721  1.00  0.00     0.031 A 
ATOM     61  C   UNL     1       1.107  -7.430 -11.794  1.00  0.00     0.031 A 
ATOM     62  C   UNL     1       5.221 -12.501 -11.676  1.00  0.00     0.049 A 
ATOM     63  C   UNL     1       2.415  -7.713 -12.481  1.00  0.00     0.074 A 
ATOM     64  C   UNL     1       6.375 -12.676 -12.420  1.00  0.00     0.029 A 
ATOM     65  N   UNL     1       4.708 -11.258 -12.020  1.00  0.00    -0.354 N 
ATOM     66  N   UNL     1       3.173  -8.781 -12.402  1.00  0.00    -0.248 NA
ATOM     67  C   UNL     1       2.936  -6.670 -13.376  1.00  0.00     0.031 C 
ATOM     68  C   UNL     1       6.588 -11.517 -13.172  1.00  0.00     0.029 A 
ATOM     69  C   UNL     1       5.534 -10.646 -12.946  1.00  0.00     0.049 A 
ATOM     70  H   UNL     1       3.878 -10.870 -11.658  1.00  0.00     0.167 HD
ATOM     71  C   UNL     1       4.243  -8.551 -13.259  1.00  0.00     0.074 A 
ATOM     72  C   UNL     1       4.029  -7.248 -13.855  1.00  0.00     0.031 C 
ATOM     73  C   UNL     1       5.304  -9.349 -13.532  1.00  0.00     0.031 A 
BRANCH  60  74
ATOM     74  C   UNL     1       5.344 -14.685 -10.402  1.00  0.00    -0.014 A 
ATOM     75  C   UNL     1       4.820 -15.928 -10.801  1.00  0.00     0.010 A 
ATOM     76  C   UNL     1       6.578 -14.649  -9.727  1.00  0.00     0.010 A 
ATOM     77  C   UNL     1       5.492 -17.113 -10.490  1.00  0.00     0.020 A 
ATOM     78  C   UNL     1       7.269 -15.830  -9.441  1.00  0.00     0.020 A 
ATOM     79  C   UNL     1       6.711 -17.057  -9.809  1.00  0.00     0.054 A 
BRANCH  79  80
ATOM     80  S   UNL     1       7.571 -18.610  -9.436  1.00  0.00     0.124 S 
ATOM     81  O   UNL     1       6.738 -19.166  -8.373  1.00  0.00    -0.237 OA
ATOM     82  O   UNL     1       7.518 -19.319 -10.711  1.00  0.00    -0.237 OA
ATOM     83  O   UNL     1       8.903 -18.178  -9.021  1.00  0.00    -0.744 OA
ENDBRANCH  79  80
ENDBRANCH  60  74
BRANCH  61  84
ATOM     84  C   UNL     1       0.387  -6.146 -12.018  1.00  0.00    -0.014 A 
ATOM     85  C   UNL     1      -0.210  -5.870 -13.261  1.00  0.00     0.010 A 
ATOM     86  C   UNL     1       0.284  -5.196 -10.985  1.00  0.00     0.010 A 
ATOM     87  C   UNL     1      -0.879  -4.661 -13.473  1.00  0.00     0.020 A 
ATOM     88  C   UNL     1      -0.409  -3.999 -11.184  1.00  0.00     0.020 A 
ATOM     89  C   UNL     1      -0.975  -3.733 -12.432  1.00  0.00     0.054 A 
BRANCH  89  90
ATOM     90  S   UNL     1      -1.885  -2.190 -12.717  1.00  0.00     0.124 S 
ATOM     91  O   UNL     1      -0.970  -1.454 -13.584  1.00  0.00    -0.237 OA
ATOM     92  O   UNL     1      -3.116  -2.661 -13.348  1.00  0.00    -0.237 OA
ATOM     93  O   UNL     1      -2.054  -1.640 -11.373  1.00  0.00    -0.744 OA
ENDBRANCH  89  90
ENDBRANCH  61  84
BRANCH  73  94
ATOM     94  C   UNL     1       6.301  -8.859 -14.549  1.00  0.00    -0.014 A 
ATOM     95  C   UNL     1       7.196  -7.816 -14.251  1.00  0.00     0.010 A 
ATOM     96  C   UNL     1       6.388  -9.503 -15.797  1.00  0.00     0.010 A 
ATOM     97  C   UNL     1       8.145  -7.411 -15.194  1.00  0.00     0.020 A 
ATOM     98  C   UNL     1       7.354  -9.120 -16.731  1.00  0.00     0.020 A 
ATOM     99  C   UNL     1       8.219  -8.068 -16.427  1.00  0.00     0.054 A 
BRANCH  99 100
ATOM    100  S   UNL     1       9.499  -7.562 -17.608  1.00  0.00     0.124 S 
ATOM    101  O   UNL     1       8.986  -6.279 -18.082  1.00  0.00    -0.237 OA
ATOM    102  O   UNL     1      10.696  -7.490 -16.773  1.00  0.00    -0.237 OA
ATOM    103  O   UNL     1       9.502  -8.636 -18.599  1.00  0.00    -0.744 OA
ENDBRANCH  99 100
ENDBRANCH  73  94
ENDBRANCH  47  48
ENDBRANCH  39  42
ENDBRANCH  37  38
ENDBRANCH  36  37
ENDBRANCH   1  36
TORSDOF 19
