REMARK SMILES CC(C)(O)CC[C@@H](C(=O)NCCCCCCNC(=O)c1ccc(-c2c3nc(c(-c4ccc(S(=O)(=O)[O-])cc4)c4ccc([nH]4)c(-c4ccc(S(=O)(=O)[O-])cc4)c4nc(c(-c5ccc(S(=O)(=O)[O-])cc5)c5ccc2[nH]5)C=C4)C=C3)cc1)[C@@H]1CCS(=O)(=O)C1
REMARK SMILES IDX 13 1 12 2 11 3 10 4 8 5 9 6 7 8 6 9 5 10 2 11 1 12 3 13 4 14
REMARK SMILES IDX 80 16 81 17 86 18 82 19 83 20 84 21 85 22 14 23 15 24 16 25
REMARK SMILES IDX 17 26 18 27 19 29 20 30 21 31 79 32 22 33 78 34 23 35 24 36
REMARK SMILES IDX 25 37 72 38 26 39 77 40 71 41 73 42 27 43 76 44 70 45 69 46
REMARK SMILES IDX 28 48 58 49 39 50 57 51 40 52 43 53 56 54 74 55 41 56 42 57
REMARK SMILES IDX 55 59 75 60 44 61 29 62 30 63 38 64 31 65 37 66 32 67 33 68
REMARK SMILES IDX 34 69 35 70 36 71 59 72 60 73 68 74 61 75 67 76 62 77 63 78
REMARK SMILES IDX 64 79 65 80 66 81 45 82 46 83 54 84 47 85 53 86 48 87 49 88
REMARK SMILES IDX 50 89 51 90 52 91
REMARK H PARENT 10 7 4 15 17 28 73 47 43 58
REMARK Flexibility Score: inf
ROOT
ATOM      1  C   UNL     1       5.168  -2.625  -0.299  1.00  0.00     0.002 C 
ENDROOT
BRANCH   1   2
ATOM      2  C   UNL     1       3.746  -2.372  -0.793  1.00  0.00     0.021 C 
BRANCH   2   3
ATOM      3  C   UNL     1       3.377  -0.885  -0.839  1.00  0.00     0.116 C 
BRANCH   3   4
ATOM      4  N   UNL     1       3.471  -0.377  -2.188  1.00  0.00    -0.356 N 
ATOM      5  C   UNL     1       2.519   0.087  -3.038  1.00  0.00     0.223 C 
ATOM      6  O   UNL     1       2.883   0.311  -4.196  1.00  0.00    -0.275 OA
ATOM      7  H   UNL     1       4.385  -0.364  -2.555  1.00  0.00     0.163 HD
BRANCH   5   8
ATOM      8  C   UNL     1       1.067   0.367  -2.576  1.00  0.00     0.082 C 
BRANCH   8   9
ATOM      9  C   UNL     1       0.226  -0.940  -2.576  1.00  0.00     0.017 C 
BRANCH   9  10
ATOM     10  C   UNL     1       0.206  -1.863  -1.345  1.00  0.00     0.035 C 
BRANCH  10  11
ATOM     11  C   UNL     1      -0.383  -1.399   0.014  1.00  0.00     0.059 C 
ATOM     12  C   UNL     1      -0.070   0.016   0.495  1.00  0.00     0.042 C 
ATOM     13  C   UNL     1       0.061  -2.393   1.099  1.00  0.00     0.042 C 
BRANCH  11  14
ATOM     14  O   UNL     1      -1.807  -1.478  -0.108  1.00  0.00    -0.390 OA
ATOM     15  H   UNL     1      -2.219  -1.196   0.723  1.00  0.00     0.211 HD
ENDBRANCH  11  14
ENDBRANCH  10  11
ENDBRANCH   9  10
ENDBRANCH   8   9
BRANCH   8  16
ATOM     16  C   UNL     1       0.427   1.400  -3.585  1.00  0.00     0.017 C 
ATOM     17  C   UNL     1       1.171   2.756  -3.674  1.00  0.00     0.021 C 
ATOM     18  C   UNL     1      -1.038   1.795  -3.297  1.00  0.00     0.141 C 
ATOM     19  C   UNL     1       0.732   3.605  -2.492  1.00  0.00     0.137 C 
ATOM     20  S   UNL     1      -1.010   3.295  -2.330  1.00  0.00     0.150 S 
ATOM     21  O   UNL     1      -1.290   2.980  -0.942  1.00  0.00    -0.229 OA
ATOM     22  O   UNL     1      -1.734   4.322  -3.045  1.00  0.00    -0.229 OA
ENDBRANCH   8  16
ENDBRANCH   5   8
ENDBRANCH   3   4
ENDBRANCH   2   3
ENDBRANCH   1   2
BRANCH   1  23
ATOM     23  C   UNL     1       5.405  -2.226   1.163  1.00  0.00     0.002 C 
BRANCH  23  24
ATOM     24  C   UNL     1       4.478  -2.893   2.185  1.00  0.00     0.021 C 
BRANCH  24  25
ATOM     25  C   UNL     1       4.474  -4.418   2.146  1.00  0.00     0.116 C 
BRANCH  25  26
ATOM     26  N   UNL     1       5.810  -4.959   2.329  1.00  0.00    -0.352 N 
ATOM     27  C   UNL     1       6.292  -5.786   3.310  1.00  0.00     0.251 C 
ATOM     28  H   UNL     1       6.468  -4.691   1.647  1.00  0.00     0.163 HD
ATOM     29  O   UNL     1       7.504  -5.915   3.454  1.00  0.00    -0.269 OA
BRANCH  27  30
ATOM     30  C   UNL     1       5.355  -6.522   4.185  1.00  0.00     0.039 A 
ATOM     31  C   UNL     1       5.663  -6.661   5.540  1.00  0.00     0.014 A 
ATOM     32  C   UNL     1       4.203  -7.117   3.663  1.00  0.00     0.014 A 
ATOM     33  C   UNL     1       4.801  -7.373   6.375  1.00  0.00     0.010 A 
ATOM     34  C   UNL     1       3.304  -7.756   4.511  1.00  0.00     0.010 A 
ATOM     35  C   UNL     1       3.606  -7.913   5.872  1.00  0.00    -0.014 A 
BRANCH  35  36
ATOM     36  C   UNL     1       2.687  -8.689   6.744  1.00  0.00     0.031 A 
ATOM     37  C   UNL     1       2.436 -10.147   6.460  1.00  0.00     0.074 A 
ATOM     38  C   UNL     1       2.062  -8.079   7.770  1.00  0.00     0.049 A 
ATOM     39  N   UNL     1       1.638 -10.982   7.077  1.00  0.00    -0.248 NA
ATOM     40  C   UNL     1       3.157 -10.742   5.321  1.00  0.00     0.031 C 
ATOM     41  C   UNL     1       2.196  -6.663   8.126  1.00  0.00     0.029 A 
ATOM     42  N   UNL     1       1.185  -8.572   8.703  1.00  0.00    -0.354 N 
ATOM     43  C   UNL     1       1.762 -12.192   6.403  1.00  0.00     0.074 A 
ATOM     44  C   UNL     1       2.654 -11.967   5.288  1.00  0.00     0.031 C 
ATOM     45  C   UNL     1       1.450  -6.410   9.213  1.00  0.00     0.029 A 
ATOM     46  C   UNL     1       0.752  -7.630   9.607  1.00  0.00     0.049 A 
ATOM     47  H   UNL     1       0.893  -9.511   8.724  1.00  0.00     0.167 HD
ATOM     48  C   UNL     1       1.212 -13.392   6.703  1.00  0.00     0.031 A 
ATOM     49  C   UNL     1      -0.115  -7.735  10.633  1.00  0.00     0.031 A 
ATOM     50  C   UNL     1       0.328 -13.615   7.816  1.00  0.00     0.049 A 
ATOM     51  C   UNL     1      -0.734  -9.075  10.930  1.00  0.00     0.074 A 
ATOM     52  C   UNL     1      -0.272 -14.796   8.216  1.00  0.00     0.029 A 
ATOM     53  N   UNL     1      -0.073 -12.638   8.715  1.00  0.00    -0.354 N 
ATOM     54  N   UNL     1      -0.572 -10.217  10.302  1.00  0.00    -0.248 NA
ATOM     55  C   UNL     1      -1.636  -9.147  12.087  1.00  0.00     0.031 C 
ATOM     56  C   UNL     1      -1.072 -14.524   9.330  1.00  0.00     0.029 A 
ATOM     57  C   UNL     1      -0.916 -13.189   9.665  1.00  0.00     0.049 A 
ATOM     58  H   UNL     1       0.200 -11.693   8.682  1.00  0.00     0.167 HD
ATOM     59  C   UNL     1      -1.318 -11.149  11.016  1.00  0.00     0.074 A 
ATOM     60  C   UNL     1      -1.917 -10.442  12.129  1.00  0.00     0.031 C 
ATOM     61  C   UNL     1      -1.491 -12.473  10.775  1.00  0.00     0.031 A 
BRANCH  48  62
ATOM     62  C   UNL     1       1.567 -14.563   5.824  1.00  0.00    -0.014 A 
ATOM     63  C   UNL     1       2.867 -15.101   5.833  1.00  0.00     0.010 A 
ATOM     64  C   UNL     1       0.583 -15.171   5.024  1.00  0.00     0.010 A 
ATOM     65  C   UNL     1       3.185 -16.204   5.037  1.00  0.00     0.020 A 
ATOM     66  C   UNL     1       0.888 -16.295   4.250  1.00  0.00     0.020 A 
ATOM     67  C   UNL     1       2.191 -16.797   4.253  1.00  0.00     0.054 A 
BRANCH  67  68
ATOM     68  S   UNL     1       2.623 -18.258   3.268  1.00  0.00     0.124 S 
ATOM     69  O   UNL     1       3.481 -17.682   2.236  1.00  0.00    -0.237 OA
ATOM     70  O   UNL     1       3.300 -19.110   4.243  1.00  0.00    -0.237 OA
ATOM     71  O   UNL     1       1.333 -18.755   2.799  1.00  0.00    -0.744 OA
ENDBRANCH  67  68
ENDBRANCH  48  62
BRANCH  49  72
ATOM     72  C   UNL     1      -0.454  -6.541  11.458  1.00  0.00    -0.014 A 
ATOM     73  C   UNL     1      -0.083  -6.467  12.813  1.00  0.00     0.010 A 
ATOM     74  C   UNL     1      -1.185  -5.478  10.894  1.00  0.00     0.010 A 
ATOM     75  C   UNL     1      -0.477  -5.380  13.599  1.00  0.00     0.020 A 
ATOM     76  C   UNL     1      -1.549  -4.373  11.667  1.00  0.00     0.020 A 
ATOM     77  C   UNL     1      -1.213  -4.342  13.021  1.00  0.00     0.054 A 
BRANCH  77  78
ATOM     78  S   UNL     1      -1.713  -2.939  14.057  1.00  0.00     0.124 S 
ATOM     79  O   UNL     1      -2.765  -3.530  14.878  1.00  0.00    -0.237 OA
ATOM     80  O   UNL     1      -0.475  -2.605  14.755  1.00  0.00    -0.237 OA
ATOM     81  O   UNL     1      -2.161  -1.942  13.087  1.00  0.00    -0.744 OA
ENDBRANCH  77  78
ENDBRANCH  49  72
BRANCH  61  82
ATOM     82  C   UNL     1      -2.302 -13.259  11.772  1.00  0.00    -0.014 A 
ATOM     83  C   UNL     1      -3.690 -13.078  11.903  1.00  0.00     0.010 A 
ATOM     84  C   UNL     1      -1.659 -14.224  12.570  1.00  0.00     0.010 A 
ATOM     85  C   UNL     1      -4.411 -13.813  12.849  1.00  0.00     0.020 A 
ATOM     86  C   UNL     1      -2.382 -14.985  13.491  1.00  0.00     0.020 A 
ATOM     87  C   UNL     1      -3.751 -14.760  13.639  1.00  0.00     0.054 A 
BRANCH  87  88
ATOM     88  S   UNL     1      -4.712 -15.714  14.844  1.00  0.00     0.124 S 
ATOM     89  O   UNL     1      -4.989 -14.714  15.872  1.00  0.00    -0.237 OA
ATOM     90  O   UNL     1      -5.867 -16.148  14.061  1.00  0.00    -0.237 OA
ATOM     91  O   UNL     1      -3.802 -16.784  15.245  1.00  0.00    -0.744 OA
ENDBRANCH  87  88
ENDBRANCH  61  82
ENDBRANCH  35  36
ENDBRANCH  27  30
ENDBRANCH  25  26
ENDBRANCH  24  25
ENDBRANCH  23  24
ENDBRANCH   1  23
TORSDOF 21
