REMARK SMILES COc1ccc(/C=C/c2cc(OC)cc(OC)c2/C=C/C(=O)NCCCCCCNC(=O)c2ccc(-c3c4nc(c(-c5ccc(S(=O)(=O)[O-])cc5)c5ccc([nH]5)c(-c5ccc(S(=O)(=O)[O-])cc5)c5nc(c(-c6ccc(S(=O)(=O)[O-])cc6)c6ccc3[nH]6)C=C5)C=C4)cc2)cc1
REMARK SMILES IDX 26 1 25 2 24 3 23 4 21 5 22 6 20 8 19 9 18 10 9 11 10 12
REMARK SMILES IDX 11 13 15 14 14 15 8 16 7 17 6 18 3 19 4 20 94 21 5 22 93 23
REMARK SMILES IDX 2 24 1 25 12 26 13 27 16 28 17 29 27 30 28 31 29 32 30 33
REMARK SMILES IDX 31 34 32 36 33 37 34 38 92 39 35 40 91 41 36 42 37 43 38 44
REMARK SMILES IDX 85 45 39 46 90 47 84 48 86 49 40 50 89 51 83 52 82 53 41 55
REMARK SMILES IDX 71 56 52 57 70 58 53 59 56 60 69 61 87 62 54 63 55 64 68 66
REMARK SMILES IDX 88 67 57 68 42 69 43 70 51 71 44 72 50 73 45 74 46 75 47 76
REMARK SMILES IDX 48 77 49 78 72 79 73 80 81 81 74 82 80 83 75 84 76 85 77 86
REMARK SMILES IDX 78 87 79 88 58 89 59 90 67 91 60 92 66 93 61 94 62 95 63 96
REMARK SMILES IDX 64 97 65 98
REMARK H PARENT 23 7 30 35 86 54 56 65
REMARK Flexibility Score: inf
ROOT
ATOM      1  C   UNL     1       4.959  -1.644   4.884  1.00  0.00     0.002 C 
ENDROOT
BRANCH   1   2
ATOM      2  C   UNL     1       4.086  -2.905   4.902  1.00  0.00     0.021 C 
BRANCH   2   3
ATOM      3  C   UNL     1       4.697  -4.098   4.173  1.00  0.00     0.116 C 
BRANCH   3   4
ATOM      4  N   UNL     1       5.801  -4.663   4.921  1.00  0.00    -0.353 N 
ATOM      5  C   UNL     1       5.981  -5.943   5.336  1.00  0.00     0.244 C 
ATOM      6  O   UNL     1       7.006  -6.273   5.924  1.00  0.00    -0.270 OA
ATOM      7  H   UNL     1       6.518  -4.033   5.161  1.00  0.00     0.163 HD
BRANCH   5   8
ATOM      8  C   UNL     1       4.955  -6.961   5.030  1.00  0.00     0.072 C 
ATOM      9  C   UNL     1       3.767  -6.955   5.654  1.00  0.00     0.018 C 
BRANCH   9  10
ATOM     10  C   UNL     1       2.807  -8.069   5.541  1.00  0.00     0.024 A 
ATOM     11  C   UNL     1       1.588  -7.845   4.841  1.00  0.00    -0.011 A 
ATOM     12  C   UNL     1       0.638  -8.871   4.707  1.00  0.00     0.055 A 
ATOM     13  C   UNL     1       0.846 -10.113   5.288  1.00  0.00     0.123 A 
ATOM     14  C   UNL     1       3.015  -9.342   6.120  1.00  0.00     0.130 A 
ATOM     15  C   UNL     1       2.034 -10.343   5.971  1.00  0.00     0.093 A 
BRANCH  11  16
ATOM     16  C   UNL     1       1.186  -6.559   4.246  1.00  0.00     0.009 C 
ATOM     17  C   UNL     1       1.727  -6.096   3.111  1.00  0.00     0.009 C 
BRANCH  17  18
ATOM     18  C   UNL     1       1.363  -4.840   2.435  1.00  0.00    -0.025 A 
ATOM     19  C   UNL     1       0.832  -2.436   1.064  1.00  0.00     0.118 A 
ATOM     20  C   UNL     1       0.010  -2.844   2.113  1.00  0.00     0.047 A 
ATOM     21  C   UNL     1       1.894  -3.247   0.674  1.00  0.00     0.047 A 
ATOM     22  C   UNL     1       0.271  -4.039   2.793  1.00  0.00     0.012 A 
ATOM     23  C   UNL     1       2.161  -4.432   1.360  1.00  0.00     0.012 A 
BRANCH  19  24
ATOM     24  O   UNL     1       0.522  -1.229   0.508  1.00  0.00    -0.497 OA
ATOM     25  C   UNL     1       1.434  -0.750  -0.471  1.00  0.00     0.278 C 
ENDBRANCH  19  24
ENDBRANCH  17  18
ENDBRANCH  11  16
BRANCH  13  26
ATOM     26  O   UNL     1      -0.166 -11.016   5.125  1.00  0.00    -0.497 OA
ATOM     27  C   UNL     1      -0.225 -12.057   6.094  1.00  0.00     0.278 C 
ENDBRANCH  13  26
BRANCH  14  28
ATOM     28  O   UNL     1       4.055  -9.828   6.866  1.00  0.00    -0.496 OA
ATOM     29  C   UNL     1       5.095  -9.003   7.357  1.00  0.00     0.278 C 
ENDBRANCH  14  28
ENDBRANCH   9  10
ENDBRANCH   5   8
ENDBRANCH   3   4
ENDBRANCH   2   3
ENDBRANCH   1   2
BRANCH   1  30
ATOM     30  C   UNL     1       5.349  -1.131   3.491  1.00  0.00     0.002 C 
BRANCH  30  31
ATOM     31  C   UNL     1       4.184  -0.960   2.515  1.00  0.00     0.021 C 
BRANCH  31  32
ATOM     32  C   UNL     1       3.146   0.078   2.933  1.00  0.00     0.116 C 
BRANCH  32  33
ATOM     33  N   UNL     1       3.655   1.432   2.795  1.00  0.00    -0.352 N 
ATOM     34  C   UNL     1       3.171   2.495   2.069  1.00  0.00     0.251 C 
ATOM     35  H   UNL     1       4.478   1.619   3.303  1.00  0.00     0.163 HD
ATOM     36  O   UNL     1       3.885   3.484   1.916  1.00  0.00    -0.269 OA
BRANCH  34  37
ATOM     37  C   UNL     1       1.821   2.459   1.450  1.00  0.00     0.039 A 
ATOM     38  C   UNL     1       1.636   3.060   0.198  1.00  0.00     0.014 A 
ATOM     39  C   UNL     1       0.731   1.874   2.094  1.00  0.00     0.014 A 
ATOM     40  C   UNL     1       0.384   3.017  -0.433  1.00  0.00     0.010 A 
ATOM     41  C   UNL     1      -0.493   1.762   1.431  1.00  0.00     0.010 A 
ATOM     42  C   UNL     1      -0.687   2.335   0.162  1.00  0.00    -0.014 A 
BRANCH  42  43
ATOM     43  C   UNL     1      -2.018   2.214  -0.499  1.00  0.00     0.031 A 
ATOM     44  C   UNL     1      -3.231   2.828   0.150  1.00  0.00     0.074 A 
ATOM     45  C   UNL     1      -2.172   1.489  -1.627  1.00  0.00     0.049 A 
ATOM     46  N   UNL     1      -4.478   2.810  -0.249  1.00  0.00    -0.248 NA
ATOM     47  C   UNL     1      -3.014   3.555   1.411  1.00  0.00     0.031 C 
ATOM     48  C   UNL     1      -1.097   0.855  -2.386  1.00  0.00     0.029 A 
ATOM     49  N   UNL     1      -3.306   1.141  -2.322  1.00  0.00    -0.354 N 
ATOM     50  C   UNL     1      -5.187   3.537   0.699  1.00  0.00     0.074 A 
ATOM     51  C   UNL     1      -4.249   3.900   1.739  1.00  0.00     0.031 C 
ATOM     52  C   UNL     1      -1.618   0.152  -3.403  1.00  0.00     0.029 A 
ATOM     53  C   UNL     1      -3.067   0.308  -3.390  1.00  0.00     0.049 A 
ATOM     54  H   UNL     1      -4.205   1.459  -2.078  1.00  0.00     0.167 HD
ATOM     55  C   UNL     1      -6.489   3.911   0.687  1.00  0.00     0.031 A 
ATOM     56  C   UNL     1      -3.906  -0.253  -4.283  1.00  0.00     0.031 A 
ATOM     57  C   UNL     1      -7.429   3.529  -0.332  1.00  0.00     0.049 A 
ATOM     58  C   UNL     1      -5.366   0.092  -4.231  1.00  0.00     0.074 A 
ATOM     59  C   UNL     1      -8.755   3.898  -0.465  1.00  0.00     0.029 A 
ATOM     60  N   UNL     1      -7.146   2.670  -1.385  1.00  0.00    -0.354 N 
ATOM     61  N   UNL     1      -5.997   0.872  -3.387  1.00  0.00    -0.248 NA
ATOM     62  C   UNL     1      -6.219  -0.478  -5.282  1.00  0.00     0.031 C 
ATOM     63  C   UNL     1      -9.293   3.211  -1.559  1.00  0.00     0.029 A 
ATOM     64  C   UNL     1      -8.284   2.466  -2.149  1.00  0.00     0.049 A 
ATOM     65  H   UNL     1      -6.267   2.264  -1.562  1.00  0.00     0.167 HD
ATOM     66  C   UNL     1      -7.311   0.930  -3.836  1.00  0.00     0.074 A 
ATOM     67  C   UNL     1      -7.383   0.101  -5.023  1.00  0.00     0.031 C 
ATOM     68  C   UNL     1      -8.354   1.628  -3.322  1.00  0.00     0.031 A 
BRANCH  55  69
ATOM     69  C   UNL     1      -6.957   4.776   1.830  1.00  0.00    -0.014 A 
ATOM     70  C   UNL     1      -6.463   6.085   1.997  1.00  0.00     0.010 A 
ATOM     71  C   UNL     1      -7.878   4.271   2.764  1.00  0.00     0.010 A 
ATOM     72  C   UNL     1      -6.815   6.839   3.118  1.00  0.00     0.020 A 
ATOM     73  C   UNL     1      -8.261   5.037   3.870  1.00  0.00     0.020 A 
ATOM     74  C   UNL     1      -7.702   6.303   4.056  1.00  0.00     0.054 A 
BRANCH  74  75
ATOM     75  S   UNL     1      -8.109   7.285   5.525  1.00  0.00     0.124 S 
ATOM     76  O   UNL     1      -6.876   7.184   6.303  1.00  0.00    -0.237 OA
ATOM     77  O   UNL     1      -8.390   8.603   4.963  1.00  0.00    -0.237 OA
ATOM     78  O   UNL     1      -9.263   6.594   6.095  1.00  0.00    -0.744 OA
ENDBRANCH  74  75
ENDBRANCH  55  69
BRANCH  56  79
ATOM     79  C   UNL     1      -3.358  -1.118  -5.364  1.00  0.00    -0.014 A 
ATOM     80  C   UNL     1      -3.251  -0.622  -6.675  1.00  0.00     0.010 A 
ATOM     81  C   UNL     1      -2.897  -2.417  -5.083  1.00  0.00     0.010 A 
ATOM     82  C   UNL     1      -2.696  -1.409  -7.687  1.00  0.00     0.020 A 
ATOM     83  C   UNL     1      -2.322  -3.200  -6.091  1.00  0.00     0.020 A 
ATOM     84  C   UNL     1      -2.227  -2.691  -7.388  1.00  0.00     0.054 A 
BRANCH  84  85
ATOM     85  S   UNL     1      -1.441  -3.657  -8.707  1.00  0.00     0.124 S 
ATOM     86  O   UNL     1      -2.571  -3.961  -9.579  1.00  0.00    -0.237 OA
ATOM     87  O   UNL     1      -0.463  -2.713  -9.243  1.00  0.00    -0.237 OA
ATOM     88  O   UNL     1      -0.868  -4.801  -8.001  1.00  0.00    -0.744 OA
ENDBRANCH  84  85
ENDBRANCH  56  79
BRANCH  68  89
ATOM     89  C   UNL     1      -9.667   1.553  -4.056  1.00  0.00    -0.014 A 
ATOM     90  C   UNL     1     -10.439   0.378  -4.059  1.00  0.00     0.010 A 
ATOM     91  C   UNL     1     -10.161   2.698  -4.707  1.00  0.00     0.010 A 
ATOM     92  C   UNL     1     -11.667   0.342  -4.725  1.00  0.00     0.020 A 
ATOM     93  C   UNL     1     -11.403   2.676  -5.347  1.00  0.00     0.020 A 
ATOM     94  C   UNL     1     -12.143   1.492  -5.362  1.00  0.00     0.054 A 
BRANCH  94  95
ATOM     95  S   UNL     1     -13.764   1.433  -6.172  1.00  0.00     0.124 S 
ATOM     96  O   UNL     1     -13.486   0.620  -7.353  1.00  0.00    -0.237 OA
ATOM     97  O   UNL     1     -14.605   0.802  -5.157  1.00  0.00    -0.237 OA
ATOM     98  O   UNL     1     -14.070   2.837  -6.440  1.00  0.00    -0.744 OA
ENDBRANCH  94  95
ENDBRANCH  68  89
ENDBRANCH  42  43
ENDBRANCH  34  37
ENDBRANCH  32  33
ENDBRANCH  31  32
ENDBRANCH  30  31
ENDBRANCH   1  30
TORSDOF 22
