REMARK SMILES Cc1cc(C(=O)NCCCCCCNC(=O)c2ccc(-c3c4nc(c(-c5ccc(S(=O)(=O)[O-])cc5)c5ccc([nH]5)c(-c5ccc(S(=O)(=O)[O-])cc5)c5nc(c(-c6ccc(S(=O)(=O)[O-])cc6)c6ccc3[nH]6)C=C5)C=C4)cc2)ccc1NC(=O)c1ccc(=O)n(CCOc2ccccc2)n1
REMARK SMILES IDX 9 1 8 2 7 3 5 4 6 5 4 7 1 8 2 9 3 10 79 11 78 12 77 13 80 14
REMARK SMILES IDX 81 15 82 17 83 18 84 19 98 20 85 21 88 22 86 23 87 24 89 25
REMARK SMILES IDX 90 26 91 27 92 28 93 29 97 30 94 31 96 32 95 33 10 34 11 35
REMARK SMILES IDX 12 36 13 37 14 38 15 39 16 41 17 42 18 43 76 44 19 45 75 46
REMARK SMILES IDX 20 47 21 48 22 49 69 50 23 51 74 52 68 53 70 54 24 55 73 56
REMARK SMILES IDX 67 57 66 58 25 60 55 61 36 62 54 63 37 64 40 65 53 66 71 67
REMARK SMILES IDX 38 68 39 69 52 71 72 72 41 73 26 74 27 75 35 76 28 77 34 78
REMARK SMILES IDX 29 79 30 80 31 81 32 82 33 83 56 84 57 85 65 86 58 87 64 88
REMARK SMILES IDX 59 89 60 90 61 91 62 92 63 93 42 94 43 95 51 96 44 97 50 98
REMARK SMILES IDX 45 99 46 100 47 101 48 102 49 103
REMARK H PARENT 7 6 80 16 14 40 70 59 40 70
REMARK Flexibility Score: inf
ROOT
ATOM      1  C   UNL     1      -4.814  -1.600  -0.892  1.00  0.00     0.021 C 
ENDROOT
BRANCH   1   2
ATOM      2  C   UNL     1      -3.832  -1.776   0.270  1.00  0.00     0.116 C 
BRANCH   2   3
ATOM      3  N   UNL     1      -2.869  -2.847   0.030  1.00  0.00    -0.352 N 
ATOM      4  C   UNL     1      -1.498  -2.826  -0.098  1.00  0.00     0.251 C 
ATOM      5  O   UNL     1      -0.873  -3.885  -0.076  1.00  0.00    -0.269 OA
ATOM      6  H   UNL     1      -3.270  -3.741  -0.055  1.00  0.00     0.163 HD
BRANCH   4   7
ATOM      7  C   UNL     1      -0.740  -1.554  -0.222  1.00  0.00     0.040 A 
ATOM      8  C   UNL     1       2.699  -0.277   0.777  1.00  0.00     0.046 C 
ATOM      9  C   UNL     1       1.269  -0.236   0.312  1.00  0.00    -0.027 A 
ATOM     10  C   UNL     1       0.548  -1.455   0.324  1.00  0.00     0.019 A 
ATOM     11  C   UNL     1       0.640   0.911  -0.199  1.00  0.00     0.044 A 
ATOM     12  C   UNL     1      -0.524   0.724  -0.945  1.00  0.00     0.027 A 
ATOM     13  C   UNL     1      -1.218  -0.484  -0.957  1.00  0.00     0.016 A 
BRANCH  11  14
ATOM     14  N   UNL     1       1.169   2.199   0.053  1.00  0.00    -0.320 N 
ATOM     15  C   UNL     1       0.520   3.422   0.162  1.00  0.00     0.276 C 
ATOM     16  H   UNL     1       2.146   2.234   0.168  1.00  0.00     0.170 HD
ATOM     17  O   UNL     1       1.128   4.460   0.400  1.00  0.00    -0.267 OA
BRANCH  15  18
ATOM     18  C   UNL     1      -0.988   3.482   0.013  1.00  0.00     0.149 A 
ATOM     19  C   UNL     1      -1.470   3.896  -1.320  1.00  0.00     0.042 A 
ATOM     20  N   UNL     1      -1.751   3.127   1.005  1.00  0.00    -0.164 NA
ATOM     21  C   UNL     1      -2.683   3.443  -1.642  1.00  0.00     0.076 A 
ATOM     22  N   UNL     1      -3.085   2.900   0.677  1.00  0.00    -0.226 N 
ATOM     23  C   UNL     1      -3.478   2.692  -0.641  1.00  0.00     0.266 A 
ATOM     24  O   UNL     1      -4.428   2.009  -1.005  1.00  0.00    -0.268 OA
BRANCH  22  25
ATOM     25  C   UNL     1      -4.027   2.663   1.772  1.00  0.00     0.190 C 
BRANCH  25  26
ATOM     26  C   UNL     1      -4.753   3.954   2.195  1.00  0.00     0.253 C 
BRANCH  26  27
ATOM     27  O   UNL     1      -5.970   4.149   1.448  1.00  0.00    -0.492 OA
BRANCH  27  28
ATOM     28  C   UNL     1      -5.884   5.202   0.581  1.00  0.00     0.119 A 
ATOM     29  C   UNL     1      -6.021   6.518   1.014  1.00  0.00     0.046 A 
ATOM     30  C   UNL     1      -5.736   4.933  -0.775  1.00  0.00     0.046 A 
ATOM     31  C   UNL     1      -5.900   7.562   0.092  1.00  0.00     0.004 A 
ATOM     32  C   UNL     1      -5.555   5.969  -1.687  1.00  0.00     0.004 A 
ATOM     33  C   UNL     1      -5.630   7.288  -1.251  1.00  0.00     0.000 A 
ENDBRANCH  27  28
ENDBRANCH  26  27
ENDBRANCH  25  26
ENDBRANCH  22  25
ENDBRANCH  15  18
ENDBRANCH  11  14
ENDBRANCH   4   7
ENDBRANCH   2   3
ENDBRANCH   1   2
BRANCH   1  34
ATOM     34  C   UNL     1      -5.920  -2.662  -0.990  1.00  0.00     0.002 C 
BRANCH  34  35
ATOM     35  C   UNL     1      -6.832  -2.829   0.237  1.00  0.00     0.002 C 
BRANCH  35  36
ATOM     36  C   UNL     1      -7.439  -1.546   0.809  1.00  0.00     0.021 C 
BRANCH  36  37
ATOM     37  C   UNL     1      -8.459  -0.881  -0.111  1.00  0.00     0.116 C 
BRANCH  37  38
ATOM     38  N   UNL     1      -9.822  -0.963   0.396  1.00  0.00    -0.352 N 
ATOM     39  C   UNL     1     -10.920  -0.245  -0.043  1.00  0.00     0.251 C 
ATOM     40  H   UNL     1      -9.978  -1.599   1.131  1.00  0.00     0.163 HD
ATOM     41  O   UNL     1     -11.931  -0.099   0.625  1.00  0.00    -0.269 OA
BRANCH  39  42
ATOM     42  C   UNL     1     -10.883   0.202  -1.450  1.00  0.00     0.039 A 
ATOM     43  C   UNL     1     -11.681  -0.503  -2.360  1.00  0.00     0.014 A 
ATOM     44  C   UNL     1      -9.899   1.085  -1.883  1.00  0.00     0.014 A 
ATOM     45  C   UNL     1     -11.386  -0.442  -3.718  1.00  0.00     0.010 A 
ATOM     46  C   UNL     1      -9.557   1.080  -3.222  1.00  0.00     0.010 A 
ATOM     47  C   UNL     1     -10.270   0.284  -4.133  1.00  0.00    -0.014 A 
BRANCH  47  48
ATOM     48  C   UNL     1      -9.731   0.233  -5.489  1.00  0.00     0.031 A 
ATOM     49  C   UNL     1      -9.959   1.365  -6.417  1.00  0.00     0.074 A 
ATOM     50  C   UNL     1      -8.962  -0.806  -5.884  1.00  0.00     0.049 A 
ATOM     51  N   UNL     1      -9.845   1.294  -7.701  1.00  0.00    -0.248 NA
ATOM     52  C   UNL     1     -10.392   2.679  -5.951  1.00  0.00     0.031 C 
ATOM     53  C   UNL     1      -8.113  -0.864  -7.072  1.00  0.00     0.029 A 
ATOM     54  N   UNL     1      -8.970  -2.120  -5.414  1.00  0.00    -0.354 N 
ATOM     55  C   UNL     1      -9.889   2.579  -8.193  1.00  0.00     0.074 A 
ATOM     56  C   UNL     1     -10.308   3.394  -7.076  1.00  0.00     0.031 C 
ATOM     57  C   UNL     1      -7.947  -2.151  -7.412  1.00  0.00     0.029 A 
ATOM     58  C   UNL     1      -8.813  -2.935  -6.550  1.00  0.00     0.049 A 
ATOM     59  H   UNL     1      -9.066  -2.416  -4.480  1.00  0.00     0.167 HD
ATOM     60  C   UNL     1      -9.446   2.838  -9.457  1.00  0.00     0.031 A 
ATOM     61  C   UNL     1      -9.757  -3.828  -6.974  1.00  0.00     0.031 A 
ATOM     62  C   UNL     1      -9.091   1.620 -10.184  1.00  0.00     0.049 A 
ATOM     63  C   UNL     1     -10.248  -3.573  -8.391  1.00  0.00     0.074 A 
ATOM     64  C   UNL     1      -7.902   1.010 -10.548  1.00  0.00     0.029 A 
ATOM     65  N   UNL     1     -10.087   0.689 -10.430  1.00  0.00    -0.354 N 
ATOM     66  N   UNL     1      -9.853  -2.585  -9.146  1.00  0.00    -0.248 NA
ATOM     67  C   UNL     1     -11.309  -4.359  -9.027  1.00  0.00     0.031 C 
ATOM     68  C   UNL     1      -8.200  -0.305 -11.012  1.00  0.00     0.029 A 
ATOM     69  C   UNL     1      -9.568  -0.485 -10.937  1.00  0.00     0.049 A 
ATOM     70  H   UNL     1     -11.045   0.845 -10.264  1.00  0.00     0.167 HD
ATOM     71  C   UNL     1     -10.600  -2.556 -10.293  1.00  0.00     0.074 A 
ATOM     72  C   UNL     1     -11.489  -3.697 -10.183  1.00  0.00     0.031 C 
ATOM     73  C   UNL     1     -10.480  -1.575 -11.231  1.00  0.00     0.031 A 
BRANCH  60  74
ATOM     74  C   UNL     1      -9.120   4.230  -9.951  1.00  0.00    -0.014 A 
ATOM     75  C   UNL     1      -8.117   4.408 -10.926  1.00  0.00     0.010 A 
ATOM     76  C   UNL     1      -9.725   5.404  -9.464  1.00  0.00     0.010 A 
ATOM     77  C   UNL     1      -7.663   5.681 -11.305  1.00  0.00     0.020 A 
ATOM     78  C   UNL     1      -9.255   6.683  -9.800  1.00  0.00     0.020 A 
ATOM     79  C   UNL     1      -8.213   6.814 -10.710  1.00  0.00     0.054 A 
BRANCH  79  80
ATOM     80  S   UNL     1      -7.541   8.445 -11.123  1.00  0.00     0.124 S 
ATOM     81  O   UNL     1      -6.119   8.284 -10.827  1.00  0.00    -0.237 OA
ATOM     82  O   UNL     1      -7.880   8.576 -12.536  1.00  0.00    -0.237 OA
ATOM     83  O   UNL     1      -8.255   9.351 -10.225  1.00  0.00    -0.744 OA
ENDBRANCH  79  80
ENDBRANCH  60  74
BRANCH  61  84
ATOM     84  C   UNL     1     -10.586  -4.399  -5.876  1.00  0.00    -0.014 A 
ATOM     85  C   UNL     1      -9.937  -5.221  -4.928  1.00  0.00     0.010 A 
ATOM     86  C   UNL     1     -11.824  -3.825  -5.543  1.00  0.00     0.010 A 
ATOM     87  C   UNL     1     -10.422  -5.318  -3.622  1.00  0.00     0.020 A 
ATOM     88  C   UNL     1     -12.320  -3.935  -4.237  1.00  0.00     0.020 A 
ATOM     89  C   UNL     1     -11.578  -4.621  -3.271  1.00  0.00     0.054 A 
BRANCH  89  90
ATOM     90  S   UNL     1     -11.983  -4.472  -1.504  1.00  0.00     0.124 S 
ATOM     91  O   UNL     1     -12.125  -5.865  -1.097  1.00  0.00    -0.237 OA
ATOM     92  O   UNL     1     -10.807  -3.779  -0.978  1.00  0.00    -0.237 OA
ATOM     93  O   UNL     1     -13.214  -3.688  -1.510  1.00  0.00    -0.744 OA
ENDBRANCH  89  90
ENDBRANCH  61  84
BRANCH  73  94
ATOM     94  C   UNL     1     -11.270  -1.549 -12.508  1.00  0.00    -0.014 A 
ATOM     95  C   UNL     1     -11.419  -2.689 -13.314  1.00  0.00     0.010 A 
ATOM     96  C   UNL     1     -11.780  -0.328 -12.999  1.00  0.00     0.010 A 
ATOM     97  C   UNL     1     -12.101  -2.622 -14.537  1.00  0.00     0.020 A 
ATOM     98  C   UNL     1     -12.446  -0.247 -14.224  1.00  0.00     0.020 A 
ATOM     99  C   UNL     1     -12.620  -1.402 -14.979  1.00  0.00     0.054 A 
BRANCH  99 100
ATOM    100  S   UNL     1     -13.473  -1.326 -16.575  1.00  0.00     0.124 S 
ATOM    101  O   UNL     1     -12.644  -2.178 -17.425  1.00  0.00    -0.237 OA
ATOM    102  O   UNL     1     -14.788  -1.865 -16.239  1.00  0.00    -0.237 OA
ATOM    103  O   UNL     1     -13.447   0.095 -16.915  1.00  0.00    -0.744 OA
ENDBRANCH  99 100
ENDBRANCH  73  94
ENDBRANCH  47  48
ENDBRANCH  39  42
ENDBRANCH  37  38
ENDBRANCH  36  37
ENDBRANCH  35  36
ENDBRANCH  34  35
ENDBRANCH   1  34
TORSDOF 22
