REMARK SMILES O=C(CCN1C(=O)/C(=C/c2cc(Br)cc(Br)c2O)SC1=S)NCCCCCCNC(=O)c1ccc(-c2c3nc(c(-c4ccc(S(=O)(=O)[O-])cc4)c4ccc([nH]4)c(-c4ccc(S(=O)(=O)[O-])cc4)c4nc(c(-c5ccc(S(=O)(=O)[O-])cc5)c5ccc2[nH]5)C=C4)C=C3)cc1
REMARK SMILES IDX 25 1 24 2 23 3 22 4 1 5 2 6 3 8 4 9 5 10 6 11 20 12 7 13
REMARK SMILES IDX 8 14 19 15 21 16 9 17 10 18 11 19 17 20 12 21 15 22 13 23
REMARK SMILES IDX 14 24 16 25 18 26 26 28 27 29 28 30 29 31 30 32 31 34 32 35
REMARK SMILES IDX 33 36 91 37 34 38 90 39 35 40 36 41 37 42 84 43 38 44 89 45
REMARK SMILES IDX 83 46 85 47 39 48 88 49 82 50 81 51 40 53 70 54 51 55 69 56
REMARK SMILES IDX 52 57 55 58 68 59 86 60 53 61 54 62 67 64 87 65 56 66 41 67
REMARK SMILES IDX 42 68 50 69 43 70 49 71 44 72 45 73 46 74 47 75 48 76 71 77
REMARK SMILES IDX 72 78 80 79 73 80 79 81 74 82 75 83 76 84 77 85 78 86 57 87
REMARK SMILES IDX 58 88 66 89 59 90 65 91 60 92 61 93 62 94 63 95 64 96
REMARK H PARENT 22 7 18 27 29 33 85 52 55 63
REMARK Flexibility Score: inf
ROOT
ATOM      1  C   UNL     1       3.833  -3.458   1.231  1.00  0.00     0.002 C 
ENDROOT
BRANCH   1   2
ATOM      2  C   UNL     1       2.331  -3.174   1.093  1.00  0.00     0.021 C 
BRANCH   2   3
ATOM      3  C   UNL     1       1.884  -1.784   1.557  1.00  0.00     0.116 C 
BRANCH   3   4
ATOM      4  N   UNL     1       2.568  -0.729   0.828  1.00  0.00    -0.356 N 
ATOM      5  O   UNL     1       0.684   0.406   0.201  1.00  0.00    -0.275 OA
ATOM      6  C   UNL     1       1.904   0.270   0.163  1.00  0.00     0.221 C 
ATOM      7  H   UNL     1       3.552  -0.731   0.811  1.00  0.00     0.163 HD
BRANCH   6   8
ATOM      8  C   UNL     1       2.749   1.131  -0.756  1.00  0.00     0.122 C 
BRANCH   8   9
ATOM      9  C   UNL     1       4.006   1.784  -0.179  1.00  0.00     0.137 C 
BRANCH   9  10
ATOM     10  N   UNL     1       5.119   0.928   0.265  1.00  0.00    -0.292 N 
ATOM     11  C   UNL     1       5.827   1.331   1.393  1.00  0.00     0.266 C 
ATOM     12  C   UNL     1       5.696  -0.112  -0.433  1.00  0.00     0.148 C 
ATOM     13  O   UNL     1       5.663   2.369   2.019  1.00  0.00    -0.268 OA
ATOM     14  C   UNL     1       6.861   0.320   1.756  1.00  0.00     0.081 C 
ATOM     15  S   UNL     1       6.819  -0.958   0.618  1.00  0.00    -0.054 SA
ATOM     16  S   UNL     1       5.450  -0.601  -2.003  1.00  0.00    -0.052 S 
ATOM     17  C   UNL     1       7.617   0.453   2.860  1.00  0.00     0.033 C 
BRANCH  17  18
ATOM     18  C   UNL     1       8.470  -0.577   3.498  1.00  0.00     0.020 A 
ATOM     19  C   UNL     1       9.290  -1.421   2.731  1.00  0.00     0.027 A 
ATOM     20  C   UNL     1       8.445  -0.778   4.895  1.00  0.00     0.137 A 
ATOM     21  C   UNL     1       9.946  -2.508   3.313  1.00  0.00     0.019 A 
ATOM     22  C   UNL     1       9.137  -1.856   5.473  1.00  0.00     0.061 A 
ATOM     23  Br  UNL     1      10.921  -3.701   2.217  1.00  0.00    -0.051 Br
ATOM     24  C   UNL     1       9.862  -2.741   4.679  1.00  0.00     0.035 A 
ATOM     25  Br  UNL     1       9.091  -2.176   7.346  1.00  0.00    -0.047 Br
BRANCH  20  26
ATOM     26  O   UNL     1       7.738   0.036   5.745  1.00  0.00    -0.506 OA
ATOM     27  H   UNL     1       7.261   0.767   5.405  1.00  0.00     0.293 HD
ENDBRANCH  20  26
ENDBRANCH  17  18
ENDBRANCH   9  10
ENDBRANCH   8   9
ENDBRANCH   6   8
ENDBRANCH   3   4
ENDBRANCH   2   3
ENDBRANCH   1   2
BRANCH   1  28
ATOM     28  C   UNL     1       4.422  -3.249   2.629  1.00  0.00     0.002 C 
BRANCH  28  29
ATOM     29  C   UNL     1       3.816  -4.128   3.724  1.00  0.00     0.021 C 
BRANCH  29  30
ATOM     30  C   UNL     1       3.986  -5.629   3.512  1.00  0.00     0.116 C 
BRANCH  30  31
ATOM     31  N   UNL     1       5.379  -6.047   3.546  1.00  0.00    -0.352 N 
ATOM     32  C   UNL     1       5.940  -7.131   4.178  1.00  0.00     0.251 C 
ATOM     33  H   UNL     1       6.006  -5.475   3.048  1.00  0.00     0.163 HD
ATOM     34  O   UNL     1       7.162  -7.247   4.224  1.00  0.00    -0.269 OA
BRANCH  32  35
ATOM     35  C   UNL     1       5.073  -8.142   4.826  1.00  0.00     0.039 A 
ATOM     36  C   UNL     1       5.411  -8.609   6.099  1.00  0.00     0.014 A 
ATOM     37  C   UNL     1       3.933  -8.632   4.182  1.00  0.00     0.014 A 
ATOM     38  C   UNL     1       4.577  -9.524   6.748  1.00  0.00     0.010 A 
ATOM     39  C   UNL     1       3.067  -9.489   4.858  1.00  0.00     0.010 A 
ATOM     40  C   UNL     1       3.383  -9.951   6.144  1.00  0.00    -0.014 A 
BRANCH  40  41
ATOM     41  C   UNL     1       2.467 -10.902   6.828  1.00  0.00     0.031 A 
ATOM     42  C   UNL     1       2.223 -12.266   6.236  1.00  0.00     0.074 A 
ATOM     43  C   UNL     1       1.813 -10.526   7.946  1.00  0.00     0.049 A 
ATOM     44  N   UNL     1       1.398 -13.202   6.630  1.00  0.00    -0.248 NA
ATOM     45  C   UNL     1       2.990 -12.614   5.028  1.00  0.00     0.031 C 
ATOM     46  C   UNL     1       1.930  -9.220   8.601  1.00  0.00     0.029 A 
ATOM     47  N   UNL     1       0.910 -11.206   8.725  1.00  0.00    -0.354 N 
ATOM     48  C   UNL     1       1.538 -14.240   5.717  1.00  0.00     0.074 A 
ATOM     49  C   UNL     1       2.486 -13.799   4.717  1.00  0.00     0.031 C 
ATOM     50  C   UNL     1       1.142  -9.201   9.689  1.00  0.00     0.029 A 
ATOM     51  C   UNL     1       0.439 -10.476   9.792  1.00  0.00     0.049 A 
ATOM     52  H   UNL     1       0.626 -12.129   8.537  1.00  0.00     0.167 HD
ATOM     53  C   UNL     1       0.953 -15.462   5.721  1.00  0.00     0.031 A 
ATOM     54  C   UNL     1      -0.461 -10.795  10.742  1.00  0.00     0.031 A 
ATOM     55  C   UNL     1       0.024 -15.910   6.723  1.00  0.00     0.049 A 
ATOM     56  C   UNL     1      -1.091 -12.163  10.729  1.00  0.00     0.074 A 
ATOM     57  C   UNL     1      -0.610 -17.137   6.824  1.00  0.00     0.029 A 
ATOM     58  N   UNL     1      -0.390 -15.155   7.810  1.00  0.00    -0.354 N 
ATOM     59  N   UNL     1      -0.921 -13.140   9.871  1.00  0.00    -0.248 NA
ATOM     60  C   UNL     1      -2.019 -12.477  11.824  1.00  0.00     0.031 C 
ATOM     61  C   UNL     1      -1.428 -17.114   7.958  1.00  0.00     0.029 A 
ATOM     62  C   UNL     1      -1.266 -15.891   8.589  1.00  0.00     0.049 A 
ATOM     63  H   UNL     1      -0.104 -14.232   7.999  1.00  0.00     0.167 HD
ATOM     64  C   UNL     1      -1.691 -14.197  10.346  1.00  0.00     0.074 A 
ATOM     65  C   UNL     1      -2.317 -13.744  11.570  1.00  0.00     0.031 C 
ATOM     66  C   UNL     1      -1.863 -15.433   9.816  1.00  0.00     0.031 A 
BRANCH  53  67
ATOM     67  C   UNL     1       1.320 -16.413   4.613  1.00  0.00    -0.014 A 
ATOM     68  C   UNL     1       2.594 -17.008   4.572  1.00  0.00     0.010 A 
ATOM     69  C   UNL     1       0.371 -16.758   3.634  1.00  0.00     0.010 A 
ATOM     70  C   UNL     1       2.924 -17.907   3.555  1.00  0.00     0.020 A 
ATOM     71  C   UNL     1       0.689 -17.678   2.630  1.00  0.00     0.020 A 
ATOM     72  C   UNL     1       1.969 -18.236   2.590  1.00  0.00     0.054 A 
BRANCH  72  73
ATOM     73  S   UNL     1       2.412 -19.437   1.305  1.00  0.00     0.124 S 
ATOM     74  O   UNL     1       3.304 -18.652   0.455  1.00  0.00    -0.237 OA
ATOM     75  O   UNL     1       3.053 -20.504   2.070  1.00  0.00    -0.237 OA
ATOM     76  O   UNL     1       1.129 -19.791   0.703  1.00  0.00    -0.744 OA
ENDBRANCH  72  73
ENDBRANCH  53  67
BRANCH  54  77
ATOM     77  C   UNL     1      -0.822  -9.808  11.798  1.00  0.00    -0.014 A 
ATOM     78  C   UNL     1      -0.430 -10.011  13.133  1.00  0.00     0.010 A 
ATOM     79  C   UNL     1      -1.589  -8.674  11.476  1.00  0.00     0.010 A 
ATOM     80  C   UNL     1      -0.834  -9.122  14.134  1.00  0.00     0.020 A 
ATOM     81  C   UNL     1      -1.969  -7.766  12.469  1.00  0.00     0.020 A 
ATOM     82  C   UNL     1      -1.607  -8.008  13.796  1.00  0.00     0.054 A 
BRANCH  82  83
ATOM     83  S   UNL     1      -2.115  -6.859  15.106  1.00  0.00     0.124 S 
ATOM     84  O   UNL     1      -3.202  -7.593  15.746  1.00  0.00    -0.237 OA
ATOM     85  O   UNL     1      -0.894  -6.718  15.895  1.00  0.00    -0.237 OA
ATOM     86  O   UNL     1      -2.514  -5.661  14.370  1.00  0.00    -0.744 OA
ENDBRANCH  82  83
ENDBRANCH  54  77
BRANCH  66  87
ATOM     87  C   UNL     1      -2.711 -16.407  10.589  1.00  0.00    -0.014 A 
ATOM     88  C   UNL     1      -4.109 -16.274  10.652  1.00  0.00     0.010 A 
ATOM     89  C   UNL     1      -2.095 -17.501  11.224  1.00  0.00     0.010 A 
ATOM     90  C   UNL     1      -4.873 -17.200  11.368  1.00  0.00     0.020 A 
ATOM     91  C   UNL     1      -2.858 -18.442  11.919  1.00  0.00     0.020 A 
ATOM     92  C   UNL     1      -4.241 -18.276  12.000  1.00  0.00     0.054 A 
BRANCH  92  93
ATOM     93  S   UNL     1      -5.256 -19.484  12.895  1.00  0.00     0.124 S 
ATOM     94  O   UNL     1      -5.586 -18.757  14.118  1.00  0.00    -0.237 OA
ATOM     95  O   UNL     1      -6.372 -19.710  11.979  1.00  0.00    -0.237 OA
ATOM     96  O   UNL     1      -4.362 -20.626  13.071  1.00  0.00    -0.744 OA
ENDBRANCH  92  93
ENDBRANCH  66  87
ENDBRANCH  40  41
ENDBRANCH  32  35
ENDBRANCH  30  31
ENDBRANCH  29  30
ENDBRANCH  28  29
ENDBRANCH   1  28
TORSDOF 20
