REMARK SMILES C[C@@H]1CN(S(=O)(=O)c2cccc(C(=O)N3CCC[C@@H]3C(=O)NCCCCCCNC(=O)c3ccc(-c4c5nc(c(-c6ccc(S(=O)(=O)[O-])cc6)c6ccc([nH]6)c(-c6ccc(S(=O)(=O)[O-])cc6)c6nc(c(-c7ccc(S(=O)(=O)[O-])cc7)c7ccc4[nH]7)C=C6)C=C5)cc3)c2)C[C@H](C)O1
REMARK SMILES IDX 25 1 24 2 23 3 22 4 20 5 21 6 19 8 15 9 16 10 17 11 18 12
REMARK SMILES IDX 13 13 14 14 12 15 8 16 9 17 92 18 10 19 11 20 5 21 6 22 7 23
REMARK SMILES IDX 4 24 1 25 2 26 3 27 96 28 94 29 93 30 95 31 26 32 27 33
REMARK SMILES IDX 28 34 29 35 30 36 31 38 32 39 33 40 91 41 34 42 90 43 35 44
REMARK SMILES IDX 36 45 37 46 84 47 38 48 89 49 83 50 85 51 39 52 88 53 82 54
REMARK SMILES IDX 81 55 40 57 70 58 51 59 69 60 52 61 55 62 68 63 86 64 53 65
REMARK SMILES IDX 54 66 67 68 87 69 56 70 41 71 42 72 50 73 43 74 49 75 44 76
REMARK SMILES IDX 45 77 46 78 47 79 48 80 71 81 72 82 80 83 73 84 79 85 74 86
REMARK SMILES IDX 75 87 76 88 77 89 78 90 57 91 58 92 66 93 59 94 65 95 60 96
REMARK SMILES IDX 61 97 62 98 63 99 64 100
REMARK H PARENT 22 7 29 37 85 56 55 67
REMARK Flexibility Score: inf
ROOT
ATOM      1  C   UNL     1       0.072  -0.146   2.217  1.00  0.00     0.002 C 
ENDROOT
BRANCH   1   2
ATOM      2  C   UNL     1      -0.766  -0.673   1.042  1.00  0.00     0.021 C 
BRANCH   2   3
ATOM      3  C   UNL     1      -1.000  -2.186   0.966  1.00  0.00     0.116 C 
BRANCH   3   4
ATOM      4  N   UNL     1      -2.178  -2.574   1.719  1.00  0.00    -0.354 N 
ATOM      5  C   UNL     1      -3.356  -3.140   1.328  1.00  0.00     0.242 C 
ATOM      6  O   UNL     1      -4.276  -3.110   2.156  1.00  0.00    -0.273 OA
ATOM      7  H   UNL     1      -2.117  -2.396   2.685  1.00  0.00     0.163 HD
BRANCH   5   8
ATOM      8  C   UNL     1      -3.643  -3.631  -0.108  1.00  0.00     0.174 C 
ATOM      9  N   UNL     1      -2.582  -4.304  -0.851  1.00  0.00    -0.327 N 
ATOM     10  C   UNL     1      -2.878  -4.157  -2.267  1.00  0.00     0.121 C 
ATOM     11  C   UNL     1      -3.295  -2.704  -2.349  1.00  0.00     0.024 C 
ATOM     12  C   UNL     1      -4.064  -2.478  -1.041  1.00  0.00     0.037 C 
BRANCH   9  13
ATOM     13  C   UNL     1      -2.002  -5.438  -0.306  1.00  0.00     0.254 C 
ATOM     14  O   UNL     1      -2.586  -6.139   0.516  1.00  0.00    -0.269 OA
BRANCH  13  15
ATOM     15  C   UNL     1      -0.542  -5.655  -0.562  1.00  0.00     0.041 A 
ATOM     16  C   UNL     1       1.548  -5.124  -1.679  1.00  0.00     0.083 A 
ATOM     17  C   UNL     1       2.234  -6.012  -0.848  1.00  0.00     0.022 A 
ATOM     18  C   UNL     1       0.177  -4.933  -1.518  1.00  0.00     0.035 A 
ATOM     19  C   UNL     1       1.530  -6.731   0.120  1.00  0.00     0.002 A 
ATOM     20  C   UNL     1       0.148  -6.565   0.251  1.00  0.00     0.014 A 
BRANCH  16  21
ATOM     21  S   UNL     1       2.335  -4.473  -3.139  1.00  0.00     0.243 S 
ATOM     22  O   UNL     1       1.471  -4.801  -4.253  1.00  0.00    -0.207 OA
ATOM     23  O   UNL     1       3.711  -4.917  -3.094  1.00  0.00    -0.207 OA
BRANCH  21  24
ATOM     24  N   UNL     1       2.349  -2.766  -2.995  1.00  0.00    -0.193 NA
ATOM     25  C   UNL     1       0.526   0.367  -2.318  1.00  0.00     0.040 C 
ATOM     26  C   UNL     1       1.090  -0.533  -3.410  1.00  0.00     0.130 C 
ATOM     27  C   UNL     1       1.038  -2.048  -3.040  1.00  0.00     0.134 C 
ATOM     28  O   UNL     1       2.320   0.048  -3.836  1.00  0.00    -0.373 OA
ATOM     29  C   UNL     1       3.510  -0.712  -3.640  1.00  0.00     0.130 C 
ATOM     30  C   UNL     1       3.294  -2.171  -3.999  1.00  0.00     0.134 C 
ATOM     31  C   UNL     1       4.048  -0.557  -2.225  1.00  0.00     0.040 C 
ENDBRANCH  21  24
ENDBRANCH  16  21
ENDBRANCH  13  15
ENDBRANCH   9  13
ENDBRANCH   5   8
ENDBRANCH   3   4
ENDBRANCH   2   3
ENDBRANCH   1   2
BRANCH   1  32
ATOM     32  C   UNL     1       1.557  -0.556   2.287  1.00  0.00     0.002 C 
BRANCH  32  33
ATOM     33  C   UNL     1       2.460  -0.225   1.085  1.00  0.00     0.021 C 
BRANCH  33  34
ATOM     34  C   UNL     1       2.680   1.266   0.761  1.00  0.00     0.116 C 
BRANCH  34  35
ATOM     35  N   UNL     1       3.850   1.830   1.421  1.00  0.00    -0.352 N 
ATOM     36  C   UNL     1       5.090   2.244   0.984  1.00  0.00     0.251 C 
ATOM     37  H   UNL     1       3.729   1.940   2.392  1.00  0.00     0.163 HD
ATOM     38  O   UNL     1       5.901   2.583   1.849  1.00  0.00    -0.269 OA
BRANCH  36  39
ATOM     39  C   UNL     1       5.536   2.279  -0.443  1.00  0.00     0.039 A 
ATOM     40  C   UNL     1       6.867   1.922  -0.713  1.00  0.00     0.014 A 
ATOM     41  C   UNL     1       4.755   2.733  -1.508  1.00  0.00     0.014 A 
ATOM     42  C   UNL     1       7.385   1.954  -2.021  1.00  0.00     0.010 A 
ATOM     43  C   UNL     1       5.256   2.698  -2.832  1.00  0.00     0.010 A 
ATOM     44  C   UNL     1       6.579   2.305  -3.114  1.00  0.00    -0.014 A 
BRANCH  44  45
ATOM     45  C   UNL     1       7.126   2.265  -4.516  1.00  0.00     0.031 A 
ATOM     46  C   UNL     1       7.190   3.511  -5.376  1.00  0.00     0.074 A 
ATOM     47  C   UNL     1       7.584   1.111  -5.054  1.00  0.00     0.049 A 
ATOM     48  N   UNL     1       7.650   3.652  -6.598  1.00  0.00    -0.248 NA
ATOM     49  C   UNL     1       6.661   4.753  -4.796  1.00  0.00     0.031 C 
ATOM     50  C   UNL     1       7.591  -0.194  -4.392  1.00  0.00     0.029 A 
ATOM     51  N   UNL     1       8.144   0.850  -6.288  1.00  0.00    -0.354 N 
ATOM     52  C   UNL     1       7.447   4.986  -6.938  1.00  0.00     0.074 A 
ATOM     53  C   UNL     1       6.787   5.603  -5.806  1.00  0.00     0.031 C 
ATOM     54  C   UNL     1       8.152  -1.104  -5.207  1.00  0.00     0.029 A 
ATOM     55  C   UNL     1       8.525  -0.461  -6.466  1.00  0.00     0.049 A 
ATOM     56  H   UNL     1       8.261   1.541  -6.981  1.00  0.00     0.167 HD
ATOM     57  C   UNL     1       7.787   5.653  -8.070  1.00  0.00     0.031 A 
ATOM     58  C   UNL     1       9.112  -1.090  -7.506  1.00  0.00     0.031 A 
ATOM     59  C   UNL     1       8.470   5.083  -9.202  1.00  0.00     0.049 A 
ATOM     60  C   UNL     1       9.482  -0.332  -8.754  1.00  0.00     0.074 A 
ATOM     61  C   UNL     1       8.899   5.722 -10.356  1.00  0.00     0.029 A 
ATOM     62  N   UNL     1       8.828   3.753  -9.332  1.00  0.00    -0.354 N 
ATOM     63  N   UNL     1       9.329   0.942  -9.019  1.00  0.00    -0.248 NA
ATOM     64  C   UNL     1      10.115  -1.099  -9.840  1.00  0.00     0.031 C 
ATOM     65  C   UNL     1       9.481   4.769 -11.200  1.00  0.00     0.029 A 
ATOM     66  C   UNL     1       9.453   3.547 -10.553  1.00  0.00     0.049 A 
ATOM     67  H   UNL     1       8.663   3.055  -8.657  1.00  0.00     0.167 HD
ATOM     68  C   UNL     1       9.871   1.131 -10.288  1.00  0.00     0.074 A 
ATOM     69  C   UNL     1      10.363  -0.153 -10.736  1.00  0.00     0.031 C 
ATOM     70  C   UNL     1       9.951   2.275 -11.010  1.00  0.00     0.031 A 
BRANCH  57  71
ATOM     71  C   UNL     1       7.414   7.111  -8.148  1.00  0.00    -0.014 A 
ATOM     72  C   UNL     1       8.118   8.078  -7.409  1.00  0.00     0.010 A 
ATOM     73  C   UNL     1       6.377   7.522  -9.005  1.00  0.00     0.010 A 
ATOM     74  C   UNL     1       7.758   9.425  -7.487  1.00  0.00     0.020 A 
ATOM     75  C   UNL     1       6.030   8.872  -9.104  1.00  0.00     0.020 A 
ATOM     76  C   UNL     1       6.709   9.812  -8.327  1.00  0.00     0.054 A 
BRANCH  76  77
ATOM     77  S   UNL     1       6.260  11.568  -8.411  1.00  0.00     0.124 S 
ATOM     78  O   UNL     1       5.504  11.742  -7.173  1.00  0.00    -0.237 OA
ATOM     79  O   UNL     1       7.559  12.234  -8.452  1.00  0.00    -0.237 OA
ATOM     80  O   UNL     1       5.475  11.665  -9.639  1.00  0.00    -0.744 OA
ENDBRANCH  76  77
ENDBRANCH  57  71
BRANCH  58  81
ATOM     81  C   UNL     1       9.416  -2.546  -7.417  1.00  0.00    -0.014 A 
ATOM     82  C   UNL     1      10.743  -2.987  -7.262  1.00  0.00     0.010 A 
ATOM     83  C   UNL     1       8.384  -3.497  -7.507  1.00  0.00     0.010 A 
ATOM     84  C   UNL     1      11.034  -4.353  -7.216  1.00  0.00     0.020 A 
ATOM     85  C   UNL     1       8.669  -4.864  -7.438  1.00  0.00     0.020 A 
ATOM     86  C   UNL     1       9.995  -5.284  -7.305  1.00  0.00     0.054 A 
BRANCH  86  87
ATOM     87  S   UNL     1      10.389  -7.052  -7.199  1.00  0.00     0.124 S 
ATOM     88  O   UNL     1      10.910  -7.327  -8.534  1.00  0.00    -0.237 OA
ATOM     89  O   UNL     1      11.367  -7.095  -6.115  1.00  0.00    -0.237 OA
ATOM     90  O   UNL     1       9.101  -7.669  -6.889  1.00  0.00    -0.744 OA
ENDBRANCH  86  87
ENDBRANCH  58  81
BRANCH  70  91
ATOM     91  C   UNL     1      10.621   2.215 -12.358  1.00  0.00    -0.014 A 
ATOM     92  C   UNL     1       9.981   1.632 -13.466  1.00  0.00     0.010 A 
ATOM     93  C   UNL     1      11.888   2.803 -12.535  1.00  0.00     0.010 A 
ATOM     94  C   UNL     1      10.603   1.618 -14.719  1.00  0.00     0.020 A 
ATOM     95  C   UNL     1      12.505   2.809 -13.790  1.00  0.00     0.020 A 
ATOM     96  C   UNL     1      11.862   2.205 -14.873  1.00  0.00     0.054 A 
BRANCH  96  97
ATOM     97  S   UNL     1      12.629   2.224 -16.520  1.00  0.00     0.124 S 
ATOM     98  O   UNL     1      13.118   0.854 -16.643  1.00  0.00    -0.237 OA
ATOM     99  O   UNL     1      11.511   2.572 -17.393  1.00  0.00    -0.237 OA
ATOM    100  O   UNL     1      13.664   3.249 -16.407  1.00  0.00    -0.744 OA
ENDBRANCH  96  97
ENDBRANCH  70  91
ENDBRANCH  44  45
ENDBRANCH  36  39
ENDBRANCH  34  35
ENDBRANCH  33  34
ENDBRANCH  32  33
ENDBRANCH   1  32
TORSDOF 20
