REMARK SMILES CC(C)(CC(=O)NCCCCCCNC(=O)c1ccc(-c2c3nc(c(-c4ccc(S(=O)(=O)[O-])cc4)c4ccc([nH]4)c(-c4ccc(S(=O)(=O)[O-])cc4)c4nc(c(-c5ccc(S(=O)(=O)[O-])cc5)c5ccc2[nH]5)C=C4)C=C3)cc1)CC(=O)Nc1cccc(C(=O)NC2CC2)c1
REMARK SMILES IDX 9 1 8 2 7 3 5 4 6 5 4 7 2 8 1 9 3 10 77 11 78 12 79 13 80 14
REMARK SMILES IDX 81 16 82 17 92 18 83 19 85 20 84 21 86 22 87 23 88 24 89 26
REMARK SMILES IDX 90 27 91 28 10 29 11 30 12 31 13 32 14 33 15 34 16 36 17 37
REMARK SMILES IDX 18 38 76 39 19 40 75 41 20 42 21 43 22 44 69 45 23 46 74 47
REMARK SMILES IDX 68 48 70 49 24 50 73 51 67 52 66 53 25 55 55 56 36 57 54 58
REMARK SMILES IDX 37 59 40 60 53 61 71 62 38 63 39 64 52 66 72 67 41 68 26 69
REMARK SMILES IDX 27 70 35 71 28 72 34 73 29 74 30 75 31 76 32 77 33 78 56 79
REMARK SMILES IDX 57 80 65 81 58 82 64 83 59 84 60 85 61 86 62 87 63 88 42 89
REMARK SMILES IDX 43 90 51 91 44 92 50 93 45 94 46 95 47 96 48 97 49 98
REMARK H PARENT 7 6 80 15 88 25 14 35 70 54 40 65
REMARK Flexibility Score: inf
ROOT
ATOM      1  C   UNL     1       1.013  -0.529   2.865  1.00  0.00     0.021 C 
ENDROOT
BRANCH   1   2
ATOM      2  C   UNL     1      -0.034  -1.095   1.899  1.00  0.00     0.116 C 
BRANCH   2   3
ATOM      3  N   UNL     1      -0.938  -0.040   1.517  1.00  0.00    -0.356 N 
ATOM      4  C   UNL     1      -0.394   1.103   0.995  1.00  0.00     0.220 C 
ATOM      5  O   UNL     1      -0.574   2.141   1.614  1.00  0.00    -0.275 OA
ATOM      6  H   UNL     1      -1.911  -0.138   1.627  1.00  0.00     0.163 HD
BRANCH   4   7
ATOM      7  C   UNL     1       0.382   0.937  -0.309  1.00  0.00     0.107 C 
BRANCH   7   8
ATOM      8  C   UNL     1       1.285   2.053  -0.805  1.00  0.00    -0.018 C 
ATOM      9  C   UNL     1       2.512   2.052   0.127  1.00  0.00     0.012 C 
ATOM     10  C   UNL     1       1.802   1.648  -2.219  1.00  0.00     0.012 C 
BRANCH   8  11
ATOM     11  C   UNL     1       0.610   3.434  -1.010  1.00  0.00     0.107 C 
BRANCH  11  12
ATOM     12  C   UNL     1      -0.538   3.956  -0.162  1.00  0.00     0.224 C 
ATOM     13  O   UNL     1      -0.297   4.845   0.671  1.00  0.00    -0.275 OA
ATOM     14  N   UNL     1      -1.861   3.648  -0.348  1.00  0.00    -0.326 N 
ATOM     15  H   UNL     1      -2.435   4.042   0.348  1.00  0.00     0.169 HD
BRANCH  14  16
ATOM     16  C   UNL     1      -2.606   2.908  -1.290  1.00  0.00     0.041 A 
ATOM     17  C   UNL     1      -3.624   3.626  -1.922  1.00  0.00     0.026 A 
ATOM     18  C   UNL     1      -2.581   1.508  -1.470  1.00  0.00     0.040 A 
ATOM     19  C   UNL     1      -4.496   2.998  -2.804  1.00  0.00     0.003 A 
ATOM     20  C   UNL     1      -3.378   0.859  -2.424  1.00  0.00     0.041 A 
ATOM     21  C   UNL     1      -4.347   1.640  -3.077  1.00  0.00     0.014 A 
BRANCH  20  22
ATOM     22  C   UNL     1      -3.395  -0.604  -2.765  1.00  0.00     0.251 C 
ATOM     23  O   UNL     1      -4.386  -1.030  -3.374  1.00  0.00    -0.269 OA
ATOM     24  N   UNL     1      -2.421  -1.547  -2.538  1.00  0.00    -0.349 N 
ATOM     25  H   UNL     1      -2.652  -2.409  -2.953  1.00  0.00     0.164 HD
BRANCH  24  26
ATOM     26  C   UNL     1      -1.171  -1.614  -1.867  1.00  0.00     0.082 C 
ATOM     27  C   UNL     1      -0.316  -2.839  -2.168  1.00  0.00     0.027 C 
ATOM     28  C   UNL     1       0.165  -1.485  -2.553  1.00  0.00     0.027 C 
ENDBRANCH  24  26
ENDBRANCH  20  22
ENDBRANCH  14  16
ENDBRANCH  11  12
ENDBRANCH   8  11
ENDBRANCH   7   8
ENDBRANCH   4   7
ENDBRANCH   2   3
ENDBRANCH   1   2
BRANCH   1  29
ATOM     29  C   UNL     1       0.407   0.009   4.173  1.00  0.00     0.002 C 
BRANCH  29  30
ATOM     30  C   UNL     1      -0.431  -1.015   4.938  1.00  0.00     0.002 C 
BRANCH  30  31
ATOM     31  C   UNL     1       0.249  -2.373   5.091  1.00  0.00     0.021 C 
BRANCH  31  32
ATOM     32  C   UNL     1       1.671  -2.289   5.623  1.00  0.00     0.116 C 
BRANCH  32  33
ATOM     33  N   UNL     1       1.710  -1.740   6.964  1.00  0.00    -0.352 N 
ATOM     34  C   UNL     1       2.313  -2.288   8.062  1.00  0.00     0.251 C 
ATOM     35  H   UNL     1       1.254  -0.878   7.098  1.00  0.00     0.163 HD
ATOM     36  O   UNL     1       2.103  -1.843   9.188  1.00  0.00    -0.269 OA
BRANCH  34  37
ATOM     37  C   UNL     1       3.199  -3.449   7.858  1.00  0.00     0.039 A 
ATOM     38  C   UNL     1       2.966  -4.611   8.590  1.00  0.00     0.014 A 
ATOM     39  C   UNL     1       4.199  -3.403   6.879  1.00  0.00     0.014 A 
ATOM     40  C   UNL     1       3.723  -5.748   8.317  1.00  0.00     0.010 A 
ATOM     41  C   UNL     1       4.889  -4.562   6.550  1.00  0.00     0.010 A 
ATOM     42  C   UNL     1       4.671  -5.741   7.279  1.00  0.00    -0.014 A 
BRANCH  42  43
ATOM     43  C   UNL     1       5.454  -6.958   6.957  1.00  0.00     0.031 A 
ATOM     44  C   UNL     1       6.948  -6.955   7.131  1.00  0.00     0.074 A 
ATOM     45  C   UNL     1       4.825  -8.048   6.476  1.00  0.00     0.049 A 
ATOM     46  N   UNL     1       7.805  -7.914   6.895  1.00  0.00    -0.248 NA
ATOM     47  C   UNL     1       7.564  -5.705   7.609  1.00  0.00     0.031 C 
ATOM     48  C   UNL     1       3.385  -8.153   6.224  1.00  0.00     0.029 A 
ATOM     49  N   UNL     1       5.314  -9.277   6.114  1.00  0.00    -0.354 N 
ATOM     50  C   UNL     1       9.056  -7.381   7.183  1.00  0.00     0.074 A 
ATOM     51  C   UNL     1       8.854  -5.999   7.554  1.00  0.00     0.031 C 
ATOM     52  C   UNL     1       3.105  -9.389   5.784  1.00  0.00     0.029 A 
ATOM     53  C   UNL     1       4.346 -10.150   5.678  1.00  0.00     0.049 A 
ATOM     54  H   UNL     1       6.269  -9.511   6.161  1.00  0.00     0.167 HD
ATOM     55  C   UNL     1      10.263  -7.994   7.161  1.00  0.00     0.031 A 
ATOM     56  C   UNL     1       4.446 -11.419   5.238  1.00  0.00     0.031 A 
ATOM     57  C   UNL     1      10.454  -9.372   6.795  1.00  0.00     0.049 A 
ATOM     58  C   UNL     1       5.800 -12.074   5.207  1.00  0.00     0.074 A 
ATOM     59  C   UNL     1      11.627 -10.106   6.795  1.00  0.00     0.029 A 
ATOM     60  N   UNL     1       9.450 -10.222   6.357  1.00  0.00    -0.354 N 
ATOM     61  N   UNL     1       6.963 -11.577   5.556  1.00  0.00    -0.248 NA
ATOM     62  C   UNL     1       5.854 -13.463   4.734  1.00  0.00     0.031 C 
ATOM     63  C   UNL     1      11.343 -11.380   6.293  1.00  0.00     0.029 A 
ATOM     64  C   UNL     1       9.981 -11.463   6.051  1.00  0.00     0.049 A 
ATOM     65  H   UNL     1       8.499  -9.979   6.276  1.00  0.00     0.167 HD
ATOM     66  C   UNL     1       7.884 -12.602   5.369  1.00  0.00     0.074 A 
ATOM     67  C   UNL     1       7.138 -13.751   4.895  1.00  0.00     0.031 C 
ATOM     68  C   UNL     1       9.225 -12.594   5.573  1.00  0.00     0.031 A 
BRANCH  55  69
ATOM     69  C   UNL     1      11.472  -7.172   7.529  1.00  0.00    -0.014 A 
ATOM     70  C   UNL     1      11.669  -6.711   8.844  1.00  0.00     0.010 A 
ATOM     71  C   UNL     1      12.445  -6.889   6.554  1.00  0.00     0.010 A 
ATOM     72  C   UNL     1      12.794  -5.948   9.166  1.00  0.00     0.020 A 
ATOM     73  C   UNL     1      13.589  -6.154   6.880  1.00  0.00     0.020 A 
ATOM     74  C   UNL     1      13.747  -5.674   8.181  1.00  0.00     0.054 A 
BRANCH  74  75
ATOM     75  S   UNL     1      15.211  -4.704   8.635  1.00  0.00     0.124 S 
ATOM     76  O   UNL     1      14.641  -3.373   8.829  1.00  0.00    -0.237 OA
ATOM     77  O   UNL     1      15.672  -5.372   9.849  1.00  0.00    -0.237 OA
ATOM     78  O   UNL     1      16.091  -4.841   7.478  1.00  0.00    -0.744 OA
ENDBRANCH  74  75
ENDBRANCH  55  69
BRANCH  56  79
ATOM     79  C   UNL     1       3.226 -12.151   4.798  1.00  0.00    -0.014 A 
ATOM     80  C   UNL     1       2.727 -13.232   5.546  1.00  0.00     0.010 A 
ATOM     81  C   UNL     1       2.545 -11.756   3.632  1.00  0.00     0.010 A 
ATOM     82  C   UNL     1       1.580 -13.915   5.127  1.00  0.00     0.020 A 
ATOM     83  C   UNL     1       1.381 -12.415   3.227  1.00  0.00     0.020 A 
ATOM     84  C   UNL     1       0.912 -13.498   3.972  1.00  0.00     0.054 A 
BRANCH  84  85
ATOM     85  S   UNL     1      -0.603 -14.364   3.476  1.00  0.00     0.124 S 
ATOM     86  O   UNL     1      -0.082 -15.644   3.008  1.00  0.00    -0.237 OA
ATOM     87  O   UNL     1      -1.363 -14.405   4.723  1.00  0.00    -0.237 OA
ATOM     88  O   UNL     1      -1.167 -13.500   2.441  1.00  0.00    -0.744 OA
ENDBRANCH  84  85
ENDBRANCH  56  79
BRANCH  68  89
ATOM     89  C   UNL     1       9.973 -13.875   5.311  1.00  0.00    -0.014 A 
ATOM     90  C   UNL     1      10.160 -14.359   4.004  1.00  0.00     0.010 A 
ATOM     91  C   UNL     1      10.546 -14.575   6.389  1.00  0.00     0.010 A 
ATOM     92  C   UNL     1      10.877 -15.537   3.783  1.00  0.00     0.020 A 
ATOM     93  C   UNL     1      11.292 -15.735   6.170  1.00  0.00     0.020 A 
ATOM     94  C   UNL     1      11.440 -16.217   4.868  1.00  0.00     0.054 A 
BRANCH  94  95
ATOM     95  S   UNL     1      12.403 -17.720   4.549  1.00  0.00     0.124 S 
ATOM     96  O   UNL     1      11.361 -18.674   4.178  1.00  0.00    -0.237 OA
ATOM     97  O   UNL     1      13.291 -17.306   3.466  1.00  0.00    -0.237 OA
ATOM     98  O   UNL     1      13.065 -17.986   5.824  1.00  0.00    -0.744 OA
ENDBRANCH  94  95
ENDBRANCH  68  89
ENDBRANCH  42  43
ENDBRANCH  34  37
ENDBRANCH  32  33
ENDBRANCH  31  32
ENDBRANCH  30  31
ENDBRANCH  29  30
ENDBRANCH   1  29
TORSDOF 22
