REMARK SMILES CC[C@@](C)(NC(=O)c1cccc2ccccc12)C(=O)NCCCCCCNC(=O)c1ccc(-c2c3nc(c(-c4ccc(S(=O)(=O)[O-])cc4)c4ccc([nH]4)c(-c4ccc(S(=O)(=O)[O-])cc4)c4nc(c(-c5ccc(S(=O)(=O)[O-])cc5)c5ccc2[nH]5)C=C4)C=C3)cc1
REMARK SMILES IDX 24 1 23 2 22 3 21 4 20 5 18 6 19 7 3 9 4 10 2 11 1 12 5 13
REMARK SMILES IDX 6 14 7 16 8 17 9 18 17 19 10 20 12 21 16 22 11 23 13 24
REMARK SMILES IDX 15 25 14 26 25 27 26 28 27 29 28 30 29 32 30 33 31 34 89 35
REMARK SMILES IDX 32 36 88 37 33 38 34 39 35 40 82 41 36 42 87 43 81 44 83 45
REMARK SMILES IDX 37 46 86 47 80 48 79 49 38 51 68 52 49 53 67 54 50 55 53 56
REMARK SMILES IDX 66 57 84 58 51 59 52 60 65 62 85 63 54 64 39 65 40 66 48 67
REMARK SMILES IDX 41 68 47 69 42 70 43 71 44 72 45 73 46 74 69 75 70 76 78 77
REMARK SMILES IDX 71 78 77 79 72 80 73 81 74 82 75 83 76 84 55 85 56 86 64 87
REMARK SMILES IDX 57 88 63 89 58 90 59 91 60 92 61 93 62 94
REMARK H PARENT 20 8 5 15 27 31 83 50 53 61
REMARK Flexibility Score: inf
ROOT
ATOM      1  C   UNL     1       4.900   6.596  -1.667  1.00  0.00     0.002 C 
ENDROOT
BRANCH   1   2
ATOM      2  C   UNL     1       4.272   6.111  -0.365  1.00  0.00     0.002 C 
BRANCH   2   3
ATOM      3  C   UNL     1       2.748   5.985  -0.352  1.00  0.00     0.021 C 
BRANCH   3   4
ATOM      4  C   UNL     1       2.099   5.110  -1.426  1.00  0.00     0.116 C 
BRANCH   4   5
ATOM      5  N   UNL     1       2.601   3.752  -1.554  1.00  0.00    -0.354 N 
ATOM      6  C   UNL     1       2.198   2.553  -1.030  1.00  0.00     0.245 C 
ATOM      7  O   UNL     1       2.733   1.552  -1.519  1.00  0.00    -0.272 OA
ATOM      8  H   UNL     1       3.392   3.679  -2.137  1.00  0.00     0.163 HD
BRANCH   6   9
ATOM      9  C   UNL     1       1.083   2.437   0.059  1.00  0.00     0.116 C 
ATOM     10  C   UNL     1      -0.232   2.594  -0.756  1.00  0.00     0.045 C 
BRANCH   9  11
ATOM     11  C   UNL     1       1.010   1.066   0.796  1.00  0.00     0.035 C 
ATOM     12  C   UNL     1       1.022  -0.208  -0.038  1.00  0.00     0.007 C 
ENDBRANCH   9  11
BRANCH   9  13
ATOM     13  N   UNL     1       1.111   3.487   1.128  1.00  0.00    -0.338 N 
ATOM     14  C   UNL     1       1.882   3.761   2.253  1.00  0.00     0.252 C 
ATOM     15  H   UNL     1       0.400   4.156   1.002  1.00  0.00     0.164 HD
ATOM     16  O   UNL     1       1.275   4.411   3.108  1.00  0.00    -0.269 OA
BRANCH  14  17
ATOM     17  C   UNL     1       3.358   3.447   2.458  1.00  0.00     0.047 A 
ATOM     18  C   UNL     1       4.134   3.041   1.374  1.00  0.00     0.014 A 
ATOM     19  C   UNL     1       4.060   3.719   3.688  1.00  0.00    -0.006 A 
ATOM     20  C   UNL     1       5.517   2.906   1.407  1.00  0.00     0.001 A 
ATOM     21  C   UNL     1       5.488   3.587   3.704  1.00  0.00    -0.018 A 
ATOM     22  C   UNL     1       3.481   4.136   4.916  1.00  0.00     0.009 A 
ATOM     23  C   UNL     1       6.192   3.185   2.571  1.00  0.00     0.009 A 
ATOM     24  C   UNL     1       6.242   3.880   4.846  1.00  0.00     0.009 A 
ATOM     25  C   UNL     1       4.250   4.426   6.053  1.00  0.00     0.001 A 
ATOM     26  C   UNL     1       5.630   4.304   6.016  1.00  0.00     0.001 A 
ENDBRANCH  14  17
ENDBRANCH   9  13
ENDBRANCH   6   9
ENDBRANCH   4   5
ENDBRANCH   3   4
ENDBRANCH   2   3
ENDBRANCH   1   2
BRANCH   1  27
ATOM     27  C   UNL     1       4.339   7.909  -2.202  1.00  0.00     0.021 C 
BRANCH  27  28
ATOM     28  C   UNL     1       4.436   9.083  -1.235  1.00  0.00     0.116 C 
BRANCH  28  29
ATOM     29  N   UNL     1       5.815   9.479  -0.986  1.00  0.00    -0.352 N 
ATOM     30  C   UNL     1       6.409  10.697  -1.218  1.00  0.00     0.251 C 
ATOM     31  H   UNL     1       6.397   8.785  -0.601  1.00  0.00     0.163 HD
ATOM     32  O   UNL     1       7.628  10.823  -1.145  1.00  0.00    -0.269 OA
BRANCH  30  33
ATOM     33  C   UNL     1       5.558  11.848  -1.581  1.00  0.00     0.039 A 
ATOM     34  C   UNL     1       5.877  12.603  -2.711  1.00  0.00     0.014 A 
ATOM     35  C   UNL     1       4.414  12.139  -0.832  1.00  0.00     0.014 A 
ATOM     36  C   UNL     1       5.003  13.607  -3.133  1.00  0.00     0.010 A 
ATOM     37  C   UNL     1       3.506  13.082  -1.301  1.00  0.00     0.010 A 
ATOM     38  C   UNL     1       3.790  13.826  -2.456  1.00  0.00    -0.014 A 
BRANCH  38  39
ATOM     39  C   UNL     1       2.800  14.814  -2.954  1.00  0.00     0.031 A 
ATOM     40  C   UNL     1       2.427  16.004  -2.114  1.00  0.00     0.074 A 
ATOM     41  C   UNL     1       2.186  14.602  -4.135  1.00  0.00     0.049 A 
ATOM     42  N   UNL     1       1.560  16.951  -2.366  1.00  0.00    -0.248 NA
ATOM     43  C   UNL     1       3.096  16.133  -0.810  1.00  0.00     0.031 C 
ATOM     44  C   UNL     1       2.419  13.455  -5.016  1.00  0.00     0.029 A 
ATOM     45  N   UNL     1       1.234  15.339  -4.795  1.00  0.00    -0.354 N 
ATOM     46  C   UNL     1       1.573  17.781  -1.252  1.00  0.00     0.074 A 
ATOM     47  C   UNL     1       2.485  17.190  -0.297  1.00  0.00     0.031 C 
ATOM     48  C   UNL     1       1.652  13.579  -6.110  1.00  0.00     0.029 A 
ATOM     49  C   UNL     1       0.842  14.787  -5.991  1.00  0.00     0.049 A 
ATOM     50  H   UNL     1       0.867  16.182  -4.444  1.00  0.00     0.167 HD
ATOM     51  C   UNL     1       0.905  18.942  -1.048  1.00  0.00     0.031 A 
ATOM     52  C   UNL     1      -0.074  15.199  -6.890  1.00  0.00     0.031 A 
ATOM     53  C   UNL     1      -0.012  19.518  -1.996  1.00  0.00     0.049 A 
ATOM     54  C   UNL     1      -0.820  16.479  -6.640  1.00  0.00     0.074 A 
ATOM     55  C   UNL     1      -0.702  20.714  -1.910  1.00  0.00     0.029 A 
ATOM     56  N   UNL     1      -0.378  18.932  -3.200  1.00  0.00    -0.354 N 
ATOM     57  N   UNL     1      -0.733  17.295  -5.616  1.00  0.00    -0.248 NA
ATOM     58  C   UNL     1      -1.778  16.901  -7.670  1.00  0.00     0.031 C 
ATOM     59  C   UNL     1      -1.533  20.820  -3.031  1.00  0.00     0.029 A 
ATOM     60  C   UNL     1      -1.310  19.724  -3.850  1.00  0.00     0.049 A 
ATOM     61  H   UNL     1      -0.027  18.078  -3.542  1.00  0.00     0.167 HD
ATOM     62  C   UNL     1      -1.615  18.336  -5.885  1.00  0.00     0.074 A 
ATOM     63  C   UNL     1      -2.207  18.056  -7.178  1.00  0.00     0.031 C 
ATOM     64  C   UNL     1      -1.907  19.424  -5.129  1.00  0.00     0.031 A 
BRANCH  51  65
ATOM     65  C   UNL     1       1.137  19.649   0.264  1.00  0.00    -0.014 A 
ATOM     66  C   UNL     1       2.390  20.209   0.579  1.00  0.00     0.010 A 
ATOM     67  C   UNL     1       0.090  19.756   1.198  1.00  0.00     0.010 A 
ATOM     68  C   UNL     1       2.610  20.801   1.825  1.00  0.00     0.020 A 
ATOM     69  C   UNL     1       0.296  20.379   2.433  1.00  0.00     0.020 A 
ATOM     70  C   UNL     1       1.563  20.874   2.748  1.00  0.00     0.054 A 
BRANCH  70  71
ATOM     71  S   UNL     1       1.882  21.633   4.364  1.00  0.00     0.124 S 
ATOM     72  O   UNL     1       2.706  20.617   5.016  1.00  0.00    -0.237 OA
ATOM     73  O   UNL     1       2.575  22.868   4.006  1.00  0.00    -0.237 OA
ATOM     74  O   UNL     1       0.549  21.812   4.933  1.00  0.00    -0.744 OA
ENDBRANCH  70  71
ENDBRANCH  51  65
BRANCH  52  75
ATOM     75  C   UNL     1      -0.319  14.382  -8.110  1.00  0.00    -0.014 A 
ATOM     76  C   UNL     1       0.118  14.823  -9.371  1.00  0.00     0.010 A 
ATOM     77  C   UNL     1      -0.942  13.124  -8.005  1.00  0.00     0.010 A 
ATOM     78  C   UNL     1      -0.061  14.021 -10.503  1.00  0.00     0.020 A 
ATOM     79  C   UNL     1      -1.097  12.307  -9.128  1.00  0.00     0.020 A 
ATOM     80  C   UNL     1      -0.657  12.763 -10.372  1.00  0.00     0.054 A 
BRANCH  80  81
ATOM     81  S   UNL     1      -0.793  11.701 -11.837  1.00  0.00     0.124 S 
ATOM     82  O   UNL     1      -1.836  12.373 -12.605  1.00  0.00    -0.237 OA
ATOM     83  O   UNL     1       0.554  11.771 -12.400  1.00  0.00    -0.237 OA
ATOM     84  O   UNL     1      -1.161  10.400 -11.284  1.00  0.00    -0.744 OA
ENDBRANCH  80  81
ENDBRANCH  52  75
BRANCH  64  85
ATOM     85  C   UNL     1      -2.909  20.403  -5.684  1.00  0.00    -0.014 A 
ATOM     86  C   UNL     1      -4.275  20.081  -5.765  1.00  0.00     0.010 A 
ATOM     87  C   UNL     1      -2.484  21.685  -6.077  1.00  0.00     0.010 A 
ATOM     88  C   UNL     1      -5.193  21.012  -6.258  1.00  0.00     0.020 A 
ATOM     89  C   UNL     1      -3.402  22.630  -6.542  1.00  0.00     0.020 A 
ATOM     90  C   UNL     1      -4.751  22.282  -6.642  1.00  0.00     0.054 A 
BRANCH  90  91
ATOM     91  S   UNL     1      -5.970  23.486  -7.236  1.00  0.00     0.124 S 
ATOM     92  O   UNL     1      -6.316  22.947  -8.548  1.00  0.00    -0.237 OA
ATOM     93  O   UNL     1      -7.021  23.402  -6.225  1.00  0.00    -0.237 OA
ATOM     94  O   UNL     1      -5.231  24.747  -7.256  1.00  0.00    -0.744 OA
ENDBRANCH  90  91
ENDBRANCH  64  85
ENDBRANCH  38  39
ENDBRANCH  30  33
ENDBRANCH  28  29
ENDBRANCH  27  28
ENDBRANCH   1  27
TORSDOF 19
