REMARK SMILES O=C(NCCCCCCNC(=O)c1ccc(-c2c3nc(c(-c4ccc(S(=O)(=O)[O-])cc4)c4ccc([nH]4)c(-c4ccc(S(=O)(=O)[O-])cc4)c4nc(c(-c5ccc(S(=O)(=O)[O-])cc5)c5ccc2[nH]5)C=C4)C=C3)cc1)C1=Cc2cc(OC(F)(F)F)ccc2O[C@@H]1C(F)(F)F
REMARK SMILES IDX 7 1 6 2 5 3 4 4 3 5 1 6 2 7 73 9 74 10 87 11 75 12 86 13
REMARK SMILES IDX 76 14 85 15 77 16 84 17 83 18 88 19 89 20 90 21 91 22 78 23
REMARK SMILES IDX 79 24 80 25 81 26 82 27 8 28 9 29 10 30 11 31 12 33 13 34
REMARK SMILES IDX 14 35 72 36 15 37 71 38 16 39 17 40 18 41 65 42 19 43 70 44
REMARK SMILES IDX 64 45 66 46 20 47 69 48 63 49 62 50 21 52 51 53 32 54 50 55
REMARK SMILES IDX 33 56 36 57 49 58 67 59 34 60 35 61 48 63 68 64 37 65 22 66
REMARK SMILES IDX 23 67 31 68 24 69 30 70 25 71 26 72 27 73 28 74 29 75 52 76
REMARK SMILES IDX 53 77 61 78 54 79 60 80 55 81 56 82 57 83 58 84 59 85 38 86
REMARK SMILES IDX 39 87 47 88 40 89 46 90 41 91 42 92 43 93 44 94 45 95
REMARK H PARENT 3 8 10 32 66 51 36 62
REMARK Flexibility Score: inf
ROOT
ATOM      1  C   UNL     1       4.491   1.835  -4.375  1.00  0.00     0.002 C 
ENDROOT
BRANCH   1   2
ATOM      2  C   UNL     1       3.867   0.437  -4.479  1.00  0.00     0.002 C 
BRANCH   2   3
ATOM      3  C   UNL     1       4.222  -0.554  -3.374  1.00  0.00     0.021 C 
BRANCH   3   4
ATOM      4  C   UNL     1       3.909  -0.108  -1.951  1.00  0.00     0.116 C 
BRANCH   4   5
ATOM      5  N   UNL     1       2.640  -0.569  -1.414  1.00  0.00    -0.352 N 
ATOM      6  O   UNL     1       1.095  -1.019   0.152  1.00  0.00    -0.270 OA
ATOM      7  C   UNL     1       2.278  -0.810  -0.117  1.00  0.00     0.251 C 
ATOM      8  H   UNL     1       1.936  -0.731  -2.083  1.00  0.00     0.163 HD
BRANCH   7   9
ATOM      9  C   UNL     1       3.251  -0.733   1.013  1.00  0.00     0.067 C 
ATOM     10  C   UNL     1       4.452  -1.341   0.970  1.00  0.00     0.025 C 
ATOM     11  C   UNL     1       3.098   0.531   1.827  1.00  0.00     0.314 C 
ATOM     12  C   UNL     1       5.552  -0.350   0.820  1.00  0.00     0.021 A 
ATOM     13  O   UNL     1       4.104   1.516   1.464  1.00  0.00    -0.475 OA
ATOM     14  C   UNL     1       6.766  -0.771   0.258  1.00  0.00     0.058 A 
ATOM     15  C   UNL     1       5.280   1.021   0.955  1.00  0.00     0.128 A 
ATOM     16  C   UNL     1       7.650   0.170  -0.277  1.00  0.00     0.130 A 
ATOM     17  C   UNL     1       6.179   1.956   0.448  1.00  0.00     0.051 A 
ATOM     18  C   UNL     1       7.353   1.531  -0.183  1.00  0.00     0.050 A 
BRANCH  11  19
ATOM     19  C   UNL     1       3.083   0.258   3.340  1.00  0.00     0.429 C 
ATOM     20  F   UNL     1       2.771   1.374   4.040  1.00  0.00    -0.167 F 
ATOM     21  F   UNL     1       2.158  -0.678   3.667  1.00  0.00    -0.167 F 
ATOM     22  F   UNL     1       4.275  -0.188   3.802  1.00  0.00    -0.167 F 
ENDBRANCH  11  19
BRANCH  16  23
ATOM     23  O   UNL     1       8.816  -0.311  -0.800  1.00  0.00    -0.406 OA
BRANCH  23  24
ATOM     24  C   UNL     1       9.088   0.078  -2.142  1.00  0.00     0.573 C 
ATOM     25  F   UNL     1       8.115  -0.369  -2.970  1.00  0.00    -0.132 F 
ATOM     26  F   UNL     1       9.196   1.415  -2.276  1.00  0.00    -0.132 F 
ATOM     27  F   UNL     1      10.253  -0.482  -2.531  1.00  0.00    -0.132 F 
ENDBRANCH  23  24
ENDBRANCH  16  23
ENDBRANCH   7   9
ENDBRANCH   4   5
ENDBRANCH   3   4
ENDBRANCH   2   3
ENDBRANCH   1   2
BRANCH   1  28
ATOM     28  C   UNL     1       6.008   1.905  -4.174  1.00  0.00     0.021 C 
BRANCH  28  29
ATOM     29  C   UNL     1       6.862   1.199  -5.224  1.00  0.00     0.116 C 
BRANCH  29  30
ATOM     30  N   UNL     1       6.670   1.719  -6.565  1.00  0.00    -0.352 N 
ATOM     31  C   UNL     1       7.596   2.112  -7.502  1.00  0.00     0.251 C 
ATOM     32  H   UNL     1       5.730   1.803  -6.847  1.00  0.00     0.163 HD
ATOM     33  O   UNL     1       7.213   2.639  -8.540  1.00  0.00    -0.269 OA
BRANCH  31  34
ATOM     34  C   UNL     1       9.050   1.936  -7.258  1.00  0.00     0.039 A 
ATOM     35  C   UNL     1       9.915   2.971  -7.625  1.00  0.00     0.014 A 
ATOM     36  C   UNL     1       9.571   0.762  -6.707  1.00  0.00     0.014 A 
ATOM     37  C   UNL     1      11.289   2.851  -7.391  1.00  0.00     0.010 A 
ATOM     38  C   UNL     1      10.932   0.673  -6.407  1.00  0.00     0.010 A 
ATOM     39  C   UNL     1      11.809   1.713  -6.753  1.00  0.00    -0.014 A 
BRANCH  39  40
ATOM     40  C   UNL     1      13.263   1.603  -6.455  1.00  0.00     0.031 A 
ATOM     41  C   UNL     1      14.098   0.530  -7.104  1.00  0.00     0.074 A 
ATOM     42  C   UNL     1      13.834   2.455  -5.579  1.00  0.00     0.049 A 
ATOM     43  N   UNL     1      15.372   0.271  -6.951  1.00  0.00    -0.248 NA
ATOM     44  C   UNL     1      13.410  -0.382  -8.032  1.00  0.00     0.031 C 
ATOM     45  C   UNL     1      13.135   3.518  -4.854  1.00  0.00     0.029 A 
ATOM     46  N   UNL     1      15.134   2.561  -5.146  1.00  0.00    -0.354 N 
ATOM     47  C   UNL     1      15.637  -0.830  -7.758  1.00  0.00     0.074 A 
ATOM     48  C   UNL     1      14.379  -1.227  -8.352  1.00  0.00     0.031 C 
ATOM     49  C   UNL     1      14.015   4.182  -4.088  1.00  0.00     0.029 A 
ATOM     50  C   UNL     1      15.333   3.569  -4.231  1.00  0.00     0.049 A 
ATOM     51  H   UNL     1      15.856   1.971  -5.462  1.00  0.00     0.167 HD
ATOM     52  C   UNL     1      16.820  -1.442  -8.005  1.00  0.00     0.031 A 
ATOM     53  C   UNL     1      16.444   3.953  -3.571  1.00  0.00     0.031 A 
ATOM     54  C   UNL     1      18.073  -1.050  -7.412  1.00  0.00     0.049 A 
ATOM     55  C   UNL     1      17.742   3.239  -3.837  1.00  0.00     0.074 A 
ATOM     56  C   UNL     1      19.330  -1.589  -7.625  1.00  0.00     0.029 A 
ATOM     57  N   UNL     1      18.229  -0.026  -6.491  1.00  0.00    -0.354 N 
ATOM     58  N   UNL     1      17.979   2.236  -4.650  1.00  0.00    -0.248 NA
ATOM     59  C   UNL     1      18.925   3.717  -3.109  1.00  0.00     0.031 C 
ATOM     60  C   UNL     1      20.237  -0.928  -6.790  1.00  0.00     0.029 A 
ATOM     61  C   UNL     1      19.557   0.068  -6.108  1.00  0.00     0.049 A 
ATOM     62  H   UNL     1      17.503   0.549  -6.157  1.00  0.00     0.167 HD
ATOM     63  C   UNL     1      19.343   1.982  -4.549  1.00  0.00     0.074 A 
ATOM     64  C   UNL     1      19.881   2.948  -3.614  1.00  0.00     0.031 C 
ATOM     65  C   UNL     1      20.083   1.034  -5.176  1.00  0.00     0.031 A 
BRANCH  52  66
ATOM     66  C   UNL     1      16.818  -2.605  -8.964  1.00  0.00    -0.014 A 
ATOM     67  C   UNL     1      16.579  -2.411 -10.338  1.00  0.00     0.010 A 
ATOM     68  C   UNL     1      17.107  -3.901  -8.500  1.00  0.00     0.010 A 
ATOM     69  C   UNL     1      16.589  -3.494 -11.220  1.00  0.00     0.020 A 
ATOM     70  C   UNL     1      17.149  -4.984  -9.384  1.00  0.00     0.020 A 
ATOM     71  C   UNL     1      16.874  -4.774 -10.737  1.00  0.00     0.054 A 
BRANCH  71  72
ATOM     72  S   UNL     1      16.906  -6.156 -11.912  1.00  0.00     0.124 S 
ATOM     73  O   UNL     1      15.490  -6.306 -12.239  1.00  0.00    -0.237 OA
ATOM     74  O   UNL     1      17.748  -5.640 -12.988  1.00  0.00    -0.237 OA
ATOM     75  O   UNL     1      17.485  -7.254 -11.142  1.00  0.00    -0.744 OA
ENDBRANCH  71  72
ENDBRANCH  52  66
BRANCH  53  76
ATOM     76  C   UNL     1      16.375   5.068  -2.585  1.00  0.00    -0.014 A 
ATOM     77  C   UNL     1      17.013   6.296  -2.835  1.00  0.00     0.010 A 
ATOM     78  C   UNL     1      15.664   4.902  -1.382  1.00  0.00     0.010 A 
ATOM     79  C   UNL     1      16.962   7.327  -1.891  1.00  0.00     0.020 A 
ATOM     80  C   UNL     1      15.583   5.941  -0.451  1.00  0.00     0.020 A 
ATOM     81  C   UNL     1      16.245   7.143  -0.705  1.00  0.00     0.054 A 
BRANCH  81  82
ATOM     82  S   UNL     1      16.155   8.508   0.487  1.00  0.00     0.124 S 
ATOM     83  O   UNL     1      17.506   8.518   1.038  1.00  0.00    -0.237 OA
ATOM     84  O   UNL     1      15.808   9.645  -0.362  1.00  0.00    -0.237 OA
ATOM     85  O   UNL     1      15.104   8.086   1.411  1.00  0.00    -0.744 OA
ENDBRANCH  81  82
ENDBRANCH  53  76
BRANCH  65  86
ATOM     86  C   UNL     1      21.565   1.012  -4.903  1.00  0.00    -0.014 A 
ATOM     87  C   UNL     1      22.076   0.599  -3.660  1.00  0.00     0.010 A 
ATOM     88  C   UNL     1      22.463   1.360  -5.930  1.00  0.00     0.010 A 
ATOM     89  C   UNL     1      23.456   0.565  -3.439  1.00  0.00     0.020 A 
ATOM     90  C   UNL     1      23.843   1.297  -5.723  1.00  0.00     0.020 A 
ATOM     91  C   UNL     1      24.331   0.913  -4.473  1.00  0.00     0.054 A 
BRANCH  91  92
ATOM     92  S   UNL     1      26.117   0.817  -4.173  1.00  0.00     0.124 S 
ATOM     93  O   UNL     1      26.337   1.954  -3.282  1.00  0.00    -0.237 OA
ATOM     94  O   UNL     1      26.268  -0.500  -3.560  1.00  0.00    -0.237 OA
ATOM     95  O   UNL     1      26.701   0.949  -5.506  1.00  0.00    -0.744 OA
ENDBRANCH  91  92
ENDBRANCH  65  86
ENDBRANCH  39  40
ENDBRANCH  31  34
ENDBRANCH  29  30
ENDBRANCH  28  29
ENDBRANCH   1  28
TORSDOF 19
