REMARK SMILES Cc1cc(C)cc(S(=O)(=O)N2CSC[C@H]2C(=O)NCCCCCCNC(=O)c2ccc(-c3c4nc(c(-c5ccc(S(=O)(=O)[O-])cc5)c5ccc([nH]5)c(-c5ccc(S(=O)(=O)[O-])cc5)c5nc(c(-c6ccc(S(=O)(=O)[O-])cc6)c6ccc3[nH]6)C=C5)C=C4)cc2)c1
REMARK SMILES IDX 22 1 21 2 20 3 19 4 18 5 16 6 17 7 15 9 11 10 12 11 13 12
REMARK SMILES IDX 14 13 8 14 9 15 10 16 7 17 1 18 2 19 3 20 88 21 4 22 5 23
REMARK SMILES IDX 6 24 23 25 24 26 25 27 26 28 27 30 28 31 29 32 87 33 30 34
REMARK SMILES IDX 86 35 31 36 32 37 33 38 80 39 34 40 85 41 79 42 81 43 35 44
REMARK SMILES IDX 84 45 78 46 77 47 36 49 66 50 47 51 65 52 48 53 51 54 64 55
REMARK SMILES IDX 82 56 49 57 50 58 63 60 83 61 52 62 37 63 38 64 46 65 39 66
REMARK SMILES IDX 45 67 40 68 41 69 42 70 43 71 44 72 67 73 68 74 76 75 69 76
REMARK SMILES IDX 75 77 70 78 71 79 72 80 73 81 74 82 53 83 54 84 62 85 55 86
REMARK SMILES IDX 61 87 56 88 57 89 58 90 59 91 60 92
REMARK H PARENT 18 8 25 29 81 48 51 59
REMARK Flexibility Score: inf
ROOT
ATOM      1  C   UNL     1       6.145  -8.404   0.246  1.00  0.00     0.002 C 
ENDROOT
BRANCH   1   2
ATOM      2  C   UNL     1       4.616  -8.511   0.319  1.00  0.00     0.002 C 
BRANCH   2   3
ATOM      3  C   UNL     1       3.889  -7.228   0.716  1.00  0.00     0.021 C 
BRANCH   3   4
ATOM      4  C   UNL     1       4.188  -6.037  -0.181  1.00  0.00     0.116 C 
BRANCH   4   5
ATOM      5  N   UNL     1       3.369  -5.999  -1.371  1.00  0.00    -0.355 N 
ATOM      6  C   UNL     1       2.666  -4.964  -1.920  1.00  0.00     0.239 C 
ATOM      7  O   UNL     1       2.164  -5.164  -3.032  1.00  0.00    -0.273 OA
ATOM      8  H   UNL     1       3.308  -6.850  -1.863  1.00  0.00     0.163 HD
BRANCH   6   9
ATOM      9  C   UNL     1       2.528  -3.595  -1.237  1.00  0.00     0.173 C 
ATOM     10  N   UNL     1       1.716  -3.642   0.003  1.00  0.00    -0.175 NA
ATOM     11  C   UNL     1       2.417  -3.288   1.234  1.00  0.00     0.172 C 
ATOM     12  S   UNL     1       4.012  -2.551   0.791  1.00  0.00    -0.143 SA
ATOM     13  C   UNL     1       3.869  -2.913  -0.983  1.00  0.00     0.101 C 
BRANCH  10  14
ATOM     14  S   UNL     1       0.069  -3.291  -0.085  1.00  0.00     0.244 S 
ATOM     15  O   UNL     1      -0.512  -3.706   1.177  1.00  0.00    -0.207 OA
ATOM     16  O   UNL     1      -0.434  -3.784  -1.345  1.00  0.00    -0.207 OA
BRANCH  14  17
ATOM     17  C   UNL     1      -0.084  -1.510  -0.138  1.00  0.00     0.083 A 
ATOM     18  C   UNL     1       2.117   1.588  -0.159  1.00  0.00     0.044 C 
ATOM     19  C   UNL     1       0.896   0.715  -0.147  1.00  0.00    -0.050 A 
ATOM     20  C   UNL     1      -0.381   1.266  -0.038  1.00  0.00     0.007 A 
ATOM     21  C   UNL     1       1.026  -0.672  -0.230  1.00  0.00     0.025 A 
ATOM     22  C   UNL     1      -1.516   0.441   0.012  1.00  0.00    -0.050 A 
ATOM     23  C   UNL     1      -2.875   1.070   0.105  1.00  0.00     0.044 C 
ATOM     24  C   UNL     1      -1.361  -0.953  -0.021  1.00  0.00     0.025 A 
ENDBRANCH  14  17
ENDBRANCH  10  14
ENDBRANCH   6   9
ENDBRANCH   4   5
ENDBRANCH   3   4
ENDBRANCH   2   3
ENDBRANCH   1   2
BRANCH   1  25
ATOM     25  C   UNL     1       6.833  -7.804   1.478  1.00  0.00     0.021 C 
BRANCH  25  26
ATOM     26  C   UNL     1       6.546  -8.519   2.796  1.00  0.00     0.116 C 
BRANCH  26  27
ATOM     27  N   UNL     1       6.926  -9.918   2.748  1.00  0.00    -0.352 N 
ATOM     28  C   UNL     1       7.704 -10.649   3.607  1.00  0.00     0.251 C 
ATOM     29  H   UNL     1       6.571 -10.421   1.979  1.00  0.00     0.163 HD
ATOM     30  O   UNL     1       8.079 -11.770   3.273  1.00  0.00    -0.269 OA
BRANCH  28  31
ATOM     31  C   UNL     1       8.098 -10.101   4.924  1.00  0.00     0.039 A 
ATOM     32  C   UNL     1       9.386 -10.363   5.398  1.00  0.00     0.014 A 
ATOM     33  C   UNL     1       7.192  -9.394   5.722  1.00  0.00     0.014 A 
ATOM     34  C   UNL     1       9.773  -9.902   6.658  1.00  0.00     0.010 A 
ATOM     35  C   UNL     1       7.600  -8.877   6.951  1.00  0.00     0.010 A 
ATOM     36  C   UNL     1       8.886  -9.146   7.441  1.00  0.00    -0.014 A 
BRANCH  36  37
ATOM     37  C   UNL     1       9.286  -8.667   8.788  1.00  0.00     0.031 A 
ATOM     38  C   UNL     1       8.599  -9.199  10.018  1.00  0.00     0.074 A 
ATOM     39  C   UNL     1      10.245  -7.729   8.903  1.00  0.00     0.049 A 
ATOM     40  N   UNL     1       8.817  -8.908  11.275  1.00  0.00    -0.248 NA
ATOM     41  C   UNL     1       7.508 -10.165   9.807  1.00  0.00     0.031 C 
ATOM     42  C   UNL     1      10.948  -7.096   7.785  1.00  0.00     0.029 A 
ATOM     43  N   UNL     1      10.794  -7.143  10.016  1.00  0.00    -0.354 N 
ATOM     44  C   UNL     1       7.880  -9.635  12.001  1.00  0.00     0.074 A 
ATOM     45  C   UNL     1       7.062 -10.345  11.042  1.00  0.00     0.031 C 
ATOM     46  C   UNL     1      11.852  -6.229   8.269  1.00  0.00     0.029 A 
ATOM     47  C   UNL     1      11.777  -6.226   9.727  1.00  0.00     0.049 A 
ATOM     48  H   UNL     1      10.512  -7.359  10.934  1.00  0.00     0.167 HD
ATOM     49  C   UNL     1       7.725  -9.720  13.344  1.00  0.00     0.031 A 
ATOM     50  C   UNL     1      12.536  -5.470  10.543  1.00  0.00     0.031 A 
ATOM     51  C   UNL     1       8.553  -9.027  14.296  1.00  0.00     0.049 A 
ATOM     52  C   UNL     1      12.376  -5.611  12.031  1.00  0.00     0.074 A 
ATOM     53  C   UNL     1       8.524  -9.101  15.677  1.00  0.00     0.029 A 
ATOM     54  N   UNL     1       9.560  -8.133  13.963  1.00  0.00    -0.354 N 
ATOM     55  N   UNL     1      11.537  -6.365  12.701  1.00  0.00    -0.248 NA
ATOM     56  C   UNL     1      13.279  -4.815  12.873  1.00  0.00     0.031 C 
ATOM     57  C   UNL     1       9.484  -8.216  16.182  1.00  0.00     0.029 A 
ATOM     58  C   UNL     1      10.146  -7.632  15.113  1.00  0.00     0.049 A 
ATOM     59  H   UNL     1       9.819  -7.890  13.045  1.00  0.00     0.167 HD
ATOM     60  C   UNL     1      11.827  -6.153  14.044  1.00  0.00     0.074 A 
ATOM     61  C   UNL     1      12.929  -5.212  14.089  1.00  0.00     0.031 C 
ATOM     62  C   UNL     1      11.237  -6.690  15.141  1.00  0.00     0.031 A 
BRANCH  49  63
ATOM     63  C   UNL     1       6.608 -10.590  13.861  1.00  0.00    -0.014 A 
ATOM     64  C   UNL     1       6.662 -11.991  13.745  1.00  0.00     0.010 A 
ATOM     65  C   UNL     1       5.497  -9.999  14.489  1.00  0.00     0.010 A 
ATOM     66  C   UNL     1       5.602 -12.781  14.200  1.00  0.00     0.020 A 
ATOM     67  C   UNL     1       4.448 -10.788  14.972  1.00  0.00     0.020 A 
ATOM     68  C   UNL     1       4.498 -12.173  14.805  1.00  0.00     0.054 A 
BRANCH  68  69
ATOM     69  S   UNL     1       3.139 -13.221  15.393  1.00  0.00     0.124 S 
ATOM     70  O   UNL     1       2.480 -13.587  14.141  1.00  0.00    -0.237 OA
ATOM     71  O   UNL     1       3.840 -14.306  16.074  1.00  0.00    -0.237 OA
ATOM     72  O   UNL     1       2.371 -12.335  16.265  1.00  0.00    -0.744 OA
ENDBRANCH  68  69
ENDBRANCH  49  63
BRANCH  50  73
ATOM     73  C   UNL     1      13.540  -4.539   9.961  1.00  0.00    -0.014 A 
ATOM     74  C   UNL     1      14.913  -4.831  10.032  1.00  0.00     0.010 A 
ATOM     75  C   UNL     1      13.121  -3.371   9.298  1.00  0.00     0.010 A 
ATOM     76  C   UNL     1      15.851  -3.968   9.460  1.00  0.00     0.020 A 
ATOM     77  C   UNL     1      14.055  -2.518   8.702  1.00  0.00     0.020 A 
ATOM     78  C   UNL     1      15.415  -2.818   8.794  1.00  0.00     0.054 A 
BRANCH  78  79
ATOM     79  S   UNL     1      16.644  -1.748   7.996  1.00  0.00     0.124 S 
ATOM     80  O   UNL     1      17.235  -1.058   9.139  1.00  0.00    -0.237 OA
ATOM     81  O   UNL     1      17.510  -2.710   7.319  1.00  0.00    -0.237 OA
ATOM     82  O   UNL     1      15.841  -0.913   7.105  1.00  0.00    -0.744 OA
ENDBRANCH  78  79
ENDBRANCH  50  73
BRANCH  62  83
ATOM     83  C   UNL     1      11.789  -6.292  16.483  1.00  0.00    -0.014 A 
ATOM     84  C   UNL     1      11.572  -5.007  17.010  1.00  0.00     0.010 A 
ATOM     85  C   UNL     1      12.506  -7.234  17.244  1.00  0.00     0.010 A 
ATOM     86  C   UNL     1      12.097  -4.657  18.256  1.00  0.00     0.020 A 
ATOM     87  C   UNL     1      13.009  -6.896  18.502  1.00  0.00     0.020 A 
ATOM     88  C   UNL     1      12.818  -5.603  18.993  1.00  0.00     0.054 A 
BRANCH  88  89
ATOM     89  S   UNL     1      13.470  -5.134  20.619  1.00  0.00     0.124 S 
ATOM     90  O   UNL     1      14.623  -4.314  20.257  1.00  0.00    -0.237 OA
ATOM     91  O   UNL     1      12.351  -4.415  21.221  1.00  0.00    -0.237 OA
ATOM     92  O   UNL     1      13.789  -6.415  21.245  1.00  0.00    -0.744 OA
ENDBRANCH  88  89
ENDBRANCH  62  83
ENDBRANCH  36  37
ENDBRANCH  28  31
ENDBRANCH  26  27
ENDBRANCH  25  26
ENDBRANCH   1  25
TORSDOF 18
