REMARK SMILES C[C@H]([C@@H](C)C(=O)NCCCCCCNC(=O)c1ccc(-c2c3nc(c(-c4ccc(S(=O)(=O)[O-])cc4)c4ccc([nH]4)c(-c4ccc(S(=O)(=O)[O-])cc4)c4nc(c(-c5ccc(S(=O)(=O)[O-])cc5)c5ccc2[nH]5)C=C4)C=C3)cc1)n1c(CC#N)nc2ccccc21
REMARK SMILES IDX 10 1 9 2 8 3 7 4 5 5 6 6 3 8 4 9 2 10 1 11 77 12 78 13 88 14
REMARK SMILES IDX 82 15 83 16 87 17 84 18 86 19 85 20 79 21 80 22 81 23 11 24
REMARK SMILES IDX 12 25 13 26 14 27 15 28 16 30 17 31 18 32 76 33 19 34 75 35
REMARK SMILES IDX 20 36 21 37 22 38 69 39 23 40 74 41 68 42 70 43 24 44 73 45
REMARK SMILES IDX 67 46 66 47 25 49 55 50 36 51 54 52 37 53 40 54 53 55 71 56
REMARK SMILES IDX 38 57 39 58 52 60 72 61 41 62 26 63 27 64 35 65 28 66 34 67
REMARK SMILES IDX 29 68 30 69 31 70 32 71 33 72 56 73 57 74 65 75 58 76 64 77
REMARK SMILES IDX 59 78 60 79 61 80 62 81 63 82 42 83 43 84 51 85 44 86 50 87
REMARK SMILES IDX 45 88 46 89 47 90 48 91 49 92
REMARK H PARENT 7 7 14 29 70 48 40 59
REMARK Flexibility Score: inf
ROOT
ATOM      1  C   UNL     1       4.673  -1.989  -2.943  1.00  0.00     0.002 C 
ENDROOT
BRANCH   1   2
ATOM      2  C   UNL     1       3.190  -1.603  -2.896  1.00  0.00     0.021 C 
BRANCH   2   3
ATOM      3  C   UNL     1       2.528  -1.538  -1.510  1.00  0.00     0.116 C 
BRANCH   3   4
ATOM      4  N   UNL     1       2.797  -0.283  -0.811  1.00  0.00    -0.356 N 
ATOM      5  C   UNL     1       2.105   0.682  -0.155  1.00  0.00     0.224 C 
ATOM      6  O   UNL     1       2.779   1.700   0.077  1.00  0.00    -0.275 OA
ATOM      7  H   UNL     1       3.760  -0.079  -0.818  1.00  0.00     0.163 HD
BRANCH   5   8
ATOM      8  C   UNL     1       0.652   0.648   0.421  1.00  0.00     0.098 C 
ATOM      9  C   UNL     1       0.617  -0.301   1.615  1.00  0.00     0.020 C 
BRANCH   8  10
ATOM     10  C   UNL     1      -0.633   0.949  -0.489  1.00  0.00     0.098 C 
ATOM     11  C   UNL     1      -0.113   1.301  -1.909  1.00  0.00     0.032 C 
BRANCH  10  12
ATOM     12  N   UNL     1      -1.734  -0.000  -0.667  1.00  0.00    -0.323 N 
ATOM     13  C   UNL     1      -1.499  -1.146  -1.341  1.00  0.00     0.124 A 
ATOM     14  C   UNL     1      -3.063  -0.243  -0.339  1.00  0.00     0.068 A 
ATOM     15  N   UNL     1      -2.431  -1.290  -2.252  1.00  0.00    -0.232 NA
ATOM     16  C   UNL     1      -3.501  -0.985  -1.473  1.00  0.00     0.089 A 
ATOM     17  C   UNL     1      -3.799  -0.321   0.850  1.00  0.00     0.028 A 
ATOM     18  C   UNL     1      -4.754  -1.604  -1.548  1.00  0.00     0.030 A 
ATOM     19  C   UNL     1      -4.939  -1.167   0.826  1.00  0.00     0.002 A 
ATOM     20  C   UNL     1      -5.431  -1.759  -0.346  1.00  0.00     0.002 A 
BRANCH  13  21
ATOM     21  C   UNL     1      -0.839  -2.160  -0.573  1.00  0.00     0.195 C 
BRANCH  21  22
ATOM     22  C   UNL     1      -1.206  -2.527   0.855  1.00  0.00     0.070 C 
ATOM     23  N   UNL     1      -1.511  -2.831   2.041  1.00  0.00    -0.198 NA
ENDBRANCH  21  22
ENDBRANCH  13  21
ENDBRANCH  10  12
ENDBRANCH   8  10
ENDBRANCH   5   8
ENDBRANCH   3   4
ENDBRANCH   2   3
ENDBRANCH   1   2
BRANCH   1  24
ATOM     24  C   UNL     1       5.012  -3.452  -2.624  1.00  0.00     0.002 C 
BRANCH  24  25
ATOM     25  C   UNL     1       4.283  -4.523  -3.444  1.00  0.00     0.021 C 
BRANCH  25  26
ATOM     26  C   UNL     1       4.426  -4.420  -4.963  1.00  0.00     0.116 C 
BRANCH  26  27
ATOM     27  N   UNL     1       5.796  -4.611  -5.414  1.00  0.00    -0.352 N 
ATOM     28  C   UNL     1       6.297  -5.493  -6.337  1.00  0.00     0.251 C 
ATOM     29  H   UNL     1       6.462  -4.019  -4.995  1.00  0.00     0.163 HD
ATOM     30  O   UNL     1       7.524  -5.620  -6.452  1.00  0.00    -0.269 OA
BRANCH  28  31
ATOM     31  C   UNL     1       5.397  -6.307  -7.181  1.00  0.00     0.039 A 
ATOM     32  C   UNL     1       5.694  -7.657  -7.389  1.00  0.00     0.014 A 
ATOM     33  C   UNL     1       4.274  -5.741  -7.792  1.00  0.00     0.014 A 
ATOM     34  C   UNL     1       4.835  -8.451  -8.156  1.00  0.00     0.010 A 
ATOM     35  C   UNL     1       3.381  -6.549  -8.497  1.00  0.00     0.010 A 
ATOM     36  C   UNL     1       3.654  -7.912  -8.691  1.00  0.00    -0.014 A 
BRANCH  36  37
ATOM     37  C   UNL     1       2.695  -8.758  -9.451  1.00  0.00     0.031 A 
ATOM     38  C   UNL     1       2.416  -8.477 -10.905  1.00  0.00     0.074 A 
ATOM     39  C   UNL     1       2.033  -9.749  -8.820  1.00  0.00     0.049 A 
ATOM     40  N   UNL     1       1.584  -9.078 -11.716  1.00  0.00    -0.248 NA
ATOM     41  C   UNL     1       3.151  -7.360 -11.521  1.00  0.00     0.031 C 
ATOM     42  C   UNL     1       2.182 -10.100  -7.405  1.00  0.00     0.029 A 
ATOM     43  N   UNL     1       1.096 -10.640  -9.283  1.00  0.00    -0.354 N 
ATOM     44  C   UNL     1       1.684  -8.406 -12.930  1.00  0.00     0.074 A 
ATOM     45  C   UNL     1       2.619  -7.320 -12.733  1.00  0.00     0.031 C 
ATOM     46  C   UNL     1       1.390 -11.147  -7.125  1.00  0.00     0.029 A 
ATOM     47  C   UNL     1       0.644 -11.516  -8.324  1.00  0.00     0.049 A 
ATOM     48  H   UNL     1       0.779 -10.651 -10.215  1.00  0.00     0.167 HD
ATOM     49  C   UNL     1       1.069  -8.678 -14.106  1.00  0.00     0.031 A 
ATOM     50  C   UNL     1      -0.273 -12.501  -8.396  1.00  0.00     0.031 A 
ATOM     51  C   UNL     1       0.143  -9.764 -14.300  1.00  0.00     0.049 A 
ATOM     52  C   UNL     1      -0.954 -12.776  -9.710  1.00  0.00     0.074 A 
ATOM     53  C   UNL     1      -0.491 -10.154 -15.467  1.00  0.00     0.029 A 
ATOM     54  N   UNL     1      -0.284 -10.630 -13.305  1.00  0.00    -0.354 N 
ATOM     55  N   UNL     1      -0.794 -12.170 -10.862  1.00  0.00    -0.248 NA
ATOM     56  C   UNL     1      -1.927 -13.876  -9.735  1.00  0.00     0.031 C 
ATOM     57  C   UNL     1      -1.346 -11.219 -15.164  1.00  0.00     0.029 A 
ATOM     58  C   UNL     1      -1.193 -11.536 -13.824  1.00  0.00     0.049 A 
ATOM     59  H   UNL     1       0.015 -10.604 -12.367  1.00  0.00     0.167 HD
ATOM     60  C   UNL     1      -1.626 -12.835 -11.757  1.00  0.00     0.074 A 
ATOM     61  C   UNL     1      -2.272 -13.899 -11.015  1.00  0.00     0.031 C 
ATOM     62  C   UNL     1      -1.832 -12.589 -13.075  1.00  0.00     0.031 A 
BRANCH  49  63
ATOM     63  C   UNL     1       1.372  -7.779 -15.278  1.00  0.00    -0.014 A 
ATOM     64  C   UNL     1       2.639  -7.781 -15.889  1.00  0.00     0.010 A 
ATOM     65  C   UNL     1       0.362  -6.953 -15.806  1.00  0.00     0.010 A 
ATOM     66  C   UNL     1       2.904  -6.943 -16.977  1.00  0.00     0.020 A 
ATOM     67  C   UNL     1       0.613  -6.136 -16.913  1.00  0.00     0.020 A 
ATOM     68  C   UNL     1       1.889  -6.125 -17.480  1.00  0.00     0.054 A 
BRANCH  68  69
ATOM     69  S   UNL     1       2.255  -5.066 -18.907  1.00  0.00     0.124 S 
ATOM     70  O   UNL     1       3.123  -4.051 -18.314  1.00  0.00    -0.237 OA
ATOM     71  O   UNL     1       2.909  -5.989 -19.831  1.00  0.00    -0.237 OA
ATOM     72  O   UNL     1       0.942  -4.589 -19.333  1.00  0.00    -0.744 OA
ENDBRANCH  68  69
ENDBRANCH  49  63
BRANCH  50  73
ATOM     73  C   UNL     1      -0.591 -13.311  -7.187  1.00  0.00    -0.014 A 
ATOM     74  C   UNL     1      -0.210 -14.663  -7.109  1.00  0.00     0.010 A 
ATOM     75  C   UNL     1      -1.269 -12.730  -6.099  1.00  0.00     0.010 A 
ATOM     76  C   UNL     1      -0.517 -15.423  -5.976  1.00  0.00     0.020 A 
ATOM     77  C   UNL     1      -1.551 -13.478  -4.952  1.00  0.00     0.020 A 
ATOM     78  C   UNL     1      -1.183 -14.824  -4.903  1.00  0.00     0.054 A 
BRANCH  78  79
ATOM     79  S   UNL     1      -1.525 -15.816  -3.423  1.00  0.00     0.124 S 
ATOM     80  O   UNL     1      -2.592 -16.697  -3.888  1.00  0.00    -0.237 OA
ATOM     81  O   UNL     1      -0.237 -16.458  -3.170  1.00  0.00    -0.237 OA
ATOM     82  O   UNL     1      -1.922 -14.821  -2.429  1.00  0.00    -0.744 OA
ENDBRANCH  78  79
ENDBRANCH  50  73
BRANCH  62  83
ATOM     83  C   UNL     1      -2.768 -13.509 -13.815  1.00  0.00    -0.014 A 
ATOM     84  C   UNL     1      -4.155 -13.482 -13.586  1.00  0.00     0.010 A 
ATOM     85  C   UNL     1      -2.252 -14.380 -14.792  1.00  0.00     0.010 A 
ATOM     86  C   UNL     1      -5.005 -14.336 -14.296  1.00  0.00     0.020 A 
ATOM     87  C   UNL     1      -3.101 -15.212 -15.526  1.00  0.00     0.020 A 
ATOM     88  C   UNL     1      -4.472 -15.195 -15.262  1.00  0.00     0.054 A 
BRANCH  88  89
ATOM     89  S   UNL     1      -5.600 -16.265 -16.196  1.00  0.00     0.124 S 
ATOM     90  O   UNL     1      -5.974 -17.260 -15.194  1.00  0.00    -0.237 OA
ATOM     91  O   UNL     1      -6.661 -15.343 -16.593  1.00  0.00    -0.237 OA
ATOM     92  O   UNL     1      -4.775 -16.766 -17.293  1.00  0.00    -0.744 OA
ENDBRANCH  88  89
ENDBRANCH  62  83
ENDBRANCH  36  37
ENDBRANCH  28  31
ENDBRANCH  26  27
ENDBRANCH  25  26
ENDBRANCH  24  25
ENDBRANCH   1  24
TORSDOF 20
