REMARK SMILES CS(=O)(=O)c1ccc(-n2nc(C(F)(F)F)cc2-c2ccc(CC(=O)NCCCCCCNC(=O)c3ccc(-c4c5nc(c(-c6ccc(S(=O)(=O)[O-])cc6)c6ccc([nH]6)c(-c6ccc(S(=O)(=O)[O-])cc6)c6nc(c(-c7ccc(S(=O)(=O)[O-])cc7)c7ccc4[nH]7)C=C6)C=C5)cc3)cc2)cc1
REMARK SMILES IDX 28 1 27 2 26 3 25 4 23 5 24 6 22 8 21 9 18 10 19 11 96 12
REMARK SMILES IDX 20 13 95 14 17 15 9 16 10 17 11 18 16 19 8 20 5 21 6 22
REMARK SMILES IDX 98 23 7 24 97 25 2 26 1 27 3 28 4 29 12 30 13 31 14 32 15 33
REMARK SMILES IDX 29 34 30 35 31 36 32 37 33 38 34 40 35 41 36 42 94 43 37 44
REMARK SMILES IDX 93 45 38 46 39 47 40 48 87 49 41 50 92 51 86 52 88 53 42 54
REMARK SMILES IDX 91 55 85 56 84 57 43 59 73 60 54 61 72 62 55 63 58 64 71 65
REMARK SMILES IDX 89 66 56 67 57 68 70 70 90 71 59 72 44 73 45 74 53 75 46 76
REMARK SMILES IDX 52 77 47 78 48 79 49 80 50 81 51 82 74 83 75 84 83 85 76 86
REMARK SMILES IDX 82 87 77 88 78 89 79 90 80 91 81 92 60 93 61 94 69 95 62 96
REMARK SMILES IDX 68 97 63 98 64 99 65 100 66 101 67 102
REMARK H PARENT 25 7 32 39 88 58 58 69
REMARK Flexibility Score: inf
ROOT
ATOM      1  C   UNL     1       5.365   0.527   0.089  1.00  0.00     0.002 C 
ENDROOT
BRANCH   1   2
ATOM      2  C   UNL     1       5.834   1.979  -0.073  1.00  0.00     0.021 C 
BRANCH   2   3
ATOM      3  C   UNL     1       7.248   2.118  -0.637  1.00  0.00     0.116 C 
BRANCH   3   4
ATOM      4  N   UNL     1       7.308   1.709  -2.027  1.00  0.00    -0.356 N 
ATOM      5  C   UNL     1       7.526   2.462  -3.144  1.00  0.00     0.224 C 
ATOM      6  O   UNL     1       7.479   1.902  -4.242  1.00  0.00    -0.275 OA
ATOM      7  H   UNL     1       7.171   0.747  -2.188  1.00  0.00     0.163 HD
BRANCH   5   8
ATOM      8  C   UNL     1       7.898   3.929  -3.023  1.00  0.00     0.135 C 
BRANCH   8   9
ATOM      9  C   UNL     1       6.800   4.814  -2.490  1.00  0.00    -0.039 A 
ATOM     10  C   UNL     1       4.731   6.361  -1.401  1.00  0.00     0.000 A 
ATOM     11  C   UNL     1       4.531   5.658  -2.592  1.00  0.00     0.010 A 
ATOM     12  C   UNL     1       5.986   6.335  -0.788  1.00  0.00     0.010 A 
ATOM     13  C   UNL     1       5.557   4.881  -3.130  1.00  0.00     0.005 A 
ATOM     14  C   UNL     1       7.018   5.581  -1.337  1.00  0.00     0.005 A 
BRANCH  10  15
ATOM     15  C   UNL     1       3.651   7.077  -0.745  1.00  0.00     0.075 A 
ATOM     16  N   UNL     1       2.451   6.514  -0.348  1.00  0.00    -0.233 N 
ATOM     17  N   UNL     1       1.806   7.294   0.547  1.00  0.00    -0.163 NA
ATOM     18  C   UNL     1       2.378   8.509   0.410  1.00  0.00     0.167 A 
ATOM     19  C   UNL     1       3.571   8.398  -0.351  1.00  0.00     0.064 A 
BRANCH  16  20
ATOM     20  C   UNL     1       2.021   5.184  -0.557  1.00  0.00     0.065 A 
ATOM     21  C   UNL     1       1.117   2.589  -0.962  1.00  0.00     0.067 A 
ATOM     22  C   UNL     1       2.071   2.846   0.029  1.00  0.00     0.022 A 
ATOM     23  C   UNL     1       0.617   3.625  -1.755  1.00  0.00     0.022 A 
ATOM     24  C   UNL     1       2.520   4.154   0.243  1.00  0.00     0.030 A 
ATOM     25  C   UNL     1       1.097   4.920  -1.574  1.00  0.00     0.030 A 
BRANCH  21  26
ATOM     26  S   UNL     1       0.506   0.953  -1.288  1.00  0.00     0.175 S 
ATOM     27  C   UNL     1       0.935  -0.052   0.102  1.00  0.00     0.163 C 
ATOM     28  O   UNL     1       1.262   0.456  -2.427  1.00  0.00    -0.224 OA
ATOM     29  O   UNL     1      -0.937   1.036  -1.324  1.00  0.00    -0.224 OA
ENDBRANCH  21  26
ENDBRANCH  16  20
BRANCH  18  30
ATOM     30  C   UNL     1       1.887   9.755   1.107  1.00  0.00     0.435 C 
ATOM     31  F   UNL     1       0.594  10.067   0.869  1.00  0.00    -0.164 F 
ATOM     32  F   UNL     1       2.016   9.635   2.461  1.00  0.00    -0.164 F 
ATOM     33  F   UNL     1       2.638  10.844   0.768  1.00  0.00    -0.164 F 
ENDBRANCH  18  30
ENDBRANCH  10  15
ENDBRANCH   8   9
ENDBRANCH   5   8
ENDBRANCH   3   4
ENDBRANCH   2   3
ENDBRANCH   1   2
BRANCH   1  34
ATOM     34  C   UNL     1       6.290  -0.393   0.903  1.00  0.00     0.002 C 
BRANCH  34  35
ATOM     35  C   UNL     1       6.674   0.095   2.308  1.00  0.00     0.021 C 
BRANCH  35  36
ATOM     36  C   UNL     1       5.500   0.185   3.270  1.00  0.00     0.116 C 
BRANCH  36  37
ATOM     37  N   UNL     1       4.924  -1.125   3.581  1.00  0.00    -0.352 N 
ATOM     38  C   UNL     1       3.856  -1.424   4.412  1.00  0.00     0.251 C 
ATOM     39  H   UNL     1       5.353  -1.895   3.143  1.00  0.00     0.163 HD
ATOM     40  O   UNL     1       3.720  -2.545   4.873  1.00  0.00    -0.269 OA
BRANCH  38  41
ATOM     41  C   UNL     1       2.875  -0.362   4.708  1.00  0.00     0.039 A 
ATOM     42  C   UNL     1       2.255  -0.241   5.956  1.00  0.00     0.014 A 
ATOM     43  C   UNL     1       2.586   0.537   3.688  1.00  0.00     0.014 A 
ATOM     44  C   UNL     1       1.394   0.836   6.176  1.00  0.00     0.010 A 
ATOM     45  C   UNL     1       1.912   1.692   3.966  1.00  0.00     0.010 A 
ATOM     46  C   UNL     1       1.237   1.804   5.173  1.00  0.00    -0.014 A 
BRANCH  46  47
ATOM     47  C   UNL     1       0.443   3.010   5.362  1.00  0.00     0.031 A 
ATOM     48  C   UNL     1       0.901   3.879   6.477  1.00  0.00     0.074 A 
ATOM     49  C   UNL     1      -0.446   3.435   4.433  1.00  0.00     0.049 A 
ATOM     50  N   UNL     1       0.300   4.100   7.598  1.00  0.00    -0.248 NA
ATOM     51  C   UNL     1       2.260   4.443   6.412  1.00  0.00     0.031 C 
ATOM     52  C   UNL     1      -0.758   2.841   3.126  1.00  0.00     0.029 A 
ATOM     53  N   UNL     1      -1.171   4.582   4.405  1.00  0.00    -0.354 N 
ATOM     54  C   UNL     1       1.089   5.021   8.280  1.00  0.00     0.074 A 
ATOM     55  C   UNL     1       2.364   5.026   7.608  1.00  0.00     0.031 C 
ATOM     56  C   UNL     1      -1.397   3.750   2.353  1.00  0.00     0.029 A 
ATOM     57  C   UNL     1      -1.690   4.926   3.156  1.00  0.00     0.049 A 
ATOM     58  H   UNL     1      -1.320   5.132   5.208  1.00  0.00     0.167 HD
ATOM     59  C   UNL     1       0.551   5.894   9.178  1.00  0.00     0.031 A 
ATOM     60  C   UNL     1      -2.283   6.105   2.815  1.00  0.00     0.031 A 
ATOM     61  C   UNL     1      -0.812   5.547   9.497  1.00  0.00     0.049 A 
ATOM     62  C   UNL     1      -2.694   6.744   4.091  1.00  0.00     0.074 A 
ATOM     63  C   UNL     1      -1.429   4.432  10.028  1.00  0.00     0.029 A 
ATOM     64  N   UNL     1      -1.802   6.260   8.856  1.00  0.00    -0.354 N 
ATOM     65  N   UNL     1      -3.620   6.250   4.865  1.00  0.00    -0.248 NA
ATOM     66  C   UNL     1      -1.747   7.637   4.745  1.00  0.00     0.031 C 
ATOM     67  C   UNL     1      -2.620   4.277   9.259  1.00  0.00     0.029 A 
ATOM     68  C   UNL     1      -2.709   5.352   8.371  1.00  0.00     0.049 A 
ATOM     69  H   UNL     1      -1.849   7.239   8.763  1.00  0.00     0.167 HD
ATOM     70  C   UNL     1      -3.128   6.405   6.153  1.00  0.00     0.074 A 
ATOM     71  C   UNL     1      -2.018   7.350   6.023  1.00  0.00     0.031 C 
ATOM     72  C   UNL     1      -3.468   5.536   7.152  1.00  0.00     0.031 A 
BRANCH  59  73
ATOM     73  C   UNL     1       1.095   7.274   9.456  1.00  0.00    -0.014 A 
ATOM     74  C   UNL     1       0.468   8.060  10.446  1.00  0.00     0.010 A 
ATOM     75  C   UNL     1       2.011   7.929   8.608  1.00  0.00     0.010 A 
ATOM     76  C   UNL     1       0.686   9.441  10.527  1.00  0.00     0.020 A 
ATOM     77  C   UNL     1       2.271   9.297   8.710  1.00  0.00     0.020 A 
ATOM     78  C   UNL     1       1.577  10.052   9.645  1.00  0.00     0.054 A 
BRANCH  78  79
ATOM     79  S   UNL     1       1.771  11.850   9.686  1.00  0.00     0.124 S 
ATOM     80  O   UNL     1       0.456  12.304   9.246  1.00  0.00    -0.237 OA
ATOM     81  O   UNL     1       2.090  12.093  11.090  1.00  0.00    -0.237 OA
ATOM     82  O   UNL     1       2.867  12.096   8.752  1.00  0.00    -0.744 OA
ENDBRANCH  78  79
ENDBRANCH  59  73
BRANCH  60  83
ATOM     83  C   UNL     1      -2.305   6.828   1.510  1.00  0.00    -0.014 A 
ATOM     84  C   UNL     1      -3.035   8.024   1.322  1.00  0.00     0.010 A 
ATOM     85  C   UNL     1      -1.374   6.503   0.516  1.00  0.00     0.010 A 
ATOM     86  C   UNL     1      -2.772   8.899   0.239  1.00  0.00     0.020 A 
ATOM     87  C   UNL     1      -1.129   7.358  -0.565  1.00  0.00     0.020 A 
ATOM     88  C   UNL     1      -1.792   8.568  -0.689  1.00  0.00     0.054 A 
BRANCH  88  89
ATOM     89  S   UNL     1      -1.194   9.732  -1.956  1.00  0.00     0.124 S 
ATOM     90  O   UNL     1      -1.973   9.342  -3.127  1.00  0.00    -0.237 OA
ATOM     91  O   UNL     1      -1.507  11.044  -1.399  1.00  0.00    -0.237 OA
ATOM     92  O   UNL     1       0.238   9.431  -2.045  1.00  0.00    -0.744 OA
ENDBRANCH  88  89
ENDBRANCH  60  83
BRANCH  72  93
ATOM     93  C   UNL     1      -4.569   4.527   6.898  1.00  0.00    -0.014 A 
ATOM     94  C   UNL     1      -4.509   3.531   5.902  1.00  0.00     0.010 A 
ATOM     95  C   UNL     1      -5.624   4.479   7.825  1.00  0.00     0.010 A 
ATOM     96  C   UNL     1      -5.492   2.530   5.827  1.00  0.00     0.020 A 
ATOM     97  C   UNL     1      -6.594   3.477   7.767  1.00  0.00     0.020 A 
ATOM     98  C   UNL     1      -6.530   2.511   6.763  1.00  0.00     0.054 A 
BRANCH  98  99
ATOM     99  S   UNL     1      -7.776   1.192   6.697  1.00  0.00     0.124 S 
ATOM    100  O   UNL     1      -8.506   1.506   5.472  1.00  0.00    -0.237 OA
ATOM    101  O   UNL     1      -6.964  -0.022   6.652  1.00  0.00    -0.237 OA
ATOM    102  O   UNL     1      -8.537   1.370   7.933  1.00  0.00    -0.744 OA
ENDBRANCH  98  99
ENDBRANCH  72  93
ENDBRANCH  46  47
ENDBRANCH  38  41
ENDBRANCH  36  37
ENDBRANCH  35  36
ENDBRANCH  34  35
ENDBRANCH   1  34
TORSDOF 21
