REMARK SMILES COC(=O)c1nccc(N2CCO[C@H](CC(=O)NCCCCCCNC(=O)c3ccc(-c4c5nc(c(-c6ccc(S(=O)(=O)[O-])cc6)c6ccc([nH]6)c(-c6ccc(S(=O)(=O)[O-])cc6)c6nc(c(-c7ccc(S(=O)(=O)[O-])cc7)c7ccc4[nH]7)C=C6)C=C5)cc3)C2)n1
REMARK SMILES IDX 21 1 20 2 19 3 18 4 16 5 17 6 15 8 14 9 10 10 11 11 88 12
REMARK SMILES IDX 12 13 13 14 9 15 5 16 6 17 89 18 7 19 8 20 3 21 4 22 2 23
REMARK SMILES IDX 1 24 22 25 23 26 24 27 25 28 26 29 27 31 28 32 29 33 87 34
REMARK SMILES IDX 30 35 86 36 31 37 32 38 33 39 80 40 34 41 85 42 79 43 81 44
REMARK SMILES IDX 35 45 84 46 78 47 77 48 36 50 66 51 47 52 65 53 48 54 51 55
REMARK SMILES IDX 64 56 82 57 49 58 50 59 63 61 83 62 52 63 37 64 38 65 46 66
REMARK SMILES IDX 39 67 45 68 40 69 41 70 42 71 43 72 44 73 67 74 68 75 76 76
REMARK SMILES IDX 69 77 75 78 70 79 71 80 72 81 73 82 74 83 53 84 54 85 62 86
REMARK SMILES IDX 55 87 61 88 56 89 57 90 58 91 59 92 60 93
REMARK H PARENT 18 7 25 30 81 49 51 60
REMARK Flexibility Score: inf
ROOT
ATOM      1  C   UNL     1      -8.885   8.159   2.941  1.00  0.00     0.002 C 
ENDROOT
BRANCH   1   2
ATOM      2  C   UNL     1      -7.836   7.804   1.877  1.00  0.00     0.021 C 
BRANCH   2   3
ATOM      3  C   UNL     1      -6.510   8.544   2.056  1.00  0.00     0.116 C 
BRANCH   3   4
ATOM      4  N   UNL     1      -5.812   8.057   3.231  1.00  0.00    -0.356 N 
ATOM      5  C   UNL     1      -4.738   7.226   3.304  1.00  0.00     0.222 C 
ATOM      6  O   UNL     1      -4.392   6.794   4.404  1.00  0.00    -0.275 OA
ATOM      7  H   UNL     1      -6.164   8.372   4.095  1.00  0.00     0.163 HD
BRANCH   5   8
ATOM      8  C   UNL     1      -3.959   6.892   2.054  1.00  0.00     0.133 C 
BRANCH   8   9
ATOM      9  C   UNL     1      -4.659   5.841   1.174  1.00  0.00     0.147 C 
ATOM     10  N   UNL     1      -2.682   5.226  -0.096  1.00  0.00    -0.352 N 
ATOM     11  C   UNL     1      -3.170   5.855  -1.317  1.00  0.00     0.146 C 
ATOM     12  C   UNL     1      -3.704   4.683   0.792  1.00  0.00     0.150 C 
ATOM     13  C   UNL     1      -4.233   6.905  -0.963  1.00  0.00     0.182 C 
ATOM     14  O   UNL     1      -5.222   6.426  -0.030  1.00  0.00    -0.374 OA
BRANCH  10  15
ATOM     15  C   UNL     1      -1.356   5.036   0.184  1.00  0.00     0.133 A 
ATOM     16  C   UNL     1       0.369   3.657   0.797  1.00  0.00     0.241 A 
ATOM     17  N   UNL     1       1.262   4.661   0.924  1.00  0.00    -0.231 NA
ATOM     18  N   UNL     1      -0.934   3.797   0.471  1.00  0.00    -0.205 NA
ATOM     19  C   UNL     1       0.793   5.883   0.642  1.00  0.00     0.117 A 
ATOM     20  C   UNL     1      -0.500   6.121   0.241  1.00  0.00     0.067 A 
BRANCH  16  21
ATOM     21  C   UNL     1       0.908   2.267   0.977  1.00  0.00     0.376 C 
ATOM     22  O   UNL     1       1.892   1.974   1.644  1.00  0.00    -0.242 OA
BRANCH  21  23
ATOM     23  O   UNL     1       0.189   1.393   0.217  1.00  0.00    -0.463 OA
ATOM     24  C   UNL     1       0.726   0.072   0.171  1.00  0.00     0.282 C 
ENDBRANCH  21  23
ENDBRANCH  16  21
ENDBRANCH  10  15
ENDBRANCH   8   9
ENDBRANCH   5   8
ENDBRANCH   3   4
ENDBRANCH   2   3
ENDBRANCH   1   2
BRANCH   1  25
ATOM     25  C   UNL     1      -9.303   9.634   2.969  1.00  0.00     0.002 C 
BRANCH  25  26
ATOM     26  C   UNL     1      -9.844  10.179   1.645  1.00  0.00     0.021 C 
BRANCH  26  27
ATOM     27  C   UNL     1     -11.090   9.465   1.128  1.00  0.00     0.116 C 
BRANCH  27  28
ATOM     28  N   UNL     1     -12.229   9.649   2.014  1.00  0.00    -0.352 N 
ATOM     29  C   UNL     1     -13.486  10.122   1.722  1.00  0.00     0.251 C 
ATOM     30  H   UNL     1     -12.079   9.401   2.955  1.00  0.00     0.163 HD
ATOM     31  O   UNL     1     -14.266  10.401   2.628  1.00  0.00    -0.269 OA
BRANCH  29  32
ATOM     32  C   UNL     1     -13.885  10.311   0.312  1.00  0.00     0.039 A 
ATOM     33  C   UNL     1     -14.494  11.510  -0.067  1.00  0.00     0.014 A 
ATOM     34  C   UNL     1     -13.652   9.308  -0.634  1.00  0.00     0.014 A 
ATOM     35  C   UNL     1     -14.807  11.731  -1.411  1.00  0.00     0.010 A 
ATOM     36  C   UNL     1     -13.910   9.553  -1.979  1.00  0.00     0.010 A 
ATOM     37  C   UNL     1     -14.486  10.769  -2.382  1.00  0.00    -0.014 A 
BRANCH  37  38
ATOM     38  C   UNL     1     -14.723  11.016  -3.826  1.00  0.00     0.031 A 
ATOM     39  C   UNL     1     -15.709  10.171  -4.585  1.00  0.00     0.074 A 
ATOM     40  C   UNL     1     -13.992  11.945  -4.472  1.00  0.00     0.049 A 
ATOM     41  N   UNL     1     -15.979  10.170  -5.865  1.00  0.00    -0.248 NA
ATOM     42  C   UNL     1     -16.475   9.184  -3.807  1.00  0.00     0.031 C 
ATOM     43  C   UNL     1     -12.979  12.806  -3.855  1.00  0.00     0.029 A 
ATOM     44  N   UNL     1     -13.976  12.312  -5.795  1.00  0.00    -0.354 N 
ATOM     45  C   UNL     1     -16.928   9.172  -6.051  1.00  0.00     0.074 A 
ATOM     46  C   UNL     1     -17.159   8.563  -4.758  1.00  0.00     0.031 C 
ATOM     47  C   UNL     1     -12.454  13.610  -4.794  1.00  0.00     0.029 A 
ATOM     48  C   UNL     1     -13.059  13.294  -6.084  1.00  0.00     0.049 A 
ATOM     49  H   UNL     1     -14.566  11.909  -6.472  1.00  0.00     0.167 HD
ATOM     50  C   UNL     1     -17.561   8.805  -7.190  1.00  0.00     0.031 A 
ATOM     51  C   UNL     1     -12.729  13.868  -7.258  1.00  0.00     0.031 A 
ATOM     52  C   UNL     1     -17.339   9.419  -8.472  1.00  0.00     0.049 A 
ATOM     53  C   UNL     1     -13.436  13.434  -8.512  1.00  0.00     0.074 A 
ATOM     54  C   UNL     1     -17.972   9.155  -9.674  1.00  0.00     0.029 A 
ATOM     55  N   UNL     1     -16.411  10.419  -8.720  1.00  0.00    -0.354 N 
ATOM     56  N   UNL     1     -14.371  12.527  -8.657  1.00  0.00    -0.248 NA
ATOM     57  C   UNL     1     -13.046  14.105  -9.760  1.00  0.00     0.031 C 
ATOM     58  C   UNL     1     -17.394   9.963 -10.659  1.00  0.00     0.029 A 
ATOM     59  C   UNL     1     -16.437  10.767 -10.060  1.00  0.00     0.049 A 
ATOM     60  H   UNL     1     -15.820  10.822  -8.043  1.00  0.00     0.167 HD
ATOM     61  C   UNL     1     -14.698  12.534 -10.008  1.00  0.00     0.074 A 
ATOM     62  C   UNL     1     -13.869  13.543 -10.635  1.00  0.00     0.031 C 
ATOM     63  C   UNL     1     -15.604  11.772 -10.669  1.00  0.00     0.031 A 
BRANCH  50  64
ATOM     64  C   UNL     1     -18.554   7.676  -7.101  1.00  0.00    -0.014 A 
ATOM     65  C   UNL     1     -19.792   7.848  -6.456  1.00  0.00     0.010 A 
ATOM     66  C   UNL     1     -18.260   6.437  -7.699  1.00  0.00     0.010 A 
ATOM     67  C   UNL     1     -20.700   6.790  -6.373  1.00  0.00     0.020 A 
ATOM     68  C   UNL     1     -19.177   5.383  -7.641  1.00  0.00     0.020 A 
ATOM     69  C   UNL     1     -20.384   5.562  -6.961  1.00  0.00     0.054 A 
BRANCH  69  70
ATOM     70  S   UNL     1     -21.587   4.208  -6.852  1.00  0.00     0.124 S 
ATOM     71  O   UNL     1     -21.442   3.792  -5.459  1.00  0.00    -0.237 OA
ATOM     72  O   UNL     1     -22.846   4.870  -7.181  1.00  0.00    -0.237 OA
ATOM     73  O   UNL     1     -21.115   3.244  -7.842  1.00  0.00    -0.744 OA
ENDBRANCH  69  70
ENDBRANCH  50  64
BRANCH  51  74
ATOM     74  C   UNL     1     -11.680  14.921  -7.298  1.00  0.00    -0.014 A 
ATOM     75  C   UNL     1     -12.028  16.266  -7.514  1.00  0.00     0.010 A 
ATOM     76  C   UNL     1     -10.327  14.587  -7.102  1.00  0.00     0.010 A 
ATOM     77  C   UNL     1     -11.043  17.256  -7.546  1.00  0.00     0.020 A 
ATOM     78  C   UNL     1      -9.342  15.578  -7.109  1.00  0.00     0.020 A 
ATOM     79  C   UNL     1      -9.705  16.906  -7.341  1.00  0.00     0.054 A 
BRANCH  79  80
ATOM     80  S   UNL     1      -8.448  18.215  -7.327  1.00  0.00     0.124 S 
ATOM     81  O   UNL     1      -8.312  18.519  -8.748  1.00  0.00    -0.237 OA
ATOM     82  O   UNL     1      -9.078  19.251  -6.513  1.00  0.00    -0.237 OA
ATOM     83  O   UNL     1      -7.291  17.568  -6.710  1.00  0.00    -0.744 OA
ENDBRANCH  79  80
ENDBRANCH  51  74
BRANCH  63  84
ATOM     84  C   UNL     1     -15.769  12.016 -12.145  1.00  0.00    -0.014 A 
ATOM     85  C   UNL     1     -14.804  11.573 -13.066  1.00  0.00     0.010 A 
ATOM     86  C   UNL     1     -16.939  12.637 -12.619  1.00  0.00     0.010 A 
ATOM     87  C   UNL     1     -14.996  11.767 -14.436  1.00  0.00     0.020 A 
ATOM     88  C   UNL     1     -17.146  12.811 -13.990  1.00  0.00     0.020 A 
ATOM     89  C   UNL     1     -16.167  12.384 -14.889  1.00  0.00     0.054 A 
BRANCH  89  90
ATOM     90  S   UNL     1     -16.419  12.572 -16.676  1.00  0.00     0.124 S 
ATOM     91  O   UNL     1     -15.514  13.672 -16.997  1.00  0.00    -0.237 OA
ATOM     92  O   UNL     1     -16.028  11.264 -17.196  1.00  0.00    -0.237 OA
ATOM     93  O   UNL     1     -17.843  12.881 -16.794  1.00  0.00    -0.744 OA
ENDBRANCH  89  90
ENDBRANCH  63  84
ENDBRANCH  37  38
ENDBRANCH  29  32
ENDBRANCH  27  28
ENDBRANCH  26  27
ENDBRANCH  25  26
ENDBRANCH   1  25
TORSDOF 20
