REMARK SMILES Cc1cccc(S(=O)(=O)Nc2cnc(N(C)Cc3ccccc3)c(C(=O)NCCCCCCNC(=O)c3ccc(-c4c5nc(c(-c6ccc(S(=O)(=O)[O-])cc6)c6ccc([nH]6)c(-c6ccc(S(=O)(=O)[O-])cc6)c6nc(c(-c7ccc(S(=O)(=O)[O-])cc7)c7ccc4[nH]7)C=C6)C=C5)cc3)c2)c1
REMARK SMILES IDX 30 1 29 2 28 3 27 4 25 5 26 6 24 8 11 9 12 10 97 11 13 12
REMARK SMILES IDX 14 13 10 14 7 16 8 17 9 18 6 19 1 20 2 21 3 22 98 23 4 24
REMARK SMILES IDX 5 25 15 26 16 27 17 28 18 29 19 30 23 31 20 32 22 33 21 34
REMARK SMILES IDX 31 35 32 36 33 37 34 38 35 39 36 41 37 42 38 43 96 44 39 45
REMARK SMILES IDX 95 46 40 47 41 48 42 49 89 50 43 51 94 52 88 53 90 54 44 55
REMARK SMILES IDX 93 56 87 57 86 58 45 60 75 61 56 62 74 63 57 64 60 65 73 66
REMARK SMILES IDX 91 67 58 68 59 69 72 71 92 72 61 73 46 74 47 75 55 76 48 77
REMARK SMILES IDX 54 78 49 79 50 80 51 81 52 82 53 83 76 84 77 85 85 86 78 87
REMARK SMILES IDX 84 88 79 89 80 90 81 91 82 92 83 93 62 94 63 95 71 96 64 97
REMARK SMILES IDX 70 98 65 99 66 100 67 101 68 102 69 103
REMARK H PARENT 27 7 10 15 34 40 90 59 60 70
REMARK Flexibility Score: inf
ROOT
ATOM      1  C   UNL     1       0.830   0.093  -5.294  1.00  0.00     0.002 C 
ENDROOT
BRANCH   1   2
ATOM      2  C   UNL     1       0.449   1.093  -4.193  1.00  0.00     0.021 C 
BRANCH   2   3
ATOM      3  C   UNL     1       1.224   0.896  -2.886  1.00  0.00     0.116 C 
BRANCH   3   4
ATOM      4  N   UNL     1       2.529   1.538  -2.995  1.00  0.00    -0.352 N 
ATOM      5  C   UNL     1       3.048   2.674  -2.419  1.00  0.00     0.255 C 
ATOM      6  O   UNL     1       3.980   3.240  -2.987  1.00  0.00    -0.269 OA
ATOM      7  H   UNL     1       3.155   1.071  -3.594  1.00  0.00     0.163 HD
BRANCH   5   8
ATOM      8  C   UNL     1       2.540   3.208  -1.136  1.00  0.00     0.084 A 
ATOM      9  C   UNL     1       0.631   3.981   0.133  1.00  0.00     0.068 A 
ATOM     10  C   UNL     1       1.516   4.282   1.148  1.00  0.00     0.140 A 
ATOM     11  C   UNL     1       1.167   3.546  -1.066  1.00  0.00     0.046 A 
ATOM     12  N   UNL     1       2.842   4.053   1.080  1.00  0.00    -0.236 NA
ATOM     13  C   UNL     1       3.388   3.497  -0.040  1.00  0.00     0.141 A 
BRANCH   9  14
ATOM     14  N   UNL     1      -0.755   4.195   0.402  1.00  0.00    -0.278 N 
ATOM     15  H   UNL     1      -1.029   5.022   0.861  1.00  0.00     0.180 HD
BRANCH  14  16
ATOM     16  S   UNL     1      -1.944   3.071  -0.042  1.00  0.00     0.261 S 
ATOM     17  O   UNL     1      -2.111   3.239  -1.470  1.00  0.00    -0.201 OA
ATOM     18  O   UNL     1      -3.052   3.303   0.862  1.00  0.00    -0.201 OA
BRANCH  16  19
ATOM     19  C   UNL     1      -1.436   1.383   0.197  1.00  0.00     0.088 A 
ATOM     20  C   UNL     1       1.679  -0.721   0.629  1.00  0.00     0.044 C 
ATOM     21  C   UNL     1       0.240  -0.344   0.445  1.00  0.00    -0.050 A 
ATOM     22  C   UNL     1      -0.689  -1.309   0.047  1.00  0.00     0.003 A 
ATOM     23  C   UNL     1      -0.163   0.990   0.599  1.00  0.00     0.025 A 
ATOM     24  C   UNL     1      -1.999  -0.939  -0.240  1.00  0.00     0.002 A 
ATOM     25  C   UNL     1      -2.365   0.406  -0.191  1.00  0.00     0.022 A 
ENDBRANCH  16  19
ENDBRANCH  14  16
ENDBRANCH   9  14
BRANCH  13  26
ATOM     26  N   UNL     1       4.748   3.297   0.061  1.00  0.00    -0.355 N 
ATOM     27  C   UNL     1       5.507   4.199   0.928  1.00  0.00     0.145 C 
BRANCH  26  28
ATOM     28  C   UNL     1       5.536   2.247  -0.580  1.00  0.00     0.153 C 
BRANCH  28  29
ATOM     29  C   UNL     1       5.269   0.850  -0.061  1.00  0.00    -0.029 A 
ATOM     30  C   UNL     1       5.342  -0.235  -0.951  1.00  0.00     0.005 A 
ATOM     31  C   UNL     1       5.079   0.582   1.303  1.00  0.00     0.005 A 
ATOM     32  C   UNL     1       5.215  -1.547  -0.493  1.00  0.00     0.000 A 
ATOM     33  C   UNL     1       4.952  -0.732   1.762  1.00  0.00     0.000 A 
ATOM     34  C   UNL     1       5.021  -1.796   0.864  1.00  0.00     0.000 A 
ENDBRANCH  28  29
ENDBRANCH  26  28
ENDBRANCH  13  26
ENDBRANCH   5   8
ENDBRANCH   3   4
ENDBRANCH   2   3
ENDBRANCH   1   2
BRANCH   1  35
ATOM     35  C   UNL     1       0.520  -1.384  -4.997  1.00  0.00     0.002 C 
BRANCH  35  36
ATOM     36  C   UNL     1      -0.892  -1.685  -4.489  1.00  0.00     0.021 C 
BRANCH  36  37
ATOM     37  C   UNL     1      -1.986  -1.317  -5.487  1.00  0.00     0.116 C 
BRANCH  37  38
ATOM     38  N   UNL     1      -2.752  -2.463  -5.948  1.00  0.00    -0.352 N 
ATOM     39  C   UNL     1      -3.951  -2.438  -6.658  1.00  0.00     0.251 C 
ATOM     40  H   UNL     1      -2.385  -3.352  -5.736  1.00  0.00     0.163 HD
ATOM     41  O   UNL     1      -4.702  -3.370  -6.723  1.00  0.00    -0.269 OA
BRANCH  39  42
ATOM     42  C   UNL     1      -4.168  -1.222  -7.478  1.00  0.00     0.039 A 
ATOM     43  C   UNL     1      -3.944  -1.344  -8.855  1.00  0.00     0.014 A 
ATOM     44  C   UNL     1      -4.280   0.023  -6.869  1.00  0.00     0.014 A 
ATOM     45  C   UNL     1      -3.662  -0.206  -9.604  1.00  0.00     0.010 A 
ATOM     46  C   UNL     1      -3.917   1.140  -7.596  1.00  0.00     0.010 A 
ATOM     47  C   UNL     1      -3.563   1.020  -8.950  1.00  0.00    -0.014 A 
BRANCH  47  48
ATOM     48  C   UNL     1      -3.058   2.236  -9.576  1.00  0.00     0.031 A 
ATOM     49  C   UNL     1      -4.006   3.302  -9.968  1.00  0.00     0.074 A 
ATOM     50  C   UNL     1      -1.729   2.446  -9.702  1.00  0.00     0.049 A 
ATOM     51  N   UNL     1      -3.735   4.259 -10.791  1.00  0.00    -0.248 NA
ATOM     52  C   UNL     1      -5.385   3.331  -9.492  1.00  0.00     0.031 C 
ATOM     53  C   UNL     1      -1.067   3.720  -9.974  1.00  0.00     0.029 A 
ATOM     54  N   UNL     1      -0.706   1.504  -9.836  1.00  0.00    -0.354 N 
ATOM     55  C   UNL     1      -4.747   5.186 -10.691  1.00  0.00     0.074 A 
ATOM     56  C   UNL     1      -5.795   4.513  -9.959  1.00  0.00     0.031 C 
ATOM     57  C   UNL     1       0.129   3.470 -10.528  1.00  0.00     0.029 A 
ATOM     58  C   UNL     1       0.186   2.042 -10.783  1.00  0.00     0.049 A 
ATOM     59  H   UNL     1      -0.626   0.643  -9.366  1.00  0.00     0.167 HD
ATOM     60  C   UNL     1      -4.529   6.466 -11.108  1.00  0.00     0.031 A 
ATOM     61  C   UNL     1       0.440   1.468 -11.998  1.00  0.00     0.031 A 
ATOM     62  C   UNL     1      -3.237   6.614 -11.785  1.00  0.00     0.049 A 
ATOM     63  C   UNL     1       0.146   2.376 -13.184  1.00  0.00     0.074 A 
ATOM     64  C   UNL     1      -2.025   7.201 -11.463  1.00  0.00     0.029 A 
ATOM     65  N   UNL     1      -3.000   5.858 -12.922  1.00  0.00    -0.354 N 
ATOM     66  N   UNL     1      -0.348   3.580 -13.093  1.00  0.00    -0.248 NA
ATOM     67  C   UNL     1       0.289   1.950 -14.578  1.00  0.00     0.031 C 
ATOM     68  C   UNL     1      -1.059   6.793 -12.430  1.00  0.00     0.029 A 
ATOM     69  C   UNL     1      -1.689   5.969 -13.342  1.00  0.00     0.049 A 
ATOM     70  H   UNL     1      -3.682   5.311 -13.375  1.00  0.00     0.167 HD
ATOM     71  C   UNL     1      -0.649   4.056 -14.343  1.00  0.00     0.074 A 
ATOM     72  C   UNL     1      -0.217   3.004 -15.243  1.00  0.00     0.031 C 
ATOM     73  C   UNL     1      -1.284   5.249 -14.539  1.00  0.00     0.031 A 
BRANCH  60  74
ATOM     74  C   UNL     1      -5.388   7.643 -10.685  1.00  0.00    -0.014 A 
ATOM     75  C   UNL     1      -4.840   8.943 -10.676  1.00  0.00     0.010 A 
ATOM     76  C   UNL     1      -6.715   7.537 -10.225  1.00  0.00     0.010 A 
ATOM     77  C   UNL     1      -5.527  10.042 -10.134  1.00  0.00     0.020 A 
ATOM     78  C   UNL     1      -7.403   8.616  -9.649  1.00  0.00     0.020 A 
ATOM     79  C   UNL     1      -6.796   9.863  -9.591  1.00  0.00     0.054 A 
BRANCH  79  80
ATOM     80  S   UNL     1      -7.634  11.262  -8.803  1.00  0.00     0.124 S 
ATOM     81  O   UNL     1      -6.678  11.662  -7.773  1.00  0.00    -0.237 OA
ATOM     82  O   UNL     1      -7.796  12.197  -9.912  1.00  0.00    -0.237 OA
ATOM     83  O   UNL     1      -8.876  10.681  -8.296  1.00  0.00    -0.744 OA
ENDBRANCH  79  80
ENDBRANCH  60  74
BRANCH  61  84
ATOM     84  C   UNL     1       0.288  -0.016 -12.005  1.00  0.00    -0.014 A 
ATOM     85  C   UNL     1       1.200  -0.770 -11.234  1.00  0.00     0.010 A 
ATOM     86  C   UNL     1      -0.932  -0.603 -12.383  1.00  0.00     0.010 A 
ATOM     87  C   UNL     1       0.826  -2.006 -10.701  1.00  0.00     0.020 A 
ATOM     88  C   UNL     1      -1.301  -1.852 -11.862  1.00  0.00     0.020 A 
ATOM     89  C   UNL     1      -0.448  -2.507 -10.968  1.00  0.00     0.054 A 
BRANCH  89  90
ATOM     90  S   UNL     1      -1.040  -3.909  -9.972  1.00  0.00     0.124 S 
ATOM     91  O   UNL     1      -0.066  -4.949 -10.285  1.00  0.00    -0.237 OA
ATOM     92  O   UNL     1      -0.971  -3.369  -8.614  1.00  0.00    -0.237 OA
ATOM     93  O   UNL     1      -2.390  -4.135 -10.480  1.00  0.00    -0.744 OA
ENDBRANCH  89  90
ENDBRANCH  61  84
BRANCH  73  94
ATOM     94  C   UNL     1      -1.649   5.826 -15.887  1.00  0.00    -0.014 A 
ATOM     95  C   UNL     1      -0.841   5.697 -17.027  1.00  0.00     0.010 A 
ATOM     96  C   UNL     1      -2.801   6.639 -16.007  1.00  0.00     0.010 A 
ATOM     97  C   UNL     1      -1.208   6.290 -18.247  1.00  0.00     0.020 A 
ATOM     98  C   UNL     1      -3.166   7.250 -17.210  1.00  0.00     0.020 A 
ATOM     99  C   UNL     1      -2.374   7.054 -18.332  1.00  0.00     0.054 A 
BRANCH  99 100
ATOM    100  S   UNL     1      -2.818   7.828 -19.908  1.00  0.00     0.124 S 
ATOM    101  O   UNL     1      -1.564   8.455 -20.319  1.00  0.00    -0.237 OA
ATOM    102  O   UNL     1      -3.233   6.676 -20.704  1.00  0.00    -0.237 OA
ATOM    103  O   UNL     1      -3.887   8.758 -19.555  1.00  0.00    -0.744 OA
ENDBRANCH  99 100
ENDBRANCH  73  94
ENDBRANCH  47  48
ENDBRANCH  39  42
ENDBRANCH  37  38
ENDBRANCH  36  37
ENDBRANCH  35  36
ENDBRANCH   1  35
TORSDOF 22
