REMARK SMILES CC(C)Cc1ccc([C@H](CC[C@@H](C)O)C(=O)NCCCCCCNC(=O)c2ccc(-c3c4nc(c(-c5ccc(S(=O)(=O)[O-])cc5)c5ccc([nH]5)c(-c5ccc(S(=O)(=O)[O-])cc5)c5nc(c(-c6ccc(S(=O)(=O)[O-])cc6)c6ccc3[nH]6)C=C5)C=C4)cc2)cc1
REMARK SMILES IDX 20 1 19 2 18 3 17 4 15 5 16 6 9 8 8 9 5 10 6 11 88 12 7 13
REMARK SMILES IDX 87 14 4 15 2 16 1 17 3 18 10 19 11 20 12 21 13 22 14 23
REMARK SMILES IDX 21 25 22 26 23 27 24 28 25 29 26 31 27 32 28 33 86 34 29 35
REMARK SMILES IDX 85 36 30 37 31 38 32 39 79 40 33 41 84 42 78 43 80 44 34 45
REMARK SMILES IDX 83 46 77 47 76 48 35 50 65 51 46 52 64 53 47 54 50 55 63 56
REMARK SMILES IDX 81 57 48 58 49 59 62 61 82 62 51 63 36 64 37 65 45 66 38 67
REMARK SMILES IDX 44 68 39 69 40 70 41 71 42 72 43 73 66 74 67 75 75 76 68 77
REMARK SMILES IDX 74 78 69 79 70 80 71 81 72 82 73 83 52 84 53 85 61 86 54 87
REMARK SMILES IDX 60 88 55 89 56 90 57 91 58 92 59 93
REMARK H PARENT 17 7 14 24 24 30 80 49 50 60
REMARK Flexibility Score: inf
ROOT
ATOM      1  C   UNL     1       2.201   3.777  -2.346  1.00  0.00     0.002 C 
ENDROOT
BRANCH   1   2
ATOM      2  C   UNL     1       0.835   3.198  -1.969  1.00  0.00     0.021 C 
BRANCH   2   3
ATOM      3  C   UNL     1      -0.337   3.925  -2.622  1.00  0.00     0.116 C 
BRANCH   3   4
ATOM      4  N   UNL     1      -0.370   3.666  -4.050  1.00  0.00    -0.356 N 
ATOM      5  C   UNL     1      -1.352   3.078  -4.794  1.00  0.00     0.227 C 
ATOM      6  O   UNL     1      -1.162   2.938  -6.005  1.00  0.00    -0.274 OA
ATOM      7  H   UNL     1       0.426   3.954  -4.551  1.00  0.00     0.163 HD
BRANCH   5   8
ATOM      8  C   UNL     1      -2.648   2.584  -4.124  1.00  0.00     0.108 C 
BRANCH   8   9
ATOM      9  C   UNL     1      -3.450   3.740  -3.512  1.00  0.00    -0.036 A 
ATOM     10  C   UNL     1      -5.186   5.821  -2.624  1.00  0.00    -0.048 A 
ATOM     11  C   UNL     1      -5.112   4.605  -1.952  1.00  0.00     0.004 A 
ATOM     12  C   UNL     1      -4.308   6.040  -3.686  1.00  0.00     0.004 A 
ATOM     13  C   UNL     1      -4.293   3.578  -2.413  1.00  0.00     0.005 A 
ATOM     14  C   UNL     1      -3.455   5.014  -4.122  1.00  0.00     0.005 A 
BRANCH  10  15
ATOM     15  C   UNL     1      -6.256   6.810  -2.235  1.00  0.00     0.038 C 
BRANCH  15  16
ATOM     16  C   UNL     1      -7.672   6.432  -2.745  1.00  0.00    -0.013 C 
ATOM     17  C   UNL     1      -8.178   5.064  -2.269  1.00  0.00     0.008 C 
ATOM     18  C   UNL     1      -8.677   7.497  -2.300  1.00  0.00     0.008 C 
ENDBRANCH  15  16
ENDBRANCH  10  15
ENDBRANCH   8   9
BRANCH   8  19
ATOM     19  C   UNL     1      -2.257   1.306  -3.317  1.00  0.00     0.021 C 
BRANCH  19  20
ATOM     20  C   UNL     1      -3.302   0.514  -2.529  1.00  0.00     0.032 C 
BRANCH  20  21
ATOM     21  C   UNL     1      -4.603   0.212  -3.273  1.00  0.00     0.111 C 
ATOM     22  C   UNL     1      -4.490  -1.057  -4.103  1.00  0.00     0.038 C 
BRANCH  21  23
ATOM     23  O   UNL     1      -5.654   0.041  -2.322  1.00  0.00    -0.393 OA
ATOM     24  H   UNL     1      -5.445  -0.706  -1.740  1.00  0.00     0.210 HD
ENDBRANCH  21  23
ENDBRANCH  20  21
ENDBRANCH  19  20
ENDBRANCH   8  19
ENDBRANCH   5   8
ENDBRANCH   3   4
ENDBRANCH   2   3
ENDBRANCH   1   2
BRANCH   1  25
ATOM     25  C   UNL     1       2.367   5.267  -2.030  1.00  0.00     0.002 C 
BRANCH  25  26
ATOM     26  C   UNL     1       2.065   5.649  -0.578  1.00  0.00     0.021 C 
BRANCH  26  27
ATOM     27  C   UNL     1       2.907   4.904   0.451  1.00  0.00     0.116 C 
BRANCH  27  28
ATOM     28  N   UNL     1       4.325   5.176   0.284  1.00  0.00    -0.352 N 
ATOM     29  C   UNL     1       5.229   5.650   1.202  1.00  0.00     0.251 C 
ATOM     30  H   UNL     1       4.689   4.996  -0.613  1.00  0.00     0.163 HD
ATOM     31  O   UNL     1       6.332   6.038   0.838  1.00  0.00    -0.269 OA
BRANCH  29  32
ATOM     32  C   UNL     1       4.851   5.699   2.630  1.00  0.00     0.039 A 
ATOM     33  C   UNL     1       5.144   6.846   3.370  1.00  0.00     0.014 A 
ATOM     34  C   UNL     1       4.204   4.615   3.232  1.00  0.00     0.014 A 
ATOM     35  C   UNL     1       4.740   6.926   4.703  1.00  0.00     0.010 A 
ATOM     36  C   UNL     1       3.733   4.729   4.535  1.00  0.00     0.010 A 
ATOM     37  C   UNL     1       4.003   5.882   5.287  1.00  0.00    -0.014 A 
BRANCH  37  38
ATOM     38  C   UNL     1       3.509   5.977   6.684  1.00  0.00     0.031 A 
ATOM     39  C   UNL     1       3.999   5.010   7.727  1.00  0.00     0.074 A 
ATOM     40  C   UNL     1       2.580   6.901   7.000  1.00  0.00     0.049 A 
ATOM     41  N   UNL     1       3.654   4.909   8.985  1.00  0.00    -0.248 NA
ATOM     42  C   UNL     1       4.990   4.010   7.296  1.00  0.00     0.031 C 
ATOM     43  C   UNL     1       2.001   7.874   6.070  1.00  0.00     0.029 A 
ATOM     44  N   UNL     1       1.958   7.174   8.193  1.00  0.00    -0.354 N 
ATOM     45  C   UNL     1       4.374   3.833   9.491  1.00  0.00     0.074 A 
ATOM     46  C   UNL     1       5.129   3.276   8.390  1.00  0.00     0.031 C 
ATOM     47  C   UNL     1       1.138   8.658   6.735  1.00  0.00     0.029 A 
ATOM     48  C   UNL     1       1.064   8.216   8.124  1.00  0.00     0.049 A 
ATOM     49  H   UNL     1       2.135   6.670   9.020  1.00  0.00     0.167 HD
ATOM     50  C   UNL     1       4.421   3.364  10.761  1.00  0.00     0.031 A 
ATOM     51  C   UNL     1       0.269   8.754   9.070  1.00  0.00     0.031 A 
ATOM     52  C   UNL     1       3.666   3.921  11.852  1.00  0.00     0.049 A 
ATOM     53  C   UNL     1       0.312   8.192  10.465  1.00  0.00     0.074 A 
ATOM     54  C   UNL     1       3.675   3.546  13.184  1.00  0.00     0.029 A 
ATOM     55  N   UNL     1       2.764   4.969  11.738  1.00  0.00    -0.354 N 
ATOM     56  N   UNL     1       1.046   7.212  10.938  1.00  0.00    -0.248 NA
ATOM     57  C   UNL     1      -0.573   8.817  11.457  1.00  0.00     0.031 C 
ATOM     58  C   UNL     1       2.733   4.325  13.863  1.00  0.00     0.029 A 
ATOM     59  C   UNL     1       2.189   5.234  12.970  1.00  0.00     0.049 A 
ATOM     60  H   UNL     1       2.562   5.452  10.904  1.00  0.00     0.167 HD
ATOM     61  C   UNL     1       0.734   7.125  12.290  1.00  0.00     0.074 A 
ATOM     62  C   UNL     1      -0.243   8.160  12.561  1.00  0.00     0.031 C 
ATOM     63  C   UNL     1       1.216   6.268  13.224  1.00  0.00     0.031 A 
BRANCH  50  64
ATOM     64  C   UNL     1       5.315   2.181  11.033  1.00  0.00    -0.014 A 
ATOM     65  C   UNL     1       6.716   2.293  10.954  1.00  0.00     0.010 A 
ATOM     66  C   UNL     1       4.751   0.946  11.402  1.00  0.00     0.010 A 
ATOM     67  C   UNL     1       7.531   1.183  11.191  1.00  0.00     0.020 A 
ATOM     68  C   UNL     1       5.564  -0.158  11.672  1.00  0.00     0.020 A 
ATOM     69  C   UNL     1       6.949  -0.037  11.546  1.00  0.00     0.054 A 
BRANCH  69  70
ATOM     70  S   UNL     1       8.034  -1.456  11.860  1.00  0.00     0.124 S 
ATOM     71  O   UNL     1       8.506  -1.777  10.515  1.00  0.00    -0.237 OA
ATOM     72  O   UNL     1       9.038  -0.898  12.761  1.00  0.00    -0.237 OA
ATOM     73  O   UNL     1       7.144  -2.448  12.459  1.00  0.00    -0.744 OA
ENDBRANCH  69  70
ENDBRANCH  50  64
BRANCH  51  74
ATOM     74  C   UNL     1      -0.621   9.899   8.732  1.00  0.00    -0.014 A 
ATOM     75  C   UNL     1      -0.370  11.178   9.261  1.00  0.00     0.010 A 
ATOM     76  C   UNL     1      -1.720   9.720   7.873  1.00  0.00     0.010 A 
ATOM     77  C   UNL     1      -1.211  12.250   8.953  1.00  0.00     0.020 A 
ATOM     78  C   UNL     1      -2.546  10.796   7.537  1.00  0.00     0.020 A 
ATOM     79  C   UNL     1      -2.293  12.053   8.089  1.00  0.00     0.054 A 
BRANCH  79  80
ATOM     80  S   UNL     1      -3.343  13.471   7.666  1.00  0.00     0.124 S 
ATOM     81  O   UNL     1      -4.063  13.699   8.915  1.00  0.00    -0.237 OA
ATOM     82  O   UNL     1      -2.362  14.491   7.305  1.00  0.00    -0.237 OA
ATOM     83  O   UNL     1      -4.154  12.977   6.556  1.00  0.00    -0.744 OA
ENDBRANCH  79  80
ENDBRANCH  51  74
BRANCH  63  84
ATOM     84  C   UNL     1       0.725   6.434  14.639  1.00  0.00    -0.014 A 
ATOM     85  C   UNL     1      -0.593   6.105  15.002  1.00  0.00     0.010 A 
ATOM     86  C   UNL     1       1.618   6.880  15.632  1.00  0.00     0.010 A 
ATOM     87  C   UNL     1      -1.018   6.249  16.325  1.00  0.00     0.020 A 
ATOM     88  C   UNL     1       1.206   6.994  16.962  1.00  0.00     0.020 A 
ATOM     89  C   UNL     1      -0.115   6.691  17.297  1.00  0.00     0.054 A 
BRANCH  89  90
ATOM     90  S   UNL     1      -0.680   6.827  19.015  1.00  0.00     0.124 S 
ATOM     91  O   UNL     1      -1.556   7.994  18.956  1.00  0.00    -0.237 OA
ATOM     92  O   UNL     1      -1.351   5.548  19.233  1.00  0.00    -0.237 OA
ATOM     93  O   UNL     1       0.555   7.013  19.774  1.00  0.00    -0.744 OA
ENDBRANCH  89  90
ENDBRANCH  63  84
ENDBRANCH  37  38
ENDBRANCH  29  32
ENDBRANCH  27  28
ENDBRANCH  26  27
ENDBRANCH  25  26
ENDBRANCH   1  25
TORSDOF 23
