REMARK SMILES CCCc1cc(OC(F)(F)F)cc2c1O[C@@H](C(F)(F)F)C(C(=O)NCCCCCCNC(=O)c1ccc(-c3c4nc(c(-c5ccc(S(=O)(=O)[O-])cc5)c5ccc([nH]5)c(-c5ccc(S(=O)(=O)[O-])cc5)c5nc(c(-c6ccc(S(=O)(=O)[O-])cc6)c6ccc3[nH]6)C=C5)C=C4)cc1)=C2
REMARK SMILES IDX 28 1 27 2 26 3 25 4 24 5 22 6 23 7 21 9 4 10 5 11 14 12 6 13
REMARK SMILES IDX 13 14 15 15 12 16 94 17 16 18 3 19 2 20 1 21 7 22 8 23 9 24
REMARK SMILES IDX 10 25 11 26 17 27 18 28 19 29 20 30 29 31 30 32 31 33 32 34
REMARK SMILES IDX 33 36 34 37 35 38 93 39 36 40 92 41 37 42 38 43 39 44 86 45
REMARK SMILES IDX 40 46 91 47 85 48 87 49 41 50 90 51 84 52 83 53 42 55 72 56
REMARK SMILES IDX 53 57 71 58 54 59 57 60 70 61 88 62 55 63 56 64 69 66 89 67
REMARK SMILES IDX 58 68 43 69 44 70 52 71 45 72 51 73 46 74 47 75 48 76 49 77
REMARK SMILES IDX 50 78 73 79 74 80 82 81 75 82 81 83 76 84 77 85 78 86 79 87
REMARK SMILES IDX 80 88 59 89 60 90 68 91 61 92 67 93 62 94 63 95 64 96 65 97
REMARK SMILES IDX 66 98
REMARK H PARENT 24 8 31 35 87 54 57 65
REMARK Flexibility Score: inf
ROOT
ATOM      1  C   UNL     1      -1.584  -2.444  11.730  1.00  0.00     0.002 C 
ENDROOT
BRANCH   1   2
ATOM      2  C   UNL     1      -2.567  -2.494  10.554  1.00  0.00     0.002 C 
BRANCH   2   3
ATOM      3  C   UNL     1      -2.011  -1.947   9.232  1.00  0.00     0.021 C 
BRANCH   3   4
ATOM      4  C   UNL     1      -0.864  -2.793   8.666  1.00  0.00     0.116 C 
BRANCH   4   5
ATOM      5  N   UNL     1      -1.411  -3.974   8.013  1.00  0.00    -0.352 N 
ATOM      6  C   UNL     1      -1.759  -4.238   6.726  1.00  0.00     0.251 C 
ATOM      7  O   UNL     1      -2.405  -5.258   6.497  1.00  0.00    -0.270 OA
ATOM      8  H   UNL     1      -1.557  -4.731   8.625  1.00  0.00     0.163 HD
BRANCH   6   9
ATOM      9  C   UNL     1      -1.302  -3.399   5.587  1.00  0.00     0.067 C 
ATOM     10  C   UNL     1       0.626  -1.317   2.481  1.00  0.00    -0.002 A 
ATOM     11  C   UNL     1       0.901   0.048   2.683  1.00  0.00     0.054 A 
ATOM     12  C   UNL     1      -0.104  -2.010   3.463  1.00  0.00     0.131 A 
ATOM     13  C   UNL     1       0.391   0.738   3.780  1.00  0.00     0.130 A 
ATOM     14  C   UNL     1      -0.589  -1.333   4.582  1.00  0.00     0.021 A 
ATOM     15  O   UNL     1      -0.242  -3.360   3.314  1.00  0.00    -0.475 OA
ATOM     16  C   UNL     1      -0.354   0.040   4.728  1.00  0.00     0.058 A 
ATOM     17  C   UNL     1      -1.228  -2.065   5.663  1.00  0.00     0.025 C 
ATOM     18  C   UNL     1      -1.046  -4.116   4.267  1.00  0.00     0.314 C 
BRANCH  10  19
ATOM     19  C   UNL     1       1.159  -1.997   1.236  1.00  0.00     0.039 C 
BRANCH  19  20
ATOM     20  C   UNL     1       0.476  -1.562  -0.071  1.00  0.00     0.001 C 
ATOM     21  C   UNL     1       0.859  -0.170  -0.558  1.00  0.00     0.004 C 
ENDBRANCH  19  20
ENDBRANCH  10  19
BRANCH  13  22
ATOM     22  O   UNL     1       0.577   2.061   4.056  1.00  0.00    -0.406 OA
BRANCH  22  23
ATOM     23  C   UNL     1       1.022   2.890   2.994  1.00  0.00     0.573 C 
ATOM     24  F   UNL     1       2.299   2.605   2.658  1.00  0.00    -0.132 F 
ATOM     25  F   UNL     1       0.233   2.754   1.905  1.00  0.00    -0.132 F 
ATOM     26  F   UNL     1       0.967   4.179   3.392  1.00  0.00    -0.132 F 
ENDBRANCH  22  23
ENDBRANCH  13  22
BRANCH  18  27
ATOM     27  C   UNL     1      -0.441  -5.537   4.351  1.00  0.00     0.429 C 
ATOM     28  F   UNL     1      -1.373  -6.492   4.568  1.00  0.00    -0.167 F 
ATOM     29  F   UNL     1       0.154  -5.881   3.176  1.00  0.00    -0.167 F 
ATOM     30  F   UNL     1       0.506  -5.644   5.311  1.00  0.00    -0.167 F 
ENDBRANCH  18  27
ENDBRANCH   6   9
ENDBRANCH   4   5
ENDBRANCH   3   4
ENDBRANCH   2   3
ENDBRANCH   1   2
BRANCH   1  31
ATOM     31  C   UNL     1      -1.013  -1.056  12.035  1.00  0.00     0.021 C 
BRANCH  31  32
ATOM     32  C   UNL     1      -2.062  -0.015  12.411  1.00  0.00     0.116 C 
BRANCH  32  33
ATOM     33  N   UNL     1      -2.721  -0.348  13.664  1.00  0.00    -0.352 N 
ATOM     34  C   UNL     1      -2.804   0.387  14.821  1.00  0.00     0.251 C 
ATOM     35  H   UNL     1      -3.172  -1.223  13.685  1.00  0.00     0.163 HD
ATOM     36  O   UNL     1      -3.185  -0.145  15.859  1.00  0.00    -0.269 OA
BRANCH  34  37
ATOM     37  C   UNL     1      -2.425   1.815  14.811  1.00  0.00     0.039 A 
ATOM     38  C   UNL     1      -1.638   2.317  15.850  1.00  0.00     0.014 A 
ATOM     39  C   UNL     1      -2.859   2.661  13.786  1.00  0.00     0.014 A 
ATOM     40  C   UNL     1      -1.245   3.657  15.835  1.00  0.00     0.010 A 
ATOM     41  C   UNL     1      -2.411   3.978  13.736  1.00  0.00     0.010 A 
ATOM     42  C   UNL     1      -1.606   4.491  14.764  1.00  0.00    -0.014 A 
BRANCH  42  43
ATOM     43  C   UNL     1      -1.155   5.905  14.704  1.00  0.00     0.031 A 
ATOM     44  C   UNL     1      -2.161   7.023  14.764  1.00  0.00     0.074 A 
ATOM     45  C   UNL     1       0.153   6.180  14.534  1.00  0.00     0.049 A 
ATOM     46  N   UNL     1      -1.966   8.313  14.671  1.00  0.00    -0.248 NA
ATOM     47  C   UNL     1      -3.574   6.640  14.924  1.00  0.00     0.031 C 
ATOM     48  C   UNL     1       1.222   5.184  14.422  1.00  0.00     0.029 A 
ATOM     49  N   UNL     1       0.808   7.381  14.420  1.00  0.00    -0.354 N 
ATOM     50  C   UNL     1      -3.227   8.893  14.746  1.00  0.00     0.074 A 
ATOM     51  C   UNL     1      -4.184   7.813  14.841  1.00  0.00     0.031 C 
ATOM     52  C   UNL     1       2.398   5.815  14.281  1.00  0.00     0.029 A 
ATOM     53  C   UNL     1       2.167   7.255  14.252  1.00  0.00     0.049 A 
ATOM     54  H   UNL     1       0.348   8.251  14.455  1.00  0.00     0.167 HD
ATOM     55  C   UNL     1      -3.558  10.207  14.754  1.00  0.00     0.031 A 
ATOM     56  C   UNL     1       3.120   8.193  14.086  1.00  0.00     0.031 A 
ATOM     57  C   UNL     1      -2.601  11.279  14.670  1.00  0.00     0.049 A 
ATOM     58  C   UNL     1       2.727   9.645  14.088  1.00  0.00     0.074 A 
ATOM     59  C   UNL     1      -2.830  12.643  14.727  1.00  0.00     0.029 A 
ATOM     60  N   UNL     1      -1.234  11.110  14.509  1.00  0.00    -0.354 N 
ATOM     61  N   UNL     1       1.535  10.175  14.226  1.00  0.00    -0.248 NA
ATOM     62  C   UNL     1       3.809  10.625  13.922  1.00  0.00     0.031 C 
ATOM     63  C   UNL     1      -1.608  13.299  14.547  1.00  0.00     0.029 A 
ATOM     64  C   UNL     1      -0.610  12.344  14.438  1.00  0.00     0.049 A 
ATOM     65  H   UNL     1      -0.775  10.240  14.453  1.00  0.00     0.167 HD
ATOM     66  C   UNL     1       1.727  11.552  14.188  1.00  0.00     0.074 A 
ATOM     67  C   UNL     1       3.151  11.771  14.032  1.00  0.00     0.031 C 
ATOM     68  C   UNL     1       0.808  12.545  14.277  1.00  0.00     0.031 A 
BRANCH  55  69
ATOM     69  C   UNL     1      -5.020  10.557  14.851  1.00  0.00    -0.014 A 
ATOM     70  C   UNL     1      -5.744  10.332  16.037  1.00  0.00     0.010 A 
ATOM     71  C   UNL     1      -5.671  11.152  13.756  1.00  0.00     0.010 A 
ATOM     72  C   UNL     1      -7.102  10.655  16.110  1.00  0.00     0.020 A 
ATOM     73  C   UNL     1      -7.022  11.504  13.834  1.00  0.00     0.020 A 
ATOM     74  C   UNL     1      -7.733  11.236  15.006  1.00  0.00     0.054 A 
BRANCH  74  75
ATOM     75  S   UNL     1      -9.492  11.662  15.135  1.00  0.00     0.124 S 
ATOM     76  O   UNL     1     -10.124  10.345  15.087  1.00  0.00    -0.237 OA
ATOM     77  O   UNL     1      -9.562  12.344  16.425  1.00  0.00    -0.237 OA
ATOM     78  O   UNL     1      -9.730  12.510  13.970  1.00  0.00    -0.744 OA
ENDBRANCH  74  75
ENDBRANCH  55  69
BRANCH  56  79
ATOM     79  C   UNL     1       4.541   7.785  13.916  1.00  0.00    -0.014 A 
ATOM     80  C   UNL     1       5.479   8.024  14.936  1.00  0.00     0.010 A 
ATOM     81  C   UNL     1       4.961   7.142  12.738  1.00  0.00     0.010 A 
ATOM     82  C   UNL     1       6.814   7.642  14.774  1.00  0.00     0.020 A 
ATOM     83  C   UNL     1       6.289   6.734  12.584  1.00  0.00     0.020 A 
ATOM     84  C   UNL     1       7.210   6.997  13.599  1.00  0.00     0.054 A 
BRANCH  84  85
ATOM     85  S   UNL     1       8.936   6.463  13.432  1.00  0.00     0.124 S 
ATOM     86  O   UNL     1       9.625   7.729  13.203  1.00  0.00    -0.237 OA
ATOM     87  O   UNL     1       9.195   5.825  14.720  1.00  0.00    -0.237 OA
ATOM     88  O   UNL     1       8.902   5.552  12.290  1.00  0.00    -0.744 OA
ENDBRANCH  84  85
ENDBRANCH  56  79
BRANCH  68  89
ATOM     89  C   UNL     1       1.314  13.962  14.233  1.00  0.00    -0.014 A 
ATOM     90  C   UNL     1       1.792  14.528  13.038  1.00  0.00     0.010 A 
ATOM     91  C   UNL     1       1.259  14.755  15.394  1.00  0.00     0.010 A 
ATOM     92  C   UNL     1       2.236  15.853  13.013  1.00  0.00     0.020 A 
ATOM     93  C   UNL     1       1.674  16.088  15.366  1.00  0.00     0.020 A 
ATOM     94  C   UNL     1       2.174  16.625  14.178  1.00  0.00     0.054 A 
BRANCH  94  95
ATOM     95  S   UNL     1       2.714  18.355  14.108  1.00  0.00     0.124 S 
ATOM     96  O   UNL     1       4.166  18.217  14.038  1.00  0.00    -0.237 OA
ATOM     97  O   UNL     1       2.069  18.843  12.891  1.00  0.00    -0.237 OA
ATOM     98  O   UNL     1       2.201  18.928  15.351  1.00  0.00    -0.744 OA
ENDBRANCH  94  95
ENDBRANCH  68  89
ENDBRANCH  42  43
ENDBRANCH  34  37
ENDBRANCH  32  33
ENDBRANCH  31  32
ENDBRANCH   1  31
TORSDOF 21
