REMARK SMILES CCSc1nc(CC(=O)N[C@@H](C(=O)NCCCCCCNC(=O)c2ccc(-c3c4nc(c(-c5ccc(S(=O)(=O)[O-])cc5)c5ccc([nH]5)c(-c5ccc(S(=O)(=O)[O-])cc5)c5nc(c(-c6ccc(S(=O)(=O)[O-])cc6)c6ccc3[nH]6)C=C5)C=C4)cc2)C2=C(C)N=N[C@@H]2C)cs1
REMARK SMILES IDX 16 1 15 2 14 3 12 4 13 5 11 7 10 8 8 9 9 10 7 12 6 13 4 14
REMARK SMILES IDX 5 15 92 16 91 17 3 18 2 19 1 20 84 21 85 22 89 23 86 24
REMARK SMILES IDX 87 25 88 26 90 27 17 28 18 29 19 30 20 31 21 32 22 33 23 35
REMARK SMILES IDX 24 36 25 37 83 38 26 39 82 40 27 41 28 42 29 43 76 44 30 45
REMARK SMILES IDX 81 46 75 47 77 48 31 49 80 50 74 51 73 52 32 54 62 55 43 56
REMARK SMILES IDX 61 57 44 58 47 59 60 60 78 61 45 62 46 63 59 65 79 66 48 67
REMARK SMILES IDX 33 68 34 69 42 70 35 71 41 72 36 73 37 74 38 75 39 76 40 77
REMARK SMILES IDX 63 78 64 79 72 80 65 81 71 82 66 83 67 84 68 85 69 86 70 87
REMARK SMILES IDX 49 88 50 89 58 90 51 91 57 92 52 93 53 94 54 95 55 96 56 97
REMARK H PARENT 14 6 10 11 21 34 77 53 47 64
REMARK Flexibility Score: inf
ROOT
ATOM      1  C   UNL     1       6.228   3.359  -4.924  1.00  0.00     0.021 C 
ENDROOT
BRANCH   1   2
ATOM      2  C   UNL     1       5.246   2.265  -4.534  1.00  0.00     0.116 C 
BRANCH   2   3
ATOM      3  N   UNL     1       4.573   1.642  -5.648  1.00  0.00    -0.354 N 
ATOM      4  C   UNL     1       4.110   0.359  -5.752  1.00  0.00     0.247 C 
ATOM      5  O   UNL     1       3.093   0.230  -6.446  1.00  0.00    -0.272 OA
ATOM      6  H   UNL     1       4.428   2.215  -6.435  1.00  0.00     0.163 HD
BRANCH   4   7
ATOM      7  C   UNL     1       4.769  -0.879  -5.011  1.00  0.00     0.202 C 
BRANCH   7   8
ATOM      8  N   UNL     1       6.175  -0.689  -4.652  1.00  0.00    -0.340 N 
ATOM      9  C   UNL     1       6.771  -0.533  -3.432  1.00  0.00     0.226 C 
ATOM     10  O   UNL     1       7.964  -0.213  -3.430  1.00  0.00    -0.275 OA
ATOM     11  H   UNL     1       6.795  -0.669  -5.416  1.00  0.00     0.164 HD
BRANCH   9  12
ATOM     12  C   UNL     1       6.032  -0.748  -2.120  1.00  0.00     0.157 C 
BRANCH  12  13
ATOM     13  C   UNL     1       5.088   0.346  -1.746  1.00  0.00     0.062 A 
ATOM     14  C   UNL     1       3.057   1.239  -1.700  1.00  0.00     0.150 A 
ATOM     15  N   UNL     1       3.767   0.234  -2.155  1.00  0.00    -0.234 NA
ATOM     16  S   UNL     1       3.914   2.381  -0.758  1.00  0.00    -0.116 S 
ATOM     17  C   UNL     1       5.354   1.472  -0.989  1.00  0.00     0.092 A 
BRANCH  14  18
ATOM     18  S   UNL     1       1.363   1.362  -2.108  1.00  0.00    -0.096 SA
BRANCH  18  19
ATOM     19  C   UNL     1       0.597   1.198  -0.470  1.00  0.00     0.074 C 
ATOM     20  C   UNL     1       0.913  -0.132   0.194  1.00  0.00     0.016 C 
ENDBRANCH  18  19
ENDBRANCH  14  18
ENDBRANCH  12  13
ENDBRANCH   9  12
ENDBRANCH   7   8
BRANCH   7  21
ATOM     21  C   UNL     1       4.712  -2.138  -5.847  1.00  0.00     0.011 C 
ATOM     22  C   UNL     1       4.922  -3.417  -5.501  1.00  0.00     0.064 C 
ATOM     23  C   UNL     1       4.289  -2.212  -7.284  1.00  0.00     0.156 C 
ATOM     24  C   UNL     1       5.325  -3.994  -4.192  1.00  0.00     0.069 C 
ATOM     25  N   UNL     1       4.708  -4.294  -6.535  1.00  0.00    -0.160 NA
ATOM     26  N   UNL     1       4.342  -3.675  -7.567  1.00  0.00    -0.181 NA
ATOM     27  C   UNL     1       5.214  -1.516  -8.273  1.00  0.00     0.040 C 
ENDBRANCH   7  21
ENDBRANCH   4   7
ENDBRANCH   2   3
ENDBRANCH   1   2
BRANCH   1  28
ATOM     28  C   UNL     1       5.580   4.707  -5.244  1.00  0.00     0.002 C 
BRANCH  28  29
ATOM     29  C   UNL     1       4.690   5.291  -4.139  1.00  0.00     0.002 C 
BRANCH  29  30
ATOM     30  C   UNL     1       5.339   5.406  -2.757  1.00  0.00     0.021 C 
BRANCH  30  31
ATOM     31  C   UNL     1       6.612   6.242  -2.703  1.00  0.00     0.116 C 
BRANCH  31  32
ATOM     32  N   UNL     1       6.396   7.605  -3.153  1.00  0.00    -0.352 N 
ATOM     33  C   UNL     1       6.675   8.792  -2.523  1.00  0.00     0.251 C 
ATOM     34  H   UNL     1       5.987   7.691  -4.044  1.00  0.00     0.163 HD
ATOM     35  O   UNL     1       6.244   9.842  -2.987  1.00  0.00    -0.269 OA
BRANCH  33  36
ATOM     36  C   UNL     1       7.477   8.804  -1.279  1.00  0.00     0.039 A 
ATOM     37  C   UNL     1       7.080   9.639  -0.232  1.00  0.00     0.014 A 
ATOM     38  C   UNL     1       8.623   8.014  -1.149  1.00  0.00     0.014 A 
ATOM     39  C   UNL     1       7.802   9.641   0.964  1.00  0.00     0.010 A 
ATOM     40  C   UNL     1       9.294   7.960   0.070  1.00  0.00     0.010 A 
ATOM     41  C   UNL     1       8.896   8.778   1.137  1.00  0.00    -0.014 A 
BRANCH  41  42
ATOM     42  C   UNL     1       9.635   8.722   2.425  1.00  0.00     0.031 A 
ATOM     43  C   UNL     1      11.088   9.114   2.483  1.00  0.00     0.074 A 
ATOM     44  C   UNL     1       9.014   8.265   3.530  1.00  0.00     0.049 A 
ATOM     45  N   UNL     1      11.909   9.083   3.501  1.00  0.00    -0.248 NA
ATOM     46  C   UNL     1      11.706   9.577   1.229  1.00  0.00     0.031 C 
ATOM     47  C   UNL     1       7.620   7.817   3.595  1.00  0.00     0.029 A 
ATOM     48  N   UNL     1       9.474   8.095   4.812  1.00  0.00    -0.354 N 
ATOM     49  C   UNL     1      13.139   9.505   3.010  1.00  0.00     0.074 A 
ATOM     50  C   UNL     1      12.970   9.738   1.593  1.00  0.00     0.031 C 
ATOM     51  C   UNL     1       7.333   7.451   4.854  1.00  0.00     0.029 A 
ATOM     52  C   UNL     1       8.530   7.594   5.678  1.00  0.00     0.049 A 
ATOM     53  H   UNL     1      10.394   8.313   5.087  1.00  0.00     0.167 HD
ATOM     54  C   UNL     1      14.300   9.699   3.680  1.00  0.00     0.031 A 
ATOM     55  C   UNL     1       8.617   7.274   6.984  1.00  0.00     0.031 A 
ATOM     56  C   UNL     1      14.460   9.478   5.093  1.00  0.00     0.049 A 
ATOM     57  C   UNL     1       9.921   7.489   7.704  1.00  0.00     0.074 A 
ATOM     58  C   UNL     1      15.579   9.703   5.877  1.00  0.00     0.029 A 
ATOM     59  N   UNL     1      13.477   8.978   5.934  1.00  0.00    -0.354 N 
ATOM     60  N   UNL     1      11.053   7.956   7.235  1.00  0.00    -0.248 NA
ATOM     61  C   UNL     1       9.955   7.144   9.132  1.00  0.00     0.031 C 
ATOM     62  C   UNL     1      15.292   9.282   7.179  1.00  0.00     0.029 A 
ATOM     63  C   UNL     1      13.972   8.860   7.222  1.00  0.00     0.049 A 
ATOM     64  H   UNL     1      12.562   8.742   5.657  1.00  0.00     0.167 HD
ATOM     65  C   UNL     1      11.926   7.989   8.318  1.00  0.00     0.074 A 
ATOM     66  C   UNL     1      11.184   7.511   9.466  1.00  0.00     0.031 C 
ATOM     67  C   UNL     1      13.223   8.382   8.357  1.00  0.00     0.031 A 
BRANCH  54  68
ATOM     68  C   UNL     1      15.495  10.170   2.892  1.00  0.00    -0.014 A 
ATOM     69  C   UNL     1      15.549  11.469   2.354  1.00  0.00     0.010 A 
ATOM     70  C   UNL     1      16.605   9.319   2.733  1.00  0.00     0.010 A 
ATOM     71  C   UNL     1      16.673  11.894   1.641  1.00  0.00     0.020 A 
ATOM     72  C   UNL     1      17.744   9.751   2.047  1.00  0.00     0.020 A 
ATOM     73  C   UNL     1      17.764  11.032   1.493  1.00  0.00     0.054 A 
BRANCH  73  74
ATOM     74  S   UNL     1      19.222  11.625   0.591  1.00  0.00     0.124 S 
ATOM     75  O   UNL     1      18.733  11.655  -0.785  1.00  0.00    -0.237 OA
ATOM     76  O   UNL     1      19.464  12.931   1.200  1.00  0.00    -0.237 OA
ATOM     77  O   UNL     1      20.238  10.613   0.869  1.00  0.00    -0.744 OA
ENDBRANCH  73  74
ENDBRANCH  54  68
BRANCH  55  78
ATOM     78  C   UNL     1       7.432   6.721   7.696  1.00  0.00    -0.014 A 
ATOM     79  C   UNL     1       6.771   7.473   8.684  1.00  0.00     0.010 A 
ATOM     80  C   UNL     1       6.954   5.434   7.385  1.00  0.00     0.010 A 
ATOM     81  C   UNL     1       5.670   6.941   9.362  1.00  0.00     0.020 A 
ATOM     82  C   UNL     1       5.834   4.912   8.037  1.00  0.00     0.020 A 
ATOM     83  C   UNL     1       5.207   5.664   9.032  1.00  0.00     0.054 A 
BRANCH  83  84
ATOM     84  S   UNL     1       3.749   5.011   9.892  1.00  0.00     0.124 S 
ATOM     85  O   UNL     1       4.285   4.716  11.217  1.00  0.00    -0.237 OA
ATOM     86  O   UNL     1       2.814   6.131   9.821  1.00  0.00    -0.237 OA
ATOM     87  O   UNL     1       3.375   3.846   9.093  1.00  0.00    -0.744 OA
ENDBRANCH  83  84
ENDBRANCH  55  78
BRANCH  67  88
ATOM     88  C   UNL     1      13.919   8.348   9.692  1.00  0.00    -0.014 A 
ATOM     89  C   UNL     1      14.268   7.133  10.306  1.00  0.00     0.010 A 
ATOM     90  C   UNL     1      14.280   9.558  10.313  1.00  0.00     0.010 A 
ATOM     91  C   UNL     1      14.936   7.128  11.533  1.00  0.00     0.020 A 
ATOM     92  C   UNL     1      14.976   9.557  11.525  1.00  0.00     0.020 A 
ATOM     93  C   UNL     1      15.287   8.341  12.134  1.00  0.00     0.054 A 
BRANCH  93  94
ATOM     94  S   UNL     1      16.192   8.306  13.706  1.00  0.00     0.124 S 
ATOM     95  O   UNL     1      15.157   7.880  14.643  1.00  0.00    -0.237 OA
ATOM     96  O   UNL     1      17.246   7.329  13.446  1.00  0.00    -0.237 OA
ATOM     97  O   UNL     1      16.654   9.683  13.871  1.00  0.00    -0.744 OA
ENDBRANCH  93  94
ENDBRANCH  67  88
ENDBRANCH  41  42
ENDBRANCH  33  36
ENDBRANCH  31  32
ENDBRANCH  30  31
ENDBRANCH  29  30
ENDBRANCH  28  29
ENDBRANCH   1  28
TORSDOF 22
