REMARK SMILES O=C(NCCCCCCNC(=O)[C@]1(O)C[C@@H]2C=C[C@H]1C2)c1ccc(-c2c3nc(c(-c4ccc(S(=O)(=O)[O-])cc4)c4ccc([nH]4)c(-c4ccc(S(=O)(=O)[O-])cc4)c4nc(c(-c5ccc(S(=O)(=O)[O-])cc5)c5ccc2[nH]5)C=C4)C=C3)cc1
REMARK SMILES IDX 5 1 4 2 3 3 1 4 2 5 21 7 22 8 80 9 23 10 79 11 24 12 25 13
REMARK SMILES IDX 26 14 73 15 27 16 78 17 72 18 74 19 28 20 77 21 71 22 70 23
REMARK SMILES IDX 29 25 59 26 40 27 58 28 41 29 44 30 57 31 75 32 42 33 43 34
REMARK SMILES IDX 56 36 76 37 45 38 30 39 31 40 39 41 32 42 38 43 33 44 34 45
REMARK SMILES IDX 35 46 36 47 37 48 60 49 61 50 69 51 62 52 68 53 63 54 64 55
REMARK SMILES IDX 65 56 66 57 67 58 46 59 47 60 55 61 48 62 54 63 49 64 50 65
REMARK SMILES IDX 51 66 52 67 53 68 6 69 7 70 8 71 9 72 10 73 11 74 12 76
REMARK SMILES IDX 13 77 15 78 19 79 16 80 18 81 20 82 17 83 14 84
REMARK H PARENT 3 6 74 24 44 35 10 75 14 85
REMARK Flexibility Score: inf
ROOT
ATOM      1  C   UNL     1       4.604   2.489   1.052  1.00  0.00     0.021 C 
ENDROOT
BRANCH   1   2
ATOM      2  C   UNL     1       4.357   0.992   0.921  1.00  0.00     0.116 C 
BRANCH   2   3
ATOM      3  N   UNL     1       2.939   0.678   0.902  1.00  0.00    -0.352 N 
ATOM      4  O   UNL     1       1.004  -0.016  -0.027  1.00  0.00    -0.269 OA
ATOM      5  C   UNL     1       2.232  -0.018  -0.046  1.00  0.00     0.251 C 
ATOM      6  H   UNL     1       2.417   1.007   1.669  1.00  0.00     0.163 HD
BRANCH   5   7
ATOM      7  C   UNL     1       2.963  -0.762  -1.092  1.00  0.00     0.039 A 
ATOM      8  C   UNL     1       4.056  -1.565  -0.752  1.00  0.00     0.014 A 
ATOM      9  C   UNL     1       2.537  -0.675  -2.420  1.00  0.00     0.014 A 
ATOM     10  C   UNL     1       4.782  -2.205  -1.749  1.00  0.00     0.010 A 
ATOM     11  C   UNL     1       3.220  -1.382  -3.412  1.00  0.00     0.010 A 
ATOM     12  C   UNL     1       4.348  -2.150  -3.083  1.00  0.00    -0.014 A 
BRANCH  12  13
ATOM     13  C   UNL     1       4.998  -3.018  -4.095  1.00  0.00     0.031 A 
ATOM     14  C   UNL     1       5.758  -2.439  -5.253  1.00  0.00     0.074 A 
ATOM     15  C   UNL     1       4.864  -4.353  -3.959  1.00  0.00     0.049 A 
ATOM     16  N   UNL     1       6.346  -3.068  -6.238  1.00  0.00    -0.248 NA
ATOM     17  C   UNL     1       5.870  -0.974  -5.325  1.00  0.00     0.031 C 
ATOM     18  C   UNL     1       4.130  -5.020  -2.877  1.00  0.00     0.029 A 
ATOM     19  N   UNL     1       5.330  -5.388  -4.726  1.00  0.00    -0.354 N 
ATOM     20  C   UNL     1       6.874  -2.081  -7.061  1.00  0.00     0.074 A 
ATOM     21  C   UNL     1       6.534  -0.808  -6.463  1.00  0.00     0.031 C 
ATOM     22  C   UNL     1       4.213  -6.347  -3.039  1.00  0.00     0.029 A 
ATOM     23  C   UNL     1       4.940  -6.626  -4.271  1.00  0.00     0.049 A 
ATOM     24  H   UNL     1       5.889  -5.259  -5.526  1.00  0.00     0.167 HD
ATOM     25  C   UNL     1       7.572  -2.232  -8.212  1.00  0.00     0.031 A 
ATOM     26  C   UNL     1       5.106  -7.850  -4.804  1.00  0.00     0.031 A 
ATOM     27  C   UNL     1       7.908  -3.509  -8.789  1.00  0.00     0.049 A 
ATOM     28  C   UNL     1       5.848  -7.978  -6.102  1.00  0.00     0.074 A 
ATOM     29  C   UNL     1       8.678  -3.766  -9.911  1.00  0.00     0.029 A 
ATOM     30  N   UNL     1       7.479  -4.737  -8.310  1.00  0.00    -0.354 N 
ATOM     31  N   UNL     1       6.418  -7.037  -6.817  1.00  0.00    -0.248 NA
ATOM     32  C   UNL     1       5.965  -9.327  -6.671  1.00  0.00     0.031 C 
ATOM     33  C   UNL     1       8.655  -5.143 -10.150  1.00  0.00     0.029 A 
ATOM     34  C   UNL     1       7.923  -5.750  -9.143  1.00  0.00     0.049 A 
ATOM     35  H   UNL     1       6.938  -4.869  -7.498  1.00  0.00     0.167 HD
ATOM     36  C   UNL     1       6.967  -7.682  -7.917  1.00  0.00     0.074 A 
ATOM     37  C   UNL     1       6.689  -9.095  -7.757  1.00  0.00     0.031 C 
ATOM     38  C   UNL     1       7.633  -7.151  -8.970  1.00  0.00     0.031 A 
BRANCH  25  39
ATOM     39  C   UNL     1       8.005  -0.997  -8.957  1.00  0.00    -0.014 A 
ATOM     40  C   UNL     1       9.069  -0.200  -8.500  1.00  0.00     0.010 A 
ATOM     41  C   UNL     1       7.410  -0.698 -10.198  1.00  0.00     0.010 A 
ATOM     42  C   UNL     1       9.521   0.879  -9.265  1.00  0.00     0.020 A 
ATOM     43  C   UNL     1       7.874   0.367 -10.975  1.00  0.00     0.020 A 
ATOM     44  C   UNL     1       8.924   1.153 -10.500  1.00  0.00     0.054 A 
BRANCH  44  45
ATOM     45  S   UNL     1       9.578   2.520 -11.499  1.00  0.00     0.124 S 
ATOM     46  O   UNL     1       9.138   3.687 -10.738  1.00  0.00    -0.237 OA
ATOM     47  O   UNL     1      11.017   2.267 -11.482  1.00  0.00    -0.237 OA
ATOM     48  O   UNL     1       8.932   2.344 -12.797  1.00  0.00    -0.744 OA
ENDBRANCH  44  45
ENDBRANCH  25  39
BRANCH  26  49
ATOM     49  C   UNL     1       4.501  -9.038  -4.143  1.00  0.00    -0.014 A 
ATOM     50  C   UNL     1       5.307 -10.039  -3.576  1.00  0.00     0.010 A 
ATOM     51  C   UNL     1       3.100  -9.171  -4.082  1.00  0.00     0.010 A 
ATOM     52  C   UNL     1       4.724 -11.166  -2.989  1.00  0.00     0.020 A 
ATOM     53  C   UNL     1       2.514 -10.278  -3.467  1.00  0.00     0.020 A 
ATOM     54  C   UNL     1       3.331 -11.279  -2.941  1.00  0.00     0.054 A 
BRANCH  54  55
ATOM     55  S   UNL     1       2.596 -12.742  -2.161  1.00  0.00     0.124 S 
ATOM     56  O   UNL     1       2.833 -13.771  -3.168  1.00  0.00    -0.237 OA
ATOM     57  O   UNL     1       3.373 -12.868  -0.930  1.00  0.00    -0.237 OA
ATOM     58  O   UNL     1       1.198 -12.361  -1.970  1.00  0.00    -0.744 OA
ENDBRANCH  54  55
ENDBRANCH  26  49
BRANCH  38  59
ATOM     59  C   UNL     1       8.115  -8.102 -10.031  1.00  0.00    -0.014 A 
ATOM     60  C   UNL     1       7.212  -8.696 -10.931  1.00  0.00     0.010 A 
ATOM     61  C   UNL     1       9.492  -8.350 -10.173  1.00  0.00     0.010 A 
ATOM     62  C   UNL     1       7.677  -9.536 -11.944  1.00  0.00     0.020 A 
ATOM     63  C   UNL     1       9.963  -9.167 -11.203  1.00  0.00     0.020 A 
ATOM     64  C   UNL     1       9.051  -9.761 -12.078  1.00  0.00     0.054 A 
BRANCH  64  65
ATOM     65  S   UNL     1       9.633 -10.800 -13.446  1.00  0.00     0.124 S 
ATOM     66  O   UNL     1       9.226 -12.133 -13.011  1.00  0.00    -0.237 OA
ATOM     67  O   UNL     1       8.901 -10.261 -14.590  1.00  0.00    -0.237 OA
ATOM     68  O   UNL     1      11.075 -10.565 -13.470  1.00  0.00    -0.744 OA
ENDBRANCH  64  65
ENDBRANCH  38  59
ENDBRANCH  12  13
ENDBRANCH   5   7
ENDBRANCH   2   3
ENDBRANCH   1   2
BRANCH   1  69
ATOM     69  C   UNL     1       4.142   3.087   2.381  1.00  0.00     0.002 C 
BRANCH  69  70
ATOM     70  C   UNL     1       4.769   2.451   3.627  1.00  0.00     0.002 C 
BRANCH  70  71
ATOM     71  C   UNL     1       6.302   2.415   3.638  1.00  0.00     0.021 C 
BRANCH  71  72
ATOM     72  C   UNL     1       6.961   3.781   3.454  1.00  0.00     0.116 C 
BRANCH  72  73
ATOM     73  N   UNL     1       6.639   4.664   4.556  1.00  0.00    -0.354 N 
ATOM     74  C   UNL     1       7.452   5.172   5.530  1.00  0.00     0.252 C 
ATOM     75  H   UNL     1       5.695   4.940   4.612  1.00  0.00     0.163 HD
ATOM     76  O   UNL     1       6.908   5.761   6.468  1.00  0.00    -0.272 OA
BRANCH  74  77
ATOM     77  C   UNL     1       8.993   5.037   5.393  1.00  0.00     0.149 C 
ATOM     78  C   UNL     1       9.776   5.697   6.576  1.00  0.00     0.053 C 
ATOM     79  C   UNL     1       9.518   5.859   4.166  1.00  0.00     0.053 C 
ATOM     80  C   UNL     1      10.600   6.801   5.877  1.00  0.00     0.015 C 
ATOM     81  C   UNL     1       9.024   7.286   4.273  1.00  0.00    -0.024 C 
ATOM     82  C   UNL     1      10.979   6.109   4.567  1.00  0.00     0.019 C 
ATOM     83  C   UNL     1       9.653   7.838   5.322  1.00  0.00    -0.027 C 
BRANCH  77  84
ATOM     84  O   UNL     1       9.372   3.659   5.327  1.00  0.00    -0.379 OA
ATOM     85  H   UNL     1       9.026   3.192   6.104  1.00  0.00     0.212 HD
ENDBRANCH  77  84
ENDBRANCH  74  77
ENDBRANCH  72  73
ENDBRANCH  71  72
ENDBRANCH  70  71
ENDBRANCH  69  70
ENDBRANCH   1  69
TORSDOF 17
