REMARK SMILES Cc1ncnc(OCCC(=O)NCCCCCCNC(=O)c2ccc(-c3c4nc(c(-c5ccc(S(=O)(=O)[O-])cc5)c5ccc([nH]5)c(-c5ccc(S(=O)(=O)[O-])cc5)c5nc(c(-c6ccc(S(=O)(=O)[O-])cc6)c6ccc3[nH]6)C=C5)C=C4)cc2)c1C
REMARK SMILES IDX 15 1 14 2 13 3 12 4 10 5 11 6 9 8 8 9 7 10 6 11 1 12 2 13
REMARK SMILES IDX 3 14 82 15 4 16 83 17 5 18 16 19 17 20 18 21 19 22 20 23
REMARK SMILES IDX 21 25 22 26 23 27 81 28 24 29 80 30 25 31 26 32 27 33 74 34
REMARK SMILES IDX 28 35 79 36 73 37 75 38 29 39 78 40 72 41 71 42 30 44 60 45
REMARK SMILES IDX 41 46 59 47 42 48 45 49 58 50 76 51 43 52 44 53 57 55 77 56
REMARK SMILES IDX 46 57 31 58 32 59 40 60 33 61 39 62 34 63 35 64 36 65 37 66
REMARK SMILES IDX 38 67 61 68 62 69 70 70 63 71 69 72 64 73 65 74 66 75 67 76
REMARK SMILES IDX 68 77 47 78 48 79 56 80 49 81 55 82 50 83 51 84 52 85 53 86
REMARK SMILES IDX 54 87
REMARK H PARENT 12 7 19 24 75 43 45 54
REMARK Flexibility Score: inf
ROOT
ATOM      1  C   UNL     1      -1.464   2.751   0.890  1.00  0.00     0.002 C 
ENDROOT
BRANCH   1   2
ATOM      2  C   UNL     1      -0.663   4.018   1.212  1.00  0.00     0.021 C 
BRANCH   2   3
ATOM      3  C   UNL     1       0.064   3.939   2.549  1.00  0.00     0.116 C 
BRANCH   3   4
ATOM      4  N   UNL     1       1.167   2.997   2.505  1.00  0.00    -0.356 N 
ATOM      5  C   UNL     1       2.423   3.175   2.009  1.00  0.00     0.223 C 
ATOM      6  O   UNL     1       3.232   2.255   2.135  1.00  0.00    -0.275 OA
ATOM      7  H   UNL     1       0.983   2.109   2.886  1.00  0.00     0.163 HD
BRANCH   5   8
ATOM      8  C   UNL     1       2.818   4.504   1.397  1.00  0.00     0.141 C 
BRANCH   8   9
ATOM      9  C   UNL     1       3.477   4.403   0.021  1.00  0.00     0.241 C 
BRANCH   9  10
ATOM     10  O   UNL     1       2.602   4.389  -1.106  1.00  0.00    -0.477 OA
BRANCH  10  11
ATOM     11  C   UNL     1       1.868   3.304  -1.469  1.00  0.00     0.219 A 
ATOM     12  C   UNL     1       1.126  -0.335  -1.012  1.00  0.00     0.067 C 
ATOM     13  C   UNL     1       1.139   1.074  -1.537  1.00  0.00     0.047 A 
ATOM     14  N   UNL     1       0.000   1.445  -2.159  1.00  0.00    -0.241 NA
ATOM     15  C   UNL     1       2.184   1.965  -1.285  1.00  0.00     0.032 A 
ATOM     16  C   UNL     1      -0.107   2.735  -2.476  1.00  0.00     0.226 A 
ATOM     17  C   UNL     1       3.564   1.477  -0.987  1.00  0.00     0.052 C 
ATOM     18  N   UNL     1       0.745   3.692  -2.106  1.00  0.00    -0.202 NA
ENDBRANCH  10  11
ENDBRANCH   9  10
ENDBRANCH   8   9
ENDBRANCH   5   8
ENDBRANCH   3   4
ENDBRANCH   2   3
ENDBRANCH   1   2
BRANCH   1  19
ATOM     19  C   UNL     1      -2.893   2.743   1.438  1.00  0.00     0.002 C 
BRANCH  19  20
ATOM     20  C   UNL     1      -3.780   3.895   0.950  1.00  0.00     0.021 C 
BRANCH  20  21
ATOM     21  C   UNL     1      -3.856   4.050  -0.568  1.00  0.00     0.116 C 
BRANCH  21  22
ATOM     22  N   UNL     1      -4.665   3.007  -1.182  1.00  0.00    -0.352 N 
ATOM     23  C   UNL     1      -5.952   3.087  -1.658  1.00  0.00     0.251 C 
ATOM     24  H   UNL     1      -4.232   2.127  -1.267  1.00  0.00     0.163 HD
ATOM     25  O   UNL     1      -6.578   2.067  -1.933  1.00  0.00    -0.269 OA
BRANCH  23  26
ATOM     26  C   UNL     1      -6.588   4.412  -1.817  1.00  0.00     0.039 A 
ATOM     27  C   UNL     1      -7.851   4.634  -1.263  1.00  0.00     0.014 A 
ATOM     28  C   UNL     1      -5.929   5.438  -2.502  1.00  0.00     0.014 A 
ATOM     29  C   UNL     1      -8.422   5.907  -1.336  1.00  0.00     0.010 A 
ATOM     30  C   UNL     1      -6.470   6.721  -2.514  1.00  0.00     0.010 A 
ATOM     31  C   UNL     1      -7.721   6.970  -1.931  1.00  0.00    -0.014 A 
BRANCH  31  32
ATOM     32  C   UNL     1      -8.283   8.345  -1.950  1.00  0.00     0.031 A 
ATOM     33  C   UNL     1      -8.658   8.991  -3.256  1.00  0.00     0.074 A 
ATOM     34  C   UNL     1      -8.416   9.030  -0.797  1.00  0.00     0.049 A 
ATOM     35  N   UNL     1      -9.133  10.191  -3.475  1.00  0.00    -0.248 NA
ATOM     36  C   UNL     1      -8.457   8.193  -4.476  1.00  0.00     0.031 C 
ATOM     37  C   UNL     1      -8.064   8.527   0.533  1.00  0.00     0.029 A 
ATOM     38  N   UNL     1      -8.888  10.297  -0.557  1.00  0.00    -0.354 N 
ATOM     39  C   UNL     1      -9.286  10.291  -4.852  1.00  0.00     0.074 A 
ATOM     40  C   UNL     1      -8.801   9.054  -5.423  1.00  0.00     0.031 C 
ATOM     41  C   UNL     1      -8.367   9.460   1.450  1.00  0.00     0.029 A 
ATOM     42  C   UNL     1      -8.896  10.641   0.775  1.00  0.00     0.049 A 
ATOM     43  H   UNL     1      -9.191  10.903  -1.271  1.00  0.00     0.167 HD
ATOM     44  C   UNL     1      -9.805  11.311  -5.577  1.00  0.00     0.031 A 
ATOM     45  C   UNL     1      -9.287  11.777   1.386  1.00  0.00     0.031 A 
ATOM     46  C   UNL     1     -10.288  12.541  -5.010  1.00  0.00     0.049 A 
ATOM     47  C   UNL     1      -9.825  12.911   0.557  1.00  0.00     0.074 A 
ATOM     48  C   UNL     1     -10.862  13.620  -5.660  1.00  0.00     0.029 A 
ATOM     49  N   UNL     1     -10.255  12.858  -3.660  1.00  0.00    -0.354 N 
ATOM     50  N   UNL     1     -10.000  12.970  -0.741  1.00  0.00    -0.248 NA
ATOM     51  C   UNL     1     -10.222  14.130   1.277  1.00  0.00     0.031 C 
ATOM     52  C   UNL     1     -11.133  14.609  -4.708  1.00  0.00     0.029 A 
ATOM     53  C   UNL     1     -10.778  14.125  -3.459  1.00  0.00     0.049 A 
ATOM     54  H   UNL     1      -9.911  12.270  -2.950  1.00  0.00     0.167 HD
ATOM     55  C   UNL     1     -10.547  14.223  -0.992  1.00  0.00     0.074 A 
ATOM     56  C   UNL     1     -10.686  14.884   0.289  1.00  0.00     0.031 C 
ATOM     57  C   UNL     1     -10.902  14.774  -2.179  1.00  0.00     0.031 A 
BRANCH  44  58
ATOM     58  C   UNL     1      -9.880  11.132  -7.070  1.00  0.00    -0.014 A 
ATOM     59  C   UNL     1     -10.797  10.231  -7.642  1.00  0.00     0.010 A 
ATOM     60  C   UNL     1      -9.058  11.900  -7.914  1.00  0.00     0.010 A 
ATOM     61  C   UNL     1     -10.862  10.071  -9.028  1.00  0.00     0.020 A 
ATOM     62  C   UNL     1      -9.139  11.763  -9.303  1.00  0.00     0.020 A 
ATOM     63  C   UNL     1     -10.030  10.837  -9.850  1.00  0.00     0.054 A 
BRANCH  63  64
ATOM     64  S   UNL     1     -10.153  10.622 -11.647  1.00  0.00     0.124 S 
ATOM     65  O   UNL     1      -9.557   9.302 -11.834  1.00  0.00    -0.237 OA
ATOM     66  O   UNL     1     -11.593  10.699 -11.880  1.00  0.00    -0.237 OA
ATOM     67  O   UNL     1      -9.377  11.737 -12.185  1.00  0.00    -0.744 OA
ENDBRANCH  63  64
ENDBRANCH  44  58
BRANCH  45  68
ATOM     68  C   UNL     1      -9.209  11.882   2.869  1.00  0.00    -0.014 A 
ATOM     69  C   UNL     1     -10.382  11.854   3.643  1.00  0.00     0.010 A 
ATOM     70  C   UNL     1      -7.964  11.978   3.516  1.00  0.00     0.010 A 
ATOM     71  C   UNL     1     -10.312  11.921   5.038  1.00  0.00     0.020 A 
ATOM     72  C   UNL     1      -7.889  12.021   4.912  1.00  0.00     0.020 A 
ATOM     73  C   UNL     1      -9.065  11.998   5.664  1.00  0.00     0.054 A 
BRANCH  73  74
ATOM     74  S   UNL     1      -8.998  12.011   7.477  1.00  0.00     0.124 S 
ATOM     75  O   UNL     1      -9.511  13.340   7.792  1.00  0.00    -0.237 OA
ATOM     76  O   UNL     1      -9.871  10.894   7.831  1.00  0.00    -0.237 OA
ATOM     77  O   UNL     1      -7.582  11.800   7.769  1.00  0.00    -0.744 OA
ENDBRANCH  73  74
ENDBRANCH  45  68
BRANCH  57  78
ATOM     78  C   UNL     1     -11.490  16.160  -2.156  1.00  0.00    -0.014 A 
ATOM     79  C   UNL     1     -10.680  17.286  -1.925  1.00  0.00     0.010 A 
ATOM     80  C   UNL     1     -12.854  16.343  -2.449  1.00  0.00     0.010 A 
ATOM     81  C   UNL     1     -11.228  18.570  -1.970  1.00  0.00     0.020 A 
ATOM     82  C   UNL     1     -13.400  17.627  -2.520  1.00  0.00     0.020 A 
ATOM     83  C   UNL     1     -12.584  18.733  -2.272  1.00  0.00     0.054 A 
BRANCH  83  84
ATOM     84  S   UNL     1     -13.255  20.415  -2.385  1.00  0.00     0.124 S 
ATOM     85  O   UNL     1     -13.270  20.832  -0.985  1.00  0.00    -0.237 OA
ATOM     86  O   UNL     1     -12.276  21.092  -3.232  1.00  0.00    -0.237 OA
ATOM     87  O   UNL     1     -14.570  20.225  -2.992  1.00  0.00    -0.744 OA
ENDBRANCH  83  84
ENDBRANCH  57  78
ENDBRANCH  31  32
ENDBRANCH  23  26
ENDBRANCH  21  22
ENDBRANCH  20  21
ENDBRANCH  19  20
ENDBRANCH   1  19
TORSDOF 19
