REMARK SMILES Cn1cc(Cl)cc1C(=O)N[C@H]1C=C[C@H](C(=O)NCCCCCCNC(=O)c2ccc(-c3c4nc(c(-c5ccc(S(=O)(=O)[O-])cc5)c5ccc([nH]5)c(-c5ccc(S(=O)(=O)[O-])cc5)c5nc(c(-c6ccc(S(=O)(=O)[O-])cc6)c6ccc3[nH]6)C=C5)C=C4)cc2)C1
REMARK SMILES IDX 21 1 20 2 19 3 18 4 17 5 15 6 16 7 14 9 11 10 12 11 87 12
REMARK SMILES IDX 13 13 10 14 8 15 9 16 7 18 1 19 2 20 3 21 4 22 6 23 5 24
REMARK SMILES IDX 22 25 23 26 24 27 25 28 26 30 27 31 28 32 86 33 29 34 85 35
REMARK SMILES IDX 30 36 31 37 32 38 79 39 33 40 84 41 78 42 80 43 34 44 83 45
REMARK SMILES IDX 77 46 76 47 35 49 65 50 46 51 64 52 47 53 50 54 63 55 81 56
REMARK SMILES IDX 48 57 49 58 62 60 82 61 51 62 36 63 37 64 45 65 38 66 44 67
REMARK SMILES IDX 39 68 40 69 41 70 42 71 43 72 66 73 67 74 75 75 68 76 74 77
REMARK SMILES IDX 69 78 70 79 71 80 72 81 73 82 52 83 53 84 61 85 54 86 60 87
REMARK SMILES IDX 55 88 56 89 57 90 58 91 59 92
REMARK H PARENT 17 8 10 17 24 29 80 48 50 59
REMARK Flexibility Score: inf
ROOT
ATOM      1  C   UNL     1       5.049   3.801  -1.607  1.00  0.00     0.002 C 
ENDROOT
BRANCH   1   2
ATOM      2  C   UNL     1       4.508   4.544  -0.374  1.00  0.00     0.002 C 
BRANCH   2   3
ATOM      3  C   UNL     1       2.986   4.566  -0.208  1.00  0.00     0.021 C 
BRANCH   3   4
ATOM      4  C   UNL     1       2.336   3.187  -0.176  1.00  0.00     0.116 C 
BRANCH   4   5
ATOM      5  N   UNL     1       2.529   2.521   1.098  1.00  0.00    -0.356 N 
ATOM      6  C   UNL     1       1.697   2.195   2.121  1.00  0.00     0.227 C 
ATOM      7  O   UNL     1       2.236   1.633   3.084  1.00  0.00    -0.274 OA
ATOM      8  H   UNL     1       3.462   2.247   1.255  1.00  0.00     0.163 HD
BRANCH   6   9
ATOM      9  C   UNL     1       0.160   2.319   2.099  1.00  0.00     0.103 C 
ATOM     10  C   UNL     1      -0.671   1.324   0.081  1.00  0.00     0.106 C 
ATOM     11  C   UNL     1      -1.071   2.766   0.147  1.00  0.00    -0.006 C 
ATOM     12  C   UNL     1      -0.453   1.016   1.556  1.00  0.00     0.047 C 
ATOM     13  C   UNL     1      -0.530   3.336   1.237  1.00  0.00    -0.016 C 
BRANCH  10  14
ATOM     14  N   UNL     1      -1.633   0.525  -0.603  1.00  0.00    -0.345 N 
ATOM     15  C   UNL     1      -1.597  -0.780  -1.017  1.00  0.00     0.268 C 
ATOM     16  O   UNL     1      -2.570  -1.135  -1.688  1.00  0.00    -0.268 OA
ATOM     17  H   UNL     1      -2.472   0.994  -0.814  1.00  0.00     0.164 HD
BRANCH  15  18
ATOM     18  C   UNL     1      -0.573  -1.745  -0.624  1.00  0.00     0.108 A 
ATOM     19  C   UNL     1       1.721  -0.613  -0.764  1.00  0.00     0.150 C 
ATOM     20  N   UNL     1       0.797  -1.669  -0.421  1.00  0.00    -0.345 N 
ATOM     21  C   UNL     1       1.277  -2.879   0.039  1.00  0.00     0.106 A 
ATOM     22  C   UNL     1       0.269  -3.799  -0.051  1.00  0.00     0.059 A 
ATOM     23  C   UNL     1      -0.875  -3.104  -0.475  1.00  0.00     0.054 A 
ATOM     24  Cl  UNL     1       0.363  -5.460   0.262  1.00  0.00    -0.083 Cl
ENDBRANCH  15  18
ENDBRANCH  10  14
ENDBRANCH   6   9
ENDBRANCH   4   5
ENDBRANCH   3   4
ENDBRANCH   2   3
ENDBRANCH   1   2
BRANCH   1  25
ATOM     25  C   UNL     1       4.405   4.136  -2.961  1.00  0.00     0.021 C 
BRANCH  25  26
ATOM     26  C   UNL     1       4.540   5.592  -3.380  1.00  0.00     0.116 C 
BRANCH  26  27
ATOM     27  N   UNL     1       5.923   5.976  -3.634  1.00  0.00    -0.352 N 
ATOM     28  C   UNL     1       6.419   7.218  -3.985  1.00  0.00     0.251 C 
ATOM     29  H   UNL     1       6.591   5.258  -3.545  1.00  0.00     0.163 HD
ATOM     30  O   UNL     1       7.498   7.308  -4.551  1.00  0.00    -0.269 OA
BRANCH  28  31
ATOM     31  C   UNL     1       5.629   8.428  -3.670  1.00  0.00     0.039 A 
ATOM     32  C   UNL     1       5.622   9.522  -4.538  1.00  0.00     0.014 A 
ATOM     33  C   UNL     1       4.896   8.468  -2.484  1.00  0.00     0.014 A 
ATOM     34  C   UNL     1       4.810  10.613  -4.236  1.00  0.00     0.010 A 
ATOM     35  C   UNL     1       3.991   9.478  -2.257  1.00  0.00     0.010 A 
ATOM     36  C   UNL     1       3.973  10.574  -3.106  1.00  0.00    -0.014 A 
BRANCH  36  37
ATOM     37  C   UNL     1       2.981  11.621  -2.884  1.00  0.00     0.031 A 
ATOM     38  C   UNL     1       2.096  11.860  -4.051  1.00  0.00     0.074 A 
ATOM     39  C   UNL     1       2.740  12.232  -1.705  1.00  0.00     0.049 A 
ATOM     40  N   UNL     1       2.216  12.804  -4.921  1.00  0.00    -0.248 NA
ATOM     41  C   UNL     1       1.088  10.848  -4.402  1.00  0.00     0.031 C 
ATOM     42  C   UNL     1       3.289  11.926  -0.380  1.00  0.00     0.029 A 
ATOM     43  N   UNL     1       1.860  13.236  -1.435  1.00  0.00    -0.354 N 
ATOM     44  C   UNL     1       1.141  12.661  -5.787  1.00  0.00     0.074 A 
ATOM     45  C   UNL     1       0.616  11.339  -5.552  1.00  0.00     0.031 C 
ATOM     46  C   UNL     1       2.574  12.573   0.570  1.00  0.00     0.029 A 
ATOM     47  C   UNL     1       1.638  13.472  -0.082  1.00  0.00     0.049 A 
ATOM     48  H   UNL     1       1.416  13.756  -2.143  1.00  0.00     0.167 HD
ATOM     49  C   UNL     1       0.613  13.741  -6.428  1.00  0.00     0.031 A 
ATOM     50  C   UNL     1       0.747  14.344   0.458  1.00  0.00     0.031 A 
ATOM     51  C   UNL     1       1.461  14.901  -6.290  1.00  0.00     0.049 A 
ATOM     52  C   UNL     1       0.455  15.360  -0.582  1.00  0.00     0.074 A 
ATOM     53  C   UNL     1       2.773  15.193  -6.607  1.00  0.00     0.029 A 
ATOM     54  N   UNL     1       1.078  15.833  -5.353  1.00  0.00    -0.354 N 
ATOM     55  N   UNL     1       1.339  16.216  -1.009  1.00  0.00    -0.248 NA
ATOM     56  C   UNL     1      -0.673  15.133  -1.469  1.00  0.00     0.031 C 
ATOM     57  C   UNL     1       3.252  15.965  -5.507  1.00  0.00     0.029 A 
ATOM     58  C   UNL     1       2.188  16.180  -4.628  1.00  0.00     0.049 A 
ATOM     59  H   UNL     1       0.169  16.188  -5.225  1.00  0.00     0.167 HD
ATOM     60  C   UNL     1       1.130  16.284  -2.378  1.00  0.00     0.074 A 
ATOM     61  C   UNL     1      -0.183  15.675  -2.588  1.00  0.00     0.031 C 
ATOM     62  C   UNL     1       2.155  16.572  -3.234  1.00  0.00     0.031 A 
BRANCH  49  63
ATOM     63  C   UNL     1      -0.844  13.876  -6.798  1.00  0.00    -0.014 A 
ATOM     64  C   UNL     1      -1.256  15.035  -7.487  1.00  0.00     0.010 A 
ATOM     65  C   UNL     1      -1.856  13.058  -6.258  1.00  0.00     0.010 A 
ATOM     66  C   UNL     1      -2.607  15.393  -7.566  1.00  0.00     0.020 A 
ATOM     67  C   UNL     1      -3.209  13.382  -6.370  1.00  0.00     0.020 A 
ATOM     68  C   UNL     1      -3.574  14.566  -6.997  1.00  0.00     0.054 A 
BRANCH  68  69
ATOM     69  S   UNL     1      -5.308  15.076  -7.039  1.00  0.00     0.124 S 
ATOM     70  O   UNL     1      -5.294  16.260  -6.186  1.00  0.00    -0.237 OA
ATOM     71  O   UNL     1      -5.521  15.320  -8.463  1.00  0.00    -0.237 OA
ATOM     72  O   UNL     1      -6.016  13.919  -6.497  1.00  0.00    -0.744 OA
ENDBRANCH  68  69
ENDBRANCH  49  63
BRANCH  50  73
ATOM     73  C   UNL     1      -0.073  14.215   1.689  1.00  0.00    -0.014 A 
ATOM     74  C   UNL     1      -0.792  15.316   2.198  1.00  0.00     0.010 A 
ATOM     75  C   UNL     1      -0.403  12.937   2.182  1.00  0.00     0.010 A 
ATOM     76  C   UNL     1      -1.857  15.136   3.099  1.00  0.00     0.020 A 
ATOM     77  C   UNL     1      -1.459  12.751   3.084  1.00  0.00     0.020 A 
ATOM     78  C   UNL     1      -2.201  13.849   3.515  1.00  0.00     0.054 A 
BRANCH  78  79
ATOM     79  S   UNL     1      -3.705  13.600   4.510  1.00  0.00     0.124 S 
ATOM     80  O   UNL     1      -3.320  14.158   5.802  1.00  0.00    -0.237 OA
ATOM     81  O   UNL     1      -4.708  14.358   3.766  1.00  0.00    -0.237 OA
ATOM     82  O   UNL     1      -3.892  12.150   4.491  1.00  0.00    -0.744 OA
ENDBRANCH  78  79
ENDBRANCH  50  73
BRANCH  62  83
ATOM     83  C   UNL     1       3.426  17.168  -2.671  1.00  0.00    -0.014 A 
ATOM     84  C   UNL     1       4.227  16.566  -1.681  1.00  0.00     0.010 A 
ATOM     85  C   UNL     1       3.886  18.353  -3.273  1.00  0.00     0.010 A 
ATOM     86  C   UNL     1       5.433  17.163  -1.277  1.00  0.00     0.020 A 
ATOM     87  C   UNL     1       5.093  18.939  -2.893  1.00  0.00     0.020 A 
ATOM     88  C   UNL     1       5.854  18.351  -1.884  1.00  0.00     0.054 A 
BRANCH  88  89
ATOM     89  S   UNL     1       7.413  19.123  -1.367  1.00  0.00     0.124 S 
ATOM     90  O   UNL     1       7.116  19.555  -0.004  1.00  0.00    -0.237 OA
ATOM     91  O   UNL     1       8.373  18.027  -1.485  1.00  0.00    -0.237 OA
ATOM     92  O   UNL     1       7.602  20.207  -2.331  1.00  0.00    -0.744 OA
ENDBRANCH  88  89
ENDBRANCH  62  83
ENDBRANCH  36  37
ENDBRANCH  28  31
ENDBRANCH  26  27
ENDBRANCH  25  26
ENDBRANCH   1  25
TORSDOF 18
