REMARK SMILES NNC(=O)c1cccc([N+](=O)[O-])c1C(=O)NCCCCCCNC(=O)c1ccc(-c2c3nc(c(-c4ccc(S(=O)(=O)[O-])cc4)c4ccc([nH]4)c(-c4ccc(S(=O)(=O)[O-])cc4)c4nc(c(-c5ccc(S(=O)(=O)[O-])cc5)c5ccc2[nH]5)C=C4)C=C3)cc1
REMARK SMILES IDX 20 1 19 2 18 3 17 4 16 5 14 6 15 7 13 9 5 10 6 11 7 12 9 13
REMARK SMILES IDX 8 14 3 15 2 16 4 18 1 19 10 22 11 23 12 24 21 25 22 26 23 27
REMARK SMILES IDX 24 28 25 30 26 31 27 32 85 33 28 34 84 35 29 36 30 37 31 38
REMARK SMILES IDX 78 39 32 40 83 41 77 42 79 43 33 44 82 45 76 46 75 47 34 49
REMARK SMILES IDX 64 50 45 51 63 52 46 53 49 54 62 55 80 56 47 57 48 58 61 60
REMARK SMILES IDX 81 61 50 62 35 63 36 64 44 65 37 66 43 67 38 68 39 69 40 70
REMARK SMILES IDX 41 71 42 72 65 73 66 74 74 75 67 76 73 77 68 78 69 79 70 80
REMARK SMILES IDX 71 81 72 82 51 83 52 84 60 85 53 86 59 87 54 88 55 89 56 90
REMARK SMILES IDX 57 91 58 92
REMARK H PARENT 16 8 2 17 1 20 1 21 23 29 79 48 49 59
REMARK Flexibility Score: inf
ROOT
ATOM      1  C   UNL     1       1.365  -1.864  -2.934  1.00  0.00     0.002 C 
ENDROOT
BRANCH   1   2
ATOM      2  C   UNL     1      -0.135  -1.683  -3.191  1.00  0.00     0.002 C 
BRANCH   2   3
ATOM      3  C   UNL     1      -1.120  -2.014  -2.061  1.00  0.00     0.021 C 
BRANCH   3   4
ATOM      4  C   UNL     1      -0.769  -1.513  -0.664  1.00  0.00     0.116 C 
BRANCH   4   5
ATOM      5  N   UNL     1      -0.597  -0.080  -0.544  1.00  0.00    -0.352 N 
ATOM      6  C   UNL     1      -0.529   0.713   0.573  1.00  0.00     0.259 C 
ATOM      7  O   UNL     1      -0.144   1.875   0.443  1.00  0.00    -0.269 OA
ATOM      8  H   UNL     1      -0.516   0.400  -1.400  1.00  0.00     0.163 HD
BRANCH   6   9
ATOM      9  C   UNL     1      -0.895   0.271   1.938  1.00  0.00     0.130 A 
ATOM     10  C   UNL     1      -0.336  -0.833   2.597  1.00  0.00     0.060 A 
ATOM     11  C   UNL     1      -0.708  -1.147   3.924  1.00  0.00     0.015 A 
ATOM     12  C   UNL     1      -1.577  -0.330   4.641  1.00  0.00     0.008 A 
ATOM     13  C   UNL     1      -1.753   1.090   2.698  1.00  0.00     0.282 A 
ATOM     14  C   UNL     1      -2.095   0.805   4.034  1.00  0.00     0.086 A 
BRANCH  10  15
ATOM     15  C   UNL     1       0.635  -1.769   2.007  1.00  0.00     0.266 C 
ATOM     16  N   UNL     1       1.859  -1.325   1.551  1.00  0.00    -0.290 N 
ATOM     17  H   UNL     1       2.438  -1.972   1.087  1.00  0.00     0.184 HD
ATOM     18  O   UNL     1       0.325  -2.958   1.939  1.00  0.00    -0.268 OA
BRANCH  16  19
ATOM     19  N   UNL     1       2.335  -0.017   1.704  1.00  0.00    -0.248 NA
ATOM     20  H   UNL     1       3.261   0.059   1.284  1.00  0.00     0.143 HD
ATOM     21  H   UNL     1       2.392   0.210   2.697  1.00  0.00     0.143 HD
ENDBRANCH  16  19
ENDBRANCH  10  15
BRANCH  13  22
ATOM     22  N   UNL     1      -2.373   2.268   2.116  1.00  0.00     0.063 N 
ATOM     23  O   UNL     1      -2.187   3.346   2.698  1.00  0.00    -0.258 OA
ATOM     24  O   UNL     1      -3.133   2.085   1.155  1.00  0.00    -0.258 OA
ENDBRANCH  13  22
ENDBRANCH   6   9
ENDBRANCH   4   5
ENDBRANCH   3   4
ENDBRANCH   2   3
ENDBRANCH   1   2
BRANCH   1  25
ATOM     25  C   UNL     1       1.857  -3.222  -2.429  1.00  0.00     0.021 C 
BRANCH  25  26
ATOM     26  C   UNL     1       1.401  -4.463  -3.191  1.00  0.00     0.116 C 
BRANCH  26  27
ATOM     27  N   UNL     1       1.717  -4.427  -4.605  1.00  0.00    -0.352 N 
ATOM     28  C   UNL     1       2.220  -5.399  -5.436  1.00  0.00     0.251 C 
ATOM     29  H   UNL     1       1.543  -3.562  -5.043  1.00  0.00     0.163 HD
ATOM     30  O   UNL     1       2.471  -5.102  -6.603  1.00  0.00    -0.269 OA
BRANCH  28  31
ATOM     31  C   UNL     1       2.498  -6.778  -4.958  1.00  0.00     0.039 A 
ATOM     32  C   UNL     1       3.630  -7.431  -5.461  1.00  0.00     0.014 A 
ATOM     33  C   UNL     1       1.655  -7.459  -4.074  1.00  0.00     0.014 A 
ATOM     34  C   UNL     1       3.943  -8.728  -5.043  1.00  0.00     0.010 A 
ATOM     35  C   UNL     1       2.004  -8.730  -3.606  1.00  0.00     0.010 A 
ATOM     36  C   UNL     1       3.149  -9.381  -4.087  1.00  0.00    -0.014 A 
BRANCH  36  37
ATOM     37  C   UNL     1       3.526 -10.730  -3.583  1.00  0.00     0.031 A 
ATOM     38  C   UNL     1       2.658 -11.930  -3.860  1.00  0.00     0.074 A 
ATOM     39  C   UNL     1       4.646 -10.873  -2.845  1.00  0.00     0.049 A 
ATOM     40  N   UNL     1       2.844 -13.179  -3.512  1.00  0.00    -0.248 NA
ATOM     41  C   UNL     1       1.411 -11.696  -4.604  1.00  0.00     0.031 C 
ATOM     42  C   UNL     1       5.549  -9.785  -2.459  1.00  0.00     0.029 A 
ATOM     43  N   UNL     1       5.217 -11.990  -2.286  1.00  0.00    -0.354 N 
ATOM     44  C   UNL     1       1.736 -13.876  -3.982  1.00  0.00     0.074 A 
ATOM     45  C   UNL     1       0.862 -12.903  -4.602  1.00  0.00     0.031 C 
ATOM     46  C   UNL     1       6.573 -10.292  -1.755  1.00  0.00     0.029 A 
ATOM     47  C   UNL     1       6.388 -11.733  -1.612  1.00  0.00     0.049 A 
ATOM     48  H   UNL     1       4.825 -12.890  -2.361  1.00  0.00     0.167 HD
ATOM     49  C   UNL     1       1.476 -15.205  -3.920  1.00  0.00     0.031 A 
ATOM     50  C   UNL     1       7.224 -12.560  -0.955  1.00  0.00     0.031 A 
ATOM     51  C   UNL     1       2.351 -16.176  -3.316  1.00  0.00     0.049 A 
ATOM     52  C   UNL     1       6.925 -14.033  -0.919  1.00  0.00     0.074 A 
ATOM     53  C   UNL     1       2.203 -17.552  -3.261  1.00  0.00     0.029 A 
ATOM     54  N   UNL     1       3.534 -15.876  -2.659  1.00  0.00    -0.354 N 
ATOM     55  N   UNL     1       5.909 -14.680  -1.438  1.00  0.00    -0.248 NA
ATOM     56  C   UNL     1       7.896 -14.890  -0.224  1.00  0.00     0.031 C 
ATOM     57  C   UNL     1       3.275 -18.079  -2.531  1.00  0.00     0.029 A 
ATOM     58  C   UNL     1       4.116 -17.038  -2.177  1.00  0.00     0.049 A 
ATOM     59  H   UNL     1       3.907 -14.971  -2.550  1.00  0.00     0.167 HD
ATOM     60  C   UNL     1       6.129 -16.022  -1.149  1.00  0.00     0.074 A 
ATOM     61  C   UNL     1       7.385 -16.096  -0.430  1.00  0.00     0.031 C 
ATOM     62  C   UNL     1       5.360 -17.097  -1.452  1.00  0.00     0.031 A 
BRANCH  49  63
ATOM     63  C   UNL     1       0.184 -15.692  -4.524  1.00  0.00    -0.014 A 
ATOM     64  C   UNL     1      -0.004 -15.711  -5.918  1.00  0.00     0.010 A 
ATOM     65  C   UNL     1      -0.837 -16.184  -3.691  1.00  0.00     0.010 A 
ATOM     66  C   UNL     1      -1.204 -16.175  -6.465  1.00  0.00     0.020 A 
ATOM     67  C   UNL     1      -2.029 -16.674  -4.235  1.00  0.00     0.020 A 
ATOM     68  C   UNL     1      -2.211 -16.650  -5.619  1.00  0.00     0.054 A 
BRANCH  68  69
ATOM     69  S   UNL     1      -3.748 -17.269  -6.357  1.00  0.00     0.124 S 
ATOM     70  O   UNL     1      -4.405 -16.030  -6.767  1.00  0.00    -0.237 OA
ATOM     71  O   UNL     1      -3.265 -18.112  -7.448  1.00  0.00    -0.237 OA
ATOM     72  O   UNL     1      -4.396 -17.984  -5.261  1.00  0.00    -0.744 OA
ENDBRANCH  68  69
ENDBRANCH  49  63
BRANCH  50  73
ATOM     73  C   UNL     1       8.441 -12.014  -0.295  1.00  0.00    -0.014 A 
ATOM     74  C   UNL     1       9.717 -12.260  -0.830  1.00  0.00     0.010 A 
ATOM     75  C   UNL     1       8.326 -11.230   0.868  1.00  0.00     0.010 A 
ATOM     76  C   UNL     1      10.859 -11.749  -0.205  1.00  0.00     0.020 A 
ATOM     77  C   UNL     1       9.463 -10.695   1.481  1.00  0.00     0.020 A 
ATOM     78  C   UNL     1      10.724 -10.968   0.946  1.00  0.00     0.054 A 
BRANCH  78  79
ATOM     79  S   UNL     1      12.212 -10.267   1.711  1.00  0.00     0.124 S 
ATOM     80  O   UNL     1      12.782 -11.428   2.387  1.00  0.00    -0.237 OA
ATOM     81  O   UNL     1      12.961  -9.775   0.556  1.00  0.00    -0.237 OA
ATOM     82  O   UNL     1      11.684  -9.225   2.589  1.00  0.00    -0.744 OA
ENDBRANCH  78  79
ENDBRANCH  50  73
BRANCH  62  83
ATOM     83  C   UNL     1       5.868 -18.448  -1.023  1.00  0.00    -0.014 A 
ATOM     84  C   UNL     1       5.862 -18.831   0.330  1.00  0.00     0.010 A 
ATOM     85  C   UNL     1       6.333 -19.357  -1.991  1.00  0.00     0.010 A 
ATOM     86  C   UNL     1       6.355 -20.082   0.712  1.00  0.00     0.020 A 
ATOM     87  C   UNL     1       6.801 -20.618  -1.616  1.00  0.00     0.020 A 
ATOM     88  C   UNL     1       6.827 -20.966  -0.264  1.00  0.00     0.054 A 
BRANCH  88  89
ATOM     89  S   UNL     1       7.444 -22.591   0.253  1.00  0.00     0.124 S 
ATOM     90  O   UNL     1       8.757 -22.257   0.799  1.00  0.00    -0.237 OA
ATOM     91  O   UNL     1       6.447 -23.020   1.231  1.00  0.00    -0.237 OA
ATOM     92  O   UNL     1       7.463 -23.364  -0.987  1.00  0.00    -0.744 OA
ENDBRANCH  88  89
ENDBRANCH  62  83
ENDBRANCH  36  37
ENDBRANCH  28  31
ENDBRANCH  26  27
ENDBRANCH  25  26
ENDBRANCH   1  25
TORSDOF 19
