REMARK SMILES C/C(=N\NC(N)=O)c1nnn(-c2ccc(C(=O)NCCCCCCNC(=O)c3ccc(-c4c5nc(c(-c6ccc(S(=O)(=O)[O-])cc6)c6ccc([nH]6)c(-c6ccc(S(=O)(=O)[O-])cc6)c6nc(c(-c7ccc(S(=O)(=O)[O-])cc7)c7ccc4[nH]7)C=C6)C=C5)cc3)cc2)c1C
REMARK SMILES IDX 21 1 20 2 19 3 18 4 16 5 17 6 15 8 12 9 13 10 89 11 14 12
REMARK SMILES IDX 88 13 11 14 8 15 9 16 90 17 10 18 91 19 2 20 1 21 3 22 4 23
REMARK SMILES IDX 5 24 6 26 7 27 22 30 23 31 24 32 25 33 26 34 27 36 28 37
REMARK SMILES IDX 29 38 87 39 30 40 86 41 31 42 32 43 33 44 80 45 34 46 85 47
REMARK SMILES IDX 79 48 81 49 35 50 84 51 78 52 77 53 36 55 66 56 47 57 65 58
REMARK SMILES IDX 48 59 51 60 64 61 82 62 49 63 50 64 63 66 83 67 52 68 37 69
REMARK SMILES IDX 38 70 46 71 39 72 45 73 40 74 41 75 42 76 43 77 44 78 67 79
REMARK SMILES IDX 68 80 76 81 69 82 75 83 70 84 71 85 72 86 73 87 74 88 53 89
REMARK SMILES IDX 54 90 62 91 55 92 61 93 56 94 57 95 58 96 59 97 60 98
REMARK H PARENT 18 7 4 25 6 28 6 29 25 35 81 54 51 65
REMARK Flexibility Score: inf
ROOT
ATOM      1  C   UNL     1      10.101  -5.971   4.517  1.00  0.00     0.002 C 
ENDROOT
BRANCH   1   2
ATOM      2  C   UNL     1       8.684  -5.422   4.309  1.00  0.00     0.021 C 
BRANCH   2   3
ATOM      3  C   UNL     1       8.357  -5.105   2.847  1.00  0.00     0.116 C 
BRANCH   3   4
ATOM      4  N   UNL     1       8.011  -6.317   2.125  1.00  0.00    -0.352 N 
ATOM      5  C   UNL     1       6.819  -6.833   1.679  1.00  0.00     0.251 C 
ATOM      6  O   UNL     1       6.862  -7.878   1.030  1.00  0.00    -0.269 OA
ATOM      7  H   UNL     1       8.788  -6.882   1.911  1.00  0.00     0.163 HD
BRANCH   5   8
ATOM      8  C   UNL     1       5.510  -6.143   1.862  1.00  0.00     0.039 A 
ATOM      9  C   UNL     1       3.144  -4.658   1.849  1.00  0.00     0.067 A 
ATOM     10  C   UNL     1       3.308  -5.680   0.913  1.00  0.00     0.029 A 
ATOM     11  C   UNL     1       4.080  -4.466   2.867  1.00  0.00     0.029 A 
ATOM     12  C   UNL     1       4.509  -6.397   0.905  1.00  0.00     0.016 A 
ATOM     13  C   UNL     1       5.232  -5.252   2.901  1.00  0.00     0.016 A 
BRANCH   9  14
ATOM     14  N   UNL     1       2.083  -3.747   1.705  1.00  0.00    -0.217 N 
ATOM     15  C   UNL     1       0.879  -1.975   1.326  1.00  0.00     0.132 A 
ATOM     16  N   UNL     1       0.055  -3.068   1.364  1.00  0.00    -0.128 NA
ATOM     17  C   UNL     1       2.191  -2.384   1.481  1.00  0.00     0.071 A 
ATOM     18  N   UNL     1       0.811  -4.150   1.499  1.00  0.00    -0.061 NA
ATOM     19  C   UNL     1       3.466  -1.658   1.270  1.00  0.00     0.069 C 
BRANCH  15  20
ATOM     20  C   UNL     1       0.410  -0.666   0.909  1.00  0.00     0.087 C 
ATOM     21  C   UNL     1       0.558  -0.361  -0.557  1.00  0.00     0.071 C 
ATOM     22  N   UNL     1      -0.108   0.072   1.845  1.00  0.00    -0.174 NA
BRANCH  22  23
ATOM     23  N   UNL     1      -0.576   1.337   1.626  1.00  0.00    -0.229 N 
ATOM     24  C   UNL     1       0.002   2.326   0.862  1.00  0.00     0.332 C 
ATOM     25  H   UNL     1      -1.426   1.569   2.066  1.00  0.00     0.195 HD
ATOM     26  N   UNL     1      -0.744   3.468   0.840  1.00  0.00    -0.350 N 
ATOM     27  O   UNL     1       1.046   2.270   0.227  1.00  0.00    -0.247 OA
ATOM     28  H   UNL     1      -1.585   3.516   1.350  1.00  0.00     0.161 HD
ATOM     29  H   UNL     1      -0.442   4.243   0.315  1.00  0.00     0.161 HD
ENDBRANCH  22  23
ENDBRANCH  15  20
ENDBRANCH   9  14
ENDBRANCH   5   8
ENDBRANCH   3   4
ENDBRANCH   2   3
ENDBRANCH   1   2
BRANCH   1  30
ATOM     30  C   UNL     1      11.248  -5.057   4.058  1.00  0.00     0.002 C 
BRANCH  30  31
ATOM     31  C   UNL     1      11.209  -3.603   4.554  1.00  0.00     0.021 C 
BRANCH  31  32
ATOM     32  C   UNL     1      11.371  -3.452   6.060  1.00  0.00     0.116 C 
BRANCH  32  33
ATOM     33  N   UNL     1      12.691  -3.881   6.518  1.00  0.00    -0.352 N 
ATOM     34  C   UNL     1      13.162  -4.048   7.807  1.00  0.00     0.251 C 
ATOM     35  H   UNL     1      13.339  -4.080   5.804  1.00  0.00     0.163 HD
ATOM     36  O   UNL     1      14.363  -4.026   8.028  1.00  0.00    -0.269 OA
BRANCH  34  37
ATOM     37  C   UNL     1      12.200  -4.247   8.909  1.00  0.00     0.039 A 
ATOM     38  C   UNL     1      12.446  -3.727  10.183  1.00  0.00     0.014 A 
ATOM     39  C   UNL     1      11.036  -4.965   8.657  1.00  0.00     0.014 A 
ATOM     40  C   UNL     1      11.469  -3.868  11.167  1.00  0.00     0.010 A 
ATOM     41  C   UNL     1      10.010  -4.956   9.567  1.00  0.00     0.010 A 
ATOM     42  C   UNL     1      10.237  -4.462  10.844  1.00  0.00    -0.014 A 
BRANCH  42  43
ATOM     43  C   UNL     1       9.132  -4.463  11.798  1.00  0.00     0.031 A 
ATOM     44  C   UNL     1       8.818  -3.126  12.358  1.00  0.00     0.074 A 
ATOM     45  C   UNL     1       8.315  -5.516  12.017  1.00  0.00     0.049 A 
ATOM     46  N   UNL     1       9.128  -2.681  13.529  1.00  0.00    -0.248 NA
ATOM     47  C   UNL     1       8.253  -2.106  11.459  1.00  0.00     0.031 C 
ATOM     48  C   UNL     1       8.296  -6.810  11.323  1.00  0.00     0.029 A 
ATOM     49  N   UNL     1       7.238  -5.609  12.845  1.00  0.00    -0.354 N 
ATOM     50  C   UNL     1       8.546  -1.423  13.612  1.00  0.00     0.074 A 
ATOM     51  C   UNL     1       8.247  -1.035  12.256  1.00  0.00     0.031 C 
ATOM     52  C   UNL     1       7.133  -7.447  11.583  1.00  0.00     0.029 A 
ATOM     53  C   UNL     1       6.412  -6.700  12.596  1.00  0.00     0.049 A 
ATOM     54  H   UNL     1       7.059  -4.957  13.560  1.00  0.00     0.167 HD
ATOM     55  C   UNL     1       8.065  -0.951  14.797  1.00  0.00     0.031 A 
ATOM     56  C   UNL     1       5.212  -6.966  13.170  1.00  0.00     0.031 A 
ATOM     57  C   UNL     1       8.520  -1.749  15.912  1.00  0.00     0.049 A 
ATOM     58  C   UNL     1       5.170  -6.222  14.450  1.00  0.00     0.074 A 
ATOM     59  C   UNL     1       9.752  -2.152  16.390  1.00  0.00     0.029 A 
ATOM     60  N   UNL     1       7.599  -2.603  16.477  1.00  0.00    -0.354 N 
ATOM     61  N   UNL     1       5.945  -6.500  15.461  1.00  0.00    -0.248 NA
ATOM     62  C   UNL     1       4.582  -4.894  14.465  1.00  0.00     0.031 C 
ATOM     63  C   UNL     1       9.558  -3.497  16.827  1.00  0.00     0.029 A 
ATOM     64  C   UNL     1       8.208  -3.815  16.670  1.00  0.00     0.049 A 
ATOM     65  H   UNL     1       6.667  -2.381  16.702  1.00  0.00     0.167 HD
ATOM     66  C   UNL     1       6.307  -5.265  15.976  1.00  0.00     0.074 A 
ATOM     67  C   UNL     1       5.344  -4.325  15.404  1.00  0.00     0.031 C 
ATOM     68  C   UNL     1       7.517  -5.086  16.586  1.00  0.00     0.031 A 
BRANCH  55  69
ATOM     69  C   UNL     1       6.829  -0.084  14.900  1.00  0.00    -0.014 A 
ATOM     70  C   UNL     1       6.434   0.379  16.172  1.00  0.00     0.010 A 
ATOM     71  C   UNL     1       5.889   0.042  13.856  1.00  0.00     0.010 A 
ATOM     72  C   UNL     1       5.137   0.858  16.401  1.00  0.00     0.020 A 
ATOM     73  C   UNL     1       4.612   0.564  14.062  1.00  0.00     0.020 A 
ATOM     74  C   UNL     1       4.231   0.933  15.343  1.00  0.00     0.054 A 
BRANCH  74  75
ATOM     75  S   UNL     1       2.530   1.454  15.664  1.00  0.00     0.124 S 
ATOM     76  O   UNL     1       2.028   0.345  16.468  1.00  0.00    -0.237 OA
ATOM     77  O   UNL     1       2.724   2.717  16.370  1.00  0.00    -0.237 OA
ATOM     78  O   UNL     1       1.954   1.575  14.326  1.00  0.00    -0.744 OA
ENDBRANCH  74  75
ENDBRANCH  55  69
BRANCH  56  79
ATOM     79  C   UNL     1       4.014  -7.612  12.579  1.00  0.00    -0.014 A 
ATOM     80  C   UNL     1       2.928  -7.992  13.390  1.00  0.00     0.010 A 
ATOM     81  C   UNL     1       3.812  -7.580  11.185  1.00  0.00     0.010 A 
ATOM     82  C   UNL     1       1.663  -8.246  12.833  1.00  0.00     0.020 A 
ATOM     83  C   UNL     1       2.556  -7.841  10.622  1.00  0.00     0.020 A 
ATOM     84  C   UNL     1       1.479  -8.143  11.452  1.00  0.00     0.054 A 
BRANCH  84  85
ATOM     85  S   UNL     1      -0.198  -8.265  10.761  1.00  0.00     0.124 S 
ATOM     86  O   UNL     1      -0.496  -9.685  10.916  1.00  0.00    -0.237 OA
ATOM     87  O   UNL     1      -0.962  -7.361  11.617  1.00  0.00    -0.237 OA
ATOM     88  O   UNL     1      -0.033  -7.812   9.381  1.00  0.00    -0.744 OA
ENDBRANCH  84  85
ENDBRANCH  56  79
BRANCH  68  89
ATOM     89  C   UNL     1       8.291  -6.313  17.016  1.00  0.00    -0.014 A 
ATOM     90  C   UNL     1       8.694  -7.348  16.149  1.00  0.00     0.010 A 
ATOM     91  C   UNL     1       8.710  -6.369  18.358  1.00  0.00     0.010 A 
ATOM     92  C   UNL     1       9.447  -8.433  16.625  1.00  0.00     0.020 A 
ATOM     93  C   UNL     1       9.478  -7.434  18.834  1.00  0.00     0.020 A 
ATOM     94  C   UNL     1       9.828  -8.471  17.970  1.00  0.00     0.054 A 
BRANCH  94  95
ATOM     95  S   UNL     1      10.797  -9.876  18.587  1.00  0.00     0.124 S 
ATOM     96  O   UNL     1       9.846 -10.980  18.501  1.00  0.00    -0.237 OA
ATOM     97  O   UNL     1      11.916  -9.935  17.649  1.00  0.00    -0.237 OA
ATOM     98  O   UNL     1      11.161  -9.478  19.946  1.00  0.00    -0.744 OA
ENDBRANCH  94  95
ENDBRANCH  68  89
ENDBRANCH  42  43
ENDBRANCH  34  37
ENDBRANCH  32  33
ENDBRANCH  31  32
ENDBRANCH  30  31
ENDBRANCH   1  30
TORSDOF 19
