REMARK SMILES Cc1ccc([C@H](C)Nc2ccc(C(=O)NCCCCCCNC(=O)c3ccc(-c4c5nc(c(-c6ccc(S(=O)(=O)[O-])cc6)c6ccc([nH]6)c(-c6ccc(S(=O)(=O)[O-])cc6)c6nc(c(-c7ccc(S(=O)(=O)[O-])cc7)c7ccc4[nH]7)C=C6)C=C5)cc3)cc2Cl)cc1F
REMARK SMILES IDX 18 1 17 2 16 3 15 4 13 5 14 6 12 8 9 9 10 10 86 11 11 12
REMARK SMILES IDX 85 13 87 14 8 15 6 17 7 18 5 19 1 20 2 21 3 22 89 23 4 24
REMARK SMILES IDX 88 25 90 26 19 27 20 28 21 29 22 30 23 31 24 33 25 34 26 35
REMARK SMILES IDX 84 36 27 37 83 38 28 39 29 40 30 41 77 42 31 43 82 44 76 45
REMARK SMILES IDX 78 46 32 47 81 48 75 49 74 50 33 52 63 53 44 54 62 55 45 56
REMARK SMILES IDX 48 57 61 58 79 59 46 60 47 61 60 63 80 64 49 65 34 66 35 67
REMARK SMILES IDX 43 68 36 69 42 70 37 71 38 72 39 73 40 74 41 75 64 76 65 77
REMARK SMILES IDX 73 78 66 79 72 80 67 81 68 82 69 83 70 84 71 85 50 86 51 87
REMARK SMILES IDX 59 88 52 89 58 90 53 91 54 92 55 93 56 94 57 95
REMARK H PARENT 15 7 8 16 22 32 78 51 48 62
REMARK Flexibility Score: inf
ROOT
ATOM      1  C   UNL     1     -11.177  -3.379   4.146  1.00  0.00     0.002 C 
ENDROOT
BRANCH   1   2
ATOM      2  C   UNL     1      -9.822  -3.231   3.444  1.00  0.00     0.021 C 
BRANCH   2   3
ATOM      3  C   UNL     1      -9.105  -1.935   3.839  1.00  0.00     0.116 C 
BRANCH   3   4
ATOM      4  N   UNL     1      -8.291  -2.159   5.020  1.00  0.00    -0.352 N 
ATOM      5  C   UNL     1      -6.969  -2.470   5.207  1.00  0.00     0.251 C 
ATOM      6  O   UNL     1      -6.589  -2.634   6.368  1.00  0.00    -0.269 OA
ATOM      7  H   UNL     1      -8.793  -2.069   5.862  1.00  0.00     0.163 HD
BRANCH   5   8
ATOM      8  C   UNL     1      -5.971  -2.559   4.103  1.00  0.00     0.041 A 
ATOM      9  C   UNL     1      -3.948  -2.539   2.076  1.00  0.00     0.053 A 
ATOM     10  C   UNL     1      -3.631  -2.517   3.447  1.00  0.00     0.028 A 
ATOM     11  C   UNL     1      -5.316  -2.544   1.757  1.00  0.00     0.065 A 
ATOM     12  C   UNL     1      -4.618  -2.490   4.442  1.00  0.00     0.016 A 
ATOM     13  C   UNL     1      -6.288  -2.675   2.758  1.00  0.00     0.036 A 
ATOM     14  Cl  UNL     1      -5.979  -2.408   0.164  1.00  0.00    -0.082 Cl
BRANCH   9  15
ATOM     15  N   UNL     1      -2.877  -2.534   1.204  1.00  0.00    -0.377 N 
ATOM     16  H   UNL     1      -2.091  -3.053   1.491  1.00  0.00     0.161 HD
BRANCH  15  17
ATOM     17  C   UNL     1      -2.755  -1.862  -0.085  1.00  0.00     0.106 C 
ATOM     18  C   UNL     1      -1.627  -0.826   0.080  1.00  0.00     0.036 C 
BRANCH  17  19
ATOM     19  C   UNL     1      -2.586  -2.892  -1.204  1.00  0.00    -0.023 A 
ATOM     20  C   UNL     1      -2.833  -5.479  -4.686  1.00  0.00     0.047 C 
ATOM     21  C   UNL     1      -2.684  -4.624  -3.467  1.00  0.00    -0.015 A 
ATOM     22  C   UNL     1      -1.750  -3.586  -3.399  1.00  0.00     0.007 A 
ATOM     23  C   UNL     1      -3.529  -4.816  -2.383  1.00  0.00     0.126 A 
ATOM     24  C   UNL     1      -1.706  -2.729  -2.286  1.00  0.00     0.006 A 
ATOM     25  C   UNL     1      -3.461  -3.993  -1.264  1.00  0.00     0.045 A 
ATOM     26  F   UNL     1      -4.452  -5.788  -2.414  1.00  0.00    -0.207 F 
ENDBRANCH  17  19
ENDBRANCH  15  17
ENDBRANCH   9  15
ENDBRANCH   5   8
ENDBRANCH   3   4
ENDBRANCH   2   3
ENDBRANCH   1   2
BRANCH   1  27
ATOM     27  C   UNL     1     -12.202  -2.302   3.765  1.00  0.00     0.002 C 
BRANCH  27  28
ATOM     28  C   UNL     1     -12.508  -2.214   2.268  1.00  0.00     0.021 C 
BRANCH  28  29
ATOM     29  C   UNL     1     -13.138  -3.478   1.694  1.00  0.00     0.116 C 
BRANCH  29  30
ATOM     30  N   UNL     1     -14.428  -3.749   2.311  1.00  0.00    -0.352 N 
ATOM     31  C   UNL     1     -15.667  -3.830   1.726  1.00  0.00     0.251 C 
ATOM     32  H   UNL     1     -14.409  -3.896   3.284  1.00  0.00     0.163 HD
ATOM     33  O   UNL     1     -16.678  -3.787   2.416  1.00  0.00    -0.269 OA
BRANCH  31  34
ATOM     34  C   UNL     1     -15.765  -3.965   0.259  1.00  0.00     0.039 A 
ATOM     35  C   UNL     1     -16.710  -3.205  -0.434  1.00  0.00     0.014 A 
ATOM     36  C   UNL     1     -14.926  -4.848  -0.427  1.00  0.00     0.014 A 
ATOM     37  C   UNL     1     -16.775  -3.294  -1.826  1.00  0.00     0.010 A 
ATOM     38  C   UNL     1     -14.940  -4.877  -1.816  1.00  0.00     0.010 A 
ATOM     39  C   UNL     1     -15.870  -4.107  -2.530  1.00  0.00    -0.014 A 
BRANCH  39  40
ATOM     40  C   UNL     1     -15.880  -4.168  -4.012  1.00  0.00     0.031 A 
ATOM     41  C   UNL     1     -16.196  -5.462  -4.712  1.00  0.00     0.074 A 
ATOM     42  C   UNL     1     -15.546  -3.074  -4.725  1.00  0.00     0.049 A 
ATOM     43  N   UNL     1     -16.198  -5.726  -5.993  1.00  0.00    -0.248 NA
ATOM     44  C   UNL     1     -16.529  -6.617  -3.861  1.00  0.00     0.031 C 
ATOM     45  C   UNL     1     -15.185  -1.771  -4.159  1.00  0.00     0.029 A 
ATOM     46  N   UNL     1     -15.449  -2.883  -6.080  1.00  0.00    -0.354 N 
ATOM     47  C   UNL     1     -16.519  -7.074  -6.101  1.00  0.00     0.074 A 
ATOM     48  C   UNL     1     -16.649  -7.587  -4.755  1.00  0.00     0.031 C 
ATOM     49  C   UNL     1     -14.939  -0.910  -5.159  1.00  0.00     0.029 A 
ATOM     50  C   UNL     1     -15.076  -1.607  -6.433  1.00  0.00     0.049 A 
ATOM     51  H   UNL     1     -15.630  -3.593  -6.738  1.00  0.00     0.167 HD
ATOM     52  C   UNL     1     -16.708  -7.814  -7.219  1.00  0.00     0.031 A 
ATOM     53  C   UNL     1     -14.861  -1.062  -7.646  1.00  0.00     0.031 A 
ATOM     54  C   UNL     1     -16.580  -7.297  -8.556  1.00  0.00     0.049 A 
ATOM     55  C   UNL     1     -15.051  -1.912  -8.873  1.00  0.00     0.074 A 
ATOM     56  C   UNL     1     -16.796  -7.952  -9.755  1.00  0.00     0.029 A 
ATOM     57  N   UNL     1     -16.198  -6.001  -8.870  1.00  0.00    -0.354 N 
ATOM     58  N   UNL     1     -15.415  -3.170  -8.956  1.00  0.00    -0.248 NA
ATOM     59  C   UNL     1     -14.813  -1.266 -10.170  1.00  0.00     0.031 C 
ATOM     60  C   UNL     1     -16.489  -7.069 -10.795  1.00  0.00     0.029 A 
ATOM     61  C   UNL     1     -16.148  -5.844 -10.245  1.00  0.00     0.049 A 
ATOM     62  H   UNL     1     -15.994  -5.297  -8.213  1.00  0.00     0.167 HD
ATOM     63  C   UNL     1     -15.479  -3.456 -10.315  1.00  0.00     0.074 A 
ATOM     64  C   UNL     1     -15.131  -2.236 -11.015  1.00  0.00     0.031 C 
ATOM     65  C   UNL     1     -15.801  -4.622 -10.928  1.00  0.00     0.031 A 
BRANCH  52  66
ATOM     66  C   UNL     1     -17.069  -9.267  -7.043  1.00  0.00    -0.014 A 
ATOM     67  C   UNL     1     -18.319  -9.648  -6.519  1.00  0.00     0.010 A 
ATOM     68  C   UNL     1     -16.165 -10.267  -7.445  1.00  0.00     0.010 A 
ATOM     69  C   UNL     1     -18.640 -10.999  -6.364  1.00  0.00     0.020 A 
ATOM     70  C   UNL     1     -16.496 -11.620  -7.321  1.00  0.00     0.020 A 
ATOM     71  C   UNL     1     -17.726 -11.977  -6.765  1.00  0.00     0.054 A 
BRANCH  71  72
ATOM     72  S   UNL     1     -18.183 -13.721  -6.576  1.00  0.00     0.124 S 
ATOM     73  O   UNL     1     -18.123 -13.893  -5.127  1.00  0.00    -0.237 OA
ATOM     74  O   UNL     1     -19.522 -13.765  -7.158  1.00  0.00    -0.237 OA
ATOM     75  O   UNL     1     -17.155 -14.434  -7.330  1.00  0.00    -0.744 OA
ENDBRANCH  71  72
ENDBRANCH  52  66
BRANCH  53  76
ATOM     76  C   UNL     1     -14.457   0.367  -7.759  1.00  0.00    -0.014 A 
ATOM     77  C   UNL     1     -15.341   1.318  -8.297  1.00  0.00     0.010 A 
ATOM     78  C   UNL     1     -13.188   0.787  -7.318  1.00  0.00     0.010 A 
ATOM     79  C   UNL     1     -14.958   2.658  -8.412  1.00  0.00     0.020 A 
ATOM     80  C   UNL     1     -12.813   2.130  -7.402  1.00  0.00     0.020 A 
ATOM     81  C   UNL     1     -13.696   3.056  -7.961  1.00  0.00     0.054 A 
BRANCH  81  82
ATOM     82  S   UNL     1     -13.238   4.808  -8.079  1.00  0.00     0.124 S 
ATOM     83  O   UNL     1     -13.041   4.974  -9.515  1.00  0.00    -0.237 OA
ATOM     84  O   UNL     1     -14.409   5.477  -7.518  1.00  0.00    -0.237 OA
ATOM     85  O   UNL     1     -12.028   4.900  -7.266  1.00  0.00    -0.744 OA
ENDBRANCH  81  82
ENDBRANCH  53  76
BRANCH  65  86
ATOM     86  C   UNL     1     -15.834  -4.630 -12.434  1.00  0.00    -0.014 A 
ATOM     87  C   UNL     1     -14.653  -4.559 -13.193  1.00  0.00     0.010 A 
ATOM     88  C   UNL     1     -17.067  -4.773 -13.097  1.00  0.00     0.010 A 
ATOM     89  C   UNL     1     -14.707  -4.600 -14.589  1.00  0.00     0.020 A 
ATOM     90  C   UNL     1     -17.123  -4.847 -14.490  1.00  0.00     0.020 A 
ATOM     91  C   UNL     1     -15.943  -4.746 -15.228  1.00  0.00     0.054 A 
BRANCH  91  92
ATOM     92  S   UNL     1     -15.981  -4.847 -17.039  1.00  0.00     0.124 S 
ATOM     93  O   UNL     1     -15.678  -3.471 -17.426  1.00  0.00    -0.237 OA
ATOM     94  O   UNL     1     -14.935  -5.825 -17.326  1.00  0.00    -0.237 OA
ATOM     95  O   UNL     1     -17.341  -5.292 -17.334  1.00  0.00    -0.744 OA
ENDBRANCH  91  92
ENDBRANCH  65  86
ENDBRANCH  39  40
ENDBRANCH  31  34
ENDBRANCH  29  30
ENDBRANCH  28  29
ENDBRANCH  27  28
ENDBRANCH   1  27
TORSDOF 19
