REMARK SMILES CC1(CNS(=O)(=O)Cc2ccc(C(=O)NCCCCCCNC(=O)c3ccc(-c4c5nc(c(-c6ccc(S(=O)(=O)[O-])cc6)c6ccc([nH]6)c(-c6ccc(S(=O)(=O)[O-])cc6)c6nc(c(-c7ccc(S(=O)(=O)[O-])cc7)c7ccc4[nH]7)C=C6)C=C5)cc3)cc2)COC1
REMARK SMILES IDX 17 1 16 2 15 3 13 4 14 5 12 7 9 8 10 9 86 10 11 11 85 12
REMARK SMILES IDX 8 13 5 14 6 15 7 16 4 17 3 19 2 20 1 21 87 22 89 23 88 24
REMARK SMILES IDX 18 25 19 26 20 27 21 28 22 29 23 30 24 32 25 33 26 34 84 35
REMARK SMILES IDX 27 36 83 37 28 38 29 39 30 40 77 41 31 42 82 43 76 44 78 45
REMARK SMILES IDX 32 46 81 47 75 48 74 49 33 51 63 52 44 53 62 54 45 55 48 56
REMARK SMILES IDX 61 57 79 58 46 59 47 60 60 62 80 63 49 64 34 65 35 66 43 67
REMARK SMILES IDX 36 68 42 69 37 70 38 71 39 72 40 73 41 74 64 75 65 76 73 77
REMARK SMILES IDX 66 78 72 79 67 80 68 81 69 82 70 83 71 84 50 85 51 86 59 87
REMARK SMILES IDX 52 88 58 89 53 90 54 91 55 92 56 93 57 94
REMARK H PARENT 15 6 4 18 22 31 78 50 48 61
REMARK Flexibility Score: inf
ROOT
ATOM      1  C   UNL     1       0.856   2.099  -5.956  1.00  0.00     0.021 C 
ENDROOT
BRANCH   1   2
ATOM      2  C   UNL     1      -0.382   1.297  -6.366  1.00  0.00     0.116 C 
BRANCH   2   3
ATOM      3  N   UNL     1      -0.052  -0.115  -6.435  1.00  0.00    -0.352 N 
ATOM      4  C   UNL     1      -0.263  -1.151  -5.562  1.00  0.00     0.251 C 
ATOM      5  O   UNL     1       0.143  -2.268  -5.883  1.00  0.00    -0.269 OA
ATOM      6  H   UNL     1       0.410  -0.377  -7.263  1.00  0.00     0.163 HD
BRANCH   4   7
ATOM      7  C   UNL     1      -1.017  -0.993  -4.289  1.00  0.00     0.039 A 
ATOM      8  C   UNL     1      -2.644  -0.796  -1.973  1.00  0.00    -0.032 A 
ATOM      9  C   UNL     1      -2.501  -2.015  -2.658  1.00  0.00     0.005 A 
ATOM     10  C   UNL     1      -1.942   0.307  -2.462  1.00  0.00     0.005 A 
ATOM     11  C   UNL     1      -1.708  -2.109  -3.806  1.00  0.00     0.014 A 
ATOM     12  C   UNL     1      -1.085   0.190  -3.558  1.00  0.00     0.014 A 
BRANCH   8  13
ATOM     13  C   UNL     1      -3.598  -0.758  -0.801  1.00  0.00     0.189 C 
BRANCH  13  14
ATOM     14  S   UNL     1      -3.415   0.630   0.328  1.00  0.00     0.215 S 
ATOM     15  O   UNL     1      -3.951   0.249   1.615  1.00  0.00    -0.212 OA
ATOM     16  O   UNL     1      -3.869   1.839  -0.330  1.00  0.00    -0.212 OA
BRANCH  14  17
ATOM     17  N   UNL     1      -1.755   0.829   0.528  1.00  0.00    -0.214 NA
ATOM     18  H   UNL     1      -1.334   0.821  -0.401  1.00  0.00     0.141 HD
BRANCH  17  19
ATOM     19  C   UNL     1      -1.037  -0.163   1.343  1.00  0.00     0.110 C 
BRANCH  19  20
ATOM     20  C   UNL     1       0.481   0.029   1.278  1.00  0.00     0.028 C 
ATOM     21  C   UNL     1       1.068  -0.059  -0.124  1.00  0.00     0.018 C 
ATOM     22  C   UNL     1       1.201  -0.854   2.316  1.00  0.00     0.170 C 
ATOM     23  C   UNL     1       1.012   1.186   2.149  1.00  0.00     0.170 C 
ATOM     24  O   UNL     1       1.295   0.265   3.235  1.00  0.00    -0.380 OA
ENDBRANCH  19  20
ENDBRANCH  17  19
ENDBRANCH  14  17
ENDBRANCH  13  14
ENDBRANCH   8  13
ENDBRANCH   4   7
ENDBRANCH   2   3
ENDBRANCH   1   2
BRANCH   1  25
ATOM     25  C   UNL     1       1.786   2.392  -7.139  1.00  0.00     0.002 C 
BRANCH  25  26
ATOM     26  C   UNL     1       1.157   3.268  -8.229  1.00  0.00     0.002 C 
BRANCH  26  27
ATOM     27  C   UNL     1       0.641   4.624  -7.739  1.00  0.00     0.021 C 
BRANCH  27  28
ATOM     28  C   UNL     1       1.723   5.526  -7.156  1.00  0.00     0.116 C 
BRANCH  28  29
ATOM     29  N   UNL     1       2.742   5.832  -8.147  1.00  0.00    -0.352 N 
ATOM     30  C   UNL     1       3.159   7.046  -8.625  1.00  0.00     0.251 C 
ATOM     31  H   UNL     1       3.200   5.051  -8.532  1.00  0.00     0.163 HD
ATOM     32  O   UNL     1       3.817   7.094  -9.660  1.00  0.00    -0.269 OA
BRANCH  30  33
ATOM     33  C   UNL     1       2.823   8.289  -7.899  1.00  0.00     0.039 A 
ATOM     34  C   UNL     1       2.518   9.434  -8.636  1.00  0.00     0.014 A 
ATOM     35  C   UNL     1       2.856   8.344  -6.501  1.00  0.00     0.014 A 
ATOM     36  C   UNL     1       2.217  10.623  -7.972  1.00  0.00     0.010 A 
ATOM     37  C   UNL     1       2.473   9.508  -5.839  1.00  0.00     0.010 A 
ATOM     38  C   UNL     1       2.169  10.665  -6.567  1.00  0.00    -0.014 A 
BRANCH  38  39
ATOM     39  C   UNL     1       1.798  11.921  -5.868  1.00  0.00     0.031 A 
ATOM     40  C   UNL     1       2.784  12.624  -4.973  1.00  0.00     0.074 A 
ATOM     41  C   UNL     1       0.559  12.425  -6.038  1.00  0.00     0.049 A 
ATOM     42  N   UNL     1       2.653  13.762  -4.339  1.00  0.00    -0.248 NA
ATOM     43  C   UNL     1       4.076  11.958  -4.741  1.00  0.00     0.031 C 
ATOM     44  C   UNL     1      -0.502  11.805  -6.837  1.00  0.00     0.029 A 
ATOM     45  N   UNL     1      -0.013  13.578  -5.565  1.00  0.00    -0.354 N 
ATOM     46  C   UNL     1       3.837  13.945  -3.635  1.00  0.00     0.074 A 
ATOM     47  C   UNL     1       4.651  12.773  -3.869  1.00  0.00     0.031 C 
ATOM     48  C   UNL     1      -1.575  12.610  -6.842  1.00  0.00     0.029 A 
ATOM     49  C   UNL     1      -1.296  13.780  -6.016  1.00  0.00     0.049 A 
ATOM     50  H   UNL     1       0.451  14.202  -4.961  1.00  0.00     0.167 HD
ATOM     51  C   UNL     1       4.222  15.002  -2.881  1.00  0.00     0.031 A 
ATOM     52  C   UNL     1      -2.152  14.797  -5.797  1.00  0.00     0.031 A 
ATOM     53  C   UNL     1       3.405  16.165  -2.650  1.00  0.00     0.049 A 
ATOM     54  C   UNL     1      -1.702  15.958  -4.955  1.00  0.00     0.074 A 
ATOM     55  C   UNL     1       3.720  17.313  -1.943  1.00  0.00     0.029 A 
ATOM     56  N   UNL     1       2.108  16.328  -3.115  1.00  0.00    -0.354 N 
ATOM     57  N   UNL     1      -0.547  16.148  -4.361  1.00  0.00    -0.248 NA
ATOM     58  C   UNL     1      -2.663  17.052  -4.772  1.00  0.00     0.031 C 
ATOM     59  C   UNL     1       2.593  18.140  -1.927  1.00  0.00     0.029 A 
ATOM     60  C   UNL     1       1.600  17.544  -2.687  1.00  0.00     0.049 A 
ATOM     61  H   UNL     1       1.620  15.675  -3.668  1.00  0.00     0.167 HD
ATOM     62  C   UNL     1      -0.634  17.397  -3.756  1.00  0.00     0.074 A 
ATOM     63  C   UNL     1      -1.945  17.924  -4.079  1.00  0.00     0.031 C 
ATOM     64  C   UNL     1       0.287  18.050  -3.005  1.00  0.00     0.031 A 
BRANCH  51  65
ATOM     65  C   UNL     1       5.588  14.946  -2.241  1.00  0.00    -0.014 A 
ATOM     66  C   UNL     1       6.761  14.999  -3.018  1.00  0.00     0.010 A 
ATOM     67  C   UNL     1       5.702  14.886  -0.840  1.00  0.00     0.010 A 
ATOM     68  C   UNL     1       8.018  14.950  -2.410  1.00  0.00     0.020 A 
ATOM     69  C   UNL     1       6.959  14.870  -0.226  1.00  0.00     0.020 A 
ATOM     70  C   UNL     1       8.109  14.886  -1.017  1.00  0.00     0.054 A 
BRANCH  70  71
ATOM     71  S   UNL     1       9.755  14.851  -0.255  1.00  0.00     0.124 S 
ATOM     72  O   UNL     1      10.225  13.516  -0.616  1.00  0.00    -0.237 OA
ATOM     73  O   UNL     1      10.438  15.958  -0.919  1.00  0.00    -0.237 OA
ATOM     74  O   UNL     1       9.484  15.052   1.167  1.00  0.00    -0.744 OA
ENDBRANCH  70  71
ENDBRANCH  51  65
BRANCH  52  75
ATOM     75  C   UNL     1      -3.510  14.769  -6.408  1.00  0.00    -0.014 A 
ATOM     76  C   UNL     1      -3.861  15.674  -7.425  1.00  0.00     0.010 A 
ATOM     77  C   UNL     1      -4.459  13.822  -5.980  1.00  0.00     0.010 A 
ATOM     78  C   UNL     1      -5.141  15.648  -7.987  1.00  0.00     0.020 A 
ATOM     79  C   UNL     1      -5.729  13.771  -6.562  1.00  0.00     0.020 A 
ATOM     80  C   UNL     1      -6.066  14.694  -7.553  1.00  0.00     0.054 A 
BRANCH  80  81
ATOM     81  S   UNL     1      -7.705  14.648  -8.329  1.00  0.00     0.124 S 
ATOM     82  O   UNL     1      -8.330  15.851  -7.790  1.00  0.00    -0.237 OA
ATOM     83  O   UNL     1      -7.380  14.686  -9.753  1.00  0.00    -0.237 OA
ATOM     84  O   UNL     1      -8.270  13.384  -7.861  1.00  0.00    -0.744 OA
ENDBRANCH  80  81
ENDBRANCH  52  75
BRANCH  64  85
ATOM     85  C   UNL     1      -0.080  19.426  -2.510  1.00  0.00    -0.014 A 
ATOM     86  C   UNL     1      -1.083  19.617  -1.542  1.00  0.00     0.010 A 
ATOM     87  C   UNL     1       0.605  20.547  -3.015  1.00  0.00     0.010 A 
ATOM     88  C   UNL     1      -1.433  20.906  -1.133  1.00  0.00     0.020 A 
ATOM     89  C   UNL     1       0.283  21.835  -2.581  1.00  0.00     0.020 A 
ATOM     90  C   UNL     1      -0.752  22.008  -1.660  1.00  0.00     0.054 A 
BRANCH  90  91
ATOM     91  S   UNL     1      -1.223  23.670  -1.110  1.00  0.00     0.124 S 
ATOM     92  O   UNL     1      -2.508  23.857  -1.777  1.00  0.00    -0.237 OA
ATOM     93  O   UNL     1      -1.284  23.522   0.342  1.00  0.00    -0.237 OA
ATOM     94  O   UNL     1      -0.138  24.518  -1.599  1.00  0.00    -0.744 OA
ENDBRANCH  90  91
ENDBRANCH  64  85
ENDBRANCH  38  39
ENDBRANCH  30  33
ENDBRANCH  28  29
ENDBRANCH  27  28
ENDBRANCH  26  27
ENDBRANCH  25  26
ENDBRANCH   1  25
TORSDOF 21
