REMARK SMILES Cc1ccc(Cl)c(Nc2ccccc2C(=O)NCC(=O)NCCCCCCNC(=O)c2ccc(-c3c4nc(c(-c5ccc(S(=O)(=O)[O-])cc5)c5ccc([nH]5)c(-c5ccc(S(=O)(=O)[O-])cc5)c5nc(c(-c6ccc(S(=O)(=O)[O-])cc6)c6ccc3[nH]6)C=C5)C=C4)cc2)c1Cl
REMARK SMILES IDX 24 1 23 2 22 3 21 4 19 5 20 6 18 8 17 9 15 10 16 11 14 13
REMARK SMILES IDX 9 14 10 15 11 16 13 17 12 18 8 19 7 21 1 22 2 23 3 24 91 25
REMARK SMILES IDX 4 26 92 27 5 28 6 29 25 30 26 31 27 32 28 33 29 34 30 36
REMARK SMILES IDX 31 37 32 38 90 39 33 40 89 41 34 42 35 43 36 44 83 45 37 46
REMARK SMILES IDX 88 47 82 48 84 49 38 50 87 51 81 52 80 53 39 55 69 56 50 57
REMARK SMILES IDX 68 58 51 59 54 60 67 61 85 62 52 63 53 64 66 66 86 67 55 68
REMARK SMILES IDX 40 69 41 70 49 71 42 72 48 73 43 74 44 75 45 76 46 77 47 78
REMARK SMILES IDX 70 79 71 80 79 81 72 82 78 83 73 84 74 85 75 86 76 87 77 88
REMARK SMILES IDX 56 89 57 90 65 91 58 92 64 93 59 94 60 95 61 96 62 97 63 98
REMARK H PARENT 21 7 17 12 8 20 28 35 84 54 54 65
REMARK Flexibility Score: inf
ROOT
ATOM      1  C   UNL     1      -2.789  -4.078   4.688  1.00  0.00     0.002 C 
ENDROOT
BRANCH   1   2
ATOM      2  C   UNL     1      -1.490  -3.679   3.979  1.00  0.00     0.021 C 
BRANCH   2   3
ATOM      3  C   UNL     1      -1.701  -3.498   2.481  1.00  0.00     0.116 C 
BRANCH   3   4
ATOM      4  N   UNL     1      -2.572  -2.370   2.262  1.00  0.00    -0.355 N 
ATOM      5  C   UNL     1      -2.207  -1.060   2.254  1.00  0.00     0.239 C 
ATOM      6  O   UNL     1      -3.095  -0.204   2.290  1.00  0.00    -0.273 OA
ATOM      7  H   UNL     1      -3.523  -2.568   2.104  1.00  0.00     0.163 HD
BRANCH   5   8
ATOM      8  C   UNL     1      -0.770  -0.688   1.895  1.00  0.00     0.216 C 
BRANCH   8   9
ATOM      9  N   UNL     1       0.432  -1.256   2.462  1.00  0.00    -0.343 N 
ATOM     10  C   UNL     1       1.527  -1.830   1.848  1.00  0.00     0.253 C 
ATOM     11  O   UNL     1       2.605  -1.622   2.417  1.00  0.00    -0.269 OA
ATOM     12  H   UNL     1       0.477  -1.229   3.445  1.00  0.00     0.164 HD
BRANCH  10  13
ATOM     13  C   UNL     1       1.497  -2.858   0.741  1.00  0.00     0.063 A 
ATOM     14  C   UNL     1       0.786  -2.909  -0.483  1.00  0.00     0.051 A 
ATOM     15  C   UNL     1       0.900  -4.088  -1.271  1.00  0.00     0.027 A 
ATOM     16  C   UNL     1       1.734  -5.150  -0.929  1.00  0.00     0.002 A 
ATOM     17  C   UNL     1       2.348  -3.955   1.054  1.00  0.00     0.016 A 
ATOM     18  C   UNL     1       2.479  -5.074   0.231  1.00  0.00     0.001 A 
BRANCH  14  19
ATOM     19  N   UNL     1       0.067  -1.883  -1.133  1.00  0.00    -0.352 N 
ATOM     20  H   UNL     1      -0.701  -2.216  -1.651  1.00  0.00     0.167 HD
BRANCH  19  21
ATOM     21  C   UNL     1       0.215  -0.475  -1.199  1.00  0.00     0.077 A 
ATOM     22  C   UNL     1       2.686   2.250  -0.149  1.00  0.00     0.046 C 
ATOM     23  C   UNL     1       1.425   1.563  -0.594  1.00  0.00    -0.030 A 
ATOM     24  C   UNL     1       0.218   2.278  -0.602  1.00  0.00     0.006 A 
ATOM     25  C   UNL     1       1.424   0.198  -0.943  1.00  0.00     0.069 A 
ATOM     26  C   UNL     1      -0.967   1.663  -0.994  1.00  0.00     0.023 A 
ATOM     27  Cl  UNL     1       2.947  -0.615  -1.148  1.00  0.00    -0.082 Cl
ATOM     28  C   UNL     1      -0.965   0.305  -1.303  1.00  0.00     0.066 A 
ATOM     29  Cl  UNL     1      -2.490  -0.442  -1.666  1.00  0.00    -0.082 Cl
ENDBRANCH  19  21
ENDBRANCH  14  19
ENDBRANCH  10  13
ENDBRANCH   8   9
ENDBRANCH   5   8
ENDBRANCH   3   4
ENDBRANCH   2   3
ENDBRANCH   1   2
BRANCH   1  30
ATOM     30  C   UNL     1      -3.400  -5.381   4.162  1.00  0.00     0.002 C 
BRANCH  30  31
ATOM     31  C   UNL     1      -2.441  -6.572   4.201  1.00  0.00     0.021 C 
BRANCH  31  32
ATOM     32  C   UNL     1      -1.867  -6.843   5.586  1.00  0.00     0.116 C 
BRANCH  32  33
ATOM     33  N   UNL     1      -2.921  -7.119   6.548  1.00  0.00    -0.352 N 
ATOM     34  C   UNL     1      -3.048  -8.191   7.393  1.00  0.00     0.251 C 
ATOM     35  H   UNL     1      -3.639  -6.447   6.600  1.00  0.00     0.163 HD
ATOM     36  O   UNL     1      -4.108  -8.411   7.964  1.00  0.00    -0.269 OA
BRANCH  34  37
ATOM     37  C   UNL     1      -1.886  -9.078   7.590  1.00  0.00     0.039 A 
ATOM     38  C   UNL     1      -2.067 -10.459   7.523  1.00  0.00     0.014 A 
ATOM     39  C   UNL     1      -0.618  -8.533   7.819  1.00  0.00     0.014 A 
ATOM     40  C   UNL     1      -0.961 -11.299   7.645  1.00  0.00     0.010 A 
ATOM     41  C   UNL     1       0.491  -9.368   7.862  1.00  0.00     0.010 A 
ATOM     42  C   UNL     1       0.328 -10.759   7.789  1.00  0.00    -0.014 A 
BRANCH  42  43
ATOM     43  C   UNL     1       1.520 -11.635   7.873  1.00  0.00     0.031 A 
ATOM     44  C   UNL     1       2.351 -11.659   9.126  1.00  0.00     0.074 A 
ATOM     45  C   UNL     1       1.887 -12.360   6.799  1.00  0.00     0.049 A 
ATOM     46  N   UNL     1       3.447 -12.327   9.375  1.00  0.00    -0.248 NA
ATOM     47  C   UNL     1       1.908 -10.796  10.234  1.00  0.00     0.031 C 
ATOM     48  C   UNL     1       1.188 -12.380   5.512  1.00  0.00     0.029 A 
ATOM     49  N   UNL     1       2.945 -13.214   6.617  1.00  0.00    -0.354 N 
ATOM     50  C   UNL     1       3.832 -11.956  10.658  1.00  0.00     0.074 A 
ATOM     51  C   UNL     1       2.886 -10.961  11.111  1.00  0.00     0.031 C 
ATOM     52  C   UNL     1       1.820 -13.226   4.683  1.00  0.00     0.029 A 
ATOM     53  C   UNL     1       2.989 -13.775   5.364  1.00  0.00     0.049 A 
ATOM     54  H   UNL     1       3.608 -13.408   7.318  1.00  0.00     0.167 HD
ATOM     55  C   UNL     1       4.867 -12.417  11.399  1.00  0.00     0.031 A 
ATOM     56  C   UNL     1       3.875 -14.631   4.818  1.00  0.00     0.031 A 
ATOM     57  C   UNL     1       5.806 -13.405  10.938  1.00  0.00     0.049 A 
ATOM     58  C   UNL     1       5.021 -15.127   5.654  1.00  0.00     0.074 A 
ATOM     59  C   UNL     1       6.857 -13.982  11.628  1.00  0.00     0.029 A 
ATOM     60  N   UNL     1       5.811 -13.958   9.666  1.00  0.00    -0.354 N 
ATOM     61  N   UNL     1       5.328 -14.821   6.893  1.00  0.00    -0.248 NA
ATOM     62  C   UNL     1       5.931 -16.092   5.026  1.00  0.00     0.031 C 
ATOM     63  C   UNL     1       7.534 -14.840  10.754  1.00  0.00     0.029 A 
ATOM     64  C   UNL     1       6.864 -14.848   9.540  1.00  0.00     0.049 A 
ATOM     65  H   UNL     1       5.161 -13.748   8.956  1.00  0.00     0.167 HD
ATOM     66  C   UNL     1       6.455 -15.574   7.201  1.00  0.00     0.074 A 
ATOM     67  C   UNL     1       6.765 -16.360   6.022  1.00  0.00     0.031 C 
ATOM     68  C   UNL     1       7.166 -15.614   8.355  1.00  0.00     0.031 A 
BRANCH  55  69
ATOM     69  C   UNL     1       5.040 -11.835  12.779  1.00  0.00    -0.014 A 
ATOM     70  C   UNL     1       4.101 -12.082  13.798  1.00  0.00     0.010 A 
ATOM     71  C   UNL     1       6.159 -11.031  13.064  1.00  0.00     0.010 A 
ATOM     72  C   UNL     1       4.243 -11.485  15.054  1.00  0.00     0.020 A 
ATOM     73  C   UNL     1       6.322 -10.459  14.329  1.00  0.00     0.020 A 
ATOM     74  C   UNL     1       5.349 -10.670  15.308  1.00  0.00     0.054 A 
BRANCH  74  75
ATOM     75  S   UNL     1       5.503  -9.899  16.943  1.00  0.00     0.124 S 
ATOM     76  O   UNL     1       4.474  -8.864  16.885  1.00  0.00    -0.237 OA
ATOM     77  O   UNL     1       5.225 -11.011  17.849  1.00  0.00    -0.237 OA
ATOM     78  O   UNL     1       6.879  -9.409  16.967  1.00  0.00    -0.744 OA
ENDBRANCH  74  75
ENDBRANCH  55  69
BRANCH  56  79
ATOM     79  C   UNL     1       3.687 -15.081   3.413  1.00  0.00    -0.014 A 
ATOM     80  C   UNL     1       3.257 -16.389   3.132  1.00  0.00     0.010 A 
ATOM     81  C   UNL     1       3.880 -14.180   2.348  1.00  0.00     0.010 A 
ATOM     82  C   UNL     1       3.024 -16.790   1.813  1.00  0.00     0.020 A 
ATOM     83  C   UNL     1       3.622 -14.569   1.031  1.00  0.00     0.020 A 
ATOM     84  C   UNL     1       3.199 -15.873   0.771  1.00  0.00     0.054 A 
BRANCH  84  85
ATOM     85  S   UNL     1       2.804 -16.389  -0.923  1.00  0.00     0.124 S 
ATOM     86  O   UNL     1       3.911 -17.288  -1.234  1.00  0.00    -0.237 OA
ATOM     87  O   UNL     1       1.498 -17.023  -0.762  1.00  0.00    -0.237 OA
ATOM     88  O   UNL     1       2.789 -15.132  -1.668  1.00  0.00    -0.744 OA
ENDBRANCH  84  85
ENDBRANCH  56  79
BRANCH  68  89
ATOM     89  C   UNL     1       8.340 -16.557   8.413  1.00  0.00    -0.014 A 
ATOM     90  C   UNL     1       9.523 -16.296   7.699  1.00  0.00     0.010 A 
ATOM     91  C   UNL     1       8.275 -17.692   9.242  1.00  0.00     0.010 A 
ATOM     92  C   UNL     1      10.609 -17.171   7.790  1.00  0.00     0.020 A 
ATOM     93  C   UNL     1       9.370 -18.552   9.359  1.00  0.00     0.020 A 
ATOM     94  C   UNL     1      10.526 -18.293   8.620  1.00  0.00     0.054 A 
BRANCH  94  95
ATOM     95  S   UNL     1      11.966 -19.387   8.756  1.00  0.00     0.124 S 
ATOM     96  O   UNL     1      11.950 -20.070   7.465  1.00  0.00    -0.237 OA
ATOM     97  O   UNL     1      13.065 -18.447   8.956  1.00  0.00    -0.237 OA
ATOM     98  O   UNL     1      11.655 -20.228   9.909  1.00  0.00    -0.744 OA
ENDBRANCH  94  95
ENDBRANCH  68  89
ENDBRANCH  42  43
ENDBRANCH  34  37
ENDBRANCH  32  33
ENDBRANCH  31  32
ENDBRANCH  30  31
ENDBRANCH   1  30
TORSDOF 20
