REMARK SMILES Cc1ccccc1C(=O)Nc1ccc(OCC(=O)NCCCCCCNC(=O)c2ccc(-c3c4nc(c(-c5ccc(S(=O)(=O)[O-])cc5)c5ccc([nH]5)c(-c5ccc(S(=O)(=O)[O-])cc5)c5nc(c(-c6ccc(S(=O)(=O)[O-])cc6)c6ccc3[nH]6)C=C5)C=C4)cc2)c(-c2nc3ccccc3s2)c1
REMARK SMILES IDX 22 1 21 2 20 3 19 4 17 5 18 6 16 8 15 9 14 10 11 11 12 12
REMARK SMILES IDX 99 13 13 14 89 15 10 16 8 17 9 18 7 20 1 21 2 22 3 23 4 24
REMARK SMILES IDX 6 25 5 26 90 27 91 28 98 29 92 30 97 31 93 32 96 33 94 34
REMARK SMILES IDX 95 35 23 36 24 37 25 38 26 39 27 40 28 42 29 43 30 44 88 45
REMARK SMILES IDX 31 46 87 47 32 48 33 49 34 50 81 51 35 52 86 53 80 54 82 55
REMARK SMILES IDX 36 56 85 57 79 58 78 59 37 61 67 62 48 63 66 64 49 65 52 66
REMARK SMILES IDX 65 67 83 68 50 69 51 70 64 72 84 73 53 74 38 75 39 76 47 77
REMARK SMILES IDX 40 78 46 79 41 80 42 81 43 82 44 83 45 84 68 85 69 86 77 87
REMARK SMILES IDX 70 88 76 89 71 90 72 91 73 92 74 93 75 94 54 95 55 96 63 97
REMARK SMILES IDX 56 98 62 99 57 100 58 101 59 102 60 103 61 104
REMARK H PARENT 19 7 10 19 26 41 82 60 52 71
REMARK Flexibility Score: inf
ROOT
ATOM      1  C   UNL     1       2.606  -4.006   3.769  1.00  0.00     0.002 C 
ENDROOT
BRANCH   1   2
ATOM      2  C   UNL     1       3.987  -3.502   3.331  1.00  0.00     0.021 C 
BRANCH   2   3
ATOM      3  C   UNL     1       4.592  -4.186   2.109  1.00  0.00     0.116 C 
BRANCH   3   4
ATOM      4  N   UNL     1       3.724  -4.083   0.958  1.00  0.00    -0.353 N 
ATOM      5  C   UNL     1       3.976  -3.681  -0.314  1.00  0.00     0.257 C 
ATOM      6  O   UNL     1       3.021  -3.706  -1.092  1.00  0.00    -0.271 OA
ATOM      7  H   UNL     1       2.792  -4.350   1.125  1.00  0.00     0.163 HD
BRANCH   5   8
ATOM      8  C   UNL     1       5.408  -3.275  -0.750  1.00  0.00     0.329 C 
BRANCH   8   9
ATOM      9  O   UNL     1       5.673  -2.164  -1.606  1.00  0.00    -0.483 OA
BRANCH   9  10
ATOM     10  C   UNL     1       4.919  -1.060  -1.313  1.00  0.00     0.130 A 
ATOM     11  C   UNL     1       3.390   1.127  -0.503  1.00  0.00     0.042 A 
ATOM     12  C   UNL     1       4.624   0.886   0.099  1.00  0.00     0.030 A 
ATOM     13  C   UNL     1       2.996   0.356  -1.601  1.00  0.00     0.041 A 
ATOM     14  C   UNL     1       5.369  -0.230  -0.278  1.00  0.00     0.049 A 
ATOM     15  C   UNL     1       3.775  -0.727  -2.065  1.00  0.00     0.055 A 
BRANCH  11  16
ATOM     16  N   UNL     1       2.584   2.128   0.056  1.00  0.00    -0.322 N 
ATOM     17  C   UNL     1       1.214   2.208   0.184  1.00  0.00     0.255 C 
ATOM     18  O   UNL     1       0.709   3.300   0.451  1.00  0.00    -0.269 OA
ATOM     19  H   UNL     1       3.077   2.901   0.415  1.00  0.00     0.170 HD
BRANCH  17  20
ATOM     20  C   UNL     1       0.319   1.013   0.093  1.00  0.00     0.043 A 
ATOM     21  C   UNL     1       1.764  -0.576   1.531  1.00  0.00     0.045 C 
ATOM     22  C   UNL     1       0.574  -0.247   0.674  1.00  0.00    -0.038 A 
ATOM     23  C   UNL     1      -0.362  -1.283   0.486  1.00  0.00     0.004 A 
ATOM     24  C   UNL     1      -1.577  -1.051  -0.157  1.00  0.00     0.000 A 
ATOM     25  C   UNL     1      -0.928   1.240  -0.520  1.00  0.00     0.014 A 
ATOM     26  C   UNL     1      -1.873   0.219  -0.634  1.00  0.00     0.001 A 
ENDBRANCH  17  20
ENDBRANCH  11  16
BRANCH  15  27
ATOM     27  C   UNL     1       3.275  -1.468  -3.251  1.00  0.00     0.128 A 
ATOM     28  N   UNL     1       2.194  -1.117  -3.929  1.00  0.00    -0.236 NA
ATOM     29  S   UNL     1       4.037  -2.877  -3.897  1.00  0.00    -0.114 S 
ATOM     30  C   UNL     1       1.749  -2.185  -4.686  1.00  0.00     0.082 A 
ATOM     31  C   UNL     1       2.574  -3.307  -4.673  1.00  0.00     0.055 A 
ATOM     32  C   UNL     1       0.541  -2.248  -5.404  1.00  0.00     0.030 A 
ATOM     33  C   UNL     1       2.192  -4.529  -5.241  1.00  0.00     0.021 A 
ATOM     34  C   UNL     1       0.151  -3.456  -5.992  1.00  0.00     0.002 A 
ATOM     35  C   UNL     1       0.952  -4.590  -5.882  1.00  0.00     0.002 A 
ENDBRANCH  15  27
ENDBRANCH   9  10
ENDBRANCH   8   9
ENDBRANCH   5   8
ENDBRANCH   3   4
ENDBRANCH   2   3
ENDBRANCH   1   2
BRANCH   1  36
ATOM     36  C   UNL     1       2.439  -5.519   3.974  1.00  0.00     0.002 C 
BRANCH  36  37
ATOM     37  C   UNL     1       3.524  -6.236   4.778  1.00  0.00     0.021 C 
BRANCH  37  38
ATOM     38  C   UNL     1       3.775  -5.642   6.156  1.00  0.00     0.116 C 
BRANCH  38  39
ATOM     39  N   UNL     1       3.426  -6.529   7.250  1.00  0.00    -0.352 N 
ATOM     40  C   UNL     1       3.784  -6.377   8.585  1.00  0.00     0.251 C 
ATOM     41  H   UNL     1       2.880  -7.316   7.024  1.00  0.00     0.163 HD
ATOM     42  O   UNL     1       3.776  -7.278   9.384  1.00  0.00    -0.269 OA
BRANCH  40  43
ATOM     43  C   UNL     1       4.034  -4.981   9.021  1.00  0.00     0.039 A 
ATOM     44  C   UNL     1       3.046  -4.377   9.807  1.00  0.00     0.014 A 
ATOM     45  C   UNL     1       5.049  -4.232   8.435  1.00  0.00     0.014 A 
ATOM     46  C   UNL     1       2.986  -2.987   9.879  1.00  0.00     0.010 A 
ATOM     47  C   UNL     1       4.926  -2.857   8.420  1.00  0.00     0.010 A 
ATOM     48  C   UNL     1       3.877  -2.236   9.112  1.00  0.00    -0.014 A 
BRANCH  48  49
ATOM     49  C   UNL     1       3.772  -0.793   8.938  1.00  0.00     0.031 A 
ATOM     50  C   UNL     1       4.689   0.098   9.684  1.00  0.00     0.074 A 
ATOM     51  C   UNL     1       2.897  -0.268   8.050  1.00  0.00     0.049 A 
ATOM     52  N   UNL     1       4.429   1.328   9.980  1.00  0.00    -0.248 NA
ATOM     53  C   UNL     1       5.978  -0.357  10.197  1.00  0.00     0.031 C 
ATOM     54  C   UNL     1       2.870   1.109   7.562  1.00  0.00     0.029 A 
ATOM     55  N   UNL     1       1.710  -0.819   7.566  1.00  0.00    -0.354 N 
ATOM     56  C   UNL     1       5.600   1.894  10.430  1.00  0.00     0.074 A 
ATOM     57  C   UNL     1       6.511   0.790  10.624  1.00  0.00     0.031 C 
ATOM     58  C   UNL     1       1.628   1.387   7.136  1.00  0.00     0.029 A 
ATOM     59  C   UNL     1       0.795   0.243   7.469  1.00  0.00     0.049 A 
ATOM     60  H   UNL     1       1.546  -1.763   7.338  1.00  0.00     0.167 HD
ATOM     61  C   UNL     1       5.742   3.249  10.445  1.00  0.00     0.031 A 
ATOM     62  C   UNL     1      -0.387   0.302   8.149  1.00  0.00     0.031 A 
ATOM     63  C   UNL     1       4.523   3.929  10.021  1.00  0.00     0.049 A 
ATOM     64  C   UNL     1      -0.504   1.534   9.023  1.00  0.00     0.074 A 
ATOM     65  C   UNL     1       4.128   4.490   8.817  1.00  0.00     0.029 A 
ATOM     66  N   UNL     1       3.381   3.835  10.807  1.00  0.00    -0.354 N 
ATOM     67  N   UNL     1       0.508   2.284   9.362  1.00  0.00    -0.248 NA
ATOM     68  C   UNL     1      -1.756   1.992   9.620  1.00  0.00     0.031 C 
ATOM     69  C   UNL     1       2.722   4.666   8.857  1.00  0.00     0.029 A 
ATOM     70  C   UNL     1       2.270   4.238  10.092  1.00  0.00     0.049 A 
ATOM     71  H   UNL     1       3.366   3.524  11.741  1.00  0.00     0.167 HD
ATOM     72  C   UNL     1       0.083   3.291  10.191  1.00  0.00     0.074 A 
ATOM     73  C   UNL     1      -1.346   3.068  10.316  1.00  0.00     0.031 C 
ATOM     74  C   UNL     1       0.949   4.214  10.706  1.00  0.00     0.031 A 
BRANCH  61  75
ATOM     75  C   UNL     1       7.093   3.918  10.537  1.00  0.00    -0.014 A 
ATOM     76  C   UNL     1       7.338   5.096   9.803  1.00  0.00     0.010 A 
ATOM     77  C   UNL     1       8.174   3.405  11.279  1.00  0.00     0.010 A 
ATOM     78  C   UNL     1       8.614   5.668   9.720  1.00  0.00     0.020 A 
ATOM     79  C   UNL     1       9.467   3.944  11.175  1.00  0.00     0.020 A 
ATOM     80  C   UNL     1       9.681   5.069  10.384  1.00  0.00     0.054 A 
BRANCH  80  81
ATOM     81  S   UNL     1      11.342   5.765  10.180  1.00  0.00     0.124 S 
ATOM     82  O   UNL     1      11.496   5.794   8.727  1.00  0.00    -0.237 OA
ATOM     83  O   UNL     1      11.216   7.067  10.827  1.00  0.00    -0.237 OA
ATOM     84  O   UNL     1      12.205   4.807  10.869  1.00  0.00    -0.744 OA
ENDBRANCH  80  81
ENDBRANCH  61  75
BRANCH  62  85
ATOM     85  C   UNL     1      -0.982  -1.027   8.462  1.00  0.00    -0.014 A 
ATOM     86  C   UNL     1      -1.502  -1.776   7.386  1.00  0.00     0.010 A 
ATOM     87  C   UNL     1      -0.630  -1.694   9.649  1.00  0.00     0.010 A 
ATOM     88  C   UNL     1      -1.496  -3.174   7.424  1.00  0.00     0.020 A 
ATOM     89  C   UNL     1      -0.627  -3.097   9.689  1.00  0.00     0.020 A 
ATOM     90  C   UNL     1      -0.991  -3.823   8.550  1.00  0.00     0.054 A 
BRANCH  90  91
ATOM     91  S   UNL     1      -0.647  -5.605   8.433  1.00  0.00     0.124 S 
ATOM     92  O   UNL     1      -1.950  -6.154   8.073  1.00  0.00    -0.237 OA
ATOM     93  O   UNL     1       0.369  -5.656   7.380  1.00  0.00    -0.237 OA
ATOM     94  O   UNL     1      -0.167  -5.944   9.769  1.00  0.00    -0.744 OA
ENDBRANCH  90  91
ENDBRANCH  62  85
BRANCH  74  95
ATOM     95  C   UNL     1       0.646   5.244  11.772  1.00  0.00    -0.014 A 
ATOM     96  C   UNL     1      -0.426   5.165  12.673  1.00  0.00     0.010 A 
ATOM     97  C   UNL     1       1.565   6.307  11.969  1.00  0.00     0.010 A 
ATOM     98  C   UNL     1      -0.604   6.126  13.682  1.00  0.00     0.020 A 
ATOM     99  C   UNL     1       1.423   7.242  12.997  1.00  0.00     0.020 A 
ATOM    100  C   UNL     1       0.321   7.160  13.836  1.00  0.00     0.054 A 
BRANCH 100 101
ATOM    101  S   UNL     1       0.120   8.353  15.183  1.00  0.00     0.124 S 
ATOM    102  O   UNL     1      -0.762   9.347  14.577  1.00  0.00    -0.237 OA
ATOM    103  O   UNL     1      -0.481   7.549  16.246  1.00  0.00    -0.237 OA
ATOM    104  O   UNL     1       1.484   8.802  15.449  1.00  0.00    -0.744 OA
ENDBRANCH 100 101
ENDBRANCH  74  95
ENDBRANCH  48  49
ENDBRANCH  40  43
ENDBRANCH  38  39
ENDBRANCH  37  38
ENDBRANCH  36  37
ENDBRANCH   1  36
TORSDOF 21
