REMARK SMILES COC(=O)[C@H]1CC[C@]2(C)[C@H](CC[C@]3(C)[C@H]2CC=C2[C@H]4CC(C)(C)CC[C@]4(C(=O)NCCCCCCNC(=O)c4ccc(-c5c6nc(c(-c7ccc(S(=O)(=O)[O-])cc7)c7ccc([nH]7)c(-c7ccc(S(=O)(=O)[O-])cc7)c7nc(c(-c8ccc(S(=O)(=O)[O-])cc8)c8ccc5[nH]8)C=C7)C=C6)cc4)CC[C@@]23C)C1(C)C
REMARK SMILES IDX 33 1 32 2 31 3 30 4 29 5 27 6 28 7 26 9 5 10 6 11 103 12
REMARK SMILES IDX 7 13 10 14 104 15 105 16 8 17 11 18 15 19 9 20 12 21 16 22
REMARK SMILES IDX 13 23 17 24 101 25 14 26 18 27 100 28 102 29 19 30 99 31
REMARK SMILES IDX 20 32 21 33 25 34 24 35 22 36 23 37 3 38 4 39 2 40 1 41
REMARK SMILES IDX 34 42 35 43 36 44 37 45 38 47 39 48 40 49 98 50 41 51 97 52
REMARK SMILES IDX 42 53 43 54 44 55 91 56 45 57 96 58 90 59 92 60 46 61 95 62
REMARK SMILES IDX 89 63 88 64 47 66 77 67 58 68 76 69 59 70 62 71 75 72 93 73
REMARK SMILES IDX 60 74 61 75 74 77 94 78 63 79 48 80 49 81 57 82 50 83 56 84
REMARK SMILES IDX 51 85 52 86 53 87 54 88 55 89 78 90 79 91 87 92 80 93 86 94
REMARK SMILES IDX 81 95 82 96 83 97 84 98 85 99 64 100 65 101 73 102 66 103
REMARK SMILES IDX 72 104 67 105 68 106 69 107 70 108 71 109
REMARK H PARENT 29 8 36 46 92 65 62 76
REMARK Flexibility Score: inf
ROOT
ATOM      1  C   UNL     1      -0.696   3.490  -0.082  1.00  0.00     0.002 C 
ENDROOT
BRANCH   1   2
ATOM      2  C   UNL     1      -1.536   4.389  -1.129  1.00  0.00     0.002 C 
BRANCH   2   3
ATOM      3  C   UNL     1      -2.946   3.862  -1.606  1.00  0.00     0.021 C 
BRANCH   3   4
ATOM      4  C   UNL     1      -3.917   4.227  -2.873  1.00  0.00     0.116 C 
BRANCH   4   5
ATOM      5  N   UNL     1      -4.862   5.273  -3.526  1.00  0.00    -0.356 N 
ATOM      6  C   UNL     1      -5.580   5.396  -4.830  1.00  0.00     0.226 C 
ATOM      7  O   UNL     1      -6.437   6.296  -4.860  1.00  0.00    -0.274 OA
ATOM      8  H   UNL     1      -5.028   6.043  -2.936  1.00  0.00     0.163 HD
BRANCH   6   9
ATOM      9  C   UNL     1      -5.381   4.477  -6.307  1.00  0.00     0.056 C 
ATOM     10  C   UNL     1       1.192   1.025  -4.495  1.00  0.00     0.105 C 
ATOM     11  C   UNL     1       1.766   2.431  -4.197  1.00  0.00     0.016 C 
ATOM     12  C   UNL     1      -0.216   0.935  -5.185  1.00  0.00    -0.019 C 
ATOM     13  C   UNL     1       1.444   3.559  -5.170  1.00  0.00     0.008 C 
ATOM     14  C   UNL     1      -0.292   2.176  -6.234  1.00  0.00     0.002 C 
ATOM     15  C   UNL     1      -1.258   0.765  -4.024  1.00  0.00     0.012 C 
ATOM     16  C   UNL     1      -0.469  -0.402  -5.940  1.00  0.00     0.012 C 
ATOM     17  C   UNL     1      -0.046   3.569  -5.576  1.00  0.00    -0.026 C 
ATOM     18  C   UNL     1      -1.500   2.167  -7.152  1.00  0.00     0.005 C 
ATOM     19  C   UNL     1      -0.336   4.913  -6.436  1.00  0.00     0.006 C 
ATOM     20  C   UNL     1      -0.878   3.594  -4.308  1.00  0.00     0.012 C 
ATOM     21  C   UNL     1      -1.521   3.307  -8.179  1.00  0.00     0.008 C 
ATOM     22  C   UNL     1      -0.880   6.074  -5.465  1.00  0.00     0.032 C 
ATOM     23  C   UNL     1      -1.283   4.791  -7.754  1.00  0.00    -0.020 C 
ATOM     24  C   UNL     1      -2.384   5.836  -5.180  1.00  0.00    -0.027 C 
ATOM     25  C   UNL     1      -2.627   5.634  -7.476  1.00  0.00    -0.006 C 
ATOM     26  C   UNL     1      -0.503   5.407  -8.961  1.00  0.00     0.012 C 
ATOM     27  C   UNL     1      -3.021   5.069  -6.095  1.00  0.00    -0.064 C 
ATOM     28  C   UNL     1      -3.909   5.663  -8.328  1.00  0.00     0.013 C 
ATOM     29  C   UNL     1      -2.293   7.221  -7.587  1.00  0.00     0.017 C 
ATOM     30  C   UNL     1      -4.087   3.808  -6.096  1.00  0.00     0.031 C 
ATOM     31  C   UNL     1      -5.250   5.218  -7.718  1.00  0.00     0.018 C 
ATOM     32  C   UNL     1      -4.507   2.666  -5.048  1.00  0.00     0.015 C 
ATOM     33  C   UNL     1      -5.461   1.496  -5.387  1.00  0.00    -0.035 C 
ATOM     34  C   UNL     1      -6.480   3.400  -6.763  1.00  0.00     0.018 C 
ATOM     35  C   UNL     1      -6.678   2.033  -6.134  1.00  0.00     0.007 C 
ATOM     36  C   UNL     1      -6.031   0.851  -4.080  1.00  0.00     0.011 C 
ATOM     37  C   UNL     1      -4.684   0.402  -6.124  1.00  0.00     0.011 C 
BRANCH  10  38
ATOM     38  C   UNL     1       2.193   0.200  -5.257  1.00  0.00     0.309 C 
ATOM     39  O   UNL     1       2.515   0.393  -6.429  1.00  0.00    -0.252 OA
BRANCH  38  40
ATOM     40  O   UNL     1       2.540  -0.863  -4.490  1.00  0.00    -0.469 OA
ATOM     41  C   UNL     1       2.915  -2.040  -5.198  1.00  0.00     0.282 C 
ENDBRANCH  38  40
ENDBRANCH  10  38
ENDBRANCH   6   9
ENDBRANCH   4   5
ENDBRANCH   3   4
ENDBRANCH   2   3
ENDBRANCH   1   2
BRANCH   1  42
ATOM     42  C   UNL     1      -0.213   2.015  -0.323  1.00  0.00     0.021 C 
BRANCH  42  43
ATOM     43  C   UNL     1       1.259   1.627  -0.678  1.00  0.00     0.116 C 
BRANCH  43  44
ATOM     44  N   UNL     1       2.327   2.013   0.226  1.00  0.00    -0.352 N 
ATOM     45  C   UNL     1       3.567   1.414   0.396  1.00  0.00     0.251 C 
ATOM     46  H   UNL     1       2.150   2.800   0.790  1.00  0.00     0.163 HD
ATOM     47  O   UNL     1       4.429   1.974   1.069  1.00  0.00    -0.269 OA
BRANCH  45  48
ATOM     48  C   UNL     1       3.878   0.083  -0.190  1.00  0.00     0.039 A 
ATOM     49  C   UNL     1       3.962  -1.026   0.658  1.00  0.00     0.014 A 
ATOM     50  C   UNL     1       4.220  -0.067  -1.534  1.00  0.00     0.014 A 
ATOM     51  C   UNL     1       4.322  -2.288   0.152  1.00  0.00     0.010 A 
ATOM     52  C   UNL     1       4.555  -1.341  -2.038  1.00  0.00     0.010 A 
ATOM     53  C   UNL     1       4.598  -2.480  -1.214  1.00  0.00    -0.014 A 
BRANCH  53  54
ATOM     54  C   UNL     1       4.936  -3.853  -1.738  1.00  0.00     0.031 A 
ATOM     55  C   UNL     1       6.258  -4.140  -2.422  1.00  0.00     0.074 A 
ATOM     56  C   UNL     1       4.058  -4.875  -1.599  1.00  0.00     0.049 A 
ATOM     57  N   UNL     1       6.736  -5.285  -2.852  1.00  0.00    -0.248 NA
ATOM     58  C   UNL     1       7.144  -2.997  -2.682  1.00  0.00     0.031 C 
ATOM     59  C   UNL     1       2.715  -4.764  -1.027  1.00  0.00     0.029 A 
ATOM     60  N   UNL     1       4.166  -6.216  -1.908  1.00  0.00    -0.354 N 
ATOM     61  C   UNL     1       7.969  -4.997  -3.433  1.00  0.00     0.074 A 
ATOM     62  C   UNL     1       8.129  -3.561  -3.367  1.00  0.00     0.031 C 
ATOM     63  C   UNL     1       2.153  -5.983  -0.967  1.00  0.00     0.029 A 
ATOM     64  C   UNL     1       3.073  -6.968  -1.530  1.00  0.00     0.049 A 
ATOM     65  H   UNL     1       4.953  -6.601  -2.357  1.00  0.00     0.167 HD
ATOM     66  C   UNL     1       8.904  -5.838  -3.944  1.00  0.00     0.031 A 
ATOM     67  C   UNL     1       2.831  -8.295  -1.608  1.00  0.00     0.031 A 
ATOM     68  C   UNL     1       8.771  -7.271  -3.999  1.00  0.00     0.049 A 
ATOM     69  C   UNL     1       3.883  -9.214  -2.176  1.00  0.00     0.074 A 
ATOM     70  C   UNL     1       9.697  -8.205  -4.436  1.00  0.00     0.029 A 
ATOM     71  N   UNL     1       7.646  -7.981  -3.612  1.00  0.00    -0.354 N 
ATOM     72  N   UNL     1       5.079  -8.920  -2.626  1.00  0.00    -0.248 NA
ATOM     73  C   UNL     1       3.557 -10.648  -2.235  1.00  0.00     0.031 C 
ATOM     74  C   UNL     1       9.109  -9.472  -4.373  1.00  0.00     0.029 A 
ATOM     75  C   UNL     1       7.842  -9.336  -3.829  1.00  0.00     0.049 A 
ATOM     76  H   UNL     1       6.828  -7.582  -3.238  1.00  0.00     0.167 HD
ATOM     77  C   UNL     1       5.656 -10.133  -2.994  1.00  0.00     0.074 A 
ATOM     78  C   UNL     1       4.688 -11.166  -2.695  1.00  0.00     0.031 C 
ATOM     79  C   UNL     1       6.878 -10.366  -3.532  1.00  0.00     0.031 A 
BRANCH  66  80
ATOM     80  C   UNL     1      10.177  -5.227  -4.484  1.00  0.00    -0.014 A 
ATOM     81  C   UNL     1      11.105  -4.606  -3.627  1.00  0.00     0.010 A 
ATOM     82  C   UNL     1      10.473  -5.315  -5.857  1.00  0.00     0.010 A 
ATOM     83  C   UNL     1      12.275  -4.038  -4.138  1.00  0.00     0.020 A 
ATOM     84  C   UNL     1      11.660  -4.779  -6.368  1.00  0.00     0.020 A 
ATOM     85  C   UNL     1      12.544  -4.125  -5.507  1.00  0.00     0.054 A 
BRANCH  85  86
ATOM     86  S   UNL     1      14.078  -3.391  -6.138  1.00  0.00     0.124 S 
ATOM     87  O   UNL     1      13.803  -1.962  -6.009  1.00  0.00    -0.237 OA
ATOM     88  O   UNL     1      15.085  -3.922  -5.222  1.00  0.00    -0.237 OA
ATOM     89  O   UNL     1      14.164  -3.887  -7.509  1.00  0.00    -0.744 OA
ENDBRANCH  85  86
ENDBRANCH  66  80
BRANCH  67  90
ATOM     90  C   UNL     1       1.536  -8.855  -1.115  1.00  0.00    -0.014 A 
ATOM     91  C   UNL     1       1.493  -9.693   0.016  1.00  0.00     0.010 A 
ATOM     92  C   UNL     1       0.334  -8.566  -1.788  1.00  0.00     0.010 A 
ATOM     93  C   UNL     1       0.281 -10.243   0.451  1.00  0.00     0.020 A 
ATOM     94  C   UNL     1      -0.883  -9.086  -1.337  1.00  0.00     0.020 A 
ATOM     95  C   UNL     1      -0.901  -9.931  -0.226  1.00  0.00     0.054 A 
BRANCH  95  96
ATOM     96  S   UNL     1      -2.468 -10.612   0.386  1.00  0.00     0.124 S 
ATOM     97  O   UNL     1      -2.344 -12.024   0.039  1.00  0.00    -0.237 OA
ATOM     98  O   UNL     1      -2.409 -10.302   1.813  1.00  0.00    -0.237 OA
ATOM     99  O   UNL     1      -3.479  -9.869  -0.363  1.00  0.00    -0.744 OA
ENDBRANCH  95  96
ENDBRANCH  67  90
BRANCH  79 100
ATOM    100  C   UNL     1       7.266 -11.797  -3.811  1.00  0.00    -0.014 A 
ATOM    101  C   UNL     1       6.657 -12.533  -4.843  1.00  0.00     0.010 A 
ATOM    102  C   UNL     1       8.304 -12.393  -3.071  1.00  0.00     0.010 A 
ATOM    103  C   UNL     1       7.057 -13.847  -5.107  1.00  0.00     0.020 A 
ATOM    104  C   UNL     1       8.729 -13.694  -3.353  1.00  0.00     0.020 A 
ATOM    105  C   UNL     1       8.093 -14.418  -4.362  1.00  0.00     0.054 A 
BRANCH 105 106
ATOM    106  S   UNL     1       8.625 -16.107  -4.759  1.00  0.00     0.124 S 
ATOM    107  O   UNL     1       7.498 -16.902  -4.279  1.00  0.00    -0.237 OA
ATOM    108  O   UNL     1       8.787 -16.057  -6.210  1.00  0.00    -0.237 OA
ATOM    109  O   UNL     1       9.866 -16.267  -4.005  1.00  0.00    -0.744 OA
ENDBRANCH 105 106
ENDBRANCH  79 100
ENDBRANCH  53  54
ENDBRANCH  45  48
ENDBRANCH  43  44
ENDBRANCH  42  43
ENDBRANCH   1  42
TORSDOF 18
