REMARK SMILES O=C(NCCCCCCNC(=O)[C@@H]1CN(c2cccc(Cl)c2)CCO1)c1ccc(-c2c3nc(c(-c4ccc(S(=O)(=O)[O-])cc4)c4ccc([nH]4)c(-c4ccc(S(=O)(=O)[O-])cc4)c4nc(c(-c5ccc(S(=O)(=O)[O-])cc5)c5ccc2[nH]5)C=C4)C=C3)cc1
REMARK SMILES IDX 5 1 4 2 3 3 1 4 2 5 26 7 27 8 85 9 28 10 84 11 29 12 30 13
REMARK SMILES IDX 31 14 78 15 32 16 83 17 77 18 79 19 33 20 82 21 76 22 75 23
REMARK SMILES IDX 34 25 64 26 45 27 63 28 46 29 49 30 62 31 80 32 47 33 48 34
REMARK SMILES IDX 61 36 81 37 50 38 35 39 36 40 44 41 37 42 43 43 38 44 39 45
REMARK SMILES IDX 40 46 41 47 42 48 65 49 66 50 74 51 67 52 73 53 68 54 69 55
REMARK SMILES IDX 70 56 71 57 72 58 51 59 52 60 60 61 53 62 59 63 54 64 55 65
REMARK SMILES IDX 56 66 57 67 58 68 6 69 7 70 8 71 9 72 10 73 11 74 12 76
REMARK SMILES IDX 13 77 14 78 25 79 15 80 24 81 23 82 16 83 17 84 22 85 18 86
REMARK SMILES IDX 20 87 19 88 21 89
REMARK H PARENT 3 6 79 24 49 35 10 75
REMARK Flexibility Score: inf
ROOT
ATOM      1  C   UNL     1       4.450   1.599  -2.226  1.00  0.00     0.021 C 
ENDROOT
BRANCH   1   2
ATOM      2  C   UNL     1       4.352   1.115  -0.786  1.00  0.00     0.116 C 
BRANCH   2   3
ATOM      3  N   UNL     1       2.973   0.971  -0.352  1.00  0.00    -0.352 N 
ATOM      4  O   UNL     1       1.124  -0.145   0.296  1.00  0.00    -0.269 OA
ATOM      5  C   UNL     1       2.346  -0.133   0.172  1.00  0.00     0.251 C 
ATOM      6  H   UNL     1       2.411   1.774  -0.448  1.00  0.00     0.163 HD
BRANCH   5   7
ATOM      7  C   UNL     1       3.149  -1.308   0.575  1.00  0.00     0.039 A 
ATOM      8  C   UNL     1       4.334  -1.142   1.296  1.00  0.00     0.014 A 
ATOM      9  C   UNL     1       2.699  -2.591   0.249  1.00  0.00     0.014 A 
ATOM     10  C   UNL     1       5.125  -2.246   1.589  1.00  0.00     0.010 A 
ATOM     11  C   UNL     1       3.457  -3.708   0.618  1.00  0.00     0.010 A 
ATOM     12  C   UNL     1       4.683  -3.543   1.278  1.00  0.00    -0.014 A 
BRANCH  12  13
ATOM     13  C   UNL     1       5.478  -4.702   1.754  1.00  0.00     0.031 A 
ATOM     14  C   UNL     1       6.162  -5.636   0.795  1.00  0.00     0.074 A 
ATOM     15  C   UNL     1       5.611  -4.875   3.085  1.00  0.00     0.049 A 
ATOM     16  N   UNL     1       6.934  -6.659   1.060  1.00  0.00    -0.248 NA
ATOM     17  C   UNL     1       5.953  -5.400  -0.642  1.00  0.00     0.031 C 
ATOM     18  C   UNL     1       4.976  -4.038   4.109  1.00  0.00     0.029 A 
ATOM     19  N   UNL     1       6.338  -5.785   3.807  1.00  0.00    -0.354 N 
ATOM     20  C   UNL     1       7.295  -7.196  -0.170  1.00  0.00     0.074 A 
ATOM     21  C   UNL     1       6.638  -6.399  -1.185  1.00  0.00     0.031 C 
ATOM     22  C   UNL     1       5.389  -4.436   5.321  1.00  0.00     0.029 A 
ATOM     23  C   UNL     1       6.263  -5.592   5.166  1.00  0.00     0.049 A 
ATOM     24  H   UNL     1       6.864  -6.506   3.392  1.00  0.00     0.167 HD
ATOM     25  C   UNL     1       8.104  -8.252  -0.426  1.00  0.00     0.031 A 
ATOM     26  C   UNL     1       6.822  -6.276   6.181  1.00  0.00     0.031 A 
ATOM     27  C   UNL     1       8.751  -9.043   0.591  1.00  0.00     0.049 A 
ATOM     28  C   UNL     1       7.699  -7.451   5.864  1.00  0.00     0.074 A 
ATOM     29  C   UNL     1       9.600 -10.125   0.430  1.00  0.00     0.029 A 
ATOM     30  N   UNL     1       8.621  -8.839   1.957  1.00  0.00    -0.354 N 
ATOM     31  N   UNL     1       8.045  -7.926   4.691  1.00  0.00    -0.248 NA
ATOM     32  C   UNL     1       8.261  -8.182   7.007  1.00  0.00     0.031 C 
ATOM     33  C   UNL     1       9.949 -10.601   1.699  1.00  0.00     0.029 A 
ATOM     34  C   UNL     1       9.359  -9.785   2.650  1.00  0.00     0.049 A 
ATOM     35  H   UNL     1       8.084  -8.126   2.373  1.00  0.00     0.167 HD
ATOM     36  C   UNL     1       8.870  -9.012   4.955  1.00  0.00     0.074 A 
ATOM     37  C   UNL     1       8.998  -9.100   6.396  1.00  0.00     0.031 C 
ATOM     38  C   UNL     1       9.461  -9.865   4.084  1.00  0.00     0.031 A 
BRANCH  25  39
ATOM     39  C   UNL     1       8.332  -8.632  -1.866  1.00  0.00    -0.014 A 
ATOM     40  C   UNL     1       9.162  -7.859  -2.696  1.00  0.00     0.010 A 
ATOM     41  C   UNL     1       7.772  -9.820  -2.374  1.00  0.00     0.010 A 
ATOM     42  C   UNL     1       9.411  -8.254  -4.014  1.00  0.00     0.020 A 
ATOM     43  C   UNL     1       8.036 -10.229  -3.685  1.00  0.00     0.020 A 
ATOM     44  C   UNL     1       8.846  -9.437  -4.501  1.00  0.00     0.054 A 
BRANCH  44  45
ATOM     45  S   UNL     1       9.222  -9.947  -6.201  1.00  0.00     0.124 S 
ATOM     46  O   UNL     1       8.432  -8.998  -6.981  1.00  0.00    -0.237 OA
ATOM     47  O   UNL     1      10.670  -9.769  -6.277  1.00  0.00    -0.237 OA
ATOM     48  O   UNL     1       8.764 -11.333  -6.258  1.00  0.00    -0.744 OA
ENDBRANCH  44  45
ENDBRANCH  25  39
BRANCH  26  49
ATOM     49  C   UNL     1       6.544  -5.878   7.586  1.00  0.00    -0.014 A 
ATOM     50  C   UNL     1       7.552  -5.323   8.392  1.00  0.00     0.010 A 
ATOM     51  C   UNL     1       5.253  -6.047   8.122  1.00  0.00     0.010 A 
ATOM     52  C   UNL     1       7.282  -4.966   9.716  1.00  0.00     0.020 A 
ATOM     53  C   UNL     1       4.972  -5.664   9.435  1.00  0.00     0.020 A 
ATOM     54  C   UNL     1       5.993  -5.141  10.229  1.00  0.00     0.054 A 
BRANCH  54  55
ATOM     55  S   UNL     1       5.649  -4.639  11.938  1.00  0.00     0.124 S 
ATOM     56  O   UNL     1       6.220  -5.746  12.698  1.00  0.00    -0.237 OA
ATOM     57  O   UNL     1       6.357  -3.365  12.045  1.00  0.00    -0.237 OA
ATOM     58  O   UNL     1       4.192  -4.536  11.975  1.00  0.00    -0.744 OA
ENDBRANCH  54  55
ENDBRANCH  26  49
BRANCH  38  59
ATOM     59  C   UNL     1      10.307 -10.958   4.677  1.00  0.00    -0.014 A 
ATOM     60  C   UNL     1       9.717 -12.050   5.340  1.00  0.00     0.010 A 
ATOM     61  C   UNL     1      11.707 -10.897   4.562  1.00  0.00     0.010 A 
ATOM     62  C   UNL     1      10.516 -13.039   5.917  1.00  0.00     0.020 A 
ATOM     63  C   UNL     1      12.508 -11.899   5.115  1.00  0.00     0.020 A 
ATOM     64  C   UNL     1      11.907 -12.953   5.807  1.00  0.00     0.054 A 
BRANCH  64  65
ATOM     65  S   UNL     1      12.926 -14.255   6.552  1.00  0.00     0.124 S 
ATOM     66  O   UNL     1      12.874 -13.906   7.969  1.00  0.00    -0.237 OA
ATOM     67  O   UNL     1      12.214 -15.475   6.179  1.00  0.00    -0.237 OA
ATOM     68  O   UNL     1      14.229 -14.082   5.914  1.00  0.00    -0.744 OA
ENDBRANCH  64  65
ENDBRANCH  38  59
ENDBRANCH  12  13
ENDBRANCH   5   7
ENDBRANCH   2   3
ENDBRANCH   1   2
BRANCH   1  69
ATOM     69  C   UNL     1       3.945   3.026  -2.453  1.00  0.00     0.002 C 
BRANCH  69  70
ATOM     70  C   UNL     1       4.653   4.116  -1.636  1.00  0.00     0.002 C 
BRANCH  70  71
ATOM     71  C   UNL     1       6.186   4.073  -1.664  1.00  0.00     0.021 C 
BRANCH  71  72
ATOM     72  C   UNL     1       6.780   4.142  -3.068  1.00  0.00     0.116 C 
BRANCH  72  73
ATOM     73  N   UNL     1       6.803   5.501  -3.575  1.00  0.00    -0.354 N 
ATOM     74  C   UNL     1       7.771   6.420  -3.815  1.00  0.00     0.250 C 
ATOM     75  H   UNL     1       5.904   5.835  -3.796  1.00  0.00     0.163 HD
ATOM     76  O   UNL     1       7.354   7.510  -4.240  1.00  0.00    -0.272 OA
BRANCH  74  77
ATOM     77  C   UNL     1       9.288   6.234  -3.603  1.00  0.00     0.226 C 
ATOM     78  C   UNL     1       9.820   4.814  -3.441  1.00  0.00     0.158 C 
ATOM     79  O   UNL     1       9.759   7.054  -2.509  1.00  0.00    -0.365 OA
ATOM     80  N   UNL     1      11.296   4.832  -3.402  1.00  0.00    -0.366 N 
ATOM     81  C   UNL     1      11.202   7.109  -2.514  1.00  0.00     0.182 C 
ATOM     82  C   UNL     1      11.833   5.710  -2.353  1.00  0.00     0.145 C 
BRANCH  80  83
ATOM     83  C   UNL     1      11.920   3.651  -3.771  1.00  0.00     0.038 A 
ATOM     84  C   UNL     1      11.802   3.209  -5.100  1.00  0.00     0.026 A 
ATOM     85  C   UNL     1      12.645   2.854  -2.880  1.00  0.00     0.046 A 
ATOM     86  C   UNL     1      12.377   2.013  -5.532  1.00  0.00     0.004 A 
ATOM     87  C   UNL     1      13.214   1.650  -3.308  1.00  0.00     0.043 A 
ATOM     88  C   UNL     1      13.083   1.226  -4.629  1.00  0.00     0.020 A 
ATOM     89  Cl  UNL     1      14.079   0.671  -2.187  1.00  0.00    -0.084 Cl
ENDBRANCH  80  83
ENDBRANCH  74  77
ENDBRANCH  72  73
ENDBRANCH  71  72
ENDBRANCH  70  71
ENDBRANCH  69  70
ENDBRANCH   1  69
TORSDOF 17
