REMARK SMILES CC1(C)C[C@@H]1n1c(SCC(=O)NCCCCCCNC(=O)c2ccc(-c3c4nc(c(-c5ccc(S(=O)(=O)[O-])cc5)c5ccc([nH]5)c(-c5ccc(S(=O)(=O)[O-])cc5)c5nc(c(-c6ccc(S(=O)(=O)[O-])cc6)c6ccc3[nH]6)C=C5)C=C4)cc2)nc2cc(Cl)c(Cl)cc21
REMARK SMILES IDX 15 1 14 2 13 3 12 4 10 5 11 6 9 8 8 9 7 10 6 11 90 12 82 13
REMARK SMILES IDX 83 14 89 15 84 16 87 17 85 18 88 19 86 20 5 21 1 22 2 23
REMARK SMILES IDX 3 24 4 25 16 26 17 27 18 28 19 29 20 30 21 32 22 33 23 34
REMARK SMILES IDX 81 35 24 36 80 37 25 38 26 39 27 40 74 41 28 42 79 43 73 44
REMARK SMILES IDX 75 45 29 46 78 47 72 48 71 49 30 51 60 52 41 53 59 54 42 55
REMARK SMILES IDX 45 56 58 57 76 58 43 59 44 60 57 62 77 63 46 64 31 65 32 66
REMARK SMILES IDX 40 67 33 68 39 69 34 70 35 71 36 72 37 73 38 74 61 75 62 76
REMARK SMILES IDX 70 77 63 78 69 79 64 80 65 81 66 82 67 83 68 84 47 85 48 86
REMARK SMILES IDX 56 87 49 88 55 89 50 90 51 91 52 92 53 93 54 94
REMARK H PARENT 12 7 19 31 75 50 45 61
REMARK Flexibility Score: inf
ROOT
ATOM      1  C   UNL     1      -2.724   3.920  -3.068  1.00  0.00     0.002 C 
ENDROOT
BRANCH   1   2
ATOM      2  C   UNL     1      -3.735   3.379  -2.049  1.00  0.00     0.021 C 
BRANCH   2   3
ATOM      3  C   UNL     1      -4.371   2.036  -2.405  1.00  0.00     0.116 C 
BRANCH   3   4
ATOM      4  N   UNL     1      -3.406   0.963  -2.516  1.00  0.00    -0.355 N 
ATOM      5  C   UNL     1      -3.293  -0.189  -1.810  1.00  0.00     0.230 C 
ATOM      6  O   UNL     1      -2.721  -1.125  -2.387  1.00  0.00    -0.274 OA
ATOM      7  H   UNL     1      -2.725   1.089  -3.216  1.00  0.00     0.163 HD
BRANCH   5   8
ATOM      8  C   UNL     1      -3.844  -0.422  -0.414  1.00  0.00     0.178 C 
BRANCH   8   9
ATOM      9  S   UNL     1      -4.051   0.967   0.674  1.00  0.00    -0.078 SA
BRANCH   9  10
ATOM     10  C   UNL     1      -2.652   1.409   1.581  1.00  0.00     0.169 A 
ATOM     11  N   UNL     1      -1.367   0.912   1.630  1.00  0.00    -0.315 N 
ATOM     12  C   UNL     1      -0.693   1.572   2.645  1.00  0.00     0.071 A 
ATOM     13  N   UNL     1      -2.776   2.427   2.415  1.00  0.00    -0.222 NA
ATOM     14  C   UNL     1      -1.584   2.550   3.063  1.00  0.00     0.091 A 
ATOM     15  C   UNL     1       0.583   1.438   3.215  1.00  0.00     0.050 A 
ATOM     16  C   UNL     1      -1.200   3.481   4.039  1.00  0.00     0.052 A 
ATOM     17  C   UNL     1       0.969   2.388   4.173  1.00  0.00     0.061 A 
ATOM     18  C   UNL     1       0.090   3.402   4.576  1.00  0.00     0.061 A 
ATOM     19  Cl  UNL     1       2.574   2.256   4.806  1.00  0.00    -0.083 Cl
ATOM     20  Cl  UNL     1       0.538   4.598   5.744  1.00  0.00    -0.083 Cl
BRANCH  11  21
ATOM     21  C   UNL     1      -0.749  -0.145   0.869  1.00  0.00     0.096 C 
ATOM     22  C   UNL     1       1.534  -1.284   0.252  1.00  0.00     0.013 C 
ATOM     23  C   UNL     1       0.652  -0.062   0.236  1.00  0.00    -0.012 C 
ATOM     24  C   UNL     1       1.399   1.237   0.042  1.00  0.00     0.013 C 
ATOM     25  C   UNL     1      -0.584  -0.159  -0.615  1.00  0.00     0.034 C 
ENDBRANCH  11  21
ENDBRANCH   9  10
ENDBRANCH   8   9
ENDBRANCH   5   8
ENDBRANCH   3   4
ENDBRANCH   2   3
ENDBRANCH   1   2
BRANCH   1  26
ATOM     26  C   UNL     1      -3.219   4.023  -4.514  1.00  0.00     0.002 C 
BRANCH  26  27
ATOM     27  C   UNL     1      -4.543   4.772  -4.711  1.00  0.00     0.021 C 
BRANCH  27  28
ATOM     28  C   UNL     1      -4.579   6.170  -4.094  1.00  0.00     0.116 C 
BRANCH  28  29
ATOM     29  N   UNL     1      -3.598   7.073  -4.654  1.00  0.00    -0.352 N 
ATOM     30  C   UNL     1      -3.591   7.947  -5.704  1.00  0.00     0.251 C 
ATOM     31  H   UNL     1      -2.742   7.054  -4.168  1.00  0.00     0.163 HD
ATOM     32  O   UNL     1      -2.597   8.674  -5.793  1.00  0.00    -0.269 OA
BRANCH  30  33
ATOM     33  C   UNL     1      -4.634   8.022  -6.763  1.00  0.00     0.039 A 
ATOM     34  C   UNL     1      -5.826   7.300  -6.788  1.00  0.00     0.014 A 
ATOM     35  C   UNL     1      -4.319   8.835  -7.870  1.00  0.00     0.014 A 
ATOM     36  C   UNL     1      -6.605   7.274  -7.939  1.00  0.00     0.010 A 
ATOM     37  C   UNL     1      -5.107   8.833  -9.013  1.00  0.00     0.010 A 
ATOM     38  C   UNL     1      -6.212   7.994  -9.069  1.00  0.00    -0.014 A 
BRANCH  38  39
ATOM     39  C   UNL     1      -7.032   7.873 -10.270  1.00  0.00     0.031 A 
ATOM     40  C   UNL     1      -8.450   8.293 -10.095  1.00  0.00     0.074 A 
ATOM     41  C   UNL     1      -6.549   7.462 -11.460  1.00  0.00     0.049 A 
ATOM     42  N   UNL     1      -9.513   7.560 -10.156  1.00  0.00    -0.248 NA
ATOM     43  C   UNL     1      -8.700   9.676  -9.662  1.00  0.00     0.031 C 
ATOM     44  C   UNL     1      -5.150   7.268 -11.857  1.00  0.00     0.029 A 
ATOM     45  N   UNL     1      -7.228   7.209 -12.613  1.00  0.00    -0.354 N 
ATOM     46  C   UNL     1     -10.589   8.419  -9.937  1.00  0.00     0.074 A 
ATOM     47  C   UNL     1     -10.024   9.674  -9.511  1.00  0.00     0.031 C 
ATOM     48  C   UNL     1      -5.075   7.163 -13.205  1.00  0.00     0.029 A 
ATOM     49  C   UNL     1      -6.423   7.104 -13.741  1.00  0.00     0.049 A 
ATOM     50  H   UNL     1      -8.207   7.110 -12.644  1.00  0.00     0.167 HD
ATOM     51  C   UNL     1     -11.862   8.091 -10.291  1.00  0.00     0.031 A 
ATOM     52  C   UNL     1      -6.841   7.007 -15.027  1.00  0.00     0.031 A 
ATOM     53  C   UNL     1     -11.995   6.684 -10.548  1.00  0.00     0.049 A 
ATOM     54  C   UNL     1      -8.231   6.495 -14.984  1.00  0.00     0.074 A 
ATOM     55  C   UNL     1     -12.003   5.541  -9.780  1.00  0.00     0.029 A 
ATOM     56  N   UNL     1     -11.776   6.295 -11.845  1.00  0.00    -0.354 N 
ATOM     57  N   UNL     1      -8.554   5.311 -14.544  1.00  0.00    -0.248 NA
ATOM     58  C   UNL     1      -9.324   7.448 -15.080  1.00  0.00     0.031 C 
ATOM     59  C   UNL     1     -11.401   4.540 -10.596  1.00  0.00     0.029 A 
ATOM     60  C   UNL     1     -11.110   5.097 -11.845  1.00  0.00     0.049 A 
ATOM     61  H   UNL     1     -12.053   6.795 -12.646  1.00  0.00     0.167 HD
ATOM     62  C   UNL     1      -9.781   5.488 -13.923  1.00  0.00     0.074 A 
ATOM     63  C   UNL     1     -10.260   6.782 -14.401  1.00  0.00     0.031 C 
ATOM     64  C   UNL     1     -10.169   4.697 -12.881  1.00  0.00     0.031 A 
BRANCH  51  65
ATOM     65  C   UNL     1     -12.899   9.089 -10.749  1.00  0.00    -0.014 A 
ATOM     66  C   UNL     1     -12.584  10.417 -11.100  1.00  0.00     0.010 A 
ATOM     67  C   UNL     1     -14.195   8.637 -11.082  1.00  0.00     0.010 A 
ATOM     68  C   UNL     1     -13.507  11.262 -11.721  1.00  0.00     0.020 A 
ATOM     69  C   UNL     1     -15.118   9.465 -11.742  1.00  0.00     0.020 A 
ATOM     70  C   UNL     1     -14.768  10.778 -12.047  1.00  0.00     0.054 A 
BRANCH  70  71
ATOM     71  S   UNL     1     -15.905  11.881 -12.922  1.00  0.00     0.124 S 
ATOM     72  O   UNL     1     -16.183  12.893 -11.905  1.00  0.00    -0.237 OA
ATOM     73  O   UNL     1     -15.096  12.332 -14.052  1.00  0.00    -0.237 OA
ATOM     74  O   UNL     1     -17.029  11.017 -13.266  1.00  0.00    -0.744 OA
ENDBRANCH  70  71
ENDBRANCH  51  65
BRANCH  52  75
ATOM     75  C   UNL     1      -6.342   7.804 -16.181  1.00  0.00    -0.014 A 
ATOM     76  C   UNL     1      -5.795   9.085 -15.959  1.00  0.00     0.010 A 
ATOM     77  C   UNL     1      -6.709   7.467 -17.500  1.00  0.00     0.010 A 
ATOM     78  C   UNL     1      -5.701  10.025 -16.991  1.00  0.00     0.020 A 
ATOM     79  C   UNL     1      -6.614   8.406 -18.542  1.00  0.00     0.020 A 
ATOM     80  C   UNL     1      -6.146   9.693 -18.270  1.00  0.00     0.054 A 
BRANCH  80  81
ATOM     81  S   UNL     1      -6.186  10.997 -19.536  1.00  0.00     0.124 S 
ATOM     82  O   UNL     1      -7.209  11.900 -19.009  1.00  0.00    -0.237 OA
ATOM     83  O   UNL     1      -4.817  11.515 -19.496  1.00  0.00    -0.237 OA
ATOM     84  O   UNL     1      -6.544  10.290 -20.756  1.00  0.00    -0.744 OA
ENDBRANCH  80  81
ENDBRANCH  52  75
BRANCH  64  85
ATOM     85  C   UNL     1      -9.438   3.391 -12.641  1.00  0.00    -0.014 A 
ATOM     86  C   UNL     1     -10.227   2.227 -12.580  1.00  0.00     0.010 A 
ATOM     87  C   UNL     1      -8.076   3.295 -12.294  1.00  0.00     0.010 A 
ATOM     88  C   UNL     1      -9.698   1.018 -12.130  1.00  0.00     0.020 A 
ATOM     89  C   UNL     1      -7.529   2.071 -11.867  1.00  0.00     0.020 A 
ATOM     90  C   UNL     1      -8.355   0.948 -11.759  1.00  0.00     0.054 A 
BRANCH  90  91
ATOM     91  S   UNL     1      -7.736  -0.626 -11.104  1.00  0.00     0.124 S 
ATOM     92  O   UNL     1      -8.388  -0.696  -9.798  1.00  0.00    -0.237 OA
ATOM     93  O   UNL     1      -8.211  -1.596 -12.089  1.00  0.00    -0.237 OA
ATOM     94  O   UNL     1      -6.286  -0.449 -11.062  1.00  0.00    -0.744 OA
ENDBRANCH  90  91
ENDBRANCH  64  85
ENDBRANCH  38  39
ENDBRANCH  30  33
ENDBRANCH  28  29
ENDBRANCH  27  28
ENDBRANCH  26  27
ENDBRANCH   1  26
TORSDOF 19
