REMARK SMILES O=C(NCCCCCCNC(=O)c1cc(F)cc(-c2cc3ccccc3s2)c1)c1ccc(-c2c3nc(c(-c4ccc(S(=O)(=O)[O-])cc4)c4ccc([nH]4)c(-c4ccc(S(=O)(=O)[O-])cc4)c4nc(c(-c5ccc(S(=O)(=O)[O-])cc5)c5ccc2[nH]5)C=C4)C=C3)cc1
REMARK SMILES IDX 5 1 4 2 3 3 1 4 2 5 29 7 30 8 88 9 31 10 87 11 32 12 33 13
REMARK SMILES IDX 34 14 81 15 35 16 86 17 80 18 82 19 36 20 85 21 79 22 78 23
REMARK SMILES IDX 37 25 67 26 48 27 66 28 49 29 52 30 65 31 83 32 50 33 51 34
REMARK SMILES IDX 64 36 84 37 53 38 38 39 39 40 47 41 40 42 46 43 41 44 42 45
REMARK SMILES IDX 43 46 44 47 45 48 68 49 69 50 77 51 70 52 76 53 71 54 72 55
REMARK SMILES IDX 73 56 74 57 75 58 54 59 55 60 63 61 56 62 62 63 57 64 58 65
REMARK SMILES IDX 59 66 60 67 61 68 6 69 7 70 8 71 9 72 10 73 11 74 12 76
REMARK SMILES IDX 13 77 14 78 28 79 15 80 18 81 16 82 17 83 19 84 20 85 27 86
REMARK SMILES IDX 21 87 26 88 22 89 25 90 23 91 24 92
REMARK H PARENT 3 6 82 24 52 35 10 75
REMARK Flexibility Score: inf
ROOT
ATOM      1  C   UNL     1       4.777  -0.094   2.500  1.00  0.00     0.021 C 
ENDROOT
BRANCH   1   2
ATOM      2  C   UNL     1       4.513  -0.601   1.087  1.00  0.00     0.116 C 
BRANCH   2   3
ATOM      3  N   UNL     1       3.093  -0.751   0.817  1.00  0.00    -0.352 N 
ATOM      4  O   UNL     1       1.103  -0.244  -0.108  1.00  0.00    -0.269 OA
ATOM      5  C   UNL     1       2.328  -0.157  -0.154  1.00  0.00     0.251 C 
ATOM      6  H   UNL     1       2.612  -1.367   1.416  1.00  0.00     0.163 HD
BRANCH   5   7
ATOM      7  C   UNL     1       2.980   0.599  -1.243  1.00  0.00     0.039 A 
ATOM      8  C   UNL     1       4.085   0.072  -1.919  1.00  0.00     0.014 A 
ATOM      9  C   UNL     1       2.460   1.843  -1.608  1.00  0.00     0.014 A 
ATOM     10  C   UNL     1       4.736   0.834  -2.885  1.00  0.00     0.010 A 
ATOM     11  C   UNL     1       3.072   2.575  -2.627  1.00  0.00     0.010 A 
ATOM     12  C   UNL     1       4.226   2.085  -3.260  1.00  0.00    -0.014 A 
BRANCH  12  13
ATOM     13  C   UNL     1       4.857   2.852  -4.362  1.00  0.00     0.031 A 
ATOM     14  C   UNL     1       5.494   4.187  -4.105  1.00  0.00     0.074 A 
ATOM     15  C   UNL     1       4.807   2.355  -5.613  1.00  0.00     0.049 A 
ATOM     16  N   UNL     1       6.011   5.031  -4.961  1.00  0.00    -0.248 NA
ATOM     17  C   UNL     1       5.548   4.638  -2.706  1.00  0.00     0.031 C 
ATOM     18  C   UNL     1       4.210   1.070  -5.984  1.00  0.00     0.029 A 
ATOM     19  N   UNL     1       5.247   2.875  -6.803  1.00  0.00    -0.354 N 
ATOM     20  C   UNL     1       6.427   6.125  -4.212  1.00  0.00     0.074 A 
ATOM     21  C   UNL     1       6.082   5.845  -2.834  1.00  0.00     0.031 C 
ATOM     22  C   UNL     1       4.322   0.901  -7.309  1.00  0.00     0.029 A 
ATOM     23  C   UNL     1       4.938   2.090  -7.888  1.00  0.00     0.049 A 
ATOM     24  H   UNL     1       5.735   3.727  -6.874  1.00  0.00     0.167 HD
ATOM     25  C   UNL     1       7.035   7.260  -4.637  1.00  0.00     0.031 A 
ATOM     26  C   UNL     1       5.091   2.313  -9.207  1.00  0.00     0.031 A 
ATOM     27  C   UNL     1       7.353   7.533  -6.015  1.00  0.00     0.049 A 
ATOM     28  C   UNL     1       5.727   3.592  -9.664  1.00  0.00     0.074 A 
ATOM     29  C   UNL     1       8.004   8.633  -6.545  1.00  0.00     0.029 A 
ATOM     30  N   UNL     1       7.026   6.709  -7.084  1.00  0.00    -0.354 N 
ATOM     31  N   UNL     1       6.161   4.595  -8.938  1.00  0.00    -0.248 NA
ATOM     32  C   UNL     1       5.902   3.771 -11.111  1.00  0.00     0.031 C 
ATOM     33  C   UNL     1       8.013   8.505  -7.938  1.00  0.00     0.029 A 
ATOM     34  C   UNL     1       7.433   7.292  -8.273  1.00  0.00     0.049 A 
ATOM     35  H   UNL     1       6.572   5.839  -7.008  1.00  0.00     0.167 HD
ATOM     36  C   UNL     1       6.684   5.515  -9.838  1.00  0.00     0.074 A 
ATOM     37  C   UNL     1       6.516   4.947 -11.161  1.00  0.00     0.031 C 
ATOM     38  C   UNL     1       7.260   6.716  -9.585  1.00  0.00     0.031 A 
BRANCH  25  39
ATOM     39  C   UNL     1       7.345   8.311  -3.602  1.00  0.00    -0.014 A 
ATOM     40  C   UNL     1       8.320   8.103  -2.609  1.00  0.00     0.010 A 
ATOM     41  C   UNL     1       6.648   9.534  -3.626  1.00  0.00     0.010 A 
ATOM     42  C   UNL     1       8.540   9.066  -1.620  1.00  0.00     0.020 A 
ATOM     43  C   UNL     1       6.888  10.513  -2.658  1.00  0.00     0.020 A 
ATOM     44  C   UNL     1       7.813  10.260  -1.643  1.00  0.00     0.054 A 
BRANCH  44  45
ATOM     45  S   UNL     1       8.092  11.477  -0.327  1.00  0.00     0.124 S 
ATOM     46  O   UNL     1       7.439  10.838   0.813  1.00  0.00    -0.237 OA
ATOM     47  O   UNL     1       9.550  11.545  -0.257  1.00  0.00    -0.237 OA
ATOM     48  O   UNL     1       7.437  12.684  -0.824  1.00  0.00    -0.744 OA
ENDBRANCH  44  45
ENDBRANCH  25  39
BRANCH  26  49
ATOM     49  C   UNL     1       4.600   1.290 -10.169  1.00  0.00    -0.014 A 
ATOM     50  C   UNL     1       5.501   0.467 -10.864  1.00  0.00     0.010 A 
ATOM     51  C   UNL     1       3.216   1.072 -10.317  1.00  0.00     0.010 A 
ATOM     52  C   UNL     1       5.027  -0.565 -11.680  1.00  0.00     0.020 A 
ATOM     53  C   UNL     1       2.740   0.025 -11.110  1.00  0.00     0.020 A 
ATOM     54  C   UNL     1       3.650  -0.787 -11.788  1.00  0.00     0.054 A 
BRANCH  54  55
ATOM     55  S   UNL     1       3.067  -2.199 -12.767  1.00  0.00     0.124 S 
ATOM     56  O   UNL     1       3.325  -1.750 -14.131  1.00  0.00    -0.237 OA
ATOM     57  O   UNL     1       3.916  -3.286 -12.287  1.00  0.00    -0.237 OA
ATOM     58  O   UNL     1       1.657  -2.312 -12.399  1.00  0.00    -0.744 OA
ENDBRANCH  54  55
ENDBRANCH  26  49
BRANCH  38  59
ATOM     59  C   UNL     1       7.796   7.497 -10.755  1.00  0.00    -0.014 A 
ATOM     60  C   UNL     1       6.939   8.173 -11.639  1.00  0.00     0.010 A 
ATOM     61  C   UNL     1       9.189   7.641 -10.902  1.00  0.00     0.010 A 
ATOM     62  C   UNL     1       7.466   8.982 -12.651  1.00  0.00     0.020 A 
ATOM     63  C   UNL     1       9.718   8.468 -11.896  1.00  0.00     0.020 A 
ATOM     64  C   UNL     1       8.852   9.132 -12.766  1.00  0.00     0.054 A 
BRANCH  64  65
ATOM     65  S   UNL     1       9.508  10.264 -14.024  1.00  0.00     0.124 S 
ATOM     66  O   UNL     1       9.261   9.524 -15.258  1.00  0.00    -0.237 OA
ATOM     67  O   UNL     1       8.691  11.460 -13.834  1.00  0.00    -0.237 OA
ATOM     68  O   UNL     1      10.915  10.413 -13.657  1.00  0.00    -0.744 OA
ENDBRANCH  64  65
ENDBRANCH  38  59
ENDBRANCH  12  13
ENDBRANCH   5   7
ENDBRANCH   2   3
ENDBRANCH   1   2
BRANCH   1  69
ATOM     69  C   UNL     1       4.294  -1.022   3.617  1.00  0.00     0.002 C 
BRANCH  69  70
ATOM     70  C   UNL     1       4.830  -2.456   3.553  1.00  0.00     0.002 C 
BRANCH  70  71
ATOM     71  C   UNL     1       6.354  -2.583   3.477  1.00  0.00     0.021 C 
BRANCH  71  72
ATOM     72  C   UNL     1       7.112  -1.889   4.605  1.00  0.00     0.116 C 
BRANCH  72  73
ATOM     73  N   UNL     1       6.811  -2.476   5.901  1.00  0.00    -0.352 N 
ATOM     74  C   UNL     1       7.667  -3.030   6.812  1.00  0.00     0.251 C 
ATOM     75  H   UNL     1       5.860  -2.474   6.157  1.00  0.00     0.163 HD
ATOM     76  O   UNL     1       7.236  -3.656   7.782  1.00  0.00    -0.269 OA
BRANCH  74  77
ATOM     77  C   UNL     1       9.122  -2.884   6.632  1.00  0.00     0.043 A 
ATOM     78  C   UNL     1       9.687  -1.621   6.440  1.00  0.00     0.053 A 
ATOM     79  C   UNL     1       9.931  -4.025   6.703  1.00  0.00     0.023 A 
ATOM     80  C   UNL     1      11.056  -1.521   6.248  1.00  0.00     0.124 A 
ATOM     81  C   UNL     1      11.316  -3.910   6.533  1.00  0.00    -0.005 A 
ATOM     82  F   UNL     1      11.603  -0.320   6.029  1.00  0.00    -0.207 F 
ATOM     83  C   UNL     1      11.871  -2.647   6.287  1.00  0.00     0.048 A 
BRANCH  81  84
ATOM     84  C   UNL     1      12.200  -5.066   6.675  1.00  0.00     0.036 A 
ATOM     85  C   UNL     1      13.271  -5.203   7.532  1.00  0.00     0.029 A 
ATOM     86  S   UNL     1      12.002  -6.454   5.702  1.00  0.00    -0.135 S 
ATOM     87  C   UNL     1      13.948  -6.457   7.399  1.00  0.00    -0.007 A 
ATOM     88  C   UNL     1      13.356  -7.249   6.413  1.00  0.00     0.035 A 
ATOM     89  C   UNL     1      15.073  -6.968   8.089  1.00  0.00     0.009 A 
ATOM     90  C   UNL     1      13.860  -8.526   6.098  1.00  0.00     0.019 A 
ATOM     91  C   UNL     1      15.576  -8.234   7.780  1.00  0.00     0.001 A 
ATOM     92  C   UNL     1      14.975  -9.003   6.793  1.00  0.00     0.001 A 
ENDBRANCH  81  84
ENDBRANCH  74  77
ENDBRANCH  72  73
ENDBRANCH  71  72
ENDBRANCH  70  71
ENDBRANCH  69  70
ENDBRANCH   1  69
TORSDOF 17
