REMARK SMILES CCCCCCNC(=O)Oc1cccc(-c2ccc([C@H](C)C(=O)NCCCCCCNC(=O)c3ccc(-c4c5nc(c(-c6ccc(S(=O)(=O)[O-])cc6)c6ccc([nH]6)c(-c6ccc(S(=O)(=O)[O-])cc6)c6nc(c(-c7ccc(S(=O)(=O)[O-])cc7)c7ccc4[nH]7)C=C6)C=C5)cc3)cc2F)c1
REMARK SMILES IDX 22 1 23 2 24 3 20 5 21 6 19 7 16 8 17 9 95 10 18 11 94 12
REMARK SMILES IDX 96 13 15 14 11 15 12 16 97 17 13 18 14 19 10 20 8 21 7 22
REMARK SMILES IDX 9 24 6 25 5 26 4 27 3 28 2 29 1 30 25 31 26 32 27 33 28 34
REMARK SMILES IDX 29 35 30 36 31 37 32 38 33 40 34 41 35 42 93 43 36 44 92 45
REMARK SMILES IDX 37 46 38 47 39 48 86 49 40 50 91 51 85 52 87 53 41 54 90 55
REMARK SMILES IDX 84 56 83 57 42 59 72 60 53 61 71 62 54 63 57 64 70 65 88 66
REMARK SMILES IDX 55 67 56 68 69 70 89 71 58 72 43 73 44 74 52 75 45 76 51 77
REMARK SMILES IDX 46 78 47 79 48 80 49 81 50 82 73 83 74 84 82 85 75 86 81 87
REMARK SMILES IDX 76 88 77 89 78 90 79 91 80 92 59 93 60 94 68 95 61 96 67 97
REMARK SMILES IDX 62 98 63 99 64 100 65 101 66 102
REMARK H PARENT 24 4 7 23 31 39 87 58 57 69
REMARK Flexibility Score: inf
ROOT
ATOM      1  C   UNL     1      -3.140  14.109   0.326  1.00  0.00     0.227 C 
ATOM      2  O   UNL     1      -2.311  14.593  -0.454  1.00  0.00    -0.274 OA
ATOM      3  N   UNL     1      -2.875  14.213   1.659  1.00  0.00    -0.356 N 
ATOM      4  H   UNL     1      -1.983  14.562   1.885  1.00  0.00     0.163 HD
ENDROOT
BRANCH   1   5
ATOM      5  C   UNL     1      -4.400  13.415  -0.215  1.00  0.00     0.105 C 
ATOM      6  C   UNL     1      -4.561  11.964   0.256  1.00  0.00     0.023 C 
BRANCH   5   7
ATOM      7  C   UNL     1      -5.650  14.284  -0.131  1.00  0.00    -0.033 A 
ATOM      8  C   UNL     1      -7.963  15.943  -0.051  1.00  0.00     0.018 A 
ATOM      9  C   UNL     1      -7.576  15.194   1.064  1.00  0.00     0.012 A 
ATOM     10  C   UNL     1      -7.178  15.849  -1.204  1.00  0.00     0.131 A 
ATOM     11  C   UNL     1      -6.456  14.360   1.014  1.00  0.00     0.005 A 
ATOM     12  C   UNL     1      -6.031  15.051  -1.243  1.00  0.00     0.044 A 
ATOM     13  F   UNL     1      -7.527  16.514  -2.317  1.00  0.00    -0.206 F 
BRANCH   8  14
ATOM     14  C   UNL     1      -9.208  16.708  -0.007  1.00  0.00    -0.012 A 
ATOM     15  C   UNL     1     -11.545  16.906  -0.602  1.00  0.00     0.133 A 
ATOM     16  C   UNL     1     -11.682  18.037   0.197  1.00  0.00     0.047 A 
ATOM     17  C   UNL     1     -10.319  16.258  -0.730  1.00  0.00     0.056 A 
ATOM     18  C   UNL     1     -10.578  18.506   0.907  1.00  0.00     0.004 A 
ATOM     19  C   UNL     1      -9.351  17.842   0.811  1.00  0.00     0.009 A 
BRANCH  15  20
ATOM     20  O   UNL     1     -12.657  16.500  -1.353  1.00  0.00    -0.410 OA
BRANCH  20  21
ATOM     21  C   UNL     1     -13.006  15.158  -1.315  1.00  0.00     0.412 C 
ATOM     22  N   UNL     1     -13.971  14.835  -2.228  1.00  0.00    -0.321 N 
ATOM     23  H   UNL     1     -14.295  13.905  -2.221  1.00  0.00     0.167 HD
ATOM     24  O   UNL     1     -12.535  14.303  -0.576  1.00  0.00    -0.224 OA
BRANCH  22  25
ATOM     25  C   UNL     1     -14.564  15.724  -3.203  1.00  0.00     0.119 C 
BRANCH  25  26
ATOM     26  C   UNL     1     -14.330  15.233  -4.631  1.00  0.00     0.021 C 
BRANCH  26  27
ATOM     27  C   UNL     1     -15.002  13.895  -4.964  1.00  0.00     0.002 C 
BRANCH  27  28
ATOM     28  C   UNL     1     -16.522  13.858  -4.770  1.00  0.00    -0.000 C 
BRANCH  28  29
ATOM     29  C   UNL     1     -17.308  14.901  -5.568  1.00  0.00    -0.003 C 
ATOM     30  C   UNL     1     -17.171  14.732  -7.073  1.00  0.00     0.004 C 
ENDBRANCH  28  29
ENDBRANCH  27  28
ENDBRANCH  26  27
ENDBRANCH  25  26
ENDBRANCH  22  25
ENDBRANCH  20  21
ENDBRANCH  15  20
ENDBRANCH   8  14
ENDBRANCH   5   7
ENDBRANCH   1   5
BRANCH   3  31
ATOM     31  C   UNL     1      -3.715  13.886   2.789  1.00  0.00     0.116 C 
BRANCH  31  32
ATOM     32  C   UNL     1      -2.950  13.311   3.973  1.00  0.00     0.021 C 
BRANCH  32  33
ATOM     33  C   UNL     1      -2.025  14.289   4.696  1.00  0.00     0.002 C 
BRANCH  33  34
ATOM     34  C   UNL     1      -2.671  15.592   5.173  1.00  0.00     0.002 C 
BRANCH  34  35
ATOM     35  C   UNL     1      -3.943  15.446   6.012  1.00  0.00     0.021 C 
BRANCH  35  36
ATOM     36  C   UNL     1      -3.835  14.522   7.219  1.00  0.00     0.116 C 
BRANCH  36  37
ATOM     37  N   UNL     1      -2.789  14.925   8.143  1.00  0.00    -0.352 N 
ATOM     38  C   UNL     1      -2.849  15.103   9.503  1.00  0.00     0.251 C 
ATOM     39  H   UNL     1      -1.910  15.094   7.735  1.00  0.00     0.163 HD
ATOM     40  O   UNL     1      -1.893  15.595  10.096  1.00  0.00    -0.269 OA
BRANCH  38  41
ATOM     41  C   UNL     1      -4.071  14.727  10.247  1.00  0.00     0.039 A 
ATOM     42  C   UNL     1      -4.569  15.607  11.211  1.00  0.00     0.014 A 
ATOM     43  C   UNL     1      -4.721  13.514  10.002  1.00  0.00     0.014 A 
ATOM     44  C   UNL     1      -5.750  15.295  11.890  1.00  0.00     0.010 A 
ATOM     45  C   UNL     1      -5.938  13.242  10.622  1.00  0.00     0.010 A 
ATOM     46  C   UNL     1      -6.461  14.125  11.578  1.00  0.00    -0.014 A 
BRANCH  46  47
ATOM     47  C   UNL     1      -7.750  13.806  12.247  1.00  0.00     0.031 A 
ATOM     48  C   UNL     1      -7.869  12.586  13.119  1.00  0.00     0.074 A 
ATOM     49  C   UNL     1      -8.825  14.589  12.031  1.00  0.00     0.049 A 
ATOM     50  N   UNL     1      -8.915  12.128  13.759  1.00  0.00    -0.248 NA
ATOM     51  C   UNL     1      -6.661  11.759  13.273  1.00  0.00     0.031 C 
ATOM     52  C   UNL     1      -8.847  15.786  11.187  1.00  0.00     0.029 A 
ATOM     53  N   UNL     1     -10.109  14.497  12.507  1.00  0.00    -0.354 N 
ATOM     54  C   UNL     1      -8.494  10.959  14.383  1.00  0.00     0.074 A 
ATOM     55  C   UNL     1      -7.118  10.745  13.991  1.00  0.00     0.031 C 
ATOM     56  C   UNL     1     -10.069  16.340  11.241  1.00  0.00     0.029 A 
ATOM     57  C   UNL     1     -10.930  15.515  12.082  1.00  0.00     0.049 A 
ATOM     58  H   UNL     1     -10.414  13.771  13.098  1.00  0.00     0.167 HD
ATOM     59  C   UNL     1      -9.181  10.147  15.225  1.00  0.00     0.031 A 
ATOM     60  C   UNL     1     -12.229  15.759  12.341  1.00  0.00     0.031 A 
ATOM     61  C   UNL     1     -10.553  10.358  15.604  1.00  0.00     0.049 A 
ATOM     62  C   UNL     1     -12.986  14.820  13.240  1.00  0.00     0.074 A 
ATOM     63  C   UNL     1     -11.330   9.616  16.476  1.00  0.00     0.029 A 
ATOM     64  N   UNL     1     -11.356  11.386  15.131  1.00  0.00    -0.354 N 
ATOM     65  N   UNL     1     -12.556  13.748  13.863  1.00  0.00    -0.248 NA
ATOM     66  C   UNL     1     -14.402  15.130  13.477  1.00  0.00     0.031 C 
ATOM     67  C   UNL     1     -12.619  10.161  16.485  1.00  0.00     0.029 A 
ATOM     68  C   UNL     1     -12.627  11.283  15.671  1.00  0.00     0.049 A 
ATOM     69  H   UNL     1     -11.064  12.086  14.503  1.00  0.00     0.167 HD
ATOM     70  C   UNL     1     -13.641  13.275  14.595  1.00  0.00     0.074 A 
ATOM     71  C   UNL     1     -14.742  14.184  14.342  1.00  0.00     0.031 C 
ATOM     72  C   UNL     1     -13.716  12.191  15.406  1.00  0.00     0.031 A 
BRANCH  59  73
ATOM     73  C   UNL     1      -8.450   8.947  15.773  1.00  0.00    -0.014 A 
ATOM     74  C   UNL     1      -7.370   9.097  16.663  1.00  0.00     0.010 A 
ATOM     75  C   UNL     1      -8.844   7.651  15.393  1.00  0.00     0.010 A 
ATOM     76  C   UNL     1      -6.656   7.981  17.108  1.00  0.00     0.020 A 
ATOM     77  C   UNL     1      -8.154   6.529  15.863  1.00  0.00     0.020 A 
ATOM     78  C   UNL     1      -7.047   6.704  16.697  1.00  0.00     0.054 A 
BRANCH  78  79
ATOM     79  S   UNL     1      -6.090   5.275  17.272  1.00  0.00     0.124 S 
ATOM     80  O   UNL     1      -4.863   5.401  16.490  1.00  0.00    -0.237 OA
ATOM     81  O   UNL     1      -5.952   5.537  18.703  1.00  0.00    -0.237 OA
ATOM     82  O   UNL     1      -6.933   4.132  16.929  1.00  0.00    -0.744 OA
ENDBRANCH  78  79
ENDBRANCH  59  73
BRANCH  60  83
ATOM     83  C   UNL     1     -12.885  16.969  11.773  1.00  0.00    -0.014 A 
ATOM     84  C   UNL     1     -13.241  18.040  12.612  1.00  0.00     0.010 A 
ATOM     85  C   UNL     1     -13.136  17.070  10.393  1.00  0.00     0.010 A 
ATOM     86  C   UNL     1     -13.846  19.184  12.084  1.00  0.00     0.020 A 
ATOM     87  C   UNL     1     -13.715  18.224   9.857  1.00  0.00     0.020 A 
ATOM     88  C   UNL     1     -14.074  19.271  10.708  1.00  0.00     0.054 A 
BRANCH  88  89
ATOM     89  S   UNL     1     -14.804  20.792  10.040  1.00  0.00     0.124 S 
ATOM     90  O   UNL     1     -16.183  20.699  10.508  1.00  0.00    -0.237 OA
ATOM     91  O   UNL     1     -13.991  21.831  10.665  1.00  0.00    -0.237 OA
ATOM     92  O   UNL     1     -14.621  20.653   8.596  1.00  0.00    -0.744 OA
ENDBRANCH  88  89
ENDBRANCH  60  83
BRANCH  72  93
ATOM     93  C   UNL     1     -15.023  11.946  16.115  1.00  0.00    -0.014 A 
ATOM     94  C   UNL     1     -16.164  11.509  15.419  1.00  0.00     0.010 A 
ATOM     95  C   UNL     1     -15.094  12.111  17.511  1.00  0.00     0.010 A 
ATOM     96  C   UNL     1     -17.361  11.274  16.103  1.00  0.00     0.020 A 
ATOM     97  C   UNL     1     -16.279  11.847  18.201  1.00  0.00     0.020 A 
ATOM     98  C   UNL     1     -17.410  11.444  17.490  1.00  0.00     0.054 A 
BRANCH  98  99
ATOM     99  S   UNL     1     -18.963  11.091  18.358  1.00  0.00     0.124 S 
ATOM    100  O   UNL     1     -19.795  12.226  17.966  1.00  0.00    -0.237 OA
ATOM    101  O   UNL     1     -19.356   9.800  17.798  1.00  0.00    -0.237 OA
ATOM    102  O   UNL     1     -18.575  11.061  19.766  1.00  0.00    -0.744 OA
ENDBRANCH  98  99
ENDBRANCH  72  93
ENDBRANCH  46  47
ENDBRANCH  38  41
ENDBRANCH  36  37
ENDBRANCH  35  36
ENDBRANCH  34  35
ENDBRANCH  33  34
ENDBRANCH  32  33
ENDBRANCH  31  32
ENDBRANCH   3  31
TORSDOF 25
