REMARK SMILES Cc1cc(=O)n2nc(C)c(C(=O)NCCCCCCNC(=O)c3ccc(-c4c5nc(c(-c6ccc(S(=O)(=O)[O-])cc6)c6ccc([nH]6)c(-c6ccc(S(=O)(=O)[O-])cc6)c6nc(c(-c7ccc(S(=O)(=O)[O-])cc7)c7ccc4[nH]7)C=C6)C=C5)cc3)c2[nH]1
REMARK SMILES IDX 18 1 17 2 16 3 15 4 14 5 13 6 11 7 12 8 10 10 1 11 2 12 3 13
REMARK SMILES IDX 84 14 4 15 83 16 5 18 6 19 7 20 8 21 9 22 19 23 20 24 21 25
REMARK SMILES IDX 22 27 23 28 24 29 82 30 25 31 81 32 26 33 27 34 28 35 75 36
REMARK SMILES IDX 29 37 80 38 74 39 76 40 30 41 79 42 73 43 72 44 31 46 61 47
REMARK SMILES IDX 42 48 60 49 43 50 46 51 59 52 77 53 44 54 45 55 58 57 78 58
REMARK SMILES IDX 47 59 32 60 33 61 41 62 34 63 40 64 35 65 36 66 37 67 38 68
REMARK SMILES IDX 39 69 62 70 63 71 71 72 64 73 70 74 65 75 66 76 67 77 68 78
REMARK SMILES IDX 69 79 48 80 49 81 57 82 50 83 56 84 51 85 52 86 53 87 54 88
REMARK SMILES IDX 55 89
REMARK H PARENT 13 9 84 17 20 26 76 45 46 56
REMARK Flexibility Score: inf
ROOT
ATOM      1  C   UNL     1      -3.115   5.044   9.427  1.00  0.00     0.021 C 
ENDROOT
BRANCH   1   2
ATOM      2  C   UNL     1      -2.463   5.891   8.323  1.00  0.00     0.002 C 
BRANCH   2   3
ATOM      3  C   UNL     1      -1.011   5.526   7.971  1.00  0.00     0.002 C 
BRANCH   3   4
ATOM      4  C   UNL     1      -0.764   4.043   7.673  1.00  0.00     0.021 C 
BRANCH   4   5
ATOM      5  C   UNL     1      -1.675   3.489   6.580  1.00  0.00     0.116 C 
BRANCH   5   6
ATOM      6  N   UNL     1      -1.062   3.567   5.286  1.00  0.00    -0.352 N 
ATOM      7  C   UNL     1      -0.626   2.641   4.385  1.00  0.00     0.256 C 
ATOM      8  O   UNL     1      -0.238   3.141   3.319  1.00  0.00    -0.269 OA
ATOM      9  H   UNL     1      -0.926   4.493   4.981  1.00  0.00     0.163 HD
BRANCH   7  10
ATOM     10  C   UNL     1      -0.612   1.184   4.563  1.00  0.00     0.105 A 
ATOM     11  C   UNL     1       1.080   0.087   0.000  1.00  0.00     0.064 C 
ATOM     12  C   UNL     1       0.616  -0.333   1.365  1.00  0.00     0.019 A 
ATOM     13  C   UNL     1       0.554  -1.632   1.709  1.00  0.00     0.095 A 
ATOM     14  N   UNL     1       0.239   0.662   2.247  1.00  0.00    -0.343 N 
ATOM     15  C   UNL     1       0.079  -2.022   3.067  1.00  0.00     0.274 A 
ATOM     16  C   UNL     1      -0.198   0.385   3.503  1.00  0.00     0.150 A 
ATOM     17  H   UNL     1       0.290   1.601   1.957  1.00  0.00     0.168 HD
ATOM     18  O   UNL     1      -0.018  -3.179   3.437  1.00  0.00    -0.267 OA
ATOM     19  N   UNL     1      -0.266  -0.929   3.882  1.00  0.00    -0.179 N 
ATOM     20  N   UNL     1      -0.725  -1.061   5.137  1.00  0.00    -0.168 NA
ATOM     21  C   UNL     1      -0.892   0.197   5.579  1.00  0.00     0.075 A 
ATOM     22  C   UNL     1      -1.320   0.278   7.001  1.00  0.00     0.070 C 
ENDBRANCH   7  10
ENDBRANCH   5   6
ENDBRANCH   4   5
ENDBRANCH   3   4
ENDBRANCH   2   3
ENDBRANCH   1   2
BRANCH   1  23
ATOM     23  C   UNL     1      -2.504   5.294  10.796  1.00  0.00     0.116 C 
BRANCH  23  24
ATOM     24  N   UNL     1      -2.750   6.662  11.241  1.00  0.00    -0.352 N 
ATOM     25  C   UNL     1      -2.409   7.250  12.436  1.00  0.00     0.251 C 
ATOM     26  H   UNL     1      -3.224   7.241  10.601  1.00  0.00     0.163 HD
ATOM     27  O   UNL     1      -2.948   8.290  12.794  1.00  0.00    -0.269 OA
BRANCH  25  28
ATOM     28  C   UNL     1      -1.389   6.603  13.275  1.00  0.00     0.039 A 
ATOM     29  C   UNL     1      -1.570   6.503  14.657  1.00  0.00     0.014 A 
ATOM     30  C   UNL     1      -0.251   6.085  12.659  1.00  0.00     0.014 A 
ATOM     31  C   UNL     1      -0.624   5.816  15.409  1.00  0.00     0.010 A 
ATOM     32  C   UNL     1       0.621   5.309  13.382  1.00  0.00     0.010 A 
ATOM     33  C   UNL     1       0.461   5.209  14.761  1.00  0.00    -0.014 A 
BRANCH  33  34
ATOM     34  C   UNL     1       1.394   4.380  15.509  1.00  0.00     0.031 A 
ATOM     35  C   UNL     1       0.796   3.191  16.178  1.00  0.00     0.074 A 
ATOM     36  C   UNL     1       2.730   4.535  15.410  1.00  0.00     0.049 A 
ATOM     37  N   UNL     1       0.726   2.944  17.443  1.00  0.00    -0.248 NA
ATOM     38  C   UNL     1       0.089   2.207  15.341  1.00  0.00     0.031 C 
ATOM     39  C   UNL     1       3.477   5.448  14.536  1.00  0.00     0.029 A 
ATOM     40  N   UNL     1       3.713   3.795  15.983  1.00  0.00    -0.354 N 
ATOM     41  C   UNL     1       0.137   1.688  17.565  1.00  0.00     0.074 A 
ATOM     42  C   UNL     1      -0.376   1.357  16.259  1.00  0.00     0.031 C 
ATOM     43  C   UNL     1       4.761   5.037  14.453  1.00  0.00     0.029 A 
ATOM     44  C   UNL     1       4.960   3.948  15.392  1.00  0.00     0.049 A 
ATOM     45  H   UNL     1       3.556   3.201  16.752  1.00  0.00     0.167 HD
ATOM     46  C   UNL     1       0.297   0.921  18.681  1.00  0.00     0.031 A 
ATOM     47  C   UNL     1       6.066   3.197  15.623  1.00  0.00     0.031 A 
ATOM     48  C   UNL     1       0.854   1.679  19.771  1.00  0.00     0.049 A 
ATOM     49  C   UNL     1       5.875   2.554  16.948  1.00  0.00     0.074 A 
ATOM     50  C   UNL     1       0.445   2.781  20.492  1.00  0.00     0.029 A 
ATOM     51  N   UNL     1       2.209   1.565  19.987  1.00  0.00    -0.354 N 
ATOM     52  N   UNL     1       5.783   3.230  18.062  1.00  0.00    -0.248 NA
ATOM     53  C   UNL     1       5.306   1.215  16.988  1.00  0.00     0.031 C 
ATOM     54  C   UNL     1       1.631   3.546  20.689  1.00  0.00     0.029 A 
ATOM     55  C   UNL     1       2.703   2.835  20.143  1.00  0.00     0.049 A 
ATOM     56  H   UNL     1       2.727   0.728  20.022  1.00  0.00     0.167 HD
ATOM     57  C   UNL     1       4.787   2.591  18.790  1.00  0.00     0.074 A 
ATOM     58  C   UNL     1       4.603   1.303  18.122  1.00  0.00     0.031 C 
ATOM     59  C   UNL     1       4.010   3.270  19.688  1.00  0.00     0.031 A 
BRANCH  46  60
ATOM     60  C   UNL     1       0.295  -0.588  18.686  1.00  0.00    -0.014 A 
ATOM     61  C   UNL     1       0.406  -1.266  19.919  1.00  0.00     0.010 A 
ATOM     62  C   UNL     1       0.462  -1.357  17.518  1.00  0.00     0.010 A 
ATOM     63  C   UNL     1       0.741  -2.626  19.976  1.00  0.00     0.020 A 
ATOM     64  C   UNL     1       0.753  -2.723  17.562  1.00  0.00     0.020 A 
ATOM     65  C   UNL     1       0.928  -3.341  18.793  1.00  0.00     0.054 A 
BRANCH  65  66
ATOM     66  S   UNL     1       1.481  -5.062  18.876  1.00  0.00     0.124 S 
ATOM     67  O   UNL     1       2.807  -4.923  19.471  1.00  0.00    -0.237 OA
ATOM     68  O   UNL     1       0.464  -5.672  19.728  1.00  0.00    -0.237 OA
ATOM     69  O   UNL     1       1.462  -5.495  17.481  1.00  0.00    -0.744 OA
ENDBRANCH  65  66
ENDBRANCH  46  60
BRANCH  47  70
ATOM     70  C   UNL     1       7.074   2.770  14.618  1.00  0.00    -0.014 A 
ATOM     71  C   UNL     1       8.307   2.209  14.995  1.00  0.00     0.010 A 
ATOM     72  C   UNL     1       6.716   2.693  13.254  1.00  0.00     0.010 A 
ATOM     73  C   UNL     1       9.130   1.564  14.050  1.00  0.00     0.020 A 
ATOM     74  C   UNL     1       7.530   2.061  12.307  1.00  0.00     0.020 A 
ATOM     75  C   UNL     1       8.727   1.481  12.714  1.00  0.00     0.054 A 
BRANCH  75  76
ATOM     76  S   UNL     1       9.725   0.531  11.527  1.00  0.00     0.124 S 
ATOM     77  O   UNL     1      10.951   1.318  11.450  1.00  0.00    -0.237 OA
ATOM     78  O   UNL     1       9.845  -0.767  12.184  1.00  0.00    -0.237 OA
ATOM     79  O   UNL     1       8.911   0.534  10.312  1.00  0.00    -0.744 OA
ENDBRANCH  75  76
ENDBRANCH  47  70
BRANCH  59  80
ATOM     80  C   UNL     1       4.383   4.693  20.050  1.00  0.00    -0.014 A 
ATOM     81  C   UNL     1       4.346   5.759  19.128  1.00  0.00     0.010 A 
ATOM     82  C   UNL     1       4.549   4.997  21.413  1.00  0.00     0.010 A 
ATOM     83  C   UNL     1       4.464   7.090  19.561  1.00  0.00     0.020 A 
ATOM     84  C   UNL     1       4.650   6.320  21.853  1.00  0.00     0.020 A 
ATOM     85  C   UNL     1       4.604   7.362  20.925  1.00  0.00     0.054 A 
BRANCH  85  86
ATOM     86  S   UNL     1       4.651   9.087  21.492  1.00  0.00     0.124 S 
ATOM     87  O   UNL     1       5.925   9.563  20.960  1.00  0.00    -0.237 OA
ATOM     88  O   UNL     1       3.458   9.664  20.877  1.00  0.00    -0.237 OA
ATOM     89  O   UNL     1       4.593   8.977  22.949  1.00  0.00    -0.744 OA
ENDBRANCH  85  86
ENDBRANCH  59  80
ENDBRANCH  33  34
ENDBRANCH  25  28
ENDBRANCH  23  24
ENDBRANCH   1  23
TORSDOF 16
