REMARK SMILES O=C(NCCCCCCNC(=O)c1ccc(C[NH2+]CCOc2ccccc2)nc1)c1ccc(-c2c3nc(c(-c4ccc(S(=O)(=O)[O-])cc4)c4ccc([nH]4)c(-c4ccc(S(=O)(=O)[O-])cc4)c4nc(c(-c5ccc(S(=O)(=O)[O-])cc5)c5ccc2[nH]5)C=C4)C=C3)cc1
REMARK SMILES IDX 8 1 7 2 6 3 5 4 4 5 3 6 1 7 2 8 30 10 31 11 89 12 32 13
REMARK SMILES IDX 88 14 33 15 34 16 35 17 82 18 36 19 87 20 81 21 83 22 37 23
REMARK SMILES IDX 86 24 80 25 79 26 38 28 68 29 49 30 67 31 50 32 53 33 66 34
REMARK SMILES IDX 84 35 51 36 52 37 65 39 85 40 54 41 39 42 40 43 48 44 41 45
REMARK SMILES IDX 47 46 42 47 43 48 44 49 45 50 46 51 69 52 70 53 78 54 71 55
REMARK SMILES IDX 77 56 72 57 73 58 74 59 75 60 76 61 55 62 56 63 64 64 57 65
REMARK SMILES IDX 63 66 58 67 59 68 60 69 61 70 62 71 9 72 10 73 11 74 12 76
REMARK SMILES IDX 13 77 14 78 29 79 15 80 28 81 16 82 17 83 18 84 19 87 20 88
REMARK SMILES IDX 21 89 22 90 23 91 27 92 24 93 26 94 25 95
REMARK H PARENT 3 9 83 27 53 38 10 75 18 85 18 86
REMARK Flexibility Score: inf
ROOT
ATOM      1  C   UNL     1       6.340  -0.334  -4.313  1.00  0.00     0.021 C 
ENDROOT
BRANCH   1   2
ATOM      2  C   UNL     1       4.816  -0.483  -4.323  1.00  0.00     0.002 C 
BRANCH   2   3
ATOM      3  C   UNL     1       4.255  -1.635  -3.484  1.00  0.00     0.002 C 
BRANCH   3   4
ATOM      4  C   UNL     1       4.730  -1.691  -2.032  1.00  0.00     0.021 C 
BRANCH   4   5
ATOM      5  C   UNL     1       4.496  -0.421  -1.224  1.00  0.00     0.116 C 
BRANCH   5   6
ATOM      6  N   UNL     1       3.085  -0.124  -1.048  1.00  0.00    -0.352 N 
ATOM      7  O   UNL     1       1.162   0.179   0.088  1.00  0.00    -0.269 OA
ATOM      8  C   UNL     1       2.386   0.102   0.114  1.00  0.00     0.251 C 
ATOM      9  H   UNL     1       2.556  -0.077  -1.876  1.00  0.00     0.163 HD
BRANCH   8  10
ATOM     10  C   UNL     1       3.113   0.226   1.397  1.00  0.00     0.039 A 
ATOM     11  C   UNL     1       4.269   1.005   1.491  1.00  0.00     0.014 A 
ATOM     12  C   UNL     1       2.624  -0.441   2.525  1.00  0.00     0.014 A 
ATOM     13  C   UNL     1       5.005   1.012   2.671  1.00  0.00     0.010 A 
ATOM     14  C   UNL     1       3.323  -0.366   3.734  1.00  0.00     0.010 A 
ATOM     15  C   UNL     1       4.533   0.340   3.811  1.00  0.00    -0.014 A 
BRANCH  15  16
ATOM     16  C   UNL     1       5.282   0.458   5.088  1.00  0.00     0.031 A 
ATOM     17  C   UNL     1       5.930  -0.738   5.730  1.00  0.00     0.074 A 
ATOM     18  C   UNL     1       5.389   1.673   5.660  1.00  0.00     0.049 A 
ATOM     19  N   UNL     1       6.639  -0.794   6.829  1.00  0.00    -0.248 NA
ATOM     20  C   UNL     1       5.758  -2.037   5.061  1.00  0.00     0.031 C 
ATOM     21  C   UNL     1       4.790   2.905   5.137  1.00  0.00     0.029 A 
ATOM     22  N   UNL     1       6.048   2.080   6.791  1.00  0.00    -0.354 N 
ATOM     23  C   UNL     1       6.980  -2.131   6.997  1.00  0.00     0.074 A 
ATOM     24  C   UNL     1       6.384  -2.857   5.895  1.00  0.00     0.031 C 
ATOM     25  C   UNL     1       5.145   3.934   5.920  1.00  0.00     0.029 A 
ATOM     26  C   UNL     1       5.943   3.430   7.032  1.00  0.00     0.049 A 
ATOM     27  H   UNL     1       6.549   1.466   7.375  1.00  0.00     0.167 HD
ATOM     28  C   UNL     1       7.723  -2.699   7.979  1.00  0.00     0.031 A 
ATOM     29  C   UNL     1       6.417   4.182   8.042  1.00  0.00     0.031 A 
ATOM     30  C   UNL     1       8.313  -1.970   9.072  1.00  0.00     0.049 A 
ATOM     31  C   UNL     1       7.225   3.526   9.122  1.00  0.00     0.074 A 
ATOM     32  C   UNL     1       9.114  -2.452  10.094  1.00  0.00     0.029 A 
ATOM     33  N   UNL     1       8.163  -0.609   9.293  1.00  0.00    -0.354 N 
ATOM     34  N   UNL     1       7.569   2.266   9.239  1.00  0.00    -0.248 NA
ATOM     35  C   UNL     1       7.710   4.391  10.204  1.00  0.00     0.031 C 
ATOM     36  C   UNL     1       9.405  -1.392  10.960  1.00  0.00     0.029 A 
ATOM     37  C   UNL     1       8.834  -0.238  10.447  1.00  0.00     0.049 A 
ATOM     38  H   UNL     1       7.654   0.004   8.714  1.00  0.00     0.167 HD
ATOM     39  C   UNL     1       8.322   2.188  10.403  1.00  0.00     0.074 A 
ATOM     40  C   UNL     1       8.402   3.532  10.941  1.00  0.00     0.031 C 
ATOM     41  C   UNL     1       8.895   1.101  10.976  1.00  0.00     0.031 A 
BRANCH  28  42
ATOM     42  C   UNL     1       7.922  -4.192   7.934  1.00  0.00    -0.014 A 
ATOM     43  C   UNL     1       8.773  -4.787   6.985  1.00  0.00     0.010 A 
ATOM     44  C   UNL     1       7.296  -5.007   8.895  1.00  0.00     0.010 A 
ATOM     45  C   UNL     1       8.966  -6.171   6.978  1.00  0.00     0.020 A 
ATOM     46  C   UNL     1       7.505  -6.389   8.906  1.00  0.00     0.020 A 
ATOM     47  C   UNL     1       8.328  -6.965   7.936  1.00  0.00     0.054 A 
BRANCH  47  48
ATOM     48  S   UNL     1       8.617  -8.756   7.917  1.00  0.00     0.124 S 
ATOM     49  O   UNL     1       7.842  -9.172   6.750  1.00  0.00    -0.237 OA
ATOM     50  O   UNL     1      10.068  -8.845   7.770  1.00  0.00    -0.237 OA
ATOM     51  O   UNL     1       8.095  -9.206   9.205  1.00  0.00    -0.744 OA
ENDBRANCH  47  48
ENDBRANCH  28  42
BRANCH  29  52
ATOM     52  C   UNL     1       6.120   5.638   8.072  1.00  0.00    -0.014 A 
ATOM     53  C   UNL     1       7.129   6.583   7.822  1.00  0.00     0.010 A 
ATOM     54  C   UNL     1       4.805   6.084   8.307  1.00  0.00     0.010 A 
ATOM     55  C   UNL     1       6.831   7.949   7.812  1.00  0.00     0.020 A 
ATOM     56  C   UNL     1       4.498   7.446   8.270  1.00  0.00     0.020 A 
ATOM     57  C   UNL     1       5.516   8.371   8.032  1.00  0.00     0.054 A 
BRANCH  57  58
ATOM     58  S   UNL     1       5.137  10.143   7.945  1.00  0.00     0.124 S 
ATOM     59  O   UNL     1       5.668  10.628   9.214  1.00  0.00    -0.237 OA
ATOM     60  O   UNL     1       5.865  10.564   6.751  1.00  0.00    -0.237 OA
ATOM     61  O   UNL     1       3.681  10.174   7.820  1.00  0.00    -0.744 OA
ENDBRANCH  57  58
ENDBRANCH  29  52
BRANCH  41  62
ATOM     62  C   UNL     1       9.676   1.325  12.242  1.00  0.00    -0.014 A 
ATOM     63  C   UNL     1       9.025   1.597  13.459  1.00  0.00     0.010 A 
ATOM     64  C   UNL     1      11.078   1.223  12.220  1.00  0.00     0.010 A 
ATOM     65  C   UNL     1       9.767   1.798  14.626  1.00  0.00     0.020 A 
ATOM     66  C   UNL     1      11.822   1.397  13.390  1.00  0.00     0.020 A 
ATOM     67  C   UNL     1      11.162   1.698  14.583  1.00  0.00     0.054 A 
BRANCH  67  68
ATOM     68  S   UNL     1      12.102   1.927  16.117  1.00  0.00     0.124 S 
ATOM     69  O   UNL     1      12.044   3.375  16.295  1.00  0.00    -0.237 OA
ATOM     70  O   UNL     1      11.337   1.143  17.083  1.00  0.00    -0.237 OA
ATOM     71  O   UNL     1      13.423   1.391  15.796  1.00  0.00    -0.744 OA
ENDBRANCH  67  68
ENDBRANCH  41  62
ENDBRANCH  15  16
ENDBRANCH   8  10
ENDBRANCH   5   6
ENDBRANCH   4   5
ENDBRANCH   3   4
ENDBRANCH   2   3
ENDBRANCH   1   2
BRANCH   1  72
ATOM     72  C   UNL     1       7.119  -1.589  -4.697  1.00  0.00     0.116 C 
BRANCH  72  73
ATOM     73  N   UNL     1       6.873  -1.989  -6.072  1.00  0.00    -0.352 N 
ATOM     74  C   UNL     1       7.769  -2.119  -7.106  1.00  0.00     0.252 C 
ATOM     75  H   UNL     1       5.936  -2.196  -6.294  1.00  0.00     0.163 HD
ATOM     76  O   UNL     1       7.385  -2.311  -8.250  1.00  0.00    -0.269 OA
BRANCH  74  77
ATOM     77  C   UNL     1       9.209  -2.006  -6.828  1.00  0.00     0.058 A 
ATOM     78  C   UNL     1       9.842  -2.794  -5.871  1.00  0.00     0.017 A 
ATOM     79  C   UNL     1       9.962  -1.088  -7.537  1.00  0.00     0.125 A 
ATOM     80  C   UNL     1      11.193  -2.582  -5.609  1.00  0.00     0.030 A 
ATOM     81  N   UNL     1      11.278  -0.863  -7.301  1.00  0.00    -0.255 NA
ATOM     82  C   UNL     1      11.877  -1.600  -6.328  1.00  0.00     0.094 A 
BRANCH  82  83
ATOM     83  C   UNL     1      13.351  -1.344  -6.049  1.00  0.00     0.318 C 
BRANCH  83  84
ATOM     84  N   UNL     1      14.202  -1.680  -7.195  1.00  0.00    -0.338 N 
ATOM     85  H   UNL     1      14.345  -0.835  -7.747  1.00  0.00     0.346 HD
ATOM     86  H   UNL     1      13.719  -2.413  -7.715  1.00  0.00     0.346 HD
BRANCH  84  87
ATOM     87  C   UNL     1      15.514  -2.218  -6.828  1.00  0.00     0.302 C 
BRANCH  87  88
ATOM     88  C   UNL     1      15.531  -3.620  -6.183  1.00  0.00     0.290 C 
BRANCH  88  89
ATOM     89  O   UNL     1      15.281  -4.646  -7.156  1.00  0.00    -0.488 OA
BRANCH  89  90
ATOM     90  C   UNL     1      13.982  -5.070  -7.153  1.00  0.00     0.119 A 
ATOM     91  C   UNL     1      13.458  -5.829  -6.107  1.00  0.00     0.046 A 
ATOM     92  C   UNL     1      13.204  -4.777  -8.271  1.00  0.00     0.046 A 
ATOM     93  C   UNL     1      12.126  -6.243  -6.158  1.00  0.00     0.004 A 
ATOM     94  C   UNL     1      11.867  -5.167  -8.308  1.00  0.00     0.004 A 
ATOM     95  C   UNL     1      11.327  -5.899  -7.251  1.00  0.00     0.000 A 
ENDBRANCH  89  90
ENDBRANCH  88  89
ENDBRANCH  87  88
ENDBRANCH  84  87
ENDBRANCH  83  84
ENDBRANCH  82  83
ENDBRANCH  74  77
ENDBRANCH  72  73
ENDBRANCH   1  72
TORSDOF 22
