REMARK SMILES CC(=O)Nc1cnc(N2CC=C(c3ccccc3C)CC2)c(C(=O)NCCCCCCNC(=O)c2ccc(-c3c4nc(c(-c5ccc(S(=O)(=O)[O-])cc5)c5ccc([nH]5)c(-c5ccc(S(=O)(=O)[O-])cc5)c5nc(c(-c6ccc(S(=O)(=O)[O-])cc6)c6ccc3[nH]6)C=C5)C=C4)cc2)c1
REMARK SMILES IDX 29 1 28 2 27 3 26 4 25 5 23 6 24 7 22 9 5 10 6 11 95 12 7 13
REMARK SMILES IDX 8 14 4 15 1 16 2 17 3 18 9 20 10 21 21 22 11 23 20 24 12 25
REMARK SMILES IDX 13 26 14 27 18 28 15 29 17 30 19 31 16 32 30 33 31 34 32 35
REMARK SMILES IDX 33 36 34 38 35 39 36 40 94 41 37 42 93 43 38 44 39 45 40 46
REMARK SMILES IDX 87 47 41 48 92 49 86 50 88 51 42 52 91 53 85 54 84 55 43 57
REMARK SMILES IDX 73 58 54 59 72 60 55 61 58 62 71 63 89 64 56 65 57 66 70 68
REMARK SMILES IDX 90 69 59 70 44 71 45 72 53 73 46 74 52 75 47 76 48 77 49 78
REMARK SMILES IDX 50 79 51 80 74 81 75 82 83 83 76 84 82 85 77 86 78 87 79 88
REMARK SMILES IDX 80 89 81 90 60 91 61 92 69 93 62 94 68 95 63 96 64 97 65 98
REMARK SMILES IDX 66 99 67 100
REMARK H PARENT 25 8 4 19 32 37 88 56 58 67
REMARK Flexibility Score: inf
ROOT
ATOM      1  C   UNL     1       6.693  -1.827  -1.746  1.00  0.00     0.002 C 
ENDROOT
BRANCH   1   2
ATOM      2  C   UNL     1       6.760  -0.435  -1.095  1.00  0.00     0.002 C 
BRANCH   2   3
ATOM      3  C   UNL     1       5.438   0.145  -0.567  1.00  0.00     0.021 C 
BRANCH   3   4
ATOM      4  C   UNL     1       4.662  -0.785   0.363  1.00  0.00     0.116 C 
BRANCH   4   5
ATOM      5  N   UNL     1       5.218  -0.812   1.699  1.00  0.00    -0.352 N 
ATOM      6  C   UNL     1       4.829  -0.424   2.956  1.00  0.00     0.255 C 
ATOM      7  O   UNL     1       5.516  -0.950   3.834  1.00  0.00    -0.269 OA
ATOM      8  H   UNL     1       6.115  -1.217   1.708  1.00  0.00     0.163 HD
BRANCH   6   9
ATOM      9  C   UNL     1       3.678   0.488   3.303  1.00  0.00     0.084 A 
ATOM     10  C   UNL     1       1.657   1.710   2.661  1.00  0.00     0.060 A 
ATOM     11  C   UNL     1       1.426   1.924   4.005  1.00  0.00     0.139 A 
ATOM     12  C   UNL     1       2.830   1.037   2.322  1.00  0.00     0.045 A 
ATOM     13  N   UNL     1       2.233   1.474   4.982  1.00  0.00    -0.236 NA
ATOM     14  C   UNL     1       3.360   0.780   4.653  1.00  0.00     0.141 A 
BRANCH  10  15
ATOM     15  N   UNL     1       0.718   2.196   1.737  1.00  0.00    -0.325 N 
ATOM     16  C   UNL     1       0.841   0.408   0.003  1.00  0.00     0.114 C 
ATOM     17  C   UNL     1       0.353   1.740   0.502  1.00  0.00     0.221 C 
ATOM     18  O   UNL     1      -0.446   2.403  -0.161  1.00  0.00    -0.275 OA
ATOM     19  H   UNL     1       0.240   3.005   2.029  1.00  0.00     0.169 HD
ENDBRANCH  10  15
BRANCH  14  20
ATOM     20  N   UNL     1       4.133   0.483   5.746  1.00  0.00    -0.352 N 
ATOM     21  C   UNL     1       3.560  -0.329   6.803  1.00  0.00     0.146 C 
ATOM     22  C   UNL     1       5.523   0.909   5.849  1.00  0.00     0.123 C 
ATOM     23  C   UNL     1       4.177  -0.003   8.138  1.00  0.00    -0.002 C 
ATOM     24  C   UNL     1       5.733   1.669   7.162  1.00  0.00     0.057 C 
ATOM     25  C   UNL     1       5.151   0.908   8.327  1.00  0.00    -0.041 C 
BRANCH  25  26
ATOM     26  C   UNL     1       5.698   1.159   9.673  1.00  0.00    -0.020 A 
ATOM     27  C   UNL     1       6.367   0.105  10.319  1.00  0.00     0.008 A 
ATOM     28  C   UNL     1       5.581   2.402  10.325  1.00  0.00    -0.044 A 
ATOM     29  C   UNL     1       6.924   0.277  11.587  1.00  0.00     0.001 A 
ATOM     30  C   UNL     1       6.162   2.564  11.595  1.00  0.00     0.004 A 
ATOM     31  C   UNL     1       4.879   3.577   9.701  1.00  0.00     0.045 C 
ATOM     32  C   UNL     1       6.824   1.509  12.223  1.00  0.00     0.000 A 
ENDBRANCH  25  26
ENDBRANCH  14  20
ENDBRANCH   6   9
ENDBRANCH   4   5
ENDBRANCH   3   4
ENDBRANCH   2   3
ENDBRANCH   1   2
BRANCH   1  33
ATOM     33  C   UNL     1       5.565  -2.059  -2.754  1.00  0.00     0.021 C 
BRANCH  33  34
ATOM     34  C   UNL     1       5.683  -1.207  -4.012  1.00  0.00     0.116 C 
BRANCH  34  35
ATOM     35  N   UNL     1       5.706  -2.009  -5.226  1.00  0.00    -0.352 N 
ATOM     36  C   UNL     1       5.447  -1.564  -6.511  1.00  0.00     0.251 C 
ATOM     37  H   UNL     1       5.928  -2.963  -5.124  1.00  0.00     0.163 HD
ATOM     38  O   UNL     1       5.063  -2.292  -7.411  1.00  0.00    -0.269 OA
BRANCH  36  39
ATOM     39  C   UNL     1       5.833  -0.168  -6.785  1.00  0.00     0.039 A 
ATOM     40  C   UNL     1       7.058   0.035  -7.434  1.00  0.00     0.014 A 
ATOM     41  C   UNL     1       5.172   0.869  -6.136  1.00  0.00     0.014 A 
ATOM     42  C   UNL     1       7.711   1.254  -7.290  1.00  0.00     0.010 A 
ATOM     43  C   UNL     1       5.861   2.046  -5.923  1.00  0.00     0.010 A 
ATOM     44  C   UNL     1       7.150   2.217  -6.456  1.00  0.00    -0.014 A 
BRANCH  44  45
ATOM     45  C   UNL     1       7.850   3.415  -6.009  1.00  0.00     0.031 A 
ATOM     46  C   UNL     1       7.450   4.737  -6.542  1.00  0.00     0.074 A 
ATOM     47  C   UNL     1       8.758   3.332  -5.010  1.00  0.00     0.049 A 
ATOM     48  N   UNL     1       8.131   5.822  -6.383  1.00  0.00    -0.248 NA
ATOM     49  C   UNL     1       6.267   4.927  -7.383  1.00  0.00     0.031 C 
ATOM     50  C   UNL     1       9.238   4.428  -4.170  1.00  0.00     0.029 A 
ATOM     51  N   UNL     1       9.617   2.274  -4.697  1.00  0.00    -0.354 N 
ATOM     52  C   UNL     1       7.328   6.866  -6.776  1.00  0.00     0.074 A 
ATOM     53  C   UNL     1       6.258   6.255  -7.524  1.00  0.00     0.031 C 
ATOM     54  C   UNL     1      10.447   4.103  -3.688  1.00  0.00     0.029 A 
ATOM     55  C   UNL     1      10.841   2.866  -4.339  1.00  0.00     0.049 A 
ATOM     56  H   UNL     1       9.407   1.312  -4.723  1.00  0.00     0.167 HD
ATOM     57  C   UNL     1       7.569   8.111  -6.279  1.00  0.00     0.031 A 
ATOM     58  C   UNL     1      12.013   2.678  -5.014  1.00  0.00     0.031 A 
ATOM     59  C   UNL     1       8.886   8.189  -5.649  1.00  0.00     0.049 A 
ATOM     60  C   UNL     1      12.637   3.974  -5.494  1.00  0.00     0.074 A 
ATOM     61  C   UNL     1       9.320   8.282  -4.338  1.00  0.00     0.029 A 
ATOM     62  N   UNL     1      10.011   7.907  -6.418  1.00  0.00    -0.354 N 
ATOM     63  N   UNL     1      11.998   5.110  -5.561  1.00  0.00    -0.248 NA
ATOM     64  C   UNL     1      14.014   4.090  -5.963  1.00  0.00     0.031 C 
ATOM     65  C   UNL     1      10.704   7.947  -4.315  1.00  0.00     0.029 A 
ATOM     66  C   UNL     1      11.114   7.701  -5.614  1.00  0.00     0.049 A 
ATOM     67  H   UNL     1      10.019   7.862  -7.401  1.00  0.00     0.167 HD
ATOM     68  C   UNL     1      12.828   6.087  -6.046  1.00  0.00     0.074 A 
ATOM     69  C   UNL     1      14.085   5.396  -6.276  1.00  0.00     0.031 C 
ATOM     70  C   UNL     1      12.403   7.375  -6.218  1.00  0.00     0.031 A 
BRANCH  57  71
ATOM     71  C   UNL     1       6.515   9.195  -6.156  1.00  0.00    -0.014 A 
ATOM     72  C   UNL     1       6.832  10.411  -5.515  1.00  0.00     0.010 A 
ATOM     73  C   UNL     1       5.163   9.032  -6.525  1.00  0.00     0.010 A 
ATOM     74  C   UNL     1       5.853  11.383  -5.230  1.00  0.00     0.020 A 
ATOM     75  C   UNL     1       4.183  10.002  -6.275  1.00  0.00     0.020 A 
ATOM     76  C   UNL     1       4.529  11.165  -5.606  1.00  0.00     0.054 A 
BRANCH  76  77
ATOM     77  S   UNL     1       3.257  12.386  -5.187  1.00  0.00     0.124 S 
ATOM     78  O   UNL     1       3.206  12.294  -3.730  1.00  0.00    -0.237 OA
ATOM     79  O   UNL     1       3.812  13.624  -5.724  1.00  0.00    -0.237 OA
ATOM     80  O   UNL     1       2.065  11.894  -5.877  1.00  0.00    -0.744 OA
ENDBRANCH  76  77
ENDBRANCH  57  71
BRANCH  58  81
ATOM     81  C   UNL     1      12.126   1.358  -5.694  1.00  0.00    -0.014 A 
ATOM     82  C   UNL     1      12.255   0.221  -4.868  1.00  0.00     0.010 A 
ATOM     83  C   UNL     1      11.649   1.195  -7.007  1.00  0.00     0.010 A 
ATOM     84  C   UNL     1      11.728  -1.009  -5.267  1.00  0.00     0.020 A 
ATOM     85  C   UNL     1      11.130  -0.044  -7.413  1.00  0.00     0.020 A 
ATOM     86  C   UNL     1      11.100  -1.110  -6.508  1.00  0.00     0.054 A 
BRANCH  86  87
ATOM     87  S   UNL     1      10.067  -2.575  -6.826  1.00  0.00     0.124 S 
ATOM     88  O   UNL     1      10.998  -3.674  -6.595  1.00  0.00    -0.237 OA
ATOM     89  O   UNL     1       9.010  -2.422  -5.825  1.00  0.00    -0.237 OA
ATOM     90  O   UNL     1       9.640  -2.390  -8.209  1.00  0.00    -0.744 OA
ENDBRANCH  86  87
ENDBRANCH  58  81
BRANCH  70  91
ATOM     91  C   UNL     1      13.154   8.491  -6.917  1.00  0.00    -0.014 A 
ATOM     92  C   UNL     1      14.229   8.304  -7.798  1.00  0.00     0.010 A 
ATOM     93  C   UNL     1      12.677   9.820  -6.778  1.00  0.00     0.010 A 
ATOM     94  C   UNL     1      14.832   9.386  -8.461  1.00  0.00     0.020 A 
ATOM     95  C   UNL     1      13.238  10.899  -7.466  1.00  0.00     0.020 A 
ATOM     96  C   UNL     1      14.334  10.678  -8.289  1.00  0.00     0.054 A 
BRANCH  96  97
ATOM     97  S   UNL     1      15.069  12.056  -9.205  1.00  0.00     0.124 S 
ATOM     98  O   UNL     1      16.153  12.464  -8.316  1.00  0.00    -0.237 OA
ATOM     99  O   UNL     1      15.489  11.430 -10.457  1.00  0.00    -0.237 OA
ATOM    100  O   UNL     1      13.969  13.007  -9.333  1.00  0.00    -0.744 OA
ENDBRANCH  96  97
ENDBRANCH  70  91
ENDBRANCH  44  45
ENDBRANCH  36  39
ENDBRANCH  34  35
ENDBRANCH  33  34
ENDBRANCH   1  33
TORSDOF 19
