REMARK SMILES CCOc1ccc2[nH]c(C)c/c(=N\c3cccc(C(=O)NCCCCCCNC(=O)c4ccc(-c5c6nc(c(-c7ccc(S(=O)(=O)[O-])cc7)c7ccc([nH]7)c(-c7ccc(S(=O)(=O)[O-])cc7)c7nc(c(-c8ccc(S(=O)(=O)[O-])cc8)c8ccc5[nH]8)C=C7)C=C6)cc4)c3)c2c1
REMARK SMILES IDX 24 1 23 2 22 3 21 4 19 5 20 6 18 8 14 9 15 10 91 11 16 12
REMARK SMILES IDX 17 13 13 14 4 15 5 16 93 17 6 18 92 19 7 20 12 21 8 22 11 23
REMARK SMILES IDX 9 24 10 26 3 27 2 28 1 29 25 30 26 31 27 32 28 33 29 34
REMARK SMILES IDX 30 36 31 37 32 38 90 39 33 40 89 41 34 42 35 43 36 44 83 45
REMARK SMILES IDX 37 46 88 47 82 48 84 49 38 50 87 51 81 52 80 53 39 55 69 56
REMARK SMILES IDX 50 57 68 58 51 59 54 60 67 61 85 62 52 63 53 64 66 66 86 67
REMARK SMILES IDX 55 68 40 69 41 70 49 71 42 72 48 73 43 74 44 75 45 76 46 77
REMARK SMILES IDX 47 78 70 79 71 80 79 81 72 82 78 83 73 84 74 85 75 86 76 87
REMARK SMILES IDX 77 88 56 89 57 90 65 91 58 92 64 93 59 94 60 95 61 96 62 97
REMARK SMILES IDX 63 98
REMARK H PARENT 21 7 8 25 28 35 84 54 54 65
REMARK Flexibility Score: inf
ROOT
ATOM      1  C   UNL     1       4.650  -1.434   9.774  1.00  0.00     0.002 C 
ENDROOT
BRANCH   1   2
ATOM      2  C   UNL     1       5.004  -0.588   8.550  1.00  0.00     0.021 C 
BRANCH   2   3
ATOM      3  C   UNL     1       4.440   0.826   8.481  1.00  0.00     0.116 C 
BRANCH   3   4
ATOM      4  N   UNL     1       4.812   1.681   9.591  1.00  0.00    -0.352 N 
ATOM      5  C   UNL     1       5.069   3.032   9.653  1.00  0.00     0.251 C 
ATOM      6  O   UNL     1       5.371   3.507  10.749  1.00  0.00    -0.269 OA
ATOM      7  H   UNL     1       4.896   1.212  10.453  1.00  0.00     0.163 HD
BRANCH   5   8
ATOM      8  C   UNL     1       5.060   3.926   8.458  1.00  0.00     0.041 A 
ATOM      9  C   UNL     1       4.495   4.452   6.156  1.00  0.00     0.064 A 
ATOM     10  C   UNL     1       5.252   5.625   6.231  1.00  0.00     0.028 A 
ATOM     11  C   UNL     1       4.318   3.678   7.304  1.00  0.00     0.042 A 
ATOM     12  C   UNL     1       5.936   5.940   7.404  1.00  0.00     0.003 A 
ATOM     13  C   UNL     1       5.863   5.078   8.502  1.00  0.00     0.014 A 
BRANCH   9  14
ATOM     14  N   UNL     1       3.961   3.969   4.950  1.00  0.00    -0.248 NA
ATOM     15  C   UNL     1       2.315   2.026   1.517  1.00  0.00     0.120 A 
ATOM     16  C   UNL     1       3.156   1.788   0.432  1.00  0.00     0.048 A 
ATOM     17  C   UNL     1       2.810   2.617   2.681  1.00  0.00     0.059 A 
ATOM     18  C   UNL     1       4.518   2.068   0.529  1.00  0.00     0.030 A 
ATOM     19  C   UNL     1       4.177   2.910   2.776  1.00  0.00     0.027 A 
ATOM     20  C   UNL     1       5.041   2.617   1.702  1.00  0.00     0.048 A 
ATOM     21  C   UNL     1       4.759   3.516   4.021  1.00  0.00     0.075 A 
ATOM     22  N   UNL     1       6.417   2.849   1.810  1.00  0.00    -0.359 N 
ATOM     23  C   UNL     1       6.265   3.533   4.079  1.00  0.00     0.050 A 
ATOM     24  C   UNL     1       6.993   3.250   2.988  1.00  0.00     0.014 A 
ATOM     25  H   UNL     1       6.987   2.721   1.017  1.00  0.00     0.166 HD
ATOM     26  C   UNL     1       8.492   3.367   3.008  1.00  0.00     0.064 C 
BRANCH  15  27
ATOM     27  O   UNL     1       0.973   1.791   1.413  1.00  0.00    -0.494 OA
BRANCH  27  28
ATOM     28  C   UNL     1       0.635   0.396   1.467  1.00  0.00     0.226 C 
ATOM     29  C   UNL     1       0.556  -0.228   0.082  1.00  0.00     0.049 C 
ENDBRANCH  27  28
ENDBRANCH  15  27
ENDBRANCH   9  14
ENDBRANCH   5   8
ENDBRANCH   3   4
ENDBRANCH   2   3
ENDBRANCH   1   2
BRANCH   1  30
ATOM     30  C   UNL     1       3.172  -1.562  10.143  1.00  0.00     0.002 C 
BRANCH  30  31
ATOM     31  C   UNL     1       2.206  -1.956   9.027  1.00  0.00     0.021 C 
BRANCH  31  32
ATOM     32  C   UNL     1       2.577  -3.181   8.201  1.00  0.00     0.116 C 
BRANCH  32  33
ATOM     33  N   UNL     1       2.611  -4.419   8.961  1.00  0.00    -0.352 N 
ATOM     34  C   UNL     1       2.035  -5.637   8.669  1.00  0.00     0.251 C 
ATOM     35  H   UNL     1       3.118  -4.383   9.804  1.00  0.00     0.163 HD
ATOM     36  O   UNL     1       2.113  -6.561   9.470  1.00  0.00    -0.269 OA
BRANCH  34  37
ATOM     37  C   UNL     1       1.277  -5.811   7.407  1.00  0.00     0.039 A 
ATOM     38  C   UNL     1       1.793  -5.369   6.187  1.00  0.00     0.014 A 
ATOM     39  C   UNL     1       0.006  -6.392   7.457  1.00  0.00     0.014 A 
ATOM     40  C   UNL     1       0.975  -5.343   5.060  1.00  0.00     0.010 A 
ATOM     41  C   UNL     1      -0.785  -6.439   6.304  1.00  0.00     0.010 A 
ATOM     42  C   UNL     1      -0.330  -5.863   5.109  1.00  0.00    -0.014 A 
BRANCH  42  43
ATOM     43  C   UNL     1      -1.204  -5.775   3.908  1.00  0.00     0.031 A 
ATOM     44  C   UNL     1      -2.440  -4.913   3.918  1.00  0.00     0.074 A 
ATOM     45  C   UNL     1      -0.845  -6.415   2.778  1.00  0.00     0.049 A 
ATOM     46  N   UNL     1      -3.290  -4.684   2.949  1.00  0.00    -0.248 NA
ATOM     47  C   UNL     1      -2.763  -4.212   5.172  1.00  0.00     0.031 C 
ATOM     48  C   UNL     1       0.349  -7.248   2.630  1.00  0.00     0.029 A 
ATOM     49  N   UNL     1      -1.423  -6.437   1.533  1.00  0.00    -0.354 N 
ATOM     50  C   UNL     1      -4.248  -3.824   3.474  1.00  0.00     0.074 A 
ATOM     51  C   UNL     1      -3.896  -3.597   4.858  1.00  0.00     0.031 C 
ATOM     52  C   UNL     1       0.454  -7.640   1.352  1.00  0.00     0.029 A 
ATOM     53  C   UNL     1      -0.699  -7.147   0.604  1.00  0.00     0.049 A 
ATOM     54  H   UNL     1      -2.274  -5.988   1.325  1.00  0.00     0.167 HD
ATOM     55  C   UNL     1      -5.314  -3.262   2.856  1.00  0.00     0.031 A 
ATOM     56  C   UNL     1      -0.930  -7.383  -0.704  1.00  0.00     0.031 A 
ATOM     57  C   UNL     1      -5.665  -3.491   1.479  1.00  0.00     0.049 A 
ATOM     58  C   UNL     1      -2.159  -6.811  -1.349  1.00  0.00     0.074 A 
ATOM     59  C   UNL     1      -6.734  -2.972   0.769  1.00  0.00     0.029 A 
ATOM     60  N   UNL     1      -4.957  -4.298   0.601  1.00  0.00    -0.354 N 
ATOM     61  N   UNL     1      -3.063  -6.018  -0.827  1.00  0.00    -0.248 NA
ATOM     62  C   UNL     1      -2.405  -7.170  -2.752  1.00  0.00     0.031 C 
ATOM     63  C   UNL     1      -6.704  -3.507  -0.521  1.00  0.00     0.029 A 
ATOM     64  C   UNL     1      -5.579  -4.308  -0.637  1.00  0.00     0.049 A 
ATOM     65  H   UNL     1      -4.134  -4.791   0.824  1.00  0.00     0.167 HD
ATOM     66  C   UNL     1      -3.985  -5.778  -1.839  1.00  0.00     0.074 A 
ATOM     67  C   UNL     1      -3.519  -6.494  -3.009  1.00  0.00     0.031 C 
ATOM     68  C   UNL     1      -5.116  -5.033  -1.795  1.00  0.00     0.031 A 
BRANCH  55  69
ATOM     69  C   UNL     1      -6.195  -2.341   3.661  1.00  0.00    -0.014 A 
ATOM     70  C   UNL     1      -7.508  -2.729   3.983  1.00  0.00     0.010 A 
ATOM     71  C   UNL     1      -5.756  -1.053   4.019  1.00  0.00     0.010 A 
ATOM     72  C   UNL     1      -8.372  -1.844   4.635  1.00  0.00     0.020 A 
ATOM     73  C   UNL     1      -6.608  -0.174   4.695  1.00  0.00     0.020 A 
ATOM     74  C   UNL     1      -7.917  -0.569   4.982  1.00  0.00     0.054 A 
BRANCH  74  75
ATOM     75  S   UNL     1      -9.046   0.565   5.837  1.00  0.00     0.124 S 
ATOM     76  O   UNL     1      -9.878   1.055   4.743  1.00  0.00    -0.237 OA
ATOM     77  O   UNL     1      -9.716  -0.310   6.797  1.00  0.00    -0.237 OA
ATOM     78  O   UNL     1      -8.148   1.552   6.433  1.00  0.00    -0.744 OA
ENDBRANCH  74  75
ENDBRANCH  55  69
BRANCH  56  79
ATOM     79  C   UNL     1       0.063  -8.178  -1.476  1.00  0.00    -0.014 A 
ATOM     80  C   UNL     1       0.247  -9.547  -1.205  1.00  0.00     0.010 A 
ATOM     81  C   UNL     1       0.911  -7.542  -2.399  1.00  0.00     0.010 A 
ATOM     82  C   UNL     1       1.307 -10.247  -1.785  1.00  0.00     0.020 A 
ATOM     83  C   UNL     1       1.956  -8.248  -3.003  1.00  0.00     0.020 A 
ATOM     84  C   UNL     1       2.168  -9.586  -2.664  1.00  0.00     0.054 A 
BRANCH  84  85
ATOM     85  S   UNL     1       3.591 -10.488  -3.336  1.00  0.00     0.124 S 
ATOM     86  O   UNL     1       4.507 -10.489  -2.198  1.00  0.00    -0.237 OA
ATOM     87  O   UNL     1       3.015 -11.785  -3.681  1.00  0.00    -0.237 OA
ATOM     88  O   UNL     1       4.007  -9.671  -4.473  1.00  0.00    -0.744 OA
ENDBRANCH  84  85
ENDBRANCH  56  79
BRANCH  68  89
ATOM     89  C   UNL     1      -5.958  -4.944  -3.040  1.00  0.00    -0.014 A 
ATOM     90  C   UNL     1      -6.046  -3.725  -3.737  1.00  0.00     0.010 A 
ATOM     91  C   UNL     1      -6.766  -6.024  -3.438  1.00  0.00     0.010 A 
ATOM     92  C   UNL     1      -6.955  -3.574  -4.787  1.00  0.00     0.020 A 
ATOM     93  C   UNL     1      -7.659  -5.883  -4.505  1.00  0.00     0.020 A 
ATOM     94  C   UNL     1      -7.766  -4.651  -5.155  1.00  0.00     0.054 A 
BRANCH  94  95
ATOM     95  S   UNL     1      -8.971  -4.424  -6.492  1.00  0.00     0.124 S 
ATOM     96  O   UNL     1     -10.037  -3.685  -5.822  1.00  0.00    -0.237 OA
ATOM     97  O   UNL     1      -8.211  -3.670  -7.486  1.00  0.00    -0.237 OA
ATOM     98  O   UNL     1      -9.308  -5.790  -6.884  1.00  0.00    -0.744 OA
ENDBRANCH  94  95
ENDBRANCH  68  89
ENDBRANCH  42  43
ENDBRANCH  34  37
ENDBRANCH  32  33
ENDBRANCH  31  32
ENDBRANCH  30  31
ENDBRANCH   1  30
TORSDOF 19
