REMARK SMILES CCC(CC)(NC(=O)NC[C@H](C)[NH+]1CCCCC1)C(=O)NCCCCCCNC(=O)c1ccc(-c2c3nc(c(-c4ccc(S(=O)(=O)[O-])cc4)c4ccc([nH]4)c(-c4ccc(S(=O)(=O)[O-])cc4)c4nc(c(-c5ccc(S(=O)(=O)[O-])cc5)c5ccc2[nH]5)C=C4)C=C3)cc1
REMARK SMILES IDX 24 1 23 2 22 3 21 4 19 5 20 6 3 8 2 9 1 10 4 11 5 12 6 13
REMARK SMILES IDX 7 14 8 16 9 17 10 19 11 20 12 21 13 22 14 23 18 24 15 26
REMARK SMILES IDX 17 27 16 28 25 29 26 30 27 31 28 32 29 33 30 35 31 36 32 37
REMARK SMILES IDX 90 38 33 39 89 40 34 41 35 42 36 43 83 44 37 45 88 46 82 47
REMARK SMILES IDX 84 48 38 49 87 50 81 51 80 52 39 54 69 55 50 56 68 57 51 58
REMARK SMILES IDX 54 59 67 60 85 61 52 62 53 63 66 65 86 66 55 67 40 68 41 69
REMARK SMILES IDX 49 70 42 71 48 72 43 73 44 74 45 75 46 76 47 77 70 78 71 79
REMARK SMILES IDX 79 80 72 81 78 82 73 83 74 84 75 85 76 86 77 87 56 88 57 89
REMARK SMILES IDX 65 90 58 91 64 92 59 93 60 94 61 95 62 96 63 97
REMARK H PARENT 21 7 6 15 9 18 13 25 28 34 84 53 54 64
REMARK Flexibility Score: inf
ROOT
ATOM      1  C   UNL     1       3.660  -0.619   0.121  1.00  0.00     0.002 C 
ENDROOT
BRANCH   1   2
ATOM      2  C   UNL     1       4.902  -0.987   1.235  1.00  0.00     0.021 C 
BRANCH   2   3
ATOM      3  C   UNL     1       5.579  -2.576   2.463  1.00  0.00     0.116 C 
BRANCH   3   4
ATOM      4  N   UNL     1       5.254  -4.116   2.570  1.00  0.00    -0.354 N 
ATOM      5  C   UNL     1       5.817  -5.340   2.476  1.00  0.00     0.245 C 
ATOM      6  O   UNL     1       4.978  -6.244   2.619  1.00  0.00    -0.272 OA
ATOM      7  H   UNL     1       4.299  -4.223   2.781  1.00  0.00     0.163 HD
BRANCH   5   8
ATOM      8  C   UNL     1       7.337  -5.670   2.487  1.00  0.00     0.120 C 
BRANCH   8   9
ATOM      9  C   UNL     1       7.635  -7.183   2.236  1.00  0.00     0.035 C 
ATOM     10  C   UNL     1       6.887  -8.229   3.054  1.00  0.00     0.007 C 
ENDBRANCH   8   9
BRANCH   8  11
ATOM     11  C   UNL     1       7.706  -5.251   3.957  1.00  0.00     0.035 C 
ATOM     12  C   UNL     1       9.130  -5.479   4.436  1.00  0.00     0.007 C 
ENDBRANCH   8  11
BRANCH   8  13
ATOM     13  N   UNL     1       8.200  -4.936   1.542  1.00  0.00    -0.324 N 
ATOM     14  C   UNL     1       8.289  -4.868   0.202  1.00  0.00     0.315 C 
ATOM     15  H   UNL     1       8.863  -4.366   1.995  1.00  0.00     0.166 HD
ATOM     16  O   UNL     1       9.387  -4.567  -0.274  1.00  0.00    -0.249 OA
ATOM     17  N   UNL     1       7.250  -4.953  -0.640  1.00  0.00    -0.332 N 
ATOM     18  H   UNL     1       7.497  -4.698  -1.559  1.00  0.00     0.165 HD
BRANCH  17  19
ATOM     19  C   UNL     1       5.852  -5.327  -0.534  1.00  0.00     0.182 C 
BRANCH  19  20
ATOM     20  C   UNL     1       4.725  -4.258  -0.296  1.00  0.00     0.200 C 
ATOM     21  C   UNL     1       3.982  -3.945  -1.603  1.00  0.00     0.077 C 
BRANCH  20  22
ATOM     22  N   UNL     1       4.917  -2.972   0.406  1.00  0.00    -0.331 N 
ATOM     23  C   UNL     1       6.564  -2.277   0.571  1.00  0.00     0.262 C 
ATOM     24  C   UNL     1       3.598  -2.620   1.634  1.00  0.00     0.262 C 
ATOM     25  H   UNL     1       4.748  -2.252  -0.296  1.00  0.00     0.348 HD
ATOM     26  C   UNL     1       6.982  -0.921   1.909  1.00  0.00     0.062 C 
ATOM     27  C   UNL     1       3.892  -1.342   3.066  1.00  0.00     0.062 C 
ATOM     28  C   UNL     1       5.673  -0.555   3.278  1.00  0.00     0.012 C 
ENDBRANCH  20  22
ENDBRANCH  19  20
ENDBRANCH  17  19
ENDBRANCH   8  13
ENDBRANCH   5   8
ENDBRANCH   3   4
ENDBRANCH   2   3
ENDBRANCH   1   2
BRANCH   1  29
ATOM     29  C   UNL     1       2.272  -0.059   0.530  1.00  0.00     0.002 C 
BRANCH  29  30
ATOM     30  C   UNL     1       2.201   1.252   1.302  1.00  0.00     0.021 C 
BRANCH  30  31
ATOM     31  C   UNL     1       3.080   2.346   0.748  1.00  0.00     0.116 C 
BRANCH  31  32
ATOM     32  N   UNL     1       2.468   2.932  -0.433  1.00  0.00    -0.352 N 
ATOM     33  C   UNL     1       2.030   4.228  -0.531  1.00  0.00     0.251 C 
ATOM     34  H   UNL     1       2.360   2.354  -1.223  1.00  0.00     0.163 HD
ATOM     35  O   UNL     1       1.228   4.584  -1.391  1.00  0.00    -0.269 OA
BRANCH  33  36
ATOM     36  C   UNL     1       2.578   5.176   0.452  1.00  0.00     0.039 A 
ATOM     37  C   UNL     1       1.728   5.898   1.290  1.00  0.00     0.014 A 
ATOM     38  C   UNL     1       3.969   5.213   0.617  1.00  0.00     0.014 A 
ATOM     39  C   UNL     1       2.287   6.686   2.295  1.00  0.00     0.010 A 
ATOM     40  C   UNL     1       4.511   5.912   1.680  1.00  0.00     0.010 A 
ATOM     41  C   UNL     1       3.679   6.706   2.484  1.00  0.00    -0.014 A 
BRANCH  41  42
ATOM     42  C   UNL     1       4.320   7.695   3.379  1.00  0.00     0.031 A 
ATOM     43  C   UNL     1       5.173   8.764   2.743  1.00  0.00     0.074 A 
ATOM     44  C   UNL     1       4.173   7.622   4.714  1.00  0.00     0.049 A 
ATOM     45  N   UNL     1       5.912   9.679   3.310  1.00  0.00    -0.248 NA
ATOM     46  C   UNL     1       5.242   8.771   1.268  1.00  0.00     0.031 C 
ATOM     47  C   UNL     1       3.408   6.602   5.436  1.00  0.00     0.029 A 
ATOM     48  N   UNL     1       4.668   8.429   5.705  1.00  0.00    -0.354 N 
ATOM     49  C   UNL     1       6.548  10.342   2.266  1.00  0.00     0.074 A 
ATOM     50  C   UNL     1       6.180   9.675   1.041  1.00  0.00     0.031 C 
ATOM     51  C   UNL     1       3.463   6.864   6.754  1.00  0.00     0.029 A 
ATOM     52  C   UNL     1       4.284   8.052   6.970  1.00  0.00     0.049 A 
ATOM     53  H   UNL     1       5.246   9.206   5.527  1.00  0.00     0.167 HD
ATOM     54  C   UNL     1       7.329  11.444   2.313  1.00  0.00     0.031 A 
ATOM     55  C   UNL     1       4.562   8.617   8.161  1.00  0.00     0.031 A 
ATOM     56  C   UNL     1       7.634  12.140   3.530  1.00  0.00     0.049 A 
ATOM     57  C   UNL     1       5.395   9.873   8.185  1.00  0.00     0.074 A 
ATOM     58  C   UNL     1       8.378  13.291   3.702  1.00  0.00     0.029 A 
ATOM     59  N   UNL     1       7.175  11.761   4.782  1.00  0.00    -0.354 N 
ATOM     60  N   UNL     1       5.959  10.508   7.183  1.00  0.00    -0.248 NA
ATOM     61  C   UNL     1       5.606  10.505   9.494  1.00  0.00     0.031 C 
ATOM     62  C   UNL     1       8.386  13.598   5.066  1.00  0.00     0.029 A 
ATOM     63  C   UNL     1       7.609  12.662   5.733  1.00  0.00     0.049 A 
ATOM     64  H   UNL     1       6.622  10.967   4.965  1.00  0.00     0.167 HD
ATOM     65  C   UNL     1       6.561  11.632   7.738  1.00  0.00     0.074 A 
ATOM     66  C   UNL     1       6.280  11.597   9.159  1.00  0.00     0.031 C 
ATOM     67  C   UNL     1       7.285  12.607   7.134  1.00  0.00     0.031 A 
BRANCH  54  68
ATOM     68  C   UNL     1       7.861  11.977   1.011  1.00  0.00    -0.014 A 
ATOM     69  C   UNL     1       6.996  12.566   0.068  1.00  0.00     0.010 A 
ATOM     70  C   UNL     1       9.236  11.910   0.730  1.00  0.00     0.010 A 
ATOM     71  C   UNL     1       7.492  13.044  -1.146  1.00  0.00     0.020 A 
ATOM     72  C   UNL     1       9.741  12.417  -0.472  1.00  0.00     0.020 A 
ATOM     73  C   UNL     1       8.862  12.968  -1.408  1.00  0.00     0.054 A 
BRANCH  73  74
ATOM     74  S   UNL     1       9.483  13.641  -2.973  1.00  0.00     0.124 S 
ATOM     75  O   UNL     1       9.036  12.635  -3.933  1.00  0.00    -0.237 OA
ATOM     76  O   UNL     1       8.806  14.933  -3.057  1.00  0.00    -0.237 OA
ATOM     77  O   UNL     1      10.928  13.711  -2.771  1.00  0.00    -0.744 OA
ENDBRANCH  73  74
ENDBRANCH  54  68
BRANCH  55  78
ATOM     78  C   UNL     1       4.028   8.029   9.420  1.00  0.00    -0.014 A 
ATOM     79  C   UNL     1       3.033   8.695  10.158  1.00  0.00     0.010 A 
ATOM     80  C   UNL     1       4.530   6.807   9.904  1.00  0.00     0.010 A 
ATOM     81  C   UNL     1       2.582   8.175  11.376  1.00  0.00     0.020 A 
ATOM     82  C   UNL     1       4.062   6.269  11.107  1.00  0.00     0.020 A 
ATOM     83  C   UNL     1       3.106   6.968  11.846  1.00  0.00     0.054 A 
BRANCH  83  84
ATOM     84  S   UNL     1       2.502   6.303  13.424  1.00  0.00     0.124 S 
ATOM     85  O   UNL     1       3.184   7.157  14.392  1.00  0.00    -0.237 OA
ATOM     86  O   UNL     1       1.058   6.494  13.317  1.00  0.00    -0.237 OA
ATOM     87  O   UNL     1       2.942   4.910  13.396  1.00  0.00    -0.744 OA
ENDBRANCH  83  84
ENDBRANCH  55  78
BRANCH  67  88
ATOM     88  C   UNL     1       7.769  13.740   7.992  1.00  0.00    -0.014 A 
ATOM     89  C   UNL     1       8.836  13.569   8.890  1.00  0.00     0.010 A 
ATOM     90  C   UNL     1       7.189  15.013   7.841  1.00  0.00     0.010 A 
ATOM     91  C   UNL     1       9.295  14.647   9.648  1.00  0.00     0.020 A 
ATOM     92  C   UNL     1       7.664  16.099   8.577  1.00  0.00     0.020 A 
ATOM     93  C   UNL     1       8.706  15.905   9.487  1.00  0.00     0.054 A 
BRANCH  93  94
ATOM     94  S   UNL     1       9.350  17.300  10.449  1.00  0.00     0.124 S 
ATOM     95  O   UNL     1       8.803  17.031  11.776  1.00  0.00    -0.237 OA
ATOM     96  O   UNL     1      10.797  17.138  10.320  1.00  0.00    -0.237 OA
ATOM     97  O   UNL     1       8.799  18.472   9.772  1.00  0.00    -0.744 OA
ENDBRANCH  93  94
ENDBRANCH  67  88
ENDBRANCH  41  42
ENDBRANCH  33  36
ENDBRANCH  31  32
ENDBRANCH  30  31
ENDBRANCH  29  30
ENDBRANCH   1  29
TORSDOF 22
