REMARK SMILES O=C(NCCCCCCNC(=O)c1ccc(-n2cc(CSc3nc4ccccc4c(=O)n3-c3ccc(Br)cc3)nn2)cc1)c1ccc(-c2c3nc(c(-c4ccc(S(=O)(=O)[O-])cc4)c4ccc([nH]4)c(-c4ccc(S(=O)(=O)[O-])cc4)c4nc(c(-c5ccc(S(=O)(=O)[O-])cc5)c5ccc2[nH]5)C=C4)C=C3)cc1
REMARK SMILES IDX 7 1 6 2 5 3 4 4 3 5 1 6 2 7 44 9 45 10 103 11 46 12 102 13
REMARK SMILES IDX 47 14 48 15 49 16 96 17 50 18 101 19 95 20 97 21 51 22
REMARK SMILES IDX 100 23 94 24 93 25 52 27 82 28 63 29 81 30 64 31 67 32 80 33
REMARK SMILES IDX 98 34 65 35 66 36 79 38 99 39 68 40 53 41 54 42 62 43 55 44
REMARK SMILES IDX 61 45 56 46 57 47 58 48 59 49 60 50 83 51 84 52 92 53 85 54
REMARK SMILES IDX 91 55 86 56 87 57 88 58 89 59 90 60 69 61 70 62 78 63 71 64
REMARK SMILES IDX 77 65 72 66 73 67 74 68 75 69 76 70 8 71 9 72 10 73 11 74
REMARK SMILES IDX 12 76 13 77 14 78 43 79 15 80 42 81 16 82 17 83 18 84 41 85
REMARK SMILES IDX 19 86 40 87 20 88 21 89 22 90 23 91 32 92 24 93 30 94 25 95
REMARK SMILES IDX 29 96 31 97 26 98 28 99 27 100 33 101 34 102 39 103 35 104
REMARK SMILES IDX 38 105 36 106 37 107
REMARK H PARENT 3 8 97 26 67 37 10 75
REMARK Flexibility Score: inf
ROOT
ATOM      1  C   UNL     1       4.888  -0.131   4.170  1.00  0.00     0.002 C 
ENDROOT
BRANCH   1   2
ATOM      2  C   UNL     1       4.349   1.071   3.385  1.00  0.00     0.002 C 
BRANCH   2   3
ATOM      3  C   UNL     1       4.869   1.243   1.951  1.00  0.00     0.021 C 
BRANCH   3   4
ATOM      4  C   UNL     1       4.628   0.056   1.020  1.00  0.00     0.116 C 
BRANCH   4   5
ATOM      5  N   UNL     1       3.235  -0.305   0.864  1.00  0.00    -0.352 N 
ATOM      6  O   UNL     1       1.196  -0.627   0.108  1.00  0.00    -0.269 OA
ATOM      7  C   UNL     1       2.220   0.060   0.024  1.00  0.00     0.251 C 
ATOM      8  H   UNL     1       2.949  -0.977   1.524  1.00  0.00     0.163 HD
BRANCH   7   9
ATOM      9  C   UNL     1       2.223   1.222  -0.912  1.00  0.00     0.039 A 
ATOM     10  C   UNL     1       3.319   2.014  -1.251  1.00  0.00     0.014 A 
ATOM     11  C   UNL     1       0.970   1.550  -1.476  1.00  0.00     0.014 A 
ATOM     12  C   UNL     1       3.151   3.134  -2.075  1.00  0.00     0.010 A 
ATOM     13  C   UNL     1       0.797   2.666  -2.292  1.00  0.00     0.010 A 
ATOM     14  C   UNL     1       1.886   3.480  -2.573  1.00  0.00    -0.014 A 
BRANCH  14  15
ATOM     15  C   UNL     1       1.780   4.575  -3.542  1.00  0.00     0.031 A 
ATOM     16  C   UNL     1       2.485   4.306  -4.825  1.00  0.00     0.074 A 
ATOM     17  C   UNL     1       1.034   5.695  -3.412  1.00  0.00     0.049 A 
ATOM     18  N   UNL     1       3.587   4.839  -5.238  1.00  0.00    -0.248 NA
ATOM     19  C   UNL     1       1.985   3.224  -5.687  1.00  0.00     0.031 C 
ATOM     20  C   UNL     1       0.056   6.025  -2.375  1.00  0.00     0.029 A 
ATOM     21  N   UNL     1       0.947   6.767  -4.258  1.00  0.00    -0.354 N 
ATOM     22  C   UNL     1       3.814   4.322  -6.509  1.00  0.00     0.074 A 
ATOM     23  C   UNL     1       2.894   3.222  -6.665  1.00  0.00     0.031 C 
ATOM     24  C   UNL     1      -0.672   7.100  -2.765  1.00  0.00     0.029 A 
ATOM     25  C   UNL     1      -0.121   7.627  -4.005  1.00  0.00     0.049 A 
ATOM     26  H   UNL     1       1.588   6.920  -4.989  1.00  0.00     0.167 HD
ATOM     27  C   UNL     1       4.588   4.978  -7.419  1.00  0.00     0.031 A 
ATOM     28  C   UNL     1      -0.534   8.675  -4.769  1.00  0.00     0.031 A 
ATOM     29  C   UNL     1       5.350   6.035  -6.807  1.00  0.00     0.049 A 
ATOM     30  C   UNL     1       0.613   9.088  -5.611  1.00  0.00     0.074 A 
ATOM     31  C   UNL     1       6.293   6.104  -5.800  1.00  0.00     0.029 A 
ATOM     32  N   UNL     1       4.884   7.317  -6.978  1.00  0.00    -0.354 N 
ATOM     33  N   UNL     1       1.692   9.636  -5.132  1.00  0.00    -0.248 NA
ATOM     34  C   UNL     1       0.744   8.495  -6.931  1.00  0.00     0.031 C 
ATOM     35  C   UNL     1       5.983   7.303  -5.093  1.00  0.00     0.029 A 
ATOM     36  C   UNL     1       4.928   7.933  -5.755  1.00  0.00     0.049 A 
ATOM     37  H   UNL     1       4.576   7.718  -7.823  1.00  0.00     0.167 HD
ATOM     38  C   UNL     1       2.725   9.069  -5.861  1.00  0.00     0.074 A 
ATOM     39  C   UNL     1       2.076   8.445  -7.013  1.00  0.00     0.031 C 
ATOM     40  C   UNL     1       3.971   8.926  -5.321  1.00  0.00     0.031 A 
BRANCH  27  41
ATOM     41  C   UNL     1       4.359   4.939  -8.911  1.00  0.00    -0.014 A 
ATOM     42  C   UNL     1       5.256   5.631  -9.751  1.00  0.00     0.010 A 
ATOM     43  C   UNL     1       3.151   4.500  -9.489  1.00  0.00     0.010 A 
ATOM     44  C   UNL     1       4.927   5.934 -11.078  1.00  0.00     0.020 A 
ATOM     45  C   UNL     1       2.832   4.759 -10.824  1.00  0.00     0.020 A 
ATOM     46  C   UNL     1       3.708   5.504 -11.601  1.00  0.00     0.054 A 
BRANCH  46  47
ATOM     47  S   UNL     1       3.256   5.976 -13.288  1.00  0.00     0.124 S 
ATOM     48  O   UNL     1       3.118   7.424 -13.169  1.00  0.00    -0.237 OA
ATOM     49  O   UNL     1       4.408   5.511 -14.056  1.00  0.00    -0.237 OA
ATOM     50  O   UNL     1       2.016   5.243 -13.527  1.00  0.00    -0.744 OA
ENDBRANCH  46  47
ENDBRANCH  27  41
BRANCH  28  51
ATOM     51  C   UNL     1      -1.911   9.171  -5.042  1.00  0.00    -0.014 A 
ATOM     52  C   UNL     1      -2.130  10.406  -5.688  1.00  0.00     0.010 A 
ATOM     53  C   UNL     1      -3.000   8.281  -4.957  1.00  0.00     0.010 A 
ATOM     54  C   UNL     1      -3.367  10.705  -6.293  1.00  0.00     0.020 A 
ATOM     55  C   UNL     1      -4.235   8.574  -5.553  1.00  0.00     0.020 A 
ATOM     56  C   UNL     1      -4.405   9.774  -6.242  1.00  0.00     0.054 A 
BRANCH  56  57
ATOM     57  S   UNL     1      -5.930  10.072  -7.192  1.00  0.00     0.124 S 
ATOM     58  O   UNL     1      -6.562  11.151  -6.440  1.00  0.00    -0.237 OA
ATOM     59  O   UNL     1      -5.419  10.436  -8.511  1.00  0.00    -0.237 OA
ATOM     60  O   UNL     1      -6.626   8.787  -7.136  1.00  0.00    -0.744 OA
ENDBRANCH  56  57
ENDBRANCH  28  51
BRANCH  40  61
ATOM     61  C   UNL     1       4.315   9.695  -4.068  1.00  0.00    -0.014 A 
ATOM     62  C   UNL     1       3.604   9.614  -2.855  1.00  0.00     0.010 A 
ATOM     63  C   UNL     1       5.497  10.457  -4.100  1.00  0.00     0.010 A 
ATOM     64  C   UNL     1       4.043  10.314  -1.720  1.00  0.00     0.020 A 
ATOM     65  C   UNL     1       5.951  11.137  -2.970  1.00  0.00     0.020 A 
ATOM     66  C   UNL     1       5.214  11.077  -1.789  1.00  0.00     0.054 A 
BRANCH  66  67
ATOM     67  S   UNL     1       5.787  11.977  -0.323  1.00  0.00     0.124 S 
ATOM     68  O   UNL     1       4.756  12.997  -0.154  1.00  0.00    -0.237 OA
ATOM     69  O   UNL     1       5.820  10.938   0.704  1.00  0.00    -0.237 OA
ATOM     70  O   UNL     1       7.100  12.486  -0.717  1.00  0.00    -0.744 OA
ENDBRANCH  66  67
ENDBRANCH  40  61
ENDBRANCH  14  15
ENDBRANCH   7   9
ENDBRANCH   4   5
ENDBRANCH   3   4
ENDBRANCH   2   3
ENDBRANCH   1   2
BRANCH   1  71
ATOM     71  C   UNL     1       6.412  -0.234   4.276  1.00  0.00     0.021 C 
BRANCH  71  72
ATOM     72  C   UNL     1       7.102   0.970   4.915  1.00  0.00     0.116 C 
BRANCH  72  73
ATOM     73  N   UNL     1       6.798   1.099   6.332  1.00  0.00    -0.352 N 
ATOM     74  C   UNL     1       7.639   1.002   7.411  1.00  0.00     0.251 C 
ATOM     75  H   UNL     1       5.855   1.282   6.547  1.00  0.00     0.163 HD
ATOM     76  O   UNL     1       7.193   1.000   8.560  1.00  0.00    -0.269 OA
BRANCH  74  77
ATOM     77  C   UNL     1       9.091   0.859   7.197  1.00  0.00     0.039 A 
ATOM     78  C   UNL     1       9.749  -0.232   7.772  1.00  0.00     0.016 A 
ATOM     79  C   UNL     1       9.801   1.796   6.439  1.00  0.00     0.016 A 
ATOM     80  C   UNL     1      11.109  -0.433   7.528  1.00  0.00     0.029 A 
ATOM     81  C   UNL     1      11.164   1.609   6.207  1.00  0.00     0.029 A 
ATOM     82  C   UNL     1      11.820   0.492   6.752  1.00  0.00     0.066 A 
BRANCH  82  83
ATOM     83  N   UNL     1      13.214   0.322   6.581  1.00  0.00    -0.220 N 
ATOM     84  C   UNL     1      14.130   1.274   6.220  1.00  0.00     0.141 A 
ATOM     85  N   UNL     1      13.857  -0.850   6.803  1.00  0.00    -0.062 NA
ATOM     86  C   UNL     1      15.360   0.669   6.348  1.00  0.00     0.093 A 
ATOM     87  N   UNL     1      15.162  -0.651   6.641  1.00  0.00    -0.134 NA
BRANCH  86  88
ATOM     88  C   UNL     1      16.692   1.224   6.035  1.00  0.00     0.138 C 
BRANCH  88  89
ATOM     89  S   UNL     1      17.825   1.772   7.317  1.00  0.00    -0.081 SA
BRANCH  89  90
ATOM     90  C   UNL     1      17.046   2.037   8.857  1.00  0.00     0.176 A 
ATOM     91  N   UNL     1      17.812   1.677   9.847  1.00  0.00    -0.223 NA
ATOM     92  N   UNL     1      15.791   2.590   9.076  1.00  0.00    -0.255 N 
ATOM     93  C   UNL     1      17.305   1.738  11.148  1.00  0.00     0.079 A 
ATOM     94  C   UNL     1      15.109   2.057  10.182  1.00  0.00     0.266 A 
ATOM     95  C   UNL     1      18.153   1.682  12.255  1.00  0.00     0.029 A 
ATOM     96  C   UNL     1      15.935   1.746  11.358  1.00  0.00     0.066 A 
ATOM     97  O   UNL     1      13.902   1.832  10.251  1.00  0.00    -0.268 OA
ATOM     98  C   UNL     1      17.624   1.557  13.545  1.00  0.00     0.002 A 
ATOM     99  C   UNL     1      15.389   1.562  12.633  1.00  0.00     0.016 A 
ATOM    100  C   UNL     1      16.244   1.456  13.730  1.00  0.00     0.001 A 
BRANCH  92 101
ATOM    101  C   UNL     1      15.134   3.630   8.304  1.00  0.00     0.051 A 
ATOM    102  C   UNL     1      13.954   4.234   8.790  1.00  0.00     0.028 A 
ATOM    103  C   UNL     1      15.609   4.142   7.091  1.00  0.00     0.028 A 
ATOM    104  C   UNL     1      13.178   5.101   8.014  1.00  0.00     0.018 A 
ATOM    105  C   UNL     1      14.807   4.950   6.269  1.00  0.00     0.018 A 
ATOM    106  C   UNL     1      13.572   5.390   6.720  1.00  0.00     0.018 A 
ATOM    107  Br  UNL     1      12.429   6.355   5.574  1.00  0.00    -0.051 Br
ENDBRANCH  92 101
ENDBRANCH  89  90
ENDBRANCH  88  89
ENDBRANCH  86  88
ENDBRANCH  82  83
ENDBRANCH  74  77
ENDBRANCH  72  73
ENDBRANCH  71  72
ENDBRANCH   1  71
TORSDOF 21
