REMARK SMILES CCCCCCCNC(=O)Oc1cccc(-c2ccc([C@@H](C)C(=O)NCCCCCCNC(=O)c3ccc(-c4c5nc(c(-c6ccc(S(=O)(=O)[O-])cc6)c6ccc([nH]6)c(-c6ccc(S(=O)(=O)[O-])cc6)c6nc(c(-c7ccc(S(=O)(=O)[O-])cc7)c7ccc4[nH]7)C=C6)C=C5)cc3)cc2F)c1
REMARK SMILES IDX 23 1 24 2 25 3 21 5 22 6 20 7 17 8 18 9 96 10 19 11 95 12
REMARK SMILES IDX 97 13 16 14 12 15 13 16 98 17 14 18 15 19 11 20 9 21 8 22
REMARK SMILES IDX 10 24 7 25 6 26 5 27 4 28 3 29 2 30 1 31 26 32 27 33 28 34
REMARK SMILES IDX 29 35 30 36 31 37 32 38 33 39 34 41 35 42 36 43 94 44 37 45
REMARK SMILES IDX 93 46 38 47 39 48 40 49 87 50 41 51 92 52 86 53 88 54 42 55
REMARK SMILES IDX 91 56 85 57 84 58 43 60 73 61 54 62 72 63 55 64 58 65 71 66
REMARK SMILES IDX 89 67 56 68 57 69 70 71 90 72 59 73 44 74 45 75 53 76 46 77
REMARK SMILES IDX 52 78 47 79 48 80 49 81 50 82 51 83 74 84 75 85 83 86 76 87
REMARK SMILES IDX 82 88 77 89 78 90 79 91 80 92 81 93 60 94 61 95 69 96 62 97
REMARK SMILES IDX 68 98 63 99 64 100 65 101 66 102 67 103
REMARK H PARENT 25 4 8 23 32 40 88 59 58 70
REMARK Flexibility Score: inf
ROOT
ATOM      1  C   UNL     1     -10.272  10.287   3.009  1.00  0.00     0.227 C 
ATOM      2  O   UNL     1     -10.508   9.880   1.864  1.00  0.00    -0.274 OA
ATOM      3  N   UNL     1      -9.801  11.559   3.114  1.00  0.00    -0.356 N 
ATOM      4  H   UNL     1      -9.765  12.048   2.260  1.00  0.00     0.163 HD
ENDROOT
BRANCH   1   5
ATOM      5  C   UNL     1     -10.534   9.370   4.213  1.00  0.00     0.105 C 
ATOM      6  C   UNL     1     -11.578   9.911   5.191  1.00  0.00     0.023 C 
BRANCH   5   7
ATOM      7  C   UNL     1      -9.268   8.807   4.840  1.00  0.00    -0.033 A 
ATOM      8  C   UNL     1      -6.800   7.763   5.856  1.00  0.00     0.018 A 
ATOM      9  C   UNL     1      -7.354   8.959   6.340  1.00  0.00     0.012 A 
ATOM     10  C   UNL     1      -7.541   7.088   4.874  1.00  0.00     0.131 A 
ATOM     11  C   UNL     1      -8.578   9.449   5.871  1.00  0.00     0.005 A 
ATOM     12  C   UNL     1      -8.735   7.603   4.359  1.00  0.00     0.044 A 
ATOM     13  F   UNL     1      -7.124   5.904   4.396  1.00  0.00    -0.206 F 
BRANCH   8  14
ATOM     14  C   UNL     1      -5.497   7.280   6.364  1.00  0.00    -0.012 A 
ATOM     15  C   UNL     1      -3.342   6.207   6.027  1.00  0.00     0.133 A 
ATOM     16  C   UNL     1      -2.982   6.424   7.352  1.00  0.00     0.047 A 
ATOM     17  C   UNL     1      -4.578   6.623   5.530  1.00  0.00     0.056 A 
ATOM     18  C   UNL     1      -3.872   7.074   8.195  1.00  0.00     0.004 A 
ATOM     19  C   UNL     1      -5.117   7.485   7.708  1.00  0.00     0.009 A 
BRANCH  15  20
ATOM     20  O   UNL     1      -2.465   5.421   5.263  1.00  0.00    -0.410 OA
BRANCH  20  21
ATOM     21  C   UNL     1      -2.116   5.822   3.984  1.00  0.00     0.412 C 
ATOM     22  N   UNL     1      -1.363   4.885   3.331  1.00  0.00    -0.321 N 
ATOM     23  H   UNL     1      -1.043   5.120   2.430  1.00  0.00     0.167 HD
ATOM     24  O   UNL     1      -2.410   6.883   3.448  1.00  0.00    -0.224 OA
BRANCH  22  25
ATOM     25  C   UNL     1      -0.991   3.579   3.839  1.00  0.00     0.119 C 
BRANCH  25  26
ATOM     26  C   UNL     1      -1.505   2.455   2.941  1.00  0.00     0.021 C 
BRANCH  26  27
ATOM     27  C   UNL     1      -0.918   2.454   1.524  1.00  0.00     0.002 C 
BRANCH  27  28
ATOM     28  C   UNL     1       0.610   2.356   1.454  1.00  0.00     0.000 C 
BRANCH  28  29
ATOM     29  C   UNL     1       1.209   1.089   2.074  1.00  0.00    -0.000 C 
BRANCH  29  30
ATOM     30  C   UNL     1       0.752  -0.225   1.436  1.00  0.00    -0.003 C 
ATOM     31  C   UNL     1       1.111  -0.335  -0.038  1.00  0.00     0.004 C 
ENDBRANCH  29  30
ENDBRANCH  28  29
ENDBRANCH  27  28
ENDBRANCH  26  27
ENDBRANCH  25  26
ENDBRANCH  22  25
ENDBRANCH  20  21
ENDBRANCH  15  20
ENDBRANCH   8  14
ENDBRANCH   5   7
ENDBRANCH   1   5
BRANCH   3  32
ATOM     32  C   UNL     1      -9.344  12.323   4.256  1.00  0.00     0.116 C 
BRANCH  32  33
ATOM     33  C   UNL     1      -7.816  12.387   4.318  1.00  0.00     0.021 C 
BRANCH  33  34
ATOM     34  C   UNL     1      -7.216  13.567   3.546  1.00  0.00     0.002 C 
BRANCH  34  35
ATOM     35  C   UNL     1      -7.616  14.953   4.069  1.00  0.00     0.002 C 
BRANCH  35  36
ATOM     36  C   UNL     1      -7.327  15.205   5.552  1.00  0.00     0.021 C 
BRANCH  36  37
ATOM     37  C   UNL     1      -5.854  15.100   5.939  1.00  0.00     0.116 C 
BRANCH  37  38
ATOM     38  N   UNL     1      -5.045  16.092   5.247  1.00  0.00    -0.352 N 
ATOM     39  C   UNL     1      -4.286  17.113   5.761  1.00  0.00     0.251 C 
ATOM     40  H   UNL     1      -5.043  16.020   4.265  1.00  0.00     0.163 HD
ATOM     41  O   UNL     1      -3.878  18.004   5.021  1.00  0.00    -0.269 OA
BRANCH  39  42
ATOM     42  C   UNL     1      -3.964  17.142   7.204  1.00  0.00     0.039 A 
ATOM     43  C   UNL     1      -4.042  18.355   7.893  1.00  0.00     0.014 A 
ATOM     44  C   UNL     1      -3.558  15.981   7.869  1.00  0.00     0.014 A 
ATOM     45  C   UNL     1      -3.763  18.392   9.261  1.00  0.00     0.010 A 
ATOM     46  C   UNL     1      -3.348  16.007   9.245  1.00  0.00     0.010 A 
ATOM     47  C   UNL     1      -3.442  17.214   9.954  1.00  0.00    -0.014 A 
BRANCH  47  48
ATOM     48  C   UNL     1      -3.199  17.223  11.419  1.00  0.00     0.031 A 
ATOM     49  C   UNL     1      -1.843  16.860  11.965  1.00  0.00     0.074 A 
ATOM     50  C   UNL     1      -4.215  17.498  12.261  1.00  0.00     0.049 A 
ATOM     51  N   UNL     1      -1.458  16.757  13.211  1.00  0.00    -0.248 NA
ATOM     52  C   UNL     1      -0.791  16.551  10.983  1.00  0.00     0.031 C 
ATOM     53  C   UNL     1      -5.585  17.826  11.856  1.00  0.00     0.029 A 
ATOM     54  N   UNL     1      -4.257  17.538  13.632  1.00  0.00    -0.354 N 
ATOM     55  C   UNL     1      -0.127  16.356  13.163  1.00  0.00     0.074 A 
ATOM     56  C   UNL     1       0.213  16.187  11.768  1.00  0.00     0.031 C 
ATOM     57  C   UNL     1      -6.323  18.059  12.953  1.00  0.00     0.029 A 
ATOM     58  C   UNL     1      -5.495  17.857  14.138  1.00  0.00     0.049 A 
ATOM     59  H   UNL     1      -3.474  17.355  14.200  1.00  0.00     0.167 HD
ATOM     60  C   UNL     1       0.739  16.163  14.187  1.00  0.00     0.031 A 
ATOM     61  C   UNL     1      -5.921  17.966  15.411  1.00  0.00     0.031 A 
ATOM     62  C   UNL     1       0.398  16.341  15.574  1.00  0.00     0.049 A 
ATOM     63  C   UNL     1      -4.944  17.737  16.532  1.00  0.00     0.074 A 
ATOM     64  C   UNL     1       1.218  16.223  16.683  1.00  0.00     0.029 A 
ATOM     65  N   UNL     1      -0.864  16.673  16.044  1.00  0.00    -0.354 N 
ATOM     66  N   UNL     1      -3.673  17.419  16.464  1.00  0.00    -0.248 NA
ATOM     67  C   UNL     1      -5.456  17.892  17.900  1.00  0.00     0.031 C 
ATOM     68  C   UNL     1       0.438  16.431  17.826  1.00  0.00     0.029 A 
ATOM     69  C   UNL     1      -0.852  16.740  17.427  1.00  0.00     0.049 A 
ATOM     70  H   UNL     1      -1.653  16.837  15.477  1.00  0.00     0.167 HD
ATOM     71  C   UNL     1      -3.226  17.364  17.780  1.00  0.00     0.074 A 
ATOM     72  C   UNL     1      -4.359  17.695  18.620  1.00  0.00     0.031 C 
ATOM     73  C   UNL     1      -1.989  17.069  18.250  1.00  0.00     0.031 A 
BRANCH  60  74
ATOM     74  C   UNL     1       2.140  15.730  13.844  1.00  0.00    -0.014 A 
ATOM     75  C   UNL     1       3.036  16.605  13.203  1.00  0.00     0.010 A 
ATOM     76  C   UNL     1       2.582  14.443  14.201  1.00  0.00     0.010 A 
ATOM     77  C   UNL     1       4.332  16.188  12.887  1.00  0.00     0.020 A 
ATOM     78  C   UNL     1       3.887  14.031  13.915  1.00  0.00     0.020 A 
ATOM     79  C   UNL     1       4.748  14.901  13.243  1.00  0.00     0.054 A 
BRANCH  79  80
ATOM     80  S   UNL     1       6.442  14.394  12.840  1.00  0.00     0.124 S 
ATOM     81  O   UNL     1       6.367  14.217  11.392  1.00  0.00    -0.237 OA
ATOM     82  O   UNL     1       7.235  15.534  13.293  1.00  0.00    -0.237 OA
ATOM     83  O   UNL     1       6.629  13.165  13.607  1.00  0.00    -0.744 OA
ENDBRANCH  79  80
ENDBRANCH  60  74
BRANCH  61  84
ATOM     84  C   UNL     1      -7.338  18.325  15.693  1.00  0.00    -0.014 A 
ATOM     85  C   UNL     1      -7.664  19.585  16.224  1.00  0.00     0.010 A 
ATOM     86  C   UNL     1      -8.372  17.411  15.417  1.00  0.00     0.010 A 
ATOM     87  C   UNL     1      -8.995  19.919  16.491  1.00  0.00     0.020 A 
ATOM     88  C   UNL     1      -9.706  17.751  15.656  1.00  0.00     0.020 A 
ATOM     89  C   UNL     1     -10.008  19.000  16.203  1.00  0.00     0.054 A 
BRANCH  89  90
ATOM     90  S   UNL     1     -11.733  19.473  16.509  1.00  0.00     0.124 S 
ATOM     91  O   UNL     1     -11.810  19.411  17.965  1.00  0.00    -0.237 OA
ATOM     92  O   UNL     1     -11.801  20.811  15.927  1.00  0.00    -0.237 OA
ATOM     93  O   UNL     1     -12.498  18.453  15.796  1.00  0.00    -0.744 OA
ENDBRANCH  89  90
ENDBRANCH  61  84
BRANCH  73  94
ATOM     94  C   UNL     1      -1.782  17.123  19.740  1.00  0.00    -0.014 A 
ATOM     95  C   UNL     1      -2.325  16.142  20.589  1.00  0.00     0.010 A 
ATOM     96  C   UNL     1      -0.985  18.142  20.292  1.00  0.00     0.010 A 
ATOM     97  C   UNL     1      -2.100  16.198  21.967  1.00  0.00     0.020 A 
ATOM     98  C   UNL     1      -0.733  18.185  21.665  1.00  0.00     0.020 A 
ATOM     99  C   UNL     1      -1.304  17.219  22.496  1.00  0.00     0.054 A 
BRANCH  99 100
ATOM    100  S   UNL     1      -0.990  17.243  24.282  1.00  0.00     0.124 S 
ATOM    101  O   UNL     1      -2.275  17.691  24.811  1.00  0.00    -0.237 OA
ATOM    102  O   UNL     1      -0.643  15.853  24.565  1.00  0.00    -0.237 OA
ATOM    103  O   UNL     1       0.110  18.195  24.428  1.00  0.00    -0.744 OA
ENDBRANCH  99 100
ENDBRANCH  73  94
ENDBRANCH  47  48
ENDBRANCH  39  42
ENDBRANCH  37  38
ENDBRANCH  36  37
ENDBRANCH  35  36
ENDBRANCH  34  35
ENDBRANCH  33  34
ENDBRANCH  32  33
ENDBRANCH   3  32
TORSDOF 26
