REMARK SMILES O=C(NCCCCCCNC(=O)c1c(C(=O)N2CCc3ccccc32)cccc1[N+](=O)[O-])c1ccc(-c2c3nc(c(-c4ccc(S(=O)(=O)[O-])cc4)c4ccc([nH]4)c(-c4ccc(S(=O)(=O)[O-])cc4)c4nc(c(-c5ccc(S(=O)(=O)[O-])cc5)c5ccc2[nH]5)C=C4)C=C3)cc1
REMARK SMILES IDX 6 1 5 2 4 3 3 4 1 5 2 6 33 8 34 9 92 10 35 11 91 12 36 13
REMARK SMILES IDX 37 14 38 15 85 16 39 17 90 18 84 19 86 20 40 21 89 22 83 23
REMARK SMILES IDX 82 24 41 26 71 27 52 28 70 29 53 30 56 31 69 32 87 33 54 34
REMARK SMILES IDX 55 35 68 37 88 38 57 39 42 40 43 41 51 42 44 43 50 44 45 45
REMARK SMILES IDX 46 46 47 47 48 48 49 49 72 50 73 51 81 52 74 53 80 54 75 55
REMARK SMILES IDX 76 56 77 57 78 58 79 59 58 60 59 61 67 62 60 63 66 64 61 65
REMARK SMILES IDX 62 66 63 67 64 68 65 69 7 70 8 71 9 72 10 73 11 74 12 76
REMARK SMILES IDX 13 77 14 78 29 79 26 80 28 81 27 82 15 83 16 84 17 85 18 86
REMARK SMILES IDX 25 87 19 88 20 89 24 90 21 91 23 92 22 93 30 94 31 95 32 96
REMARK H PARENT 3 7 86 25 56 36 10 75
REMARK Flexibility Score: inf
ROOT
ATOM      1  C   UNL     1       4.194  -3.936  -0.076  1.00  0.00     0.002 C 
ENDROOT
BRANCH   1   2
ATOM      2  C   UNL     1       4.651  -2.686   0.676  1.00  0.00     0.021 C 
BRANCH   2   3
ATOM      3  C   UNL     1       4.394  -1.362  -0.031  1.00  0.00     0.116 C 
BRANCH   3   4
ATOM      4  N   UNL     1       2.984  -1.098  -0.258  1.00  0.00    -0.352 N 
ATOM      5  O   UNL     1       1.055   0.066  -0.173  1.00  0.00    -0.269 OA
ATOM      6  C   UNL     1       2.268   0.054  -0.022  1.00  0.00     0.251 C 
ATOM      7  H   UNL     1       2.468  -1.848  -0.634  1.00  0.00     0.163 HD
BRANCH   6   8
ATOM      8  C   UNL     1       2.974   1.269   0.451  1.00  0.00     0.039 A 
ATOM      9  C   UNL     1       4.158   1.695  -0.155  1.00  0.00     0.014 A 
ATOM     10  C   UNL     1       2.442   1.982   1.528  1.00  0.00     0.014 A 
ATOM     11  C   UNL     1       4.882   2.744   0.404  1.00  0.00     0.010 A 
ATOM     12  C   UNL     1       3.132   3.085   2.040  1.00  0.00     0.010 A 
ATOM     13  C   UNL     1       4.378   3.452   1.507  1.00  0.00    -0.014 A 
BRANCH  13  14
ATOM     14  C   UNL     1       5.152   4.592   2.062  1.00  0.00     0.031 A 
ATOM     15  C   UNL     1       5.732   4.536   3.449  1.00  0.00     0.074 A 
ATOM     16  C   UNL     1       5.354   5.678   1.291  1.00  0.00     0.049 A 
ATOM     17  N   UNL     1       6.468   5.425   4.069  1.00  0.00    -0.248 NA
ATOM     18  C   UNL     1       5.447   3.334   4.247  1.00  0.00     0.031 C 
ATOM     19  C   UNL     1       4.840   5.853  -0.070  1.00  0.00     0.029 A 
ATOM     20  N   UNL     1       6.062   6.828   1.528  1.00  0.00    -0.354 N 
ATOM     21  C   UNL     1       6.711   4.905   5.335  1.00  0.00     0.074 A 
ATOM     22  C   UNL     1       6.028   3.630   5.402  1.00  0.00     0.031 C 
ATOM     23  C   UNL     1       5.295   7.012  -0.566  1.00  0.00     0.029 A 
ATOM     24  C   UNL     1       6.085   7.689   0.457  1.00  0.00     0.049 A 
ATOM     25  H   UNL     1       6.512   7.018   2.383  1.00  0.00     0.167 HD
ATOM     26  C   UNL     1       7.436   5.439   6.349  1.00  0.00     0.031 A 
ATOM     27  C   UNL     1       6.670   8.892   0.311  1.00  0.00     0.031 A 
ATOM     28  C   UNL     1       8.117   6.707   6.278  1.00  0.00     0.049 A 
ATOM     29  C   UNL     1       7.458   9.467   1.451  1.00  0.00     0.074 A 
ATOM     30  C   UNL     1       8.906   7.315   7.239  1.00  0.00     0.029 A 
ATOM     31  N   UNL     1       8.085   7.564   5.188  1.00  0.00    -0.354 N 
ATOM     32  N   UNL     1       7.701   8.944   2.628  1.00  0.00    -0.248 NA
ATOM     33  C   UNL     1       8.053  10.793   1.240  1.00  0.00     0.031 C 
ATOM     34  C   UNL     1       9.315   8.560   6.747  1.00  0.00     0.029 A 
ATOM     35  C   UNL     1       8.823   8.704   5.459  1.00  0.00     0.049 A 
ATOM     36  H   UNL     1       7.609   7.387   4.345  1.00  0.00     0.167 HD
ATOM     37  C   UNL     1       8.497   9.869   3.294  1.00  0.00     0.074 A 
ATOM     38  C   UNL     1       8.702  10.977   2.381  1.00  0.00     0.031 C 
ATOM     39  C   UNL     1       9.014   9.803   4.545  1.00  0.00     0.031 A 
BRANCH  26  40
ATOM     40  C   UNL     1       7.497   4.664   7.640  1.00  0.00    -0.014 A 
ATOM     41  C   UNL     1       8.241   3.476   7.747  1.00  0.00     0.010 A 
ATOM     42  C   UNL     1       6.810   5.145   8.770  1.00  0.00     0.010 A 
ATOM     43  C   UNL     1       8.254   2.754   8.945  1.00  0.00     0.020 A 
ATOM     44  C   UNL     1       6.841   4.439   9.977  1.00  0.00     0.020 A 
ATOM     45  C   UNL     1       7.544   3.235  10.049  1.00  0.00     0.054 A 
BRANCH  45  46
ATOM     46  S   UNL     1       7.567   2.277  11.590  1.00  0.00     0.124 S 
ATOM     47  O   UNL     1       6.644   1.188  11.278  1.00  0.00    -0.237 OA
ATOM     48  O   UNL     1       8.971   1.894  11.711  1.00  0.00    -0.237 OA
ATOM     49  O   UNL     1       7.095   3.226  12.595  1.00  0.00    -0.744 OA
ENDBRANCH  45  46
ENDBRANCH  26  40
BRANCH  27  50
ATOM     50  C   UNL     1       6.542   9.614  -0.982  1.00  0.00    -0.014 A 
ATOM     51  C   UNL     1       7.639   9.708  -1.854  1.00  0.00     0.010 A 
ATOM     52  C   UNL     1       5.306  10.162  -1.372  1.00  0.00     0.010 A 
ATOM     53  C   UNL     1       7.504  10.338  -3.094  1.00  0.00     0.020 A 
ATOM     54  C   UNL     1       5.160  10.770  -2.621  1.00  0.00     0.020 A 
ATOM     55  C   UNL     1       6.263  10.859  -3.473  1.00  0.00     0.054 A 
BRANCH  55  56
ATOM     56  S   UNL     1       6.089  11.596  -5.121  1.00  0.00     0.124 S 
ATOM     57  O   UNL     1       6.744  12.888  -4.946  1.00  0.00    -0.237 OA
ATOM     58  O   UNL     1       6.793  10.639  -5.972  1.00  0.00    -0.237 OA
ATOM     59  O   UNL     1       4.642  11.646  -5.320  1.00  0.00    -0.744 OA
ENDBRANCH  55  56
ENDBRANCH  27  50
BRANCH  39  60
ATOM     60  C   UNL     1       9.882  10.948   4.989  1.00  0.00    -0.014 A 
ATOM     61  C   UNL     1       9.328  12.197   5.322  1.00  0.00     0.010 A 
ATOM     62  C   UNL     1      11.271  10.760   5.102  1.00  0.00     0.010 A 
ATOM     63  C   UNL     1      10.154  13.249   5.726  1.00  0.00     0.020 A 
ATOM     64  C   UNL     1      12.097  11.802   5.529  1.00  0.00     0.020 A 
ATOM     65  C   UNL     1      11.534  13.046   5.823  1.00  0.00     0.054 A 
BRANCH  65  66
ATOM     66  S   UNL     1      12.586  14.416   6.377  1.00  0.00     0.124 S 
ATOM     67  O   UNL     1      12.661  15.246   5.178  1.00  0.00    -0.237 OA
ATOM     68  O   UNL     1      11.822  14.982   7.487  1.00  0.00    -0.237 OA
ATOM     69  O   UNL     1      13.834  13.759   6.760  1.00  0.00    -0.744 OA
ENDBRANCH  65  66
ENDBRANCH  39  60
ENDBRANCH  13  14
ENDBRANCH   6   8
ENDBRANCH   3   4
ENDBRANCH   2   3
ENDBRANCH   1   2
BRANCH   1  70
ATOM     70  C   UNL     1       4.692  -4.074  -1.518  1.00  0.00     0.002 C 
BRANCH  70  71
ATOM     71  C   UNL     1       6.207  -3.967  -1.729  1.00  0.00     0.021 C 
BRANCH  71  72
ATOM     72  C   UNL     1       7.062  -4.870  -0.845  1.00  0.00     0.116 C 
BRANCH  72  73
ATOM     73  N   UNL     1       6.741  -6.276  -1.012  1.00  0.00    -0.352 N 
ATOM     74  C   UNL     1       7.562  -7.370  -1.046  1.00  0.00     0.259 C 
ATOM     75  H   UNL     1       5.782  -6.473  -1.117  1.00  0.00     0.163 HD
ATOM     76  O   UNL     1       7.093  -8.480  -1.258  1.00  0.00    -0.269 OA
BRANCH  74  77
ATOM     77  C   UNL     1       9.013  -7.205  -0.854  1.00  0.00     0.130 A 
ATOM     78  C   UNL     1       9.897  -7.603  -1.861  1.00  0.00     0.060 A 
ATOM     79  C   UNL     1       9.558  -6.726   0.342  1.00  0.00     0.282 A 
ATOM     80  C   UNL     1      11.286  -7.494  -1.673  1.00  0.00     0.015 A 
ATOM     81  C   UNL     1      10.942  -6.551   0.512  1.00  0.00     0.086 A 
ATOM     82  C   UNL     1      11.806  -6.930  -0.509  1.00  0.00     0.008 A 
BRANCH  78  83
ATOM     83  C   UNL     1       9.428  -8.325  -3.053  1.00  0.00     0.259 C 
ATOM     84  O   UNL     1       9.494  -9.552  -3.047  1.00  0.00    -0.269 OA
BRANCH  83  85
ATOM     85  N   UNL     1       9.009  -7.564  -4.147  1.00  0.00    -0.308 N 
ATOM     86  C   UNL     1       7.683  -7.905  -4.717  1.00  0.00     0.131 C 
ATOM     87  C   UNL     1       9.912  -7.537  -5.244  1.00  0.00     0.047 A 
ATOM     88  C   UNL     1       7.835  -8.119  -6.231  1.00  0.00     0.059 C 
ATOM     89  C   UNL     1       9.309  -8.007  -6.406  1.00  0.00    -0.022 A 
ATOM     90  C   UNL     1      11.272  -7.283  -5.197  1.00  0.00     0.026 A 
ATOM     91  C   UNL     1      10.076  -8.369  -7.503  1.00  0.00     0.006 A 
ATOM     92  C   UNL     1      12.054  -7.631  -6.298  1.00  0.00     0.002 A 
ATOM     93  C   UNL     1      11.462  -8.207  -7.430  1.00  0.00     0.000 A 
ENDBRANCH  83  85
ENDBRANCH  78  83
BRANCH  79  94
ATOM     94  N   UNL     1       8.713  -6.466   1.490  1.00  0.00     0.063 N 
ATOM     95  O   UNL     1       8.811  -5.347   2.008  1.00  0.00    -0.258 OA
ATOM     96  O   UNL     1       7.986  -7.384   1.884  1.00  0.00    -0.258 OA
ENDBRANCH  79  94
ENDBRANCH  74  77
ENDBRANCH  72  73
ENDBRANCH  71  72
ENDBRANCH  70  71
ENDBRANCH   1  70
TORSDOF 19
