REMARK SMILES Cc1cc(C(=O)N[C@H]2C=C[C@H](C(=O)NCCCCCCNC(=O)c3ccc(-c4c5nc(c(-c6ccc(S(=O)(=O)[O-])cc6)c6ccc([nH]6)c(-c6ccc(S(=O)(=O)[O-])cc6)c6nc(c(-c7ccc(S(=O)(=O)[O-])cc7)c7ccc4[nH]7)C=C6)C=C5)cc3)C2)ccc1F
REMARK SMILES IDX 18 1 17 2 16 3 15 4 14 5 12 6 13 7 11 9 8 10 9 11 84 12
REMARK SMILES IDX 10 13 7 14 5 15 6 16 4 18 1 19 2 20 3 21 87 22 86 23 88 24
REMARK SMILES IDX 85 25 19 26 20 27 21 28 22 29 23 31 24 32 25 33 83 34 26 35
REMARK SMILES IDX 82 36 27 37 28 38 29 39 76 40 30 41 81 42 75 43 77 44 31 45
REMARK SMILES IDX 80 46 74 47 73 48 32 50 62 51 43 52 61 53 44 54 47 55 60 56
REMARK SMILES IDX 78 57 45 58 46 59 59 61 79 62 48 63 33 64 34 65 42 66 35 67
REMARK SMILES IDX 41 68 36 69 37 70 38 71 39 72 40 73 63 74 64 75 72 76 65 77
REMARK SMILES IDX 71 78 66 79 67 80 68 81 69 82 70 83 49 84 50 85 58 86 51 87
REMARK SMILES IDX 57 88 52 89 53 90 54 91 55 92 56 93
REMARK H PARENT 14 8 7 17 21 30 77 49 47 60
REMARK Flexibility Score: inf
ROOT
ATOM      1  C   UNL     1       2.486   8.794  -0.123  1.00  0.00     0.002 C 
ENDROOT
BRANCH   1   2
ATOM      2  C   UNL     1       2.332   8.344   1.333  1.00  0.00     0.002 C 
BRANCH   2   3
ATOM      3  C   UNL     1       0.891   8.147   1.815  1.00  0.00     0.021 C 
BRANCH   3   4
ATOM      4  C   UNL     1       0.060   7.184   0.975  1.00  0.00     0.116 C 
BRANCH   4   5
ATOM      5  N   UNL     1       0.542   5.831   1.109  1.00  0.00    -0.356 N 
ATOM      6  C   UNL     1      -0.048   4.706   1.570  1.00  0.00     0.227 C 
ATOM      7  O   UNL     1       0.693   3.719   1.658  1.00  0.00    -0.274 OA
ATOM      8  H   UNL     1       1.472   5.705   0.810  1.00  0.00     0.163 HD
BRANCH   6   9
ATOM      9  C   UNL     1      -1.527   4.626   2.018  1.00  0.00     0.103 C 
ATOM     10  C   UNL     1      -2.543   3.364   0.240  1.00  0.00     0.106 C 
ATOM     11  C   UNL     1      -3.183   4.708   0.327  1.00  0.00    -0.006 C 
ATOM     12  C   UNL     1      -2.030   3.209   1.674  1.00  0.00     0.047 C 
ATOM     13  C   UNL     1      -2.587   5.421   1.294  1.00  0.00    -0.016 C 
BRANCH  10  14
ATOM     14  N   UNL     1      -3.459   2.340  -0.175  1.00  0.00    -0.346 N 
ATOM     15  C   UNL     1      -3.222   1.013  -0.457  1.00  0.00     0.251 C 
ATOM     16  O   UNL     1      -4.185   0.300  -0.740  1.00  0.00    -0.269 OA
ATOM     17  H   UNL     1      -4.395   2.629  -0.273  1.00  0.00     0.164 HD
BRANCH  15  18
ATOM     18  C   UNL     1      -1.866   0.385  -0.359  1.00  0.00     0.040 A 
ATOM     19  C   UNL     1       1.846   1.248  -0.395  1.00  0.00     0.047 C 
ATOM     20  C   UNL     1       0.578   0.450  -0.328  1.00  0.00    -0.015 A 
ATOM     21  C   UNL     1      -0.659   1.055  -0.594  1.00  0.00     0.020 A 
ATOM     22  C   UNL     1       0.599  -0.894   0.033  1.00  0.00     0.126 A 
ATOM     23  C   UNL     1      -0.581  -1.616   0.169  1.00  0.00     0.040 A 
ATOM     24  F   UNL     1       1.769  -1.510   0.254  1.00  0.00    -0.207 F 
ATOM     25  C   UNL     1      -1.811  -0.974  -0.007  1.00  0.00     0.017 A 
ENDBRANCH  15  18
ENDBRANCH  10  14
ENDBRANCH   6   9
ENDBRANCH   4   5
ENDBRANCH   3   4
ENDBRANCH   2   3
ENDBRANCH   1   2
BRANCH   1  26
ATOM     26  C   UNL     1       1.637  10.000  -0.529  1.00  0.00     0.021 C 
BRANCH  26  27
ATOM     27  C   UNL     1       1.834  11.240   0.334  1.00  0.00     0.116 C 
BRANCH  27  28
ATOM     28  N   UNL     1       3.189  11.757   0.249  1.00  0.00    -0.352 N 
ATOM     29  C   UNL     1       3.610  13.023  -0.071  1.00  0.00     0.251 C 
ATOM     30  H   UNL     1       3.904  11.110   0.450  1.00  0.00     0.163 HD
ATOM     31  O   UNL     1       4.801  13.238  -0.288  1.00  0.00    -0.269 OA
BRANCH  29  32
ATOM     32  C   UNL     1       2.624  14.119  -0.177  1.00  0.00     0.039 A 
ATOM     33  C   UNL     1       2.693  14.988  -1.268  1.00  0.00     0.014 A 
ATOM     34  C   UNL     1       1.629  14.282   0.792  1.00  0.00     0.014 A 
ATOM     35  C   UNL     1       1.729  15.988  -1.415  1.00  0.00     0.010 A 
ATOM     36  C   UNL     1       0.625  15.226   0.601  1.00  0.00     0.010 A 
ATOM     37  C   UNL     1       0.668  16.094  -0.501  1.00  0.00    -0.014 A 
BRANCH  37  38
ATOM     38  C   UNL     1      -0.406  17.105  -0.681  1.00  0.00     0.031 A 
ATOM     39  C   UNL     1      -0.610  18.185   0.348  1.00  0.00     0.074 A 
ATOM     40  C   UNL     1      -1.237  17.015  -1.738  1.00  0.00     0.049 A 
ATOM     41  N   UNL     1      -1.526  19.118   0.393  1.00  0.00    -0.248 NA
ATOM     42  C   UNL     1       0.320  18.201   1.488  1.00  0.00     0.031 C 
ATOM     43  C   UNL     1      -1.171  15.988  -2.781  1.00  0.00     0.029 A 
ATOM     44  N   UNL     1      -2.307  17.792  -2.105  1.00  0.00    -0.354 N 
ATOM     45  C   UNL     1      -1.290  19.823   1.567  1.00  0.00     0.074 A 
ATOM     46  C   UNL     1      -0.184  19.171   2.235  1.00  0.00     0.031 C 
ATOM     47  C   UNL     1      -2.144  16.211  -3.679  1.00  0.00     0.029 A 
ATOM     48  C   UNL     1      -2.930  17.365  -3.255  1.00  0.00     0.049 A 
ATOM     49  H   UNL     1      -2.601  18.580  -1.594  1.00  0.00     0.167 HD
ATOM     50  C   UNL     1      -1.922  20.925   2.039  1.00  0.00     0.031 A 
ATOM     51  C   UNL     1      -4.019  17.839  -3.891  1.00  0.00     0.031 A 
ATOM     52  C   UNL     1      -3.026  21.565   1.373  1.00  0.00     0.049 A 
ATOM     53  C   UNL     1      -4.720  19.050  -3.341  1.00  0.00     0.074 A 
ATOM     54  C   UNL     1      -3.704  22.713   1.743  1.00  0.00     0.029 A 
ATOM     55  N   UNL     1      -3.619  21.110   0.205  1.00  0.00    -0.354 N 
ATOM     56  N   UNL     1      -4.438  19.746  -2.265  1.00  0.00    -0.248 NA
ATOM     57  C   UNL     1      -5.876  19.550  -4.097  1.00  0.00     0.031 C 
ATOM     58  C   UNL     1      -4.747  22.916   0.833  1.00  0.00     0.029 A 
ATOM     59  C   UNL     1      -4.674  21.936  -0.145  1.00  0.00     0.049 A 
ATOM     60  H   UNL     1      -3.331  20.316  -0.302  1.00  0.00     0.167 HD
ATOM     61  C   UNL     1      -5.366  20.781  -2.228  1.00  0.00     0.074 A 
ATOM     62  C   UNL     1      -6.207  20.628  -3.399  1.00  0.00     0.031 C 
ATOM     63  C   UNL     1      -5.508  21.769  -1.310  1.00  0.00     0.031 A 
BRANCH  50  64
ATOM     64  C   UNL     1      -1.438  21.494   3.349  1.00  0.00    -0.014 A 
ATOM     65  C   UNL     1      -0.163  22.081   3.463  1.00  0.00     0.010 A 
ATOM     66  C   UNL     1      -2.274  21.459   4.480  1.00  0.00     0.010 A 
ATOM     67  C   UNL     1       0.288  22.565   4.694  1.00  0.00     0.020 A 
ATOM     68  C   UNL     1      -1.840  21.974   5.705  1.00  0.00     0.020 A 
ATOM     69  C   UNL     1      -0.552  22.503   5.809  1.00  0.00     0.054 A 
BRANCH  69  70
ATOM     70  S   UNL     1       0.062  23.136   7.394  1.00  0.00     0.124 S 
ATOM     71  O   UNL     1       1.045  22.120   7.762  1.00  0.00    -0.237 OA
ATOM     72  O   UNL     1       0.611  24.438   7.027  1.00  0.00    -0.237 OA
ATOM     73  O   UNL     1      -1.131  23.180   8.236  1.00  0.00    -0.744 OA
ENDBRANCH  69  70
ENDBRANCH  50  64
BRANCH  51  74
ATOM     74  C   UNL     1      -4.509  17.156  -5.121  1.00  0.00    -0.014 A 
ATOM     75  C   UNL     1      -4.390  17.768  -6.381  1.00  0.00     0.010 A 
ATOM     76  C   UNL     1      -5.069  15.867  -5.038  1.00  0.00     0.010 A 
ATOM     77  C   UNL     1      -4.832  17.109  -7.532  1.00  0.00     0.020 A 
ATOM     78  C   UNL     1      -5.483  15.193  -6.189  1.00  0.00     0.020 A 
ATOM     79  C   UNL     1      -5.369  15.823  -7.430  1.00  0.00     0.054 A 
BRANCH  79  80
ATOM     80  S   UNL     1      -5.872  14.960  -8.945  1.00  0.00     0.124 S 
ATOM     81  O   UNL     1      -7.077  15.690  -9.325  1.00  0.00    -0.237 OA
ATOM     82  O   UNL     1      -4.713  15.151  -9.814  1.00  0.00    -0.237 OA
ATOM     83  O   UNL     1      -6.086  13.585  -8.499  1.00  0.00    -0.744 OA
ENDBRANCH  79  80
ENDBRANCH  51  74
BRANCH  63  84
ATOM     84  C   UNL     1      -6.594  22.787  -1.545  1.00  0.00    -0.014 A 
ATOM     85  C   UNL     1      -7.953  22.455  -1.402  1.00  0.00     0.010 A 
ATOM     86  C   UNL     1      -6.242  24.114  -1.853  1.00  0.00     0.010 A 
ATOM     87  C   UNL     1      -8.940  23.426  -1.593  1.00  0.00     0.020 A 
ATOM     88  C   UNL     1      -7.224  25.094  -2.014  1.00  0.00     0.020 A 
ATOM     89  C   UNL     1      -8.569  24.740  -1.895  1.00  0.00     0.054 A 
BRANCH  89  90
ATOM     90  S   UNL     1      -9.869  25.990  -2.088  1.00  0.00     0.124 S 
ATOM     91  O   UNL     1     -10.470  25.610  -3.363  1.00  0.00    -0.237 OA
ATOM     92  O   UNL     1     -10.702  25.769  -0.909  1.00  0.00    -0.237 OA
ATOM     93  O   UNL     1      -9.136  27.255  -2.098  1.00  0.00    -0.744 OA
ENDBRANCH  89  90
ENDBRANCH  63  84
ENDBRANCH  37  38
ENDBRANCH  29  32
ENDBRANCH  27  28
ENDBRANCH  26  27
ENDBRANCH   1  26
TORSDOF 18
