REMARK SMILES NC(=O)c1c(-c2ccc(Cl)cc2)csc1NC(=O)[C@H]1[C@@H](C(=O)NCCCCCCNC(=O)c2ccc(-c3c4nc(c(-c5ccc(S(=O)(=O)[O-])cc5)c5ccc([nH]5)c(-c5ccc(S(=O)(=O)[O-])cc5)c5nc(c(-c6ccc(S(=O)(=O)[O-])cc6)c6ccc3[nH]6)C=C5)C=C4)cc2)[C@@H]2CC[C@H]1O2
REMARK SMILES IDX 26 1 25 2 24 3 23 4 21 5 22 6 20 8 19 9 96 10 93 11 95 12
REMARK SMILES IDX 97 13 94 14 17 15 16 16 18 18 15 19 4 20 5 21 13 22 14 23
REMARK SMILES IDX 2 24 1 25 3 28 6 29 7 30 12 31 8 32 11 33 9 34 10 35 27 36
REMARK SMILES IDX 28 37 29 38 30 39 31 40 32 42 33 43 34 44 92 45 35 46 91 47
REMARK SMILES IDX 36 48 37 49 38 50 85 51 39 52 90 53 84 54 86 55 40 56 89 57
REMARK SMILES IDX 83 58 82 59 41 61 71 62 52 63 70 64 53 65 56 66 69 67 87 68
REMARK SMILES IDX 54 69 55 70 68 72 88 73 57 74 42 75 43 76 51 77 44 78 50 79
REMARK SMILES IDX 45 80 46 81 47 82 48 83 49 84 72 85 73 86 81 87 74 88 80 89
REMARK SMILES IDX 75 90 76 91 77 92 78 93 79 94 58 95 59 96 67 97 60 98 66 99
REMARK SMILES IDX 61 100 62 101 63 102 64 103 65 104
REMARK H PARENT 23 7 16 17 1 26 1 27 30 41 86 60 56 71
REMARK Flexibility Score: inf
ROOT
ATOM      1  C   UNL     1       2.435  -6.130  -2.144  1.00  0.00     0.002 C 
ENDROOT
BRANCH   1   2
ATOM      2  C   UNL     1       1.106  -5.424  -2.451  1.00  0.00     0.021 C 
BRANCH   2   3
ATOM      3  C   UNL     1       1.239  -4.185  -3.337  1.00  0.00     0.116 C 
BRANCH   3   4
ATOM      4  N   UNL     1       1.718  -4.519  -4.663  1.00  0.00    -0.356 N 
ATOM      5  C   UNL     1       1.984  -3.692  -5.716  1.00  0.00     0.226 C 
ATOM      6  O   UNL     1       2.510  -4.181  -6.715  1.00  0.00    -0.275 OA
ATOM      7  H   UNL     1       1.872  -5.478  -4.828  1.00  0.00     0.163 HD
BRANCH   5   8
ATOM      8  C   UNL     1       1.702  -2.208  -5.557  1.00  0.00     0.122 C 
ATOM      9  C   UNL     1       0.365  -1.630  -6.066  1.00  0.00     0.123 C 
ATOM     10  C   UNL     1       0.841  -0.674  -7.182  1.00  0.00     0.132 C 
ATOM     11  C   UNL     1       2.718  -1.395  -6.368  1.00  0.00     0.132 C 
ATOM     12  C   UNL     1       1.443   0.603  -6.598  1.00  0.00     0.035 C 
ATOM     13  O   UNL     1       2.059  -1.296  -7.649  1.00  0.00    -0.373 OA
ATOM     14  C   UNL     1       2.702   0.071  -5.913  1.00  0.00     0.035 C 
BRANCH   9  15
ATOM     15  C   UNL     1      -0.736  -2.537  -6.600  1.00  0.00     0.231 C 
ATOM     16  N   UNL     1      -2.049  -2.139  -6.703  1.00  0.00    -0.317 N 
ATOM     17  H   UNL     1      -2.618  -2.829  -7.113  1.00  0.00     0.170 HD
ATOM     18  O   UNL     1      -0.497  -3.692  -6.962  1.00  0.00    -0.274 OA
BRANCH  16  19
ATOM     19  C   UNL     1      -2.766  -0.994  -6.367  1.00  0.00     0.108 A 
ATOM     20  C   UNL     1      -4.150  -0.814  -6.481  1.00  0.00     0.082 A 
ATOM     21  C   UNL     1      -4.550   0.478  -5.940  1.00  0.00     0.007 A 
ATOM     22  C   UNL     1      -3.462   1.212  -5.519  1.00  0.00     0.076 A 
ATOM     23  S   UNL     1      -2.010   0.398  -5.777  1.00  0.00    -0.125 S 
BRANCH  20  24
ATOM     24  C   UNL     1      -5.014  -1.848  -7.050  1.00  0.00     0.252 C 
ATOM     25  N   UNL     1      -6.196  -1.442  -7.593  1.00  0.00    -0.365 N 
ATOM     26  H   UNL     1      -6.809  -2.103  -7.987  1.00  0.00     0.159 HD
ATOM     27  H   UNL     1      -6.436  -0.488  -7.590  1.00  0.00     0.159 HD
ATOM     28  O   UNL     1      -4.690  -3.036  -7.103  1.00  0.00    -0.269 OA
ENDBRANCH  20  24
BRANCH  21  29
ATOM     29  C   UNL     1      -5.875   1.050  -5.740  1.00  0.00    -0.017 A 
ATOM     30  C   UNL     1      -6.194   2.288  -6.320  1.00  0.00     0.010 A 
ATOM     31  C   UNL     1      -6.817   0.404  -4.930  1.00  0.00     0.010 A 
ATOM     32  C   UNL     1      -7.441   2.873  -6.092  1.00  0.00     0.021 A 
ATOM     33  C   UNL     1      -8.067   0.989  -4.707  1.00  0.00     0.021 A 
ATOM     34  C   UNL     1      -8.373   2.220  -5.288  1.00  0.00     0.041 A 
ATOM     35  Cl  UNL     1      -9.909   2.942  -5.010  1.00  0.00    -0.084 Cl
ENDBRANCH  21  29
ENDBRANCH  16  19
ENDBRANCH   9  15
ENDBRANCH   5   8
ENDBRANCH   3   4
ENDBRANCH   2   3
ENDBRANCH   1   2
BRANCH   1  36
ATOM     36  C   UNL     1       3.436  -5.318  -1.315  1.00  0.00     0.002 C 
BRANCH  36  37
ATOM     37  C   UNL     1       2.943  -4.885   0.067  1.00  0.00     0.021 C 
BRANCH  37  38
ATOM     38  C   UNL     1       2.462  -6.019   0.967  1.00  0.00     0.116 C 
BRANCH  38  39
ATOM     39  N   UNL     1       3.513  -6.979   1.269  1.00  0.00    -0.352 N 
ATOM     40  C   UNL     1       3.882  -7.506   2.484  1.00  0.00     0.251 C 
ATOM     41  H   UNL     1       4.032  -7.296   0.495  1.00  0.00     0.163 HD
ATOM     42  O   UNL     1       4.900  -8.184   2.579  1.00  0.00    -0.269 OA
BRANCH  40  43
ATOM     43  C   UNL     1       3.059  -7.227   3.682  1.00  0.00     0.039 A 
ATOM     44  C   UNL     1       3.693  -6.832   4.862  1.00  0.00     0.014 A 
ATOM     45  C   UNL     1       1.667  -7.341   3.635  1.00  0.00     0.014 A 
ATOM     46  C   UNL     1       2.925  -6.488   5.977  1.00  0.00     0.010 A 
ATOM     47  C   UNL     1       0.902  -6.927   4.721  1.00  0.00     0.010 A 
ATOM     48  C   UNL     1       1.522  -6.497   5.905  1.00  0.00    -0.014 A 
BRANCH  48  49
ATOM     49  C   UNL     1       0.687  -6.057   7.052  1.00  0.00     0.031 A 
ATOM     50  C   UNL     1      -0.245  -7.028   7.727  1.00  0.00     0.074 A 
ATOM     51  C   UNL     1       0.719  -4.768   7.445  1.00  0.00     0.049 A 
ATOM     52  N   UNL     1      -1.093  -6.815   8.700  1.00  0.00    -0.248 NA
ATOM     53  C   UNL     1      -0.240  -8.412   7.228  1.00  0.00     0.031 C 
ATOM     54  C   UNL     1       1.551  -3.719   6.848  1.00  0.00     0.029 A 
ATOM     55  N   UNL     1       0.029  -4.116   8.437  1.00  0.00    -0.354 N 
ATOM     56  C   UNL     1      -1.732  -8.030   8.918  1.00  0.00     0.074 A 
ATOM     57  C   UNL     1      -1.212  -8.961   7.941  1.00  0.00     0.031 C 
ATOM     58  C   UNL     1       1.343  -2.566   7.503  1.00  0.00     0.029 A 
ATOM     59  C   UNL     1       0.332  -2.777   8.534  1.00  0.00     0.049 A 
ATOM     60  H   UNL     1      -0.622  -4.564   9.024  1.00  0.00     0.167 HD
ATOM     61  C   UNL     1      -2.655  -8.348   9.858  1.00  0.00     0.031 A 
ATOM     62  C   UNL     1      -0.153  -1.824   9.354  1.00  0.00     0.031 A 
ATOM     63  C   UNL     1      -3.165  -7.419  10.832  1.00  0.00     0.049 A 
ATOM     64  C   UNL     1      -1.190  -2.197  10.378  1.00  0.00     0.074 A 
ATOM     65  C   UNL     1      -4.061  -7.658  11.859  1.00  0.00     0.029 A 
ATOM     66  N   UNL     1      -2.828  -6.076  10.900  1.00  0.00    -0.354 N 
ATOM     67  N   UNL     1      -1.735  -3.368  10.610  1.00  0.00    -0.248 NA
ATOM     68  C   UNL     1      -1.670  -1.123  11.259  1.00  0.00     0.031 C 
ATOM     69  C   UNL     1      -4.311  -6.446  12.511  1.00  0.00     0.029 A 
ATOM     70  C   UNL     1      -3.519  -5.466  11.934  1.00  0.00     0.049 A 
ATOM     71  H   UNL     1      -2.191  -5.622  10.301  1.00  0.00     0.167 HD
ATOM     72  C   UNL     1      -2.599  -3.178  11.683  1.00  0.00     0.074 A 
ATOM     73  C   UNL     1      -2.494  -1.783  12.062  1.00  0.00     0.031 C 
ATOM     74  C   UNL     1      -3.405  -4.077  12.300  1.00  0.00     0.031 A 
BRANCH  61  75
ATOM     75  C   UNL     1      -3.180  -9.760   9.871  1.00  0.00    -0.014 A 
ATOM     76  C   UNL     1      -2.359 -10.839  10.247  1.00  0.00     0.010 A 
ATOM     77  C   UNL     1      -4.525 -10.009   9.543  1.00  0.00     0.010 A 
ATOM     78  C   UNL     1      -2.861 -12.143  10.253  1.00  0.00     0.020 A 
ATOM     79  C   UNL     1      -5.040 -11.309   9.578  1.00  0.00     0.020 A 
ATOM     80  C   UNL     1      -4.198 -12.370   9.916  1.00  0.00     0.054 A 
BRANCH  80  81
ATOM     81  S   UNL     1      -4.828 -14.070   9.956  1.00  0.00     0.124 S 
ATOM     82  O   UNL     1      -4.176 -14.659   8.788  1.00  0.00    -0.237 OA
ATOM     83  O   UNL     1      -4.355 -14.556  11.249  1.00  0.00    -0.237 OA
ATOM     84  O   UNL     1      -6.275 -13.908   9.845  1.00  0.00    -0.744 OA
ENDBRANCH  80  81
ENDBRANCH  61  75
BRANCH  62  85
ATOM     85  C   UNL     1       0.346  -0.425   9.246  1.00  0.00    -0.014 A 
ATOM     86  C   UNL     1       1.143   0.132  10.261  1.00  0.00     0.010 A 
ATOM     87  C   UNL     1       0.033   0.356   8.118  1.00  0.00     0.010 A 
ATOM     88  C   UNL     1       1.602   1.448  10.161  1.00  0.00     0.020 A 
ATOM     89  C   UNL     1       0.515   1.663   8.000  1.00  0.00     0.020 A 
ATOM     90  C   UNL     1       1.288   2.205   9.028  1.00  0.00     0.054 A 
BRANCH  90  91
ATOM     91  S   UNL     1       1.936   3.894   8.896  1.00  0.00     0.124 S 
ATOM     92  O   UNL     1       1.123   4.609   9.875  1.00  0.00    -0.237 OA
ATOM     93  O   UNL     1       3.343   3.720   9.245  1.00  0.00    -0.237 OA
ATOM     94  O   UNL     1       1.688   4.247   7.499  1.00  0.00    -0.744 OA
ENDBRANCH  90  91
ENDBRANCH  62  85
BRANCH  74  95
ATOM     95  C   UNL     1      -4.212  -3.595  13.477  1.00  0.00    -0.014 A 
ATOM     96  C   UNL     1      -5.309  -2.731  13.309  1.00  0.00     0.010 A 
ATOM     97  C   UNL     1      -3.899  -4.062  14.767  1.00  0.00     0.010 A 
ATOM     98  C   UNL     1      -6.058  -2.318  14.414  1.00  0.00     0.020 A 
ATOM     99  C   UNL     1      -4.665  -3.676  15.870  1.00  0.00     0.020 A 
ATOM    100  C   UNL     1      -5.732  -2.795  15.688  1.00  0.00     0.054 A 
BRANCH 100 101
ATOM    101  S   UNL     1      -6.749  -2.280  17.099  1.00  0.00     0.124 S 
ATOM    102  O   UNL     1      -6.347  -0.887  17.271  1.00  0.00    -0.237 OA
ATOM    103  O   UNL     1      -8.108  -2.486  16.605  1.00  0.00    -0.237 OA
ATOM    104  O   UNL     1      -6.338  -3.184  18.171  1.00  0.00    -0.744 OA
ENDBRANCH 100 101
ENDBRANCH  74  95
ENDBRANCH  48  49
ENDBRANCH  40  43
ENDBRANCH  38  39
ENDBRANCH  37  38
ENDBRANCH  36  37
ENDBRANCH   1  36
TORSDOF 20
