REMARK SMILES CC(C)[C@H](NC(=O)[C@H](Cc1ccccc1)n1c(=O)[nH]c2ccccc2c1=O)C(=O)NCCCCCCNC(=O)c1ccc(-c2c3nc(c(-c4ccc(S(=O)(=O)[O-])cc4)c4ccc([nH]4)c(-c4ccc(S(=O)(=O)[O-])cc4)c4nc(c(-c5ccc(S(=O)(=O)[O-])cc5)c5ccc2[nH]5)C=C4)C=C3)cc1
REMARK SMILES IDX 33 1 32 2 31 3 30 4 28 5 29 6 4 8 2 9 1 10 3 11 5 12 6 13
REMARK SMILES IDX 7 15 8 16 16 17 17 18 26 19 18 20 19 21 25 22 27 23 20 24
REMARK SMILES IDX 24 26 21 27 23 28 22 29 9 30 10 31 11 32 15 33 12 34 14 35
REMARK SMILES IDX 13 36 34 37 35 38 36 39 37 40 38 41 39 43 40 44 41 45 99 46
REMARK SMILES IDX 42 47 98 48 43 49 44 50 45 51 92 52 46 53 97 54 91 55 93 56
REMARK SMILES IDX 47 57 96 58 90 59 89 60 48 62 78 63 59 64 77 65 60 66 63 67
REMARK SMILES IDX 76 68 94 69 61 70 62 71 75 73 95 74 64 75 49 76 50 77 58 78
REMARK SMILES IDX 51 79 57 80 52 81 53 82 54 83 55 84 56 85 79 86 80 87 88 88
REMARK SMILES IDX 81 89 87 90 82 91 83 92 84 93 85 94 86 95 65 96 66 97 74 98
REMARK SMILES IDX 67 99 73 100 68 101 69 102 70 103 71 104 72 105
REMARK H PARENT 30 7 5 14 19 25 37 42 93 61 63 72
REMARK Flexibility Score: inf
ROOT
ATOM      1  C   UNL     1      -6.680  -4.614  -3.326  1.00  0.00     0.002 C 
ENDROOT
BRANCH   1   2
ATOM      2  C   UNL     1      -5.519  -5.221  -2.539  1.00  0.00     0.021 C 
BRANCH   2   3
ATOM      3  C   UNL     1      -4.570  -4.144  -2.018  1.00  0.00     0.116 C 
BRANCH   3   4
ATOM      4  N   UNL     1      -4.922  -3.772  -0.677  1.00  0.00    -0.354 N 
ATOM      5  C   UNL     1      -4.312  -4.157   0.473  1.00  0.00     0.242 C 
ATOM      6  O   UNL     1      -4.770  -3.711   1.531  1.00  0.00    -0.273 OA
ATOM      7  H   UNL     1      -5.693  -3.168  -0.581  1.00  0.00     0.163 HD
BRANCH   5   8
ATOM      8  C   UNL     1      -2.995  -4.990   0.471  1.00  0.00     0.173 C 
BRANCH   8   9
ATOM      9  C   UNL     1      -1.726  -4.152   0.238  1.00  0.00     0.015 C 
ATOM     10  C   UNL     1      -1.883  -2.630   0.284  1.00  0.00     0.010 C 
ATOM     11  C   UNL     1      -0.595  -4.591   1.171  1.00  0.00     0.010 C 
ENDBRANCH   8   9
BRANCH   8  12
ATOM     12  N   UNL     1      -3.055  -6.341  -0.176  1.00  0.00    -0.342 N 
ATOM     13  C   UNL     1      -2.726  -7.061  -1.285  1.00  0.00     0.244 C 
ATOM     14  H   UNL     1      -3.513  -6.949   0.448  1.00  0.00     0.164 HD
ATOM     15  O   UNL     1      -3.249  -8.188  -1.284  1.00  0.00    -0.273 OA
BRANCH  13  16
ATOM     16  C   UNL     1      -2.001  -6.570  -2.578  1.00  0.00     0.189 C 
BRANCH  16  17
ATOM     17  N   UNL     1      -0.818  -5.728  -2.404  1.00  0.00    -0.247 N 
ATOM     18  C   UNL     1       0.243  -6.257  -1.679  1.00  0.00     0.329 A 
ATOM     19  C   UNL     1      -0.786  -4.479  -3.026  1.00  0.00     0.264 A 
ATOM     20  O   UNL     1       0.164  -7.256  -0.967  1.00  0.00    -0.248 OA
ATOM     21  N   UNL     1       1.419  -5.564  -1.724  1.00  0.00    -0.307 N 
ATOM     22  C   UNL     1       0.418  -3.660  -2.791  1.00  0.00     0.064 A 
ATOM     23  O   UNL     1      -1.707  -4.013  -3.692  1.00  0.00    -0.268 OA
ATOM     24  C   UNL     1       1.530  -4.272  -2.225  1.00  0.00     0.055 A 
ATOM     25  H   UNL     1       2.232  -6.003  -1.384  1.00  0.00     0.171 HD
ATOM     26  C   UNL     1       0.437  -2.294  -3.082  1.00  0.00     0.016 A 
ATOM     27  C   UNL     1       2.715  -3.560  -2.058  1.00  0.00     0.027 A 
ATOM     28  C   UNL     1       1.600  -1.560  -2.849  1.00  0.00     0.001 A 
ATOM     29  C   UNL     1       2.746  -2.199  -2.369  1.00  0.00     0.002 A 
ENDBRANCH  16  17
BRANCH  16  30
ATOM     30  C   UNL     1      -1.833  -7.660  -3.695  1.00  0.00     0.071 C 
BRANCH  30  31
ATOM     31  C   UNL     1      -0.440  -8.226  -3.852  1.00  0.00    -0.045 A 
ATOM     32  C   UNL     1      -0.074  -9.398  -3.183  1.00  0.00     0.004 A 
ATOM     33  C   UNL     1       0.541  -7.494  -4.543  1.00  0.00     0.004 A 
ATOM     34  C   UNL     1       1.268  -9.771  -3.115  1.00  0.00     0.000 A 
ATOM     35  C   UNL     1       1.884  -7.854  -4.448  1.00  0.00     0.000 A 
ATOM     36  C   UNL     1       2.249  -8.982  -3.717  1.00  0.00     0.000 A 
ENDBRANCH  30  31
ENDBRANCH  16  30
ENDBRANCH  13  16
ENDBRANCH   8  12
ENDBRANCH   5   8
ENDBRANCH   3   4
ENDBRANCH   2   3
ENDBRANCH   1   2
BRANCH   1  37
ATOM     37  C   UNL     1      -6.248  -3.974  -4.652  1.00  0.00     0.002 C 
BRANCH  37  38
ATOM     38  C   UNL     1      -5.638  -4.946  -5.664  1.00  0.00     0.021 C 
BRANCH  38  39
ATOM     39  C   UNL     1      -6.556  -6.100  -6.048  1.00  0.00     0.116 C 
BRANCH  39  40
ATOM     40  N   UNL     1      -7.827  -5.621  -6.576  1.00  0.00    -0.352 N 
ATOM     41  C   UNL     1      -8.401  -5.869  -7.795  1.00  0.00     0.251 C 
ATOM     42  H   UNL     1      -8.345  -5.039  -5.974  1.00  0.00     0.163 HD
ATOM     43  O   UNL     1      -9.352  -5.196  -8.186  1.00  0.00    -0.269 OA
BRANCH  41  44
ATOM     44  C   UNL     1      -7.855  -6.953  -8.632  1.00  0.00     0.039 A 
ATOM     45  C   UNL     1      -7.609  -6.722  -9.986  1.00  0.00     0.014 A 
ATOM     46  C   UNL     1      -7.565  -8.192  -8.055  1.00  0.00     0.014 A 
ATOM     47  C   UNL     1      -7.014  -7.724 -10.755  1.00  0.00     0.010 A 
ATOM     48  C   UNL     1      -6.901  -9.155  -8.800  1.00  0.00     0.010 A 
ATOM     49  C   UNL     1      -6.628  -8.936 -10.159  1.00  0.00    -0.014 A 
BRANCH  49  50
ATOM     50  C   UNL     1      -5.963 -10.014 -10.929  1.00  0.00     0.031 A 
ATOM     51  C   UNL     1      -6.646 -11.347 -11.069  1.00  0.00     0.074 A 
ATOM     52  C   UNL     1      -4.720  -9.829 -11.413  1.00  0.00     0.049 A 
ATOM     53  N   UNL     1      -6.183 -12.463 -11.568  1.00  0.00    -0.248 NA
ATOM     54  C   UNL     1      -8.021 -11.445 -10.549  1.00  0.00     0.031 C 
ATOM     55  C   UNL     1      -3.948  -8.587 -11.322  1.00  0.00     0.029 A 
ATOM     56  N   UNL     1      -3.878 -10.695 -12.064  1.00  0.00    -0.354 N 
ATOM     57  C   UNL     1      -7.197 -13.399 -11.399  1.00  0.00     0.074 A 
ATOM     58  C   UNL     1      -8.277 -12.734 -10.705  1.00  0.00     0.031 C 
ATOM     59  C   UNL     1      -2.755  -8.767 -11.912  1.00  0.00     0.029 A 
ATOM     60  C   UNL     1      -2.655 -10.148 -12.374  1.00  0.00     0.049 A 
ATOM     61  H   UNL     1      -4.126 -11.620 -12.289  1.00  0.00     0.167 HD
ATOM     62  C   UNL     1      -7.232 -14.691 -11.801  1.00  0.00     0.031 A 
ATOM     63  C   UNL     1      -1.569 -10.701 -12.948  1.00  0.00     0.031 A 
ATOM     64  C   UNL     1      -6.154 -15.341 -12.497  1.00  0.00     0.049 A 
ATOM     65  C   UNL     1      -1.617 -12.150 -13.357  1.00  0.00     0.074 A 
ATOM     66  C   UNL     1      -6.104 -16.633 -12.987  1.00  0.00     0.029 A 
ATOM     67  N   UNL     1      -4.938 -14.747 -12.802  1.00  0.00    -0.354 N 
ATOM     68  N   UNL     1      -2.601 -13.009 -13.231  1.00  0.00    -0.248 NA
ATOM     69  C   UNL     1      -0.413 -12.702 -13.993  1.00  0.00     0.031 C 
ATOM     70  C   UNL     1      -4.836 -16.839 -13.538  1.00  0.00     0.029 A 
ATOM     71  C   UNL     1      -4.123 -15.653 -13.457  1.00  0.00     0.049 A 
ATOM     72  H   UNL     1      -4.692 -13.819 -12.585  1.00  0.00     0.167 HD
ATOM     73  C   UNL     1      -2.150 -14.190 -13.810  1.00  0.00     0.074 A 
ATOM     74  C   UNL     1      -0.806 -13.934 -14.288  1.00  0.00     0.031 C 
ATOM     75  C   UNL     1      -2.794 -15.376 -13.942  1.00  0.00     0.031 A 
BRANCH  62  76
ATOM     76  C   UNL     1      -8.472 -15.486 -11.485  1.00  0.00    -0.014 A 
ATOM     77  C   UNL     1      -9.702 -15.194 -12.105  1.00  0.00     0.010 A 
ATOM     78  C   UNL     1      -8.403 -16.559 -10.578  1.00  0.00     0.010 A 
ATOM     79  C   UNL     1     -10.847 -15.928 -11.787  1.00  0.00     0.020 A 
ATOM     80  C   UNL     1      -9.539 -17.318 -10.283  1.00  0.00     0.020 A 
ATOM     81  C   UNL     1     -10.758 -16.985 -10.876  1.00  0.00     0.054 A 
BRANCH  81  82
ATOM     82  S   UNL     1     -12.258 -17.930 -10.496  1.00  0.00     0.124 S 
ATOM     83  O   UNL     1     -13.024 -16.974  -9.701  1.00  0.00    -0.237 OA
ATOM     84  O   UNL     1     -12.798 -18.218 -11.823  1.00  0.00    -0.237 OA
ATOM     85  O   UNL     1     -11.761 -19.092  -9.763  1.00  0.00    -0.744 OA
ENDBRANCH  81  82
ENDBRANCH  62  76
BRANCH  63  86
ATOM     86  C   UNL     1      -0.349  -9.880 -13.183  1.00  0.00    -0.014 A 
ATOM     87  C   UNL     1       0.035  -9.533 -14.490  1.00  0.00     0.010 A 
ATOM     88  C   UNL     1       0.430  -9.429 -12.101  1.00  0.00     0.010 A 
ATOM     89  C   UNL     1       1.184  -8.768 -14.714  1.00  0.00     0.020 A 
ATOM     90  C   UNL     1       1.563  -8.638 -12.319  1.00  0.00     0.020 A 
ATOM     91  C   UNL     1       1.940  -8.323 -13.626  1.00  0.00     0.054 A 
BRANCH  91  92
ATOM     92  S   UNL     1       3.400  -7.293 -13.940  1.00  0.00     0.124 S 
ATOM     93  O   UNL     1       4.335  -8.256 -14.512  1.00  0.00    -0.237 OA
ATOM     94  O   UNL     1       2.882  -6.286 -14.863  1.00  0.00    -0.237 OA
ATOM     95  O   UNL     1       3.754  -6.788 -12.615  1.00  0.00    -0.744 OA
ENDBRANCH  91  92
ENDBRANCH  63  86
BRANCH  75  96
ATOM     96  C   UNL     1      -2.090 -16.479 -14.688  1.00  0.00    -0.014 A 
ATOM     97  C   UNL     1      -1.009 -17.176 -14.123  1.00  0.00     0.010 A 
ATOM     98  C   UNL     1      -2.589 -16.883 -15.940  1.00  0.00     0.010 A 
ATOM     99  C   UNL     1      -0.430 -18.250 -14.806  1.00  0.00     0.020 A 
ATOM    100  C   UNL     1      -2.033 -17.974 -16.611  1.00  0.00     0.020 A 
ATOM    101  C   UNL     1      -0.951 -18.647 -16.042  1.00  0.00     0.054 A 
BRANCH 101 102
ATOM    102  S   UNL     1      -0.233 -20.092 -16.869  1.00  0.00     0.124 S 
ATOM    103  O   UNL     1       1.062 -19.579 -17.309  1.00  0.00    -0.237 OA
ATOM    104  O   UNL     1      -0.185 -21.083 -15.796  1.00  0.00    -0.237 OA
ATOM    105  O   UNL     1      -1.182 -20.388 -17.940  1.00  0.00    -0.744 OA
ENDBRANCH 101 102
ENDBRANCH  75  96
ENDBRANCH  49  50
ENDBRANCH  41  44
ENDBRANCH  39  40
ENDBRANCH  38  39
ENDBRANCH  37  38
ENDBRANCH   1  37
TORSDOF 22
