REMARK SMILES O=C(NCCCCCCNC(=O)[C@H]1CCN1C(=O)OCC1c2ccccc2-c2ccccc21)c1ccc(-c2c3nc(c(-c4ccc(S(=O)(=O)[O-])cc4)c4ccc([nH]4)c(-c4ccc(S(=O)(=O)[O-])cc4)c4nc(c(-c5ccc(S(=O)(=O)[O-])cc5)c5ccc2[nH]5)C=C4)C=C3)cc1
REMARK SMILES IDX 7 1 6 2 5 3 4 4 3 5 1 6 2 7 34 9 35 10 93 11 36 12 92 13
REMARK SMILES IDX 37 14 38 15 39 16 86 17 40 18 91 19 85 20 87 21 41 22 90 23
REMARK SMILES IDX 84 24 83 25 42 27 72 28 53 29 71 30 54 31 57 32 70 33 88 34
REMARK SMILES IDX 55 35 56 36 69 38 89 39 58 40 43 41 44 42 52 43 45 44 51 45
REMARK SMILES IDX 46 46 47 47 48 48 49 49 50 50 73 51 74 52 82 53 75 54 81 55
REMARK SMILES IDX 76 56 77 57 78 58 79 59 80 60 59 61 60 62 68 63 61 64 67 65
REMARK SMILES IDX 62 66 63 67 64 68 65 69 66 70 8 71 9 72 10 73 11 74 12 76
REMARK SMILES IDX 13 77 14 78 16 79 15 80 17 81 18 82 19 83 20 84 21 85 22 86
REMARK SMILES IDX 33 87 23 88 27 89 28 90 32 91 24 92 26 93 29 94 31 95 25 96
REMARK SMILES IDX 30 97
REMARK H PARENT 3 8 87 26 57 37 10 75
REMARK Flexibility Score: inf
ROOT
ATOM      1  C   UNL     1      12.014   0.278   3.266  1.00  0.00     0.002 C 
ENDROOT
BRANCH   1   2
ATOM      2  C   UNL     1      12.875   1.403   2.678  1.00  0.00     0.002 C 
BRANCH   2   3
ATOM      3  C   UNL     1      14.237   1.619   3.342  1.00  0.00     0.021 C 
BRANCH   3   4
ATOM      4  C   UNL     1      15.167   0.410   3.333  1.00  0.00     0.116 C 
BRANCH   4   5
ATOM      5  N   UNL     1      15.600   0.056   1.992  1.00  0.00    -0.352 N 
ATOM      6  O   UNL     1      17.039  -0.215   0.283  1.00  0.00    -0.269 OA
ATOM      7  C   UNL     1      16.872  -0.086   1.493  1.00  0.00     0.251 C 
ATOM      8  H   UNL     1      14.875  -0.105   1.346  1.00  0.00     0.163 HD
BRANCH   7   9
ATOM      9  C   UNL     1      18.042  -0.069   2.402  1.00  0.00     0.039 A 
ATOM     10  C   UNL     1      18.037  -0.793   3.598  1.00  0.00     0.014 A 
ATOM     11  C   UNL     1      19.182   0.648   2.026  1.00  0.00     0.014 A 
ATOM     12  C   UNL     1      19.127  -0.715   4.463  1.00  0.00     0.010 A 
ATOM     13  C   UNL     1      20.300   0.676   2.867  1.00  0.00     0.010 A 
ATOM     14  C   UNL     1      20.274   0.011   4.101  1.00  0.00    -0.014 A 
BRANCH  14  15
ATOM     15  C   UNL     1      21.459   0.002   4.997  1.00  0.00     0.031 A 
ATOM     16  C   UNL     1      21.904   1.246   5.714  1.00  0.00     0.074 A 
ATOM     17  C   UNL     1      22.125  -1.155   5.178  1.00  0.00     0.049 A 
ATOM     18  N   UNL     1      22.895   1.398   6.556  1.00  0.00    -0.248 NA
ATOM     19  C   UNL     1      21.145   2.479   5.452  1.00  0.00     0.031 C 
ATOM     20  C   UNL     1      21.796  -2.428   4.530  1.00  0.00     0.029 A 
ATOM     21  N   UNL     1      23.203  -1.457   5.972  1.00  0.00    -0.354 N 
ATOM     22  C   UNL     1      22.890   2.741   6.914  1.00  0.00     0.074 A 
ATOM     23  C   UNL     1      21.808   3.366   6.183  1.00  0.00     0.031 C 
ATOM     24  C   UNL     1      22.623  -3.380   4.985  1.00  0.00     0.029 A 
ATOM     25  C   UNL     1      23.570  -2.780   5.918  1.00  0.00     0.049 A 
ATOM     26  H   UNL     1      23.668  -0.789   6.526  1.00  0.00     0.167 HD
ATOM     27  C   UNL     1      23.709   3.392   7.776  1.00  0.00     0.031 A 
ATOM     28  C   UNL     1      24.563  -3.441   6.543  1.00  0.00     0.031 A 
ATOM     29  C   UNL     1      24.787   2.769   8.501  1.00  0.00     0.049 A 
ATOM     30  C   UNL     1      25.466  -2.693   7.479  1.00  0.00     0.074 A 
ATOM     31  C   UNL     1      25.655   3.343   9.414  1.00  0.00     0.029 A 
ATOM     32  N   UNL     1      25.146   1.434   8.395  1.00  0.00    -0.354 N 
ATOM     33  N   UNL     1      25.426  -1.428   7.822  1.00  0.00    -0.248 NA
ATOM     34  C   UNL     1      26.547  -3.460   8.111  1.00  0.00     0.031 C 
ATOM     35  C   UNL     1      26.564   2.364   9.831  1.00  0.00     0.029 A 
ATOM     36  C   UNL     1      26.234   1.170   9.210  1.00  0.00     0.049 A 
ATOM     37  H   UNL     1      24.695   0.772   7.823  1.00  0.00     0.167 HD
ATOM     38  C   UNL     1      26.473  -1.249   8.718  1.00  0.00     0.074 A 
ATOM     39  C   UNL     1      27.114  -2.539   8.878  1.00  0.00     0.031 C 
ATOM     40  C   UNL     1      26.868  -0.116   9.349  1.00  0.00     0.031 A 
BRANCH  27  41
ATOM     41  C   UNL     1      23.484   4.868   7.968  1.00  0.00    -0.014 A 
ATOM     42  C   UNL     1      22.401   5.343   8.728  1.00  0.00     0.010 A 
ATOM     43  C   UNL     1      24.394   5.790   7.419  1.00  0.00     0.010 A 
ATOM     44  C   UNL     1      22.211   6.717   8.906  1.00  0.00     0.020 A 
ATOM     45  C   UNL     1      24.218   7.164   7.611  1.00  0.00     0.020 A 
ATOM     46  C   UNL     1      23.117   7.619   8.340  1.00  0.00     0.054 A 
BRANCH  46  47
ATOM     47  S   UNL     1      22.858   9.397   8.598  1.00  0.00     0.124 S 
ATOM     48  O   UNL     1      21.771   9.679   7.664  1.00  0.00    -0.237 OA
ATOM     49  O   UNL     1      22.504   9.470  10.013  1.00  0.00    -0.237 OA
ATOM     50  O   UNL     1      24.148   9.988   8.251  1.00  0.00    -0.744 OA
ENDBRANCH  46  47
ENDBRANCH  27  41
BRANCH  28  51
ATOM     51  C   UNL     1      24.746  -4.894   6.295  1.00  0.00    -0.014 A 
ATOM     52  C   UNL     1      24.392  -5.835   7.277  1.00  0.00     0.010 A 
ATOM     53  C   UNL     1      25.236  -5.346   5.056  1.00  0.00     0.010 A 
ATOM     54  C   UNL     1      24.527  -7.203   7.025  1.00  0.00     0.020 A 
ATOM     55  C   UNL     1      25.350  -6.712   4.792  1.00  0.00     0.020 A 
ATOM     56  C   UNL     1      25.003  -7.633   5.783  1.00  0.00     0.054 A 
BRANCH  56  57
ATOM     57  S   UNL     1      25.099  -9.413   5.445  1.00  0.00     0.124 S 
ATOM     58  O   UNL     1      26.334  -9.784   6.128  1.00  0.00    -0.237 OA
ATOM     59  O   UNL     1      23.867  -9.920   6.045  1.00  0.00    -0.237 OA
ATOM     60  O   UNL     1      25.143  -9.479   3.986  1.00  0.00    -0.744 OA
ENDBRANCH  56  57
ENDBRANCH  28  51
BRANCH  40  61
ATOM     61  C   UNL     1      28.042  -0.228  10.280  1.00  0.00    -0.014 A 
ATOM     62  C   UNL     1      29.352  -0.333   9.781  1.00  0.00     0.010 A 
ATOM     63  C   UNL     1      27.835  -0.194  11.671  1.00  0.00     0.010 A 
ATOM     64  C   UNL     1      30.435  -0.433  10.658  1.00  0.00     0.020 A 
ATOM     65  C   UNL     1      28.917  -0.274  12.551  1.00  0.00     0.020 A 
ATOM     66  C   UNL     1      30.210  -0.408  12.038  1.00  0.00     0.054 A 
BRANCH  66  67
ATOM     67  S   UNL     1      31.631  -0.505  13.161  1.00  0.00     0.124 S 
ATOM     68  O   UNL     1      31.939  -1.932  13.137  1.00  0.00    -0.237 OA
ATOM     69  O   UNL     1      32.615   0.361  12.515  1.00  0.00    -0.237 OA
ATOM     70  O   UNL     1      31.105  -0.001  14.428  1.00  0.00    -0.744 OA
ENDBRANCH  66  67
ENDBRANCH  40  61
ENDBRANCH  14  15
ENDBRANCH   7   9
ENDBRANCH   4   5
ENDBRANCH   3   4
ENDBRANCH   2   3
ENDBRANCH   1   2
BRANCH   1  71
ATOM     71  C   UNL     1      11.825   0.306   4.788  1.00  0.00     0.021 C 
BRANCH  71  72
ATOM     72  C   UNL     1      11.190   1.587   5.334  1.00  0.00     0.116 C 
BRANCH  72  73
ATOM     73  N   UNL     1       9.765   1.641   5.068  1.00  0.00    -0.354 N 
ATOM     74  C   UNL     1       8.679   1.619   5.918  1.00  0.00     0.243 C 
ATOM     75  H   UNL     1       9.533   1.706   4.114  1.00  0.00     0.163 HD
ATOM     76  O   UNL     1       7.570   1.646   5.360  1.00  0.00    -0.273 OA
BRANCH  74  77
ATOM     77  C   UNL     1       8.821   1.537   7.468  1.00  0.00     0.179 C 
ATOM     78  C   UNL     1       9.629   0.395   8.109  1.00  0.00     0.057 C 
ATOM     79  N   UNL     1       9.739   2.449   8.127  1.00  0.00    -0.296 N 
ATOM     80  C   UNL     1      10.491   1.435   8.834  1.00  0.00     0.126 C 
BRANCH  79  81
ATOM     81  C   UNL     1       9.701   3.787   8.358  1.00  0.00     0.410 C 
ATOM     82  O   UNL     1      10.597   4.400   8.919  1.00  0.00    -0.224 OA
BRANCH  81  83
ATOM     83  O   UNL     1       8.517   4.337   7.966  1.00  0.00    -0.448 OA
BRANCH  83  84
ATOM     84  C   UNL     1       8.354   5.734   8.306  1.00  0.00     0.248 C 
BRANCH  84  85
ATOM     85  C   UNL     1       8.256   5.963   9.826  1.00  0.00     0.088 C 
ATOM     86  C   UNL     1       8.740   7.341  10.259  1.00  0.00    -0.029 A 
ATOM     87  C   UNL     1       6.828   5.957  10.369  1.00  0.00    -0.029 A 
ATOM     88  C   UNL     1       9.985   7.915  10.051  1.00  0.00     0.005 A 
ATOM     89  C   UNL     1       7.742   8.003  11.006  1.00  0.00    -0.014 A 
ATOM     90  C   UNL     1       6.573   7.152  11.080  1.00  0.00    -0.014 A 
ATOM     91  C   UNL     1       5.876   4.952  10.286  1.00  0.00     0.005 A 
ATOM     92  C   UNL     1      10.223   9.184  10.582  1.00  0.00     0.000 A 
ATOM     93  C   UNL     1       7.981   9.259  11.537  1.00  0.00     0.009 A 
ATOM     94  C   UNL     1       5.360   7.347  11.719  1.00  0.00     0.009 A 
ATOM     95  C   UNL     1       4.652   5.152  10.929  1.00  0.00     0.000 A 
ATOM     96  C   UNL     1       9.230   9.850  11.318  1.00  0.00     0.001 A 
ATOM     97  C   UNL     1       4.397   6.336  11.641  1.00  0.00     0.001 A 
ENDBRANCH  84  85
ENDBRANCH  83  84
ENDBRANCH  81  83
ENDBRANCH  79  81
ENDBRANCH  74  77
ENDBRANCH  72  73
ENDBRANCH  71  72
ENDBRANCH   1  71
TORSDOF 20
