REMARK SMILES Cc1ccccc1NC(=O)CSc1nc(C(=O)NCCCCCCNC(=O)c2ccc(-c3c4nc(c(-c5ccc(S(=O)(=O)[O-])cc5)c5ccc([nH]5)c(-c5ccc(S(=O)(=O)[O-])cc5)c5nc(c(-c6ccc(S(=O)(=O)[O-])cc6)c6ccc3[nH]6)C=C5)C=C4)cc2)c2ccccc2n1
REMARK SMILES IDX 21 1 20 2 19 3 18 4 16 5 17 6 15 8 13 9 14 10 94 11 93 12
REMARK SMILES IDX 88 13 92 14 89 15 91 16 90 17 12 18 11 19 9 20 8 21 10 23
REMARK SMILES IDX 7 24 1 25 2 26 3 27 4 28 6 29 5 30 22 31 23 32 24 33 25 34
REMARK SMILES IDX 26 35 27 37 28 38 29 39 87 40 30 41 86 42 31 43 32 44 33 45
REMARK SMILES IDX 80 46 34 47 85 48 79 49 81 50 35 51 84 52 78 53 77 54 36 56
REMARK SMILES IDX 66 57 47 58 65 59 48 60 51 61 64 62 82 63 49 64 50 65 63 67
REMARK SMILES IDX 83 68 52 69 37 70 38 71 46 72 39 73 45 74 40 75 41 76 42 77
REMARK SMILES IDX 43 78 44 79 67 80 68 81 76 82 69 83 75 84 70 85 71 86 72 87
REMARK SMILES IDX 73 88 74 89 53 90 54 91 62 92 55 93 61 94 56 95 57 96 58 97
REMARK SMILES IDX 59 98 60 99
REMARK H PARENT 18 7 8 22 25 36 81 55 51 66
REMARK Flexibility Score: inf
ROOT
ATOM      1  C   UNL     1      -1.932   9.515  -8.139  1.00  0.00     0.002 C 
ENDROOT
BRANCH   1   2
ATOM      2  C   UNL     1      -2.325   8.065  -7.818  1.00  0.00     0.021 C 
BRANCH   2   3
ATOM      3  C   UNL     1      -1.480   7.272  -6.824  1.00  0.00     0.116 C 
BRANCH   3   4
ATOM      4  N   UNL     1      -1.286   7.863  -5.514  1.00  0.00    -0.351 N 
ATOM      5  C   UNL     1      -0.880   7.267  -4.330  1.00  0.00     0.270 C 
ATOM      6  O   UNL     1      -0.685   7.987  -3.350  1.00  0.00    -0.267 OA
ATOM      7  H   UNL     1      -1.470   8.828  -5.457  1.00  0.00     0.163 HD
BRANCH   5   8
ATOM      8  C   UNL     1      -0.754   5.774  -4.181  1.00  0.00     0.140 A 
ATOM      9  C   UNL     1      -1.497   3.968  -3.007  1.00  0.00     0.189 A 
ATOM     10  N   UNL     1      -1.459   5.292  -3.127  1.00  0.00    -0.217 NA
ATOM     11  N   UNL     1      -0.987   3.101  -3.889  1.00  0.00    -0.222 NA
ATOM     12  C   UNL     1      -0.280   3.595  -4.907  1.00  0.00     0.076 A 
ATOM     13  C   UNL     1      -0.033   4.961  -5.068  1.00  0.00     0.032 A 
ATOM     14  C   UNL     1       0.222   2.708  -5.851  1.00  0.00     0.029 A 
ATOM     15  C   UNL     1       0.876   5.377  -6.075  1.00  0.00     0.013 A 
ATOM     16  C   UNL     1       1.013   3.136  -6.919  1.00  0.00     0.002 A 
ATOM     17  C   UNL     1       1.370   4.473  -7.012  1.00  0.00     0.001 A 
BRANCH   9  18
ATOM     18  S   UNL     1      -2.376   3.267  -1.644  1.00  0.00    -0.076 SA
BRANCH  18  19
ATOM     19  C   UNL     1      -1.415   3.946  -0.263  1.00  0.00     0.178 C 
BRANCH  19  20
ATOM     20  C   UNL     1       0.054   3.585  -0.288  1.00  0.00     0.234 C 
ATOM     21  N   UNL     1       0.571   2.341  -0.094  1.00  0.00    -0.325 N 
ATOM     22  H   UNL     1       1.555   2.347  -0.115  1.00  0.00     0.169 HD
ATOM     23  O   UNL     1       0.894   4.482  -0.455  1.00  0.00    -0.274 OA
BRANCH  21  24
ATOM     24  C   UNL     1       0.061   1.046   0.128  1.00  0.00     0.044 A 
ATOM     25  C   UNL     1       2.432   0.033  -0.186  1.00  0.00     0.046 C 
ATOM     26  C   UNL     1       0.942  -0.060   0.029  1.00  0.00    -0.027 A 
ATOM     27  C   UNL     1       0.421  -1.370   0.092  1.00  0.00     0.005 A 
ATOM     28  C   UNL     1      -0.933  -1.597   0.304  1.00  0.00     0.000 A 
ATOM     29  C   UNL     1      -1.280   0.789   0.422  1.00  0.00     0.026 A 
ATOM     30  C   UNL     1      -1.779  -0.516   0.495  1.00  0.00     0.002 A 
ENDBRANCH  21  24
ENDBRANCH  19  20
ENDBRANCH  18  19
ENDBRANCH   9  18
ENDBRANCH   5   8
ENDBRANCH   3   4
ENDBRANCH   2   3
ENDBRANCH   1   2
BRANCH   1  31
ATOM     31  C   UNL     1      -0.449   9.895  -8.259  1.00  0.00     0.002 C 
BRANCH  31  32
ATOM     32  C   UNL     1       0.429   9.070  -9.198  1.00  0.00     0.021 C 
BRANCH  32  33
ATOM     33  C   UNL     1       0.109   9.206 -10.683  1.00  0.00     0.116 C 
BRANCH  33  34
ATOM     34  N   UNL     1       1.127   9.961 -11.412  1.00  0.00    -0.352 N 
ATOM     35  C   UNL     1       1.458   9.889 -12.759  1.00  0.00     0.251 C 
ATOM     36  H   UNL     1       1.645  10.606 -10.878  1.00  0.00     0.163 HD
ATOM     37  O   UNL     1       2.398  10.464 -13.259  1.00  0.00    -0.269 OA
BRANCH  35  38
ATOM     38  C   UNL     1       0.515   9.133 -13.606  1.00  0.00     0.039 A 
ATOM     39  C   UNL     1      -0.449   9.889 -14.283  1.00  0.00     0.014 A 
ATOM     40  C   UNL     1       0.366   7.766 -13.389  1.00  0.00     0.014 A 
ATOM     41  C   UNL     1      -1.683   9.312 -14.544  1.00  0.00     0.010 A 
ATOM     42  C   UNL     1      -0.890   7.222 -13.575  1.00  0.00     0.010 A 
ATOM     43  C   UNL     1      -1.928   8.022 -14.077  1.00  0.00    -0.014 A 
BRANCH  43  44
ATOM     44  C   UNL     1      -3.271   7.471 -13.973  1.00  0.00     0.031 A 
ATOM     45  C   UNL     1      -3.724   6.476 -14.960  1.00  0.00     0.074 A 
ATOM     46  C   UNL     1      -4.111   7.878 -12.997  1.00  0.00     0.049 A 
ATOM     47  N   UNL     1      -4.959   6.203 -15.208  1.00  0.00    -0.248 NA
ATOM     48  C   UNL     1      -2.791   5.768 -15.828  1.00  0.00     0.031 C 
ATOM     49  C   UNL     1      -5.382   7.274 -12.606  1.00  0.00     0.029 A 
ATOM     50  N   UNL     1      -4.096   9.080 -12.311  1.00  0.00    -0.354 N 
ATOM     51  C   UNL     1      -4.981   5.094 -16.017  1.00  0.00     0.074 A 
ATOM     52  C   UNL     1      -3.619   4.942 -16.470  1.00  0.00     0.031 C 
ATOM     53  C   UNL     1      -6.117   8.193 -11.959  1.00  0.00     0.029 A 
ATOM     54  C   UNL     1      -5.413   9.462 -12.043  1.00  0.00     0.049 A 
ATOM     55  H   UNL     1      -3.290   9.584 -12.055  1.00  0.00     0.167 HD
ATOM     56  C   UNL     1      -6.121   4.348 -16.087  1.00  0.00     0.031 A 
ATOM     57  C   UNL     1      -5.933  10.600 -12.596  1.00  0.00     0.031 A 
ATOM     58  C   UNL     1      -7.258   5.034 -15.462  1.00  0.00     0.049 A 
ATOM     59  C   UNL     1      -7.055  10.358 -13.598  1.00  0.00     0.074 A 
ATOM     60  C   UNL     1      -7.998   4.863 -14.303  1.00  0.00     0.029 A 
ATOM     61  N   UNL     1      -7.609   6.288 -15.947  1.00  0.00    -0.354 N 
ATOM     62  N   UNL     1      -7.506   9.181 -13.944  1.00  0.00    -0.248 NA
ATOM     63  C   UNL     1      -7.715  11.431 -14.342  1.00  0.00     0.031 C 
ATOM     64  C   UNL     1      -8.781   6.040 -14.091  1.00  0.00     0.029 A 
ATOM     65  C   UNL     1      -8.534   6.914 -15.133  1.00  0.00     0.049 A 
ATOM     66  H   UNL     1      -7.243   6.683 -16.771  1.00  0.00     0.167 HD
ATOM     67  C   UNL     1      -8.444   9.307 -14.938  1.00  0.00     0.074 A 
ATOM     68  C   UNL     1      -8.544  10.741 -15.148  1.00  0.00     0.031 C 
ATOM     69  C   UNL     1      -9.033   8.225 -15.536  1.00  0.00     0.031 A 
BRANCH  56  70
ATOM     70  C   UNL     1      -6.104   2.884 -16.489  1.00  0.00    -0.014 A 
ATOM     71  C   UNL     1      -7.102   2.008 -16.019  1.00  0.00     0.010 A 
ATOM     72  C   UNL     1      -5.074   2.285 -17.242  1.00  0.00     0.010 A 
ATOM     73  C   UNL     1      -7.009   0.613 -16.188  1.00  0.00     0.020 A 
ATOM     74  C   UNL     1      -4.945   0.898 -17.387  1.00  0.00     0.020 A 
ATOM     75  C   UNL     1      -5.908   0.064 -16.841  1.00  0.00     0.054 A 
BRANCH  75  76
ATOM     76  S   UNL     1      -5.730  -1.734 -16.961  1.00  0.00     0.124 S 
ATOM     77  O   UNL     1      -5.784  -2.150 -15.562  1.00  0.00    -0.237 OA
ATOM     78  O   UNL     1      -6.879  -2.109 -17.778  1.00  0.00    -0.237 OA
ATOM     79  O   UNL     1      -4.428  -1.912 -17.603  1.00  0.00    -0.744 OA
ENDBRANCH  75  76
ENDBRANCH  56  70
BRANCH  57  80
ATOM     80  C   UNL     1      -4.970  11.741 -12.601  1.00  0.00    -0.014 A 
ATOM     81  C   UNL     1      -4.631  12.303 -11.349  1.00  0.00     0.010 A 
ATOM     82  C   UNL     1      -4.126  11.989 -13.696  1.00  0.00     0.010 A 
ATOM     83  C   UNL     1      -3.409  12.956 -11.160  1.00  0.00     0.020 A 
ATOM     84  C   UNL     1      -2.899  12.650 -13.510  1.00  0.00     0.020 A 
ATOM     85  C   UNL     1      -2.525  13.071 -12.231  1.00  0.00     0.054 A 
BRANCH  85  86
ATOM     86  S   UNL     1      -0.838  13.661 -11.892  1.00  0.00     0.124 S 
ATOM     87  O   UNL     1      -1.079  14.900 -11.157  1.00  0.00    -0.237 OA
ATOM     88  O   UNL     1      -0.285  12.563 -11.098  1.00  0.00    -0.237 OA
ATOM     89  O   UNL     1      -0.264  13.823 -13.223  1.00  0.00    -0.744 OA
ENDBRANCH  85  86
ENDBRANCH  57  80
BRANCH  69  90
ATOM     90  C   UNL     1     -10.095   8.271 -16.620  1.00  0.00    -0.014 A 
ATOM     91  C   UNL     1     -11.013   9.318 -16.793  1.00  0.00     0.010 A 
ATOM     92  C   UNL     1     -10.256   7.147 -17.471  1.00  0.00     0.010 A 
ATOM     93  C   UNL     1     -11.976   9.283 -17.817  1.00  0.00     0.020 A 
ATOM     94  C   UNL     1     -11.220   7.091 -18.480  1.00  0.00     0.020 A 
ATOM     95  C   UNL     1     -12.065   8.175 -18.663  1.00  0.00     0.054 A 
BRANCH  95  96
ATOM     96  S   UNL     1     -13.310   8.152 -19.976  1.00  0.00     0.124 S 
ATOM     97  O   UNL     1     -14.548   8.394 -19.239  1.00  0.00    -0.237 OA
ATOM     98  O   UNL     1     -12.866   9.247 -20.836  1.00  0.00    -0.237 OA
ATOM     99  O   UNL     1     -13.185   6.817 -20.557  1.00  0.00    -0.744 OA
ENDBRANCH  95  96
ENDBRANCH  69  90
ENDBRANCH  43  44
ENDBRANCH  35  38
ENDBRANCH  33  34
ENDBRANCH  32  33
ENDBRANCH  31  32
ENDBRANCH   1  31
TORSDOF 20
