REMARK SMILES NS(=O)(=O)c1ccc(-n2nc(C(=O)NCCCCCCNC(=O)c3ccc(-c4c5nc(c(-c6ccc(S(=O)(=O)[O-])cc6)c6ccc([nH]6)c(-c6ccc(S(=O)(=O)[O-])cc6)c6nc(c(-c7ccc(S(=O)(=O)[O-])cc7)c7ccc4[nH]7)C=C6)C=C5)cc3)cc2-c2cc3ccccc3s2)cc1
REMARK SMILES IDX 17 1 16 2 15 3 14 4 12 5 13 6 11 8 9 9 10 10 85 11 84 12
REMARK SMILES IDX 8 13 5 14 6 15 96 16 7 17 95 18 2 19 3 20 4 21 1 22 86 25
REMARK SMILES IDX 87 26 94 27 88 28 93 29 89 30 92 31 90 32 91 33 18 34 19 35
REMARK SMILES IDX 20 36 21 37 22 38 23 40 24 41 25 42 83 43 26 44 82 45 27 46
REMARK SMILES IDX 28 47 29 48 76 49 30 50 81 51 75 52 77 53 31 54 80 55 74 56
REMARK SMILES IDX 73 57 32 59 62 60 43 61 61 62 44 63 47 64 60 65 78 66 45 67
REMARK SMILES IDX 46 68 59 70 79 71 48 72 33 73 34 74 42 75 35 76 41 77 36 78
REMARK SMILES IDX 37 79 38 80 39 81 40 82 63 83 64 84 72 85 65 86 71 87 66 88
REMARK SMILES IDX 67 89 68 90 69 91 70 92 49 93 50 94 58 95 51 96 57 97 52 98
REMARK SMILES IDX 53 99 54 100 55 101 56 102
REMARK H PARENT 14 7 1 23 1 24 21 39 77 58 47 69
REMARK Flexibility Score: inf
ROOT
ATOM      1  C   UNL     1       2.734  11.005   8.589  1.00  0.00     0.002 C 
ENDROOT
BRANCH   1   2
ATOM      2  C   UNL     1       3.153   9.874   7.637  1.00  0.00     0.021 C 
BRANCH   2   3
ATOM      3  C   UNL     1       2.166   8.706   7.595  1.00  0.00     0.116 C 
BRANCH   3   4
ATOM      4  N   UNL     1       0.999   9.027   6.787  1.00  0.00    -0.351 N 
ATOM      5  C   UNL     1       0.541   8.559   5.568  1.00  0.00     0.271 C 
ATOM      6  O   UNL     1      -0.565   8.972   5.211  1.00  0.00    -0.267 OA
ATOM      7  H   UNL     1       0.420   9.715   7.187  1.00  0.00     0.163 HD
BRANCH   5   8
ATOM      8  C   UNL     1       1.300   7.551   4.803  1.00  0.00     0.151 A 
ATOM      9  N   UNL     1       1.595   5.716   3.722  1.00  0.00    -0.231 N 
ATOM     10  N   UNL     1       0.694   6.713   3.938  1.00  0.00    -0.162 NA
ATOM     11  C   UNL     1       2.740   5.920   4.456  1.00  0.00     0.085 A 
ATOM     12  C   UNL     1       2.675   7.248   4.842  1.00  0.00     0.066 A 
BRANCH   9  13
ATOM     13  C   UNL     1       1.309   4.710   2.773  1.00  0.00     0.065 A 
ATOM     14  C   UNL     1       0.777   2.824   0.799  1.00  0.00     0.082 A 
ATOM     15  C   UNL     1       1.251   2.408   2.048  1.00  0.00     0.024 A 
ATOM     16  C   UNL     1       0.566   4.178   0.530  1.00  0.00     0.024 A 
ATOM     17  C   UNL     1       1.544   3.357   3.032  1.00  0.00     0.030 A 
ATOM     18  C   UNL     1       0.801   5.119   1.530  1.00  0.00     0.030 A 
BRANCH  14  19
ATOM     19  S   UNL     1       0.467   1.667  -0.497  1.00  0.00     0.238 S 
ATOM     20  O   UNL     1       1.170   2.087  -1.681  1.00  0.00    -0.207 OA
ATOM     21  O   UNL     1      -0.946   1.346  -0.497  1.00  0.00    -0.207 OA
BRANCH  19  22
ATOM     22  N   UNL     1       1.245   0.260  -0.004  1.00  0.00    -0.225 NA
ATOM     23  H   UNL     1       1.112  -0.467  -0.707  1.00  0.00     0.137 HD
ATOM     24  H   UNL     1       0.852  -0.052   0.885  1.00  0.00     0.137 HD
ENDBRANCH  19  22
ENDBRANCH  14  19
ENDBRANCH   9  13
BRANCH  11  25
ATOM     25  C   UNL     1       3.734   4.997   4.929  1.00  0.00     0.054 A 
ATOM     26  C   UNL     1       5.096   5.261   5.006  1.00  0.00     0.031 A 
ATOM     27  S   UNL     1       3.344   4.088   6.358  1.00  0.00    -0.134 S 
ATOM     28  C   UNL     1       5.356   5.665   6.379  1.00  0.00    -0.007 A 
ATOM     29  C   UNL     1       4.375   5.162   7.243  1.00  0.00     0.035 A 
ATOM     30  C   UNL     1       6.315   6.556   6.910  1.00  0.00     0.009 A 
ATOM     31  C   UNL     1       4.287   5.543   8.590  1.00  0.00     0.019 A 
ATOM     32  C   UNL     1       6.201   6.988   8.236  1.00  0.00     0.001 A 
ATOM     33  C   UNL     1       5.194   6.494   9.060  1.00  0.00     0.001 A 
ENDBRANCH  11  25
ENDBRANCH   5   8
ENDBRANCH   3   4
ENDBRANCH   2   3
ENDBRANCH   1   2
BRANCH   1  34
ATOM     34  C   UNL     1       2.544  10.613  10.068  1.00  0.00     0.002 C 
BRANCH  34  35
ATOM     35  C   UNL     1       3.712   9.880  10.744  1.00  0.00     0.021 C 
BRANCH  35  36
ATOM     36  C   UNL     1       4.963  10.726  10.887  1.00  0.00     0.116 C 
BRANCH  36  37
ATOM     37  N   UNL     1       4.825  11.804  11.875  1.00  0.00    -0.352 N 
ATOM     38  C   UNL     1       5.792  12.703  12.307  1.00  0.00     0.251 C 
ATOM     39  H   UNL     1       3.934  11.902  12.283  1.00  0.00     0.163 HD
ATOM     40  O   UNL     1       5.670  13.298  13.371  1.00  0.00    -0.269 OA
BRANCH  38  41
ATOM     41  C   UNL     1       6.963  12.935  11.441  1.00  0.00     0.039 A 
ATOM     42  C   UNL     1       8.254  13.171  11.922  1.00  0.00     0.014 A 
ATOM     43  C   UNL     1       6.725  12.864  10.077  1.00  0.00     0.014 A 
ATOM     44  C   UNL     1       9.292  13.286  10.996  1.00  0.00     0.010 A 
ATOM     45  C   UNL     1       7.761  12.655   9.224  1.00  0.00     0.010 A 
ATOM     46  C   UNL     1       9.024  13.022   9.645  1.00  0.00    -0.014 A 
BRANCH  46  47
ATOM     47  C   UNL     1      10.028  13.062   8.598  1.00  0.00     0.031 A 
ATOM     48  C   UNL     1      11.130  12.096   8.783  1.00  0.00     0.074 A 
ATOM     49  C   UNL     1       9.826  13.729   7.437  1.00  0.00     0.049 A 
ATOM     50  N   UNL     1      12.337  12.373   9.136  1.00  0.00    -0.248 NA
ATOM     51  C   UNL     1      10.832  10.655   8.752  1.00  0.00     0.031 C 
ATOM     52  C   UNL     1       8.634  14.464   6.984  1.00  0.00     0.029 A 
ATOM     53  N   UNL     1      10.623  13.779   6.341  1.00  0.00    -0.354 N 
ATOM     54  C   UNL     1      13.019  11.165   9.137  1.00  0.00     0.074 A 
ATOM     55  C   UNL     1      12.010  10.136   9.106  1.00  0.00     0.031 C 
ATOM     56  C   UNL     1       8.699  14.657   5.647  1.00  0.00     0.029 A 
ATOM     57  C   UNL     1       9.997  14.211   5.176  1.00  0.00     0.049 A 
ATOM     58  H   UNL     1      11.574  13.527   6.368  1.00  0.00     0.167 HD
ATOM     59  C   UNL     1      14.360  11.117   8.908  1.00  0.00     0.031 A 
ATOM     60  C   UNL     1      10.507  14.162   3.916  1.00  0.00     0.031 A 
ATOM     61  C   UNL     1      14.936  12.440   8.887  1.00  0.00     0.049 A 
ATOM     62  C   UNL     1      11.984  14.068   4.065  1.00  0.00     0.074 A 
ATOM     63  C   UNL     1      15.023  13.471   9.801  1.00  0.00     0.029 A 
ATOM     64  N   UNL     1      15.127  13.011   7.647  1.00  0.00    -0.354 N 
ATOM     65  N   UNL     1      12.701  15.026   4.586  1.00  0.00    -0.248 NA
ATOM     66  C   UNL     1      12.582  12.741   4.130  1.00  0.00     0.031 C 
ATOM     67  C   UNL     1      14.766  14.651   9.043  1.00  0.00     0.029 A 
ATOM     68  C   UNL     1      14.636  14.291   7.699  1.00  0.00     0.049 A 
ATOM     69  H   UNL     1      15.542  12.578   6.865  1.00  0.00     0.167 HD
ATOM     70  C   UNL     1      13.591  14.382   5.435  1.00  0.00     0.074 A 
ATOM     71  C   UNL     1      13.534  12.972   5.043  1.00  0.00     0.031 C 
ATOM     72  C   UNL     1      14.058  14.989   6.568  1.00  0.00     0.031 A 
BRANCH  59  73
ATOM     73  C   UNL     1      15.081   9.940   8.316  1.00  0.00    -0.014 A 
ATOM     74  C   UNL     1      16.488   9.972   8.269  1.00  0.00     0.010 A 
ATOM     75  C   UNL     1      14.431   8.933   7.575  1.00  0.00     0.010 A 
ATOM     76  C   UNL     1      17.207   9.077   7.470  1.00  0.00     0.020 A 
ATOM     77  C   UNL     1      15.141   8.008   6.807  1.00  0.00     0.020 A 
ATOM     78  C   UNL     1      16.525   8.107   6.735  1.00  0.00     0.054 A 
BRANCH  78  79
ATOM     79  S   UNL     1      17.461   7.016   5.638  1.00  0.00     0.124 S 
ATOM     80  O   UNL     1      17.980   7.957   4.650  1.00  0.00    -0.237 OA
ATOM     81  O   UNL     1      18.448   6.440   6.546  1.00  0.00    -0.237 OA
ATOM     82  O   UNL     1      16.453   6.081   5.145  1.00  0.00    -0.744 OA
ENDBRANCH  78  79
ENDBRANCH  59  73
BRANCH  60  83
ATOM     83  C   UNL     1       9.790  13.796   2.661  1.00  0.00    -0.014 A 
ATOM     84  C   UNL     1      10.426  13.870   1.405  1.00  0.00     0.010 A 
ATOM     85  C   UNL     1       8.572  13.088   2.727  1.00  0.00     0.010 A 
ATOM     86  C   UNL     1       9.914  13.181   0.287  1.00  0.00     0.020 A 
ATOM     87  C   UNL     1       8.053  12.406   1.619  1.00  0.00     0.020 A 
ATOM     88  C   UNL     1       8.745  12.427   0.411  1.00  0.00     0.054 A 
BRANCH  88  89
ATOM     89  S   UNL     1       8.215  11.340  -0.950  1.00  0.00     0.124 S 
ATOM     90  O   UNL     1       7.701  12.293  -1.929  1.00  0.00    -0.237 OA
ATOM     91  O   UNL     1       9.455  10.661  -1.316  1.00  0.00    -0.237 OA
ATOM     92  O   UNL     1       7.207  10.482  -0.328  1.00  0.00    -0.744 OA
ENDBRANCH  88  89
ENDBRANCH  60  83
BRANCH  72  93
ATOM     93  C   UNL     1      13.768  16.463   6.769  1.00  0.00    -0.014 A 
ATOM     94  C   UNL     1      12.470  17.007   6.871  1.00  0.00     0.010 A 
ATOM     95  C   UNL     1      14.863  17.306   7.021  1.00  0.00     0.010 A 
ATOM     96  C   UNL     1      12.281  18.364   7.181  1.00  0.00     0.020 A 
ATOM     97  C   UNL     1      14.681  18.651   7.348  1.00  0.00     0.020 A 
ATOM     98  C   UNL     1      13.392  19.179   7.413  1.00  0.00     0.054 A 
BRANCH  98  99
ATOM     99  S   UNL     1      13.150  20.930   7.828  1.00  0.00     0.124 S 
ATOM    100  O   UNL     1      12.625  21.481   6.582  1.00  0.00    -0.237 OA
ATOM    101  O   UNL     1      12.205  20.874   8.940  1.00  0.00    -0.237 OA
ATOM    102  O   UNL     1      14.491  21.390   8.189  1.00  0.00    -0.744 OA
ENDBRANCH  98  99
ENDBRANCH  72  93
ENDBRANCH  46  47
ENDBRANCH  38  41
ENDBRANCH  36  37
ENDBRANCH  35  36
ENDBRANCH  34  35
ENDBRANCH   1  34
TORSDOF 20
