REMARK SMILES O=C(NCCCCCCNC(=O)c1cc(Br)ccc1NC(=O)c1ccc(Br)s1)c1ccc(-c2c3nc(c(-c4ccc(S(=O)(=O)[O-])cc4)c4ccc([nH]4)c(-c4ccc(S(=O)(=O)[O-])cc4)c4nc(c(-c5ccc(S(=O)(=O)[O-])cc5)c5ccc2[nH]5)C=C4)C=C3)cc1
REMARK SMILES IDX 6 1 5 2 4 3 3 4 1 5 2 6 29 8 30 9 88 10 31 11 87 12 32 13
REMARK SMILES IDX 33 14 34 15 81 16 35 17 86 18 80 19 82 20 36 21 85 22 79 23
REMARK SMILES IDX 78 24 37 26 67 27 48 28 66 29 49 30 52 31 65 32 83 33 50 34
REMARK SMILES IDX 51 35 64 37 84 38 53 39 38 40 39 41 47 42 40 43 46 44 41 45
REMARK SMILES IDX 42 46 43 47 44 48 45 49 68 50 69 51 77 52 70 53 76 54 71 55
REMARK SMILES IDX 72 56 73 57 74 58 75 59 54 60 55 61 63 62 56 63 62 64 57 65
REMARK SMILES IDX 58 66 59 67 60 68 61 69 7 70 8 71 9 72 10 73 11 74 12 76
REMARK SMILES IDX 13 77 14 78 19 79 15 80 18 81 16 82 17 83 20 84 21 85 22 87
REMARK SMILES IDX 23 88 24 89 28 90 25 91 26 92 27 93
REMARK H PARENT 3 7 82 25 52 36 10 75 20 86
REMARK Flexibility Score: inf
ROOT
ATOM      1  C   UNL     1       4.063  -3.202  -2.455  1.00  0.00     0.002 C 
ENDROOT
BRANCH   1   2
ATOM      2  C   UNL     1       4.539  -2.625  -1.121  1.00  0.00     0.021 C 
BRANCH   2   3
ATOM      3  C   UNL     1       4.349  -1.123  -0.946  1.00  0.00     0.116 C 
BRANCH   3   4
ATOM      4  N   UNL     1       2.952  -0.724  -0.934  1.00  0.00    -0.352 N 
ATOM      5  O   UNL     1       1.052   0.169  -0.112  1.00  0.00    -0.269 OA
ATOM      6  C   UNL     1       2.270   0.043  -0.018  1.00  0.00     0.251 C 
ATOM      7  H   UNL     1       2.415  -1.049  -1.693  1.00  0.00     0.163 HD
BRANCH   6   8
ATOM      8  C   UNL     1       2.998   0.689   1.099  1.00  0.00     0.039 A 
ATOM      9  C   UNL     1       4.205   1.356   0.882  1.00  0.00     0.014 A 
ATOM     10  C   UNL     1       2.459   0.625   2.388  1.00  0.00     0.014 A 
ATOM     11  C   UNL     1       4.945   1.820   1.967  1.00  0.00     0.010 A 
ATOM     12  C   UNL     1       3.166   1.164   3.469  1.00  0.00     0.010 A 
ATOM     13  C   UNL     1       4.435   1.729   3.274  1.00  0.00    -0.014 A 
BRANCH  13  14
ATOM     14  C   UNL     1       5.239   2.260   4.407  1.00  0.00     0.031 A 
ATOM     15  C   UNL     1       5.787   1.345   5.471  1.00  0.00     0.074 A 
ATOM     16  C   UNL     1       5.517   3.578   4.447  1.00  0.00     0.049 A 
ATOM     17  N   UNL     1       6.571   1.636   6.479  1.00  0.00    -0.248 NA
ATOM     18  C   UNL     1       5.404  -0.073   5.401  1.00  0.00     0.031 C 
ATOM     19  C   UNL     1       5.035   4.571   3.482  1.00  0.00     0.029 A 
ATOM     20  N   UNL     1       6.294   4.306   5.312  1.00  0.00    -0.354 N 
ATOM     21  C   UNL     1       6.753   0.447   7.178  1.00  0.00     0.074 A 
ATOM     22  C   UNL     1       5.983  -0.566   6.488  1.00  0.00     0.031 C 
ATOM     23  C   UNL     1       5.579   5.763   3.771  1.00  0.00     0.029 A 
ATOM     24  C   UNL     1       6.402   5.632   4.968  1.00  0.00     0.049 A 
ATOM     25  H   UNL     1       6.732   3.916   6.103  1.00  0.00     0.167 HD
ATOM     26  C   UNL     1       7.495   0.219   8.290  1.00  0.00     0.031 A 
ATOM     27  C   UNL     1       7.088   6.636   5.545  1.00  0.00     0.031 A 
ATOM     28  C   UNL     1       8.271   1.224   8.969  1.00  0.00     0.049 A 
ATOM     29  C   UNL     1       7.906   6.356   6.772  1.00  0.00     0.074 A 
ATOM     30  C   UNL     1       9.087   1.077  10.078  1.00  0.00     0.029 A 
ATOM     31  N   UNL     1       8.326   2.561   8.608  1.00  0.00    -0.354 N 
ATOM     32  N   UNL     1       8.093   5.216   7.393  1.00  0.00    -0.248 NA
ATOM     33  C   UNL     1       8.605   7.498   7.375  1.00  0.00     0.031 C 
ATOM     34  C   UNL     1       9.604   2.335  10.411  1.00  0.00     0.029 A 
ATOM     35  C   UNL     1       9.146   3.255   9.483  1.00  0.00     0.049 A 
ATOM     36  H   UNL     1       7.852   2.960   7.843  1.00  0.00     0.167 HD
ATOM     37  C   UNL     1       8.946   5.501   8.452  1.00  0.00     0.074 A 
ATOM     38  C   UNL     1       9.251   6.916   8.376  1.00  0.00     0.031 C 
ATOM     39  C   UNL     1       9.433   4.665   9.402  1.00  0.00     0.031 A 
BRANCH  26  40
ATOM     40  C   UNL     1       7.480  -1.174   8.861  1.00  0.00    -0.014 A 
ATOM     41  C   UNL     1       8.169  -2.228   8.235  1.00  0.00     0.010 A 
ATOM     42  C   UNL     1       6.796  -1.424  10.065  1.00  0.00     0.010 A 
ATOM     43  C   UNL     1       8.138  -3.516   8.780  1.00  0.00     0.020 A 
ATOM     44  C   UNL     1       6.781  -2.705  10.625  1.00  0.00     0.020 A 
ATOM     45  C   UNL     1       7.436  -3.748   9.967  1.00  0.00     0.054 A 
BRANCH  45  46
ATOM     46  S   UNL     1       7.415  -5.426  10.657  1.00  0.00     0.124 S 
ATOM     47  O   UNL     1       6.454  -6.096   9.785  1.00  0.00    -0.237 OA
ATOM     48  O   UNL     1       8.804  -5.854  10.507  1.00  0.00    -0.237 OA
ATOM     49  O   UNL     1       6.974  -5.228  12.036  1.00  0.00    -0.744 OA
ENDBRANCH  45  46
ENDBRANCH  26  40
BRANCH  27  50
ATOM     50  C   UNL     1       7.039   7.998   4.951  1.00  0.00    -0.014 A 
ATOM     51  C   UNL     1       8.156   8.521   4.277  1.00  0.00     0.010 A 
ATOM     52  C   UNL     1       5.860   8.762   5.025  1.00  0.00     0.010 A 
ATOM     53  C   UNL     1       8.097   9.789   3.693  1.00  0.00     0.020 A 
ATOM     54  C   UNL     1       5.790  10.020   4.420  1.00  0.00     0.020 A 
ATOM     55  C   UNL     1       6.914  10.529   3.766  1.00  0.00     0.054 A 
BRANCH  55  56
ATOM     56  S   UNL     1       6.834  12.143   2.941  1.00  0.00     0.124 S 
ATOM     57  O   UNL     1       7.545  13.000   3.884  1.00  0.00    -0.237 OA
ATOM     58  O   UNL     1       7.519  11.888   1.676  1.00  0.00    -0.237 OA
ATOM     59  O   UNL     1       5.399  12.393   2.823  1.00  0.00    -0.744 OA
ENDBRANCH  55  56
ENDBRANCH  27  50
BRANCH  39  60
ATOM     60  C   UNL     1      10.365   5.258  10.421  1.00  0.00    -0.014 A 
ATOM     61  C   UNL     1       9.883   6.085  11.451  1.00  0.00     0.010 A 
ATOM     62  C   UNL     1      11.739   4.966  10.358  1.00  0.00     0.010 A 
ATOM     63  C   UNL     1      10.767   6.642  12.379  1.00  0.00     0.020 A 
ATOM     64  C   UNL     1      12.622   5.503  11.298  1.00  0.00     0.020 A 
ATOM     65  C   UNL     1      12.132   6.353  12.292  1.00  0.00     0.054 A 
BRANCH  65  66
ATOM     66  S   UNL     1      13.261   7.067  13.520  1.00  0.00     0.124 S 
ATOM     67  O   UNL     1      13.417   8.433  13.029  1.00  0.00    -0.237 OA
ATOM     68  O   UNL     1      12.514   6.928  14.767  1.00  0.00    -0.237 OA
ATOM     69  O   UNL     1      14.454   6.228  13.419  1.00  0.00    -0.744 OA
ENDBRANCH  65  66
ENDBRANCH  39  60
ENDBRANCH  13  14
ENDBRANCH   6   8
ENDBRANCH   3   4
ENDBRANCH   2   3
ENDBRANCH   1   2
BRANCH   1  70
ATOM     70  C   UNL     1       4.648  -2.555  -3.714  1.00  0.00     0.002 C 
BRANCH  70  71
ATOM     71  C   UNL     1       6.174  -2.445  -3.765  1.00  0.00     0.021 C 
BRANCH  71  72
ATOM     72  C   UNL     1       6.935  -3.753  -3.564  1.00  0.00     0.116 C 
BRANCH  72  73
ATOM     73  N   UNL     1       6.718  -4.699  -4.650  1.00  0.00    -0.352 N 
ATOM     74  C   UNL     1       7.653  -5.325  -5.439  1.00  0.00     0.253 C 
ATOM     75  H   UNL     1       5.779  -4.918  -4.845  1.00  0.00     0.163 HD
ATOM     76  O   UNL     1       7.318  -5.966  -6.430  1.00  0.00    -0.269 OA
BRANCH  74  77
ATOM     77  C   UNL     1       9.087  -5.159  -5.123  1.00  0.00     0.064 A 
ATOM     78  C   UNL     1       9.527  -5.545  -3.846  1.00  0.00     0.031 A 
ATOM     79  C   UNL     1       9.967  -4.583  -6.061  1.00  0.00     0.054 A 
ATOM     80  C   UNL     1      10.822  -5.241  -3.451  1.00  0.00     0.018 A 
ATOM     81  C   UNL     1      11.232  -4.209  -5.598  1.00  0.00     0.028 A 
ATOM     82  Br  UNL     1      11.419  -5.719  -1.726  1.00  0.00    -0.051 Br
ATOM     83  C   UNL     1      11.664  -4.542  -4.308  1.00  0.00     0.018 A 
BRANCH  79  84
ATOM     84  N   UNL     1       9.526  -4.380  -7.391  1.00  0.00    -0.321 N 
ATOM     85  C   UNL     1      10.170  -4.042  -8.565  1.00  0.00     0.265 C 
ATOM     86  H   UNL     1       8.556  -4.506  -7.502  1.00  0.00     0.170 HD
ATOM     87  O   UNL     1       9.466  -3.760  -9.537  1.00  0.00    -0.268 OA
BRANCH  85  88
ATOM     88  C   UNL     1      11.614  -4.092  -8.649  1.00  0.00     0.093 A 
ATOM     89  C   UNL     1      12.477  -5.137  -8.360  1.00  0.00     0.027 A 
ATOM     90  S   UNL     1      12.464  -2.712  -9.208  1.00  0.00    -0.123 S 
ATOM     91  C   UNL     1      13.847  -4.752  -8.484  1.00  0.00     0.028 A 
ATOM     92  C   UNL     1      13.959  -3.456  -8.920  1.00  0.00     0.071 A 
ATOM     93  Br  UNL     1      15.598  -2.586  -9.171  1.00  0.00    -0.039 Br
ENDBRANCH  85  88
ENDBRANCH  79  84
ENDBRANCH  74  77
ENDBRANCH  72  73
ENDBRANCH  71  72
ENDBRANCH  70  71
ENDBRANCH   1  70
TORSDOF 18
