REMARK SMILES Cc1ccccc1NC(=O)C[NH+]1CCC(CC(=O)NCCCCCCNC(=O)c2ccc(-c3c4nc(c(-c5ccc(S(=O)(=O)[O-])cc5)c5ccc([nH]5)c(-c5ccc(S(=O)(=O)[O-])cc5)c5nc(c(-c6ccc(S(=O)(=O)[O-])cc6)c6ccc3[nH]6)C=C5)C=C4)cc2)CC1
REMARK SMILES IDX 22 1 21 2 20 3 19 4 17 5 18 6 16 8 15 9 12 10 13 11 90 12
REMARK SMILES IDX 14 14 89 15 11 16 9 17 8 18 10 20 7 21 1 22 2 23 3 24 4 25
REMARK SMILES IDX 6 26 5 27 23 28 24 29 25 30 26 31 27 32 28 34 29 35 30 36
REMARK SMILES IDX 88 37 31 38 87 39 32 40 33 41 34 42 81 43 35 44 86 45 80 46
REMARK SMILES IDX 82 47 36 48 85 49 79 50 78 51 37 53 67 54 48 55 66 56 49 57
REMARK SMILES IDX 52 58 65 59 83 60 50 61 51 62 64 64 84 65 53 66 38 67 39 68
REMARK SMILES IDX 47 69 40 70 46 71 41 72 42 73 43 74 44 75 45 76 68 77 69 78
REMARK SMILES IDX 77 79 70 80 76 81 71 82 72 83 73 84 74 85 75 86 54 87 55 88
REMARK SMILES IDX 63 89 56 90 62 91 57 92 58 93 59 94 60 95 61 96
REMARK H PARENT 19 7 12 13 8 19 26 33 82 52 52 63
REMARK Flexibility Score: inf
ROOT
ATOM      1  C   UNL     1      -0.964   5.997  -7.242  1.00  0.00     0.002 C 
ENDROOT
BRANCH   1   2
ATOM      2  C   UNL     1      -1.313   4.988  -6.146  1.00  0.00     0.021 C 
BRANCH   2   3
ATOM      3  C   UNL     1      -2.050   3.729  -6.617  1.00  0.00     0.116 C 
BRANCH   3   4
ATOM      4  N   UNL     1      -1.135   2.629  -6.885  1.00  0.00    -0.356 N 
ATOM      5  C   UNL     1      -0.983   1.436  -6.240  1.00  0.00     0.220 C 
ATOM      6  O   UNL     1      -0.113   0.654  -6.628  1.00  0.00    -0.275 OA
ATOM      7  H   UNL     1      -0.532   2.767  -7.651  1.00  0.00     0.163 HD
BRANCH   5   8
ATOM      8  C   UNL     1      -1.878   1.079  -5.068  1.00  0.00     0.104 C 
BRANCH   8   9
ATOM      9  C   UNL     1      -1.287   1.436  -3.695  1.00  0.00     0.009 C 
ATOM     10  N   UNL     1      -1.501   2.893  -1.149  1.00  0.00    -0.327 N 
ATOM     11  C   UNL     1      -0.506   3.311  -2.137  1.00  0.00     0.262 C 
ATOM     12  C   UNL     1      -1.759   1.458  -1.218  1.00  0.00     0.262 C 
ATOM     13  H   UNL     1      -2.383   3.344  -1.392  1.00  0.00     0.348 HD
ATOM     14  C   UNL     1      -0.951   2.922  -3.545  1.00  0.00     0.066 C 
ATOM     15  C   UNL     1      -2.273   1.035  -2.591  1.00  0.00     0.066 C 
BRANCH  10  16
ATOM     16  C   UNL     1      -1.191   3.388   0.218  1.00  0.00     0.363 C 
BRANCH  16  17
ATOM     17  C   UNL     1       0.286   3.330   0.639  1.00  0.00     0.279 C 
ATOM     18  N   UNL     1       0.920   2.185   1.033  1.00  0.00    -0.321 N 
ATOM     19  H   UNL     1       1.867   2.304   1.277  1.00  0.00     0.170 HD
ATOM     20  O   UNL     1       0.993   4.341   0.536  1.00  0.00    -0.268 OA
BRANCH  18  21
ATOM     21  C   UNL     1       0.448   0.873   1.148  1.00  0.00     0.044 A 
ATOM     22  C   UNL     1       2.596  -0.012   0.041  1.00  0.00     0.046 C 
ATOM     23  C   UNL     1       1.214  -0.183   0.613  1.00  0.00    -0.027 A 
ATOM     24  C   UNL     1       0.648  -1.470   0.563  1.00  0.00     0.005 A 
ATOM     25  C   UNL     1      -0.633  -1.712   1.058  1.00  0.00     0.000 A 
ATOM     26  C   UNL     1      -0.795   0.598   1.729  1.00  0.00     0.026 A 
ATOM     27  C   UNL     1      -1.342  -0.684   1.667  1.00  0.00     0.002 A 
ENDBRANCH  18  21
ENDBRANCH  16  17
ENDBRANCH  10  16
ENDBRANCH   8   9
ENDBRANCH   5   8
ENDBRANCH   3   4
ENDBRANCH   2   3
ENDBRANCH   1   2
BRANCH   1  28
ATOM     28  C   UNL     1      -2.139   6.593  -8.031  1.00  0.00     0.002 C 
BRANCH  28  29
ATOM     29  C   UNL     1      -3.347   7.060  -7.217  1.00  0.00     0.021 C 
BRANCH  29  30
ATOM     30  C   UNL     1      -3.063   8.196  -6.251  1.00  0.00     0.116 C 
BRANCH  30  31
ATOM     31  N   UNL     1      -3.080   9.531  -6.830  1.00  0.00    -0.352 N 
ATOM     32  C   UNL     1      -3.534  10.572  -6.021  1.00  0.00     0.251 C 
ATOM     33  H   UNL     1      -2.784   9.692  -7.755  1.00  0.00     0.163 HD
ATOM     34  O   UNL     1      -4.692  10.938  -5.923  1.00  0.00    -0.269 OA
BRANCH  32  35
ATOM     35  C   UNL     1      -2.519  10.986  -5.029  1.00  0.00     0.039 A 
ATOM     36  C   UNL     1      -1.620  12.020  -5.284  1.00  0.00     0.014 A 
ATOM     37  C   UNL     1      -2.333  10.104  -3.962  1.00  0.00     0.014 A 
ATOM     38  C   UNL     1      -0.444  12.089  -4.535  1.00  0.00     0.010 A 
ATOM     39  C   UNL     1      -1.129  10.110  -3.300  1.00  0.00     0.010 A 
ATOM     40  C   UNL     1      -0.170  11.082  -3.608  1.00  0.00    -0.014 A 
BRANCH  40  41
ATOM     41  C   UNL     1       1.093  10.908  -2.904  1.00  0.00     0.031 A 
ATOM     42  C   UNL     1       1.185  11.276  -1.475  1.00  0.00     0.074 A 
ATOM     43  C   UNL     1       2.086  10.208  -3.495  1.00  0.00     0.049 A 
ATOM     44  N   UNL     1       2.287  11.402  -0.815  1.00  0.00    -0.248 NA
ATOM     45  C   UNL     1       0.003  11.588  -0.676  1.00  0.00     0.031 C 
ATOM     46  C   UNL     1       3.222   9.569  -2.837  1.00  0.00     0.029 A 
ATOM     47  N   UNL     1       2.391  10.117  -4.854  1.00  0.00    -0.354 N 
ATOM     48  C   UNL     1       1.957  11.453   0.522  1.00  0.00     0.074 A 
ATOM     49  C   UNL     1       0.533  11.688   0.545  1.00  0.00     0.031 C 
ATOM     50  C   UNL     1       4.215   9.441  -3.731  1.00  0.00     0.029 A 
ATOM     51  C   UNL     1       3.793  10.148  -4.929  1.00  0.00     0.049 A 
ATOM     52  H   UNL     1       1.756  10.046  -5.603  1.00  0.00     0.167 HD
ATOM     53  C   UNL     1       2.896  11.126   1.457  1.00  0.00     0.031 A 
ATOM     54  C   UNL     1       4.497  11.153  -5.529  1.00  0.00     0.031 A 
ATOM     55  C   UNL     1       4.215  10.941   0.847  1.00  0.00     0.049 A 
ATOM     56  C   UNL     1       5.480  11.825  -4.593  1.00  0.00     0.074 A 
ATOM     57  C   UNL     1       4.971   9.822   0.537  1.00  0.00     0.029 A 
ATOM     58  N   UNL     1       4.812  12.011   0.188  1.00  0.00    -0.354 N 
ATOM     59  N   UNL     1       5.433  11.740  -3.292  1.00  0.00    -0.248 NA
ATOM     60  C   UNL     1       6.582  12.662  -5.052  1.00  0.00     0.031 C 
ATOM     61  C   UNL     1       5.988  10.219  -0.374  1.00  0.00     0.029 A 
ATOM     62  C   UNL     1       5.867  11.580  -0.594  1.00  0.00     0.049 A 
ATOM     63  H   UNL     1       4.522  12.949   0.268  1.00  0.00     0.167 HD
ATOM     64  C   UNL     1       6.460  12.461  -2.737  1.00  0.00     0.074 A 
ATOM     65  C   UNL     1       7.156  13.014  -3.887  1.00  0.00     0.031 C 
ATOM     66  C   UNL     1       6.641  12.537  -1.382  1.00  0.00     0.031 A 
BRANCH  53  67
ATOM     67  C   UNL     1       2.558  10.690   2.874  1.00  0.00    -0.014 A 
ATOM     68  C   UNL     1       3.468   9.887   3.596  1.00  0.00     0.010 A 
ATOM     69  C   UNL     1       1.343  10.966   3.529  1.00  0.00     0.010 A 
ATOM     70  C   UNL     1       3.146   9.321   4.843  1.00  0.00     0.020 A 
ATOM     71  C   UNL     1       0.993  10.388   4.760  1.00  0.00     0.020 A 
ATOM     72  C   UNL     1       1.894   9.554   5.406  1.00  0.00     0.054 A 
BRANCH  72  73
ATOM     73  S   UNL     1       1.457   8.767   6.979  1.00  0.00     0.124 S 
ATOM     74  O   UNL     1       1.601   7.345   6.673  1.00  0.00    -0.237 OA
ATOM     75  O   UNL     1       2.451   9.319   7.895  1.00  0.00    -0.237 OA
ATOM     76  O   UNL     1       0.084   9.207   7.218  1.00  0.00    -0.744 OA
ENDBRANCH  72  73
ENDBRANCH  53  67
BRANCH  54  77
ATOM     77  C   UNL     1       3.774  11.826  -6.646  1.00  0.00    -0.014 A 
ATOM     78  C   UNL     1       3.580  11.076  -7.826  1.00  0.00     0.010 A 
ATOM     79  C   UNL     1       2.911  12.904  -6.376  1.00  0.00     0.010 A 
ATOM     80  C   UNL     1       2.425  11.251  -8.595  1.00  0.00     0.020 A 
ATOM     81  C   UNL     1       1.759  13.089  -7.155  1.00  0.00     0.020 A 
ATOM     82  C   UNL     1       1.482  12.198  -8.197  1.00  0.00     0.054 A 
BRANCH  82  83
ATOM     83  S   UNL     1      -0.189  12.102  -8.916  1.00  0.00     0.124 S 
ATOM     84  O   UNL     1       0.083  12.055 -10.348  1.00  0.00    -0.237 OA
ATOM     85  O   UNL     1      -0.705  10.864  -8.326  1.00  0.00    -0.237 OA
ATOM     86  O   UNL     1      -0.831  13.323  -8.438  1.00  0.00    -0.744 OA
ENDBRANCH  82  83
ENDBRANCH  54  77
BRANCH  66  87
ATOM     87  C   UNL     1       7.599  13.451  -0.637  1.00  0.00    -0.014 A 
ATOM     88  C   UNL     1       8.295  14.526  -1.207  1.00  0.00     0.010 A 
ATOM     89  C   UNL     1       7.746  13.286   0.765  1.00  0.00     0.010 A 
ATOM     90  C   UNL     1       9.130  15.354  -0.440  1.00  0.00     0.020 A 
ATOM     91  C   UNL     1       8.537  14.132   1.550  1.00  0.00     0.020 A 
ATOM     92  C   UNL     1       9.248  15.151   0.934  1.00  0.00     0.054 A 
BRANCH  92  93
ATOM     93  S   UNL     1      10.278  16.270   1.915  1.00  0.00     0.124 S 
ATOM     94  O   UNL     1      11.612  15.715   1.703  1.00  0.00    -0.237 OA
ATOM     95  O   UNL     1      10.034  17.568   1.288  1.00  0.00    -0.237 OA
ATOM     96  O   UNL     1       9.747  16.132   3.268  1.00  0.00    -0.744 OA
ENDBRANCH  92  93
ENDBRANCH  66  87
ENDBRANCH  40  41
ENDBRANCH  32  35
ENDBRANCH  30  31
ENDBRANCH  29  30
ENDBRANCH  28  29
ENDBRANCH   1  28
TORSDOF 20
