REMARK SMILES O=C(NCCCCCCNC(=O)[C@@H]1[C@@H](C(=O)N2CC[NH+](C/C=C/c3ccccc3)CC2)[C@@H]2C=C[C@H]1C2)c1ccc(-c2c3nc(c(-c4ccc(S(=O)(=O)[O-])cc4)c4ccc([nH]4)c(-c4ccc(S(=O)(=O)[O-])cc4)c4nc(c(-c5ccc(S(=O)(=O)[O-])cc5)c5ccc2[nH]5)C=C4)C=C3)cc1
REMARK SMILES IDX 7 1 6 2 5 3 4 4 3 5 1 6 2 7 37 9 38 10 96 11 39 12 95 13
REMARK SMILES IDX 40 14 41 15 42 16 89 17 43 18 94 19 88 20 90 21 44 22 93 23
REMARK SMILES IDX 87 24 86 25 45 27 75 28 56 29 74 30 57 31 60 32 73 33 91 34
REMARK SMILES IDX 58 35 59 36 72 38 92 39 61 40 46 41 47 42 55 43 48 44 54 45
REMARK SMILES IDX 49 46 50 47 51 48 52 49 53 50 76 51 77 52 85 53 78 54 84 55
REMARK SMILES IDX 79 56 80 57 81 58 82 59 83 60 62 61 63 62 71 63 64 64 70 65
REMARK SMILES IDX 65 66 66 67 67 68 68 69 69 70 8 71 9 72 10 73 11 74 12 76
REMARK SMILES IDX 13 77 14 78 35 79 32 80 34 81 36 82 33 83 15 84 16 85 17 86
REMARK SMILES IDX 18 87 31 88 19 89 30 90 20 91 21 93 22 94 23 95 24 96 25 97
REMARK SMILES IDX 29 98 26 99 28 100 27 101
REMARK H PARENT 3 8 90 26 60 37 10 75 20 92
REMARK Flexibility Score: inf
ROOT
ATOM      1  C   UNL     1       4.663  -0.327   4.226  1.00  0.00     0.002 C 
ENDROOT
BRANCH   1   2
ATOM      2  C   UNL     1       3.936   0.859   3.581  1.00  0.00     0.002 C 
BRANCH   2   3
ATOM      3  C   UNL     1       4.466   1.247   2.200  1.00  0.00     0.021 C 
BRANCH   3   4
ATOM      4  C   UNL     1       4.369   0.123   1.178  1.00  0.00     0.116 C 
BRANCH   4   5
ATOM      5  N   UNL     1       2.981  -0.232   0.923  1.00  0.00    -0.352 N 
ATOM      6  O   UNL     1       1.046  -0.179  -0.234  1.00  0.00    -0.269 OA
ATOM      7  C   UNL     1       2.267  -0.113  -0.243  1.00  0.00     0.251 C 
ATOM      8  H   UNL     1       2.488  -0.607   1.689  1.00  0.00     0.163 HD
BRANCH   7   9
ATOM      9  C   UNL     1       3.003   0.095  -1.506  1.00  0.00     0.039 A 
ATOM     10  C   UNL     1       4.151  -0.656  -1.772  1.00  0.00     0.014 A 
ATOM     11  C   UNL     1       2.543   1.039  -2.427  1.00  0.00     0.014 A 
ATOM     12  C   UNL     1       4.912  -0.375  -2.897  1.00  0.00     0.010 A 
ATOM     13  C   UNL     1       3.259   1.250  -3.607  1.00  0.00     0.010 A 
ATOM     14  C   UNL     1       4.457   0.557  -3.843  1.00  0.00    -0.014 A 
BRANCH  14  15
ATOM     15  C   UNL     1       5.203   0.712  -5.115  1.00  0.00     0.031 A 
ATOM     16  C   UNL     1       5.856   2.011  -5.485  1.00  0.00     0.074 A 
ATOM     17  C   UNL     1       5.289  -0.356  -5.933  1.00  0.00     0.049 A 
ATOM     18  N   UNL     1       6.545   2.304  -6.558  1.00  0.00    -0.248 NA
ATOM     19  C   UNL     1       5.714   3.129  -4.539  1.00  0.00     0.031 C 
ATOM     20  C   UNL     1       4.682  -1.666  -5.675  1.00  0.00     0.029 A 
ATOM     21  N   UNL     1       5.926  -0.518  -7.135  1.00  0.00    -0.354 N 
ATOM     22  C   UNL     1       6.901   3.642  -6.430  1.00  0.00     0.074 A 
ATOM     23  C   UNL     1       6.330   4.110  -5.185  1.00  0.00     0.031 C 
ATOM     24  C   UNL     1       5.011  -2.507  -6.665  1.00  0.00     0.029 A 
ATOM     25  C   UNL     1       5.783  -1.779  -7.663  1.00  0.00     0.049 A 
ATOM     26  H   UNL     1       6.435   0.198  -7.578  1.00  0.00     0.167 HD
ATOM     27  C   UNL     1       7.636   4.404  -7.276  1.00  0.00     0.031 A 
ATOM     28  C   UNL     1       6.200  -2.292  -8.835  1.00  0.00     0.031 A 
ATOM     29  C   UNL     1       8.186   3.925  -8.519  1.00  0.00     0.049 A 
ATOM     30  C   UNL     1       6.979  -1.415  -9.770  1.00  0.00     0.074 A 
ATOM     31  C   UNL     1       8.974   4.606  -9.430  1.00  0.00     0.029 A 
ATOM     32  N   UNL     1       7.996   2.649  -9.033  1.00  0.00    -0.354 N 
ATOM     33  N   UNL     1       7.345  -0.165  -9.610  1.00  0.00    -0.248 NA
ATOM     34  C   UNL     1       7.405  -2.015 -11.039  1.00  0.00     0.031 C 
ATOM     35  C   UNL     1       9.204   3.766 -10.524  1.00  0.00     0.029 A 
ATOM     36  C   UNL     1       8.623   2.535 -10.264  1.00  0.00     0.049 A 
ATOM     37  H   UNL     1       7.491   1.931  -8.588  1.00  0.00     0.167 HD
ATOM     38  C   UNL     1       8.061   0.166 -10.752  1.00  0.00     0.074 A 
ATOM     39  C   UNL     1       8.095  -1.022 -11.582  1.00  0.00     0.031 C 
ATOM     40  C   UNL     1       8.639   1.348 -11.083  1.00  0.00     0.031 A 
BRANCH  27  41
ATOM     41  C   UNL     1       7.854   5.850  -6.906  1.00  0.00    -0.014 A 
ATOM     42  C   UNL     1       8.672   6.216  -5.822  1.00  0.00     0.010 A 
ATOM     43  C   UNL     1       7.261   6.863  -7.683  1.00  0.00     0.010 A 
ATOM     44  C   UNL     1       8.855   7.563  -5.495  1.00  0.00     0.020 A 
ATOM     45  C   UNL     1       7.466   8.212  -7.378  1.00  0.00     0.020 A 
ATOM     46  C   UNL     1       8.246   8.553  -6.272  1.00  0.00     0.054 A 
BRANCH  46  47
ATOM     47  S   UNL     1       8.507  10.292  -5.827  1.00  0.00     0.124 S 
ATOM     48  O   UNL     1       7.723  10.409  -4.600  1.00  0.00    -0.237 OA
ATOM     49  O   UNL     1       9.956  10.365  -5.654  1.00  0.00    -0.237 OA
ATOM     50  O   UNL     1       7.981  11.028  -6.974  1.00  0.00    -0.744 OA
ENDBRANCH  46  47
ENDBRANCH  27  41
BRANCH  28  51
ATOM     51  C   UNL     1       5.854  -3.696  -9.185  1.00  0.00    -0.014 A 
ATOM     52  C   UNL     1       6.846  -4.689  -9.245  1.00  0.00     0.010 A 
ATOM     53  C   UNL     1       4.512  -4.053  -9.418  1.00  0.00     0.010 A 
ATOM     54  C   UNL     1       6.503  -6.011  -9.545  1.00  0.00     0.020 A 
ATOM     55  C   UNL     1       4.162  -5.378  -9.683  1.00  0.00     0.020 A 
ATOM     56  C   UNL     1       5.162  -6.348  -9.757  1.00  0.00     0.054 A 
BRANCH  56  57
ATOM     57  S   UNL     1       4.736  -8.079 -10.085  1.00  0.00     0.124 S 
ATOM     58  O   UNL     1       5.236  -8.261 -11.444  1.00  0.00    -0.237 OA
ATOM     59  O   UNL     1       5.471  -8.788  -9.040  1.00  0.00    -0.237 OA
ATOM     60  O   UNL     1       3.282  -8.108  -9.943  1.00  0.00    -0.744 OA
ENDBRANCH  56  57
ENDBRANCH  28  51
BRANCH  40  61
ATOM     61  C   UNL     1       9.384   1.405 -12.390  1.00  0.00    -0.014 A 
ATOM     62  C   UNL     1       8.706   1.380 -13.621  1.00  0.00     0.010 A 
ATOM     63  C   UNL     1      10.786   1.531 -12.381  1.00  0.00     0.010 A 
ATOM     64  C   UNL     1       9.419   1.448 -14.821  1.00  0.00     0.020 A 
ATOM     65  C   UNL     1      11.499   1.631 -13.578  1.00  0.00     0.020 A 
ATOM     66  C   UNL     1      10.811   1.575 -14.791  1.00  0.00     0.054 A 
BRANCH  66  67
ATOM     67  S   UNL     1      11.708   1.708 -16.361  1.00  0.00     0.124 S 
ATOM     68  O   UNL     1      11.611   0.347 -16.883  1.00  0.00    -0.237 OA
ATOM     69  O   UNL     1      10.938   2.716 -17.085  1.00  0.00    -0.237 OA
ATOM     70  O   UNL     1      13.050   2.126 -15.960  1.00  0.00    -0.744 OA
ENDBRANCH  66  67
ENDBRANCH  40  61
ENDBRANCH  14  15
ENDBRANCH   7   9
ENDBRANCH   4   5
ENDBRANCH   3   4
ENDBRANCH   2   3
ENDBRANCH   1   2
BRANCH   1  71
ATOM     71  C   UNL     1       6.181  -0.153   4.316  1.00  0.00     0.021 C 
BRANCH  71  72
ATOM     72  C   UNL     1       6.577   1.037   5.191  1.00  0.00     0.116 C 
BRANCH  72  73
ATOM     73  N   UNL     1       6.497   0.673   6.587  1.00  0.00    -0.356 N 
ATOM     74  C   UNL     1       7.384   0.050   7.402  1.00  0.00     0.224 C 
ATOM     75  H   UNL     1       5.649   0.920   7.023  1.00  0.00     0.163 HD
ATOM     76  O   UNL     1       6.933  -0.374   8.473  1.00  0.00    -0.275 OA
BRANCH  74  77
ATOM     77  C   UNL     1       8.887   0.049   7.158  1.00  0.00     0.098 C 
ATOM     78  C   UNL     1       9.505   0.009   5.734  1.00  0.00     0.098 C 
ATOM     79  C   UNL     1       9.583  -1.154   7.855  1.00  0.00     0.025 C 
ATOM     80  C   UNL     1      10.502  -1.181   5.823  1.00  0.00     0.025 C 
ATOM     81  C   UNL     1       9.134  -2.431   7.186  1.00  0.00    -0.027 C 
ATOM     82  C   UNL     1      10.994  -1.057   7.265  1.00  0.00     0.017 C 
ATOM     83  C   UNL     1       9.683  -2.449   5.963  1.00  0.00    -0.027 C 
BRANCH  78  84
ATOM     84  C   UNL     1      10.213   1.274   5.212  1.00  0.00     0.227 C 
ATOM     85  O   UNL     1      11.077   1.191   4.337  1.00  0.00    -0.275 OA
ATOM     86  N   UNL     1       9.665   2.504   5.560  1.00  0.00    -0.331 N 
ATOM     87  C   UNL     1       9.470   3.489   4.485  1.00  0.00     0.181 C 
ATOM     88  C   UNL     1      10.041   3.127   6.826  1.00  0.00     0.181 C 
ATOM     89  C   UNL     1       8.579   4.683   4.905  1.00  0.00     0.284 C 
ATOM     90  C   UNL     1       9.023   4.201   7.245  1.00  0.00     0.284 C 
ATOM     91  N   UNL     1       8.816   5.259   6.245  1.00  0.00    -0.329 N 
ATOM     92  H   UNL     1       7.957   5.741   6.511  1.00  0.00     0.348 HD
BRANCH  91  93
ATOM     93  C   UNL     1       9.793   6.355   6.284  1.00  0.00     0.291 C 
BRANCH  93  94
ATOM     94  C   UNL     1      11.229   5.963   6.102  1.00  0.00     0.034 C 
ATOM     95  C   UNL     1      11.913   6.091   4.955  1.00  0.00     0.009 C 
BRANCH  95  96
ATOM     96  C   UNL     1      13.209   5.438   4.736  1.00  0.00    -0.026 A 
ATOM     97  C   UNL     1      14.347   6.185   4.434  1.00  0.00     0.008 A 
ATOM     98  C   UNL     1      13.293   4.038   4.709  1.00  0.00     0.008 A 
ATOM     99  C   UNL     1      15.540   5.537   4.095  1.00  0.00     0.001 A 
ATOM    100  C   UNL     1      14.476   3.391   4.360  1.00  0.00     0.001 A 
ATOM    101  C   UNL     1      15.601   4.143   4.048  1.00  0.00     0.000 A 
ENDBRANCH  95  96
ENDBRANCH  93  94
ENDBRANCH  91  93
ENDBRANCH  78  84
ENDBRANCH  74  77
ENDBRANCH  72  73
ENDBRANCH  71  72
ENDBRANCH   1  71
TORSDOF 20
