REMARK SMILES O=C(NCCCCCCNC(=O)c1ccc(-c2c3nc(c(-c4ccc(S(=O)(=O)[O-])cc4)c4ccc([nH]4)c(-c4ccc(S(=O)(=O)[O-])cc4)c4nc(c(-c5ccc(S(=O)(=O)[O-])cc5)c5ccc2[nH]5)C=C4)C=C3)cc1)c1ccc(N/C=C\C(=O)c2ccco2)cc1
REMARK SMILES IDX 6 1 5 2 4 3 3 4 1 5 2 6 73 8 74 9 88 10 75 11 87 12 76 13
REMARK SMILES IDX 77 14 78 16 79 17 80 18 81 19 82 20 83 21 86 22 84 23 85 24
REMARK SMILES IDX 7 25 8 26 9 27 10 28 11 29 12 31 13 32 14 33 72 34 15 35
REMARK SMILES IDX 71 36 16 37 17 38 18 39 65 40 19 41 70 42 64 43 66 44 20 45
REMARK SMILES IDX 69 46 63 47 62 48 21 50 51 51 32 52 50 53 33 54 36 55 49 56
REMARK SMILES IDX 67 57 34 58 35 59 48 61 68 62 37 63 22 64 23 65 31 66 24 67
REMARK SMILES IDX 30 68 25 69 26 70 27 71 28 72 29 73 52 74 53 75 61 76 54 77
REMARK SMILES IDX 60 78 55 79 56 80 57 81 58 82 59 83 38 84 39 85 47 86 40 87
REMARK SMILES IDX 46 88 41 89 42 90 43 91 44 92 45 93
REMARK H PARENT 3 7 77 15 10 30 66 49 36 60
REMARK Flexibility Score: inf
ROOT
ATOM      1  C   UNL     1       4.244   0.113   3.821  1.00  0.00     0.002 C 
ENDROOT
BRANCH   1   2
ATOM      2  C   UNL     1       4.725   0.726   2.502  1.00  0.00     0.021 C 
BRANCH   2   3
ATOM      3  C   UNL     1       4.429  -0.105   1.256  1.00  0.00     0.116 C 
BRANCH   3   4
ATOM      4  N   UNL     1       3.003  -0.299   1.057  1.00  0.00    -0.352 N 
ATOM      5  O   UNL     1       1.028  -0.106  -0.020  1.00  0.00    -0.269 OA
ATOM      6  C   UNL     1       2.255  -0.063  -0.066  1.00  0.00     0.251 C 
ATOM      7  H   UNL     1       2.508  -0.647   1.833  1.00  0.00     0.163 HD
BRANCH   6   8
ATOM      8  C   UNL     1       2.929   0.269  -1.335  1.00  0.00     0.039 A 
ATOM      9  C   UNL     1       3.938  -0.548  -1.853  1.00  0.00     0.016 A 
ATOM     10  C   UNL     1       2.529   1.412  -2.022  1.00  0.00     0.016 A 
ATOM     11  C   UNL     1       4.590  -0.186  -3.036  1.00  0.00     0.027 A 
ATOM     12  C   UNL     1       3.169   1.753  -3.213  1.00  0.00     0.027 A 
ATOM     13  C   UNL     1       4.206   0.960  -3.738  1.00  0.00     0.038 A 
BRANCH  13  14
ATOM     14  N   UNL     1       4.853   1.416  -4.897  1.00  0.00    -0.362 N 
ATOM     15  H   UNL     1       4.316   2.009  -5.471  1.00  0.00     0.166 HD
BRANCH  14  16
ATOM     16  C   UNL     1       6.120   1.159  -5.348  1.00  0.00     0.087 C 
ATOM     17  C   UNL     1       6.788   1.711  -6.372  1.00  0.00     0.074 C 
BRANCH  17  18
ATOM     18  C   UNL     1       6.314   2.789  -7.292  1.00  0.00     0.222 C 
ATOM     19  O   UNL     1       6.768   2.791  -8.437  1.00  0.00    -0.286 OA
BRANCH  18  20
ATOM     20  C   UNL     1       5.359   3.768  -6.813  1.00  0.00     0.173 A 
ATOM     21  C   UNL     1       5.224   4.440  -5.609  1.00  0.00     0.054 A 
ATOM     22  O   UNL     1       4.319   4.113  -7.636  1.00  0.00    -0.461 OA
ATOM     23  C   UNL     1       4.024   5.187  -5.688  1.00  0.00     0.043 A 
ATOM     24  C   UNL     1       3.515   4.957  -6.942  1.00  0.00     0.196 A 
ENDBRANCH  18  20
ENDBRANCH  17  18
ENDBRANCH  14  16
ENDBRANCH  13  14
ENDBRANCH   6   8
ENDBRANCH   3   4
ENDBRANCH   2   3
ENDBRANCH   1   2
BRANCH   1  25
ATOM     25  C   UNL     1       4.733  -1.310   4.101  1.00  0.00     0.002 C 
BRANCH  25  26
ATOM     26  C   UNL     1       6.250  -1.503   4.061  1.00  0.00     0.021 C 
BRANCH  26  27
ATOM     27  C   UNL     1       7.045  -0.583   4.982  1.00  0.00     0.116 C 
BRANCH  27  28
ATOM     28  N   UNL     1       6.702  -0.767   6.382  1.00  0.00    -0.352 N 
ATOM     29  C   UNL     1       7.529  -0.967   7.460  1.00  0.00     0.251 C 
ATOM     30  H   UNL     1       5.740  -0.745   6.587  1.00  0.00     0.163 HD
ATOM     31  O   UNL     1       7.051  -1.266   8.551  1.00  0.00    -0.269 OA
BRANCH  29  32
ATOM     32  C   UNL     1       8.995  -0.847   7.299  1.00  0.00     0.039 A 
ATOM     33  C   UNL     1       9.817  -1.825   7.863  1.00  0.00     0.014 A 
ATOM     34  C   UNL     1       9.557   0.225   6.599  1.00  0.00     0.014 A 
ATOM     35  C   UNL     1      11.199  -1.762   7.673  1.00  0.00     0.010 A 
ATOM     36  C   UNL     1      10.927   0.248   6.351  1.00  0.00     0.010 A 
ATOM     37  C   UNL     1      11.763  -0.743   6.887  1.00  0.00    -0.014 A 
BRANCH  37  38
ATOM     38  C   UNL     1      13.223  -0.701   6.614  1.00  0.00     0.031 A 
ATOM     39  C   UNL     1      14.056   0.447   7.115  1.00  0.00     0.074 A 
ATOM     40  C   UNL     1      13.788  -1.664   5.859  1.00  0.00     0.049 A 
ATOM     41  N   UNL     1      15.328   0.688   6.925  1.00  0.00    -0.248 NA
ATOM     42  C   UNL     1      13.364   1.471   7.915  1.00  0.00     0.031 C 
ATOM     43  C   UNL     1      13.081  -2.807   5.276  1.00  0.00     0.029 A 
ATOM     44  N   UNL     1      15.086  -1.830   5.444  1.00  0.00    -0.354 N 
ATOM     45  C   UNL     1      15.586   1.891   7.570  1.00  0.00     0.074 A 
ATOM     46  C   UNL     1      14.327   2.359   8.108  1.00  0.00     0.031 C 
ATOM     47  C   UNL     1      13.956  -3.563   4.594  1.00  0.00     0.029 A 
ATOM     48  C   UNL     1      15.276  -2.943   4.659  1.00  0.00     0.049 A 
ATOM     49  H   UNL     1      15.812  -1.211   5.686  1.00  0.00     0.167 HD
ATOM     50  C   UNL     1      16.767   2.540   7.721  1.00  0.00     0.031 A 
ATOM     51  C   UNL     1      16.384  -3.408   4.049  1.00  0.00     0.031 A 
ATOM     52  C   UNL     1      18.017   2.073   7.183  1.00  0.00     0.049 A 
ATOM     53  C   UNL     1      17.682  -2.670   4.221  1.00  0.00     0.074 A 
ATOM     54  C   UNL     1      19.275   2.637   7.315  1.00  0.00     0.029 A 
ATOM     55  N   UNL     1      18.171   0.932   6.410  1.00  0.00    -0.354 N 
ATOM     56  N   UNL     1      17.917  -1.562   4.884  1.00  0.00    -0.248 NA
ATOM     57  C   UNL     1      18.867  -3.250   3.575  1.00  0.00     0.031 C 
ATOM     58  C   UNL     1      20.180   1.863   6.581  1.00  0.00     0.029 A 
ATOM     59  C   UNL     1      19.497   0.784   6.041  1.00  0.00     0.049 A 
ATOM     60  H   UNL     1      17.443   0.317   6.161  1.00  0.00     0.167 HD
ATOM     61  C   UNL     1      19.281  -1.325   4.754  1.00  0.00     0.074 A 
ATOM     62  C   UNL     1      19.820  -2.413   3.962  1.00  0.00     0.031 C 
ATOM     63  C   UNL     1      20.019  -0.300   5.247  1.00  0.00     0.031 A 
BRANCH  50  64
ATOM     64  C   UNL     1      16.751   3.831   8.497  1.00  0.00    -0.014 A 
ATOM     65  C   UNL     1      16.507   3.841   9.883  1.00  0.00     0.010 A 
ATOM     66  C   UNL     1      16.999   5.050   7.840  1.00  0.00     0.010 A 
ATOM     67  C   UNL     1      16.456   5.047  10.586  1.00  0.00     0.020 A 
ATOM     68  C   UNL     1      16.980   6.257   8.546  1.00  0.00     0.020 A 
ATOM     69  C   UNL     1      16.686   6.248   9.911  1.00  0.00     0.054 A 
BRANCH  69  70
ATOM     70  S   UNL     1      16.613   7.800  10.848  1.00  0.00     0.124 S 
ATOM     71  O   UNL     1      15.176   7.951  11.065  1.00  0.00    -0.237 OA
ATOM     72  O   UNL     1      17.399   7.492  12.040  1.00  0.00    -0.237 OA
ATOM     73  O   UNL     1      17.213   8.779   9.945  1.00  0.00    -0.744 OA
ENDBRANCH  69  70
ENDBRANCH  50  64
BRANCH  51  74
ATOM     74  C   UNL     1      16.305  -4.646   3.226  1.00  0.00    -0.014 A 
ATOM     75  C   UNL     1      16.879  -5.846   3.679  1.00  0.00     0.010 A 
ATOM     76  C   UNL     1      15.624  -4.635   1.995  1.00  0.00     0.010 A 
ATOM     77  C   UNL     1      16.781  -7.011   2.912  1.00  0.00     0.020 A 
ATOM     78  C   UNL     1      15.501  -5.803   1.239  1.00  0.00     0.020 A 
ATOM     79  C   UNL     1      16.088  -6.983   1.699  1.00  0.00     0.054 A 
BRANCH  79  80
ATOM     80  S   UNL     1      15.913  -8.522   0.753  1.00  0.00     0.124 S 
ATOM     81  O   UNL     1      17.252  -8.693   0.201  1.00  0.00    -0.237 OA
ATOM     82  O   UNL     1      15.523  -9.482   1.783  1.00  0.00    -0.237 OA
ATOM     83  O   UNL     1      14.868  -8.207  -0.219  1.00  0.00    -0.744 OA
ENDBRANCH  79  80
ENDBRANCH  51  74
BRANCH  63  84
ATOM     84  C   UNL     1      21.499  -0.316   4.969  1.00  0.00    -0.014 A 
ATOM     85  C   UNL     1      22.003  -0.040   3.686  1.00  0.00     0.010 A 
ATOM     86  C   UNL     1      22.400  -0.558   6.022  1.00  0.00     0.010 A 
ATOM     87  C   UNL     1      23.382  -0.034   3.455  1.00  0.00     0.020 A 
ATOM     88  C   UNL     1      23.779  -0.526   5.802  1.00  0.00     0.020 A 
ATOM     89  C   UNL     1      24.261  -0.277   4.515  1.00  0.00     0.054 A 
BRANCH  89  90
ATOM     90  S   UNL     1      26.046  -0.220   4.200  1.00  0.00     0.124 S 
ATOM     91  O   UNL     1      26.266  -1.466   3.472  1.00  0.00    -0.237 OA
ATOM     92  O   UNL     1      26.194   1.002   3.413  1.00  0.00    -0.237 OA
ATOM     93  O   UNL     1      26.633  -0.167   5.537  1.00  0.00    -0.744 OA
ENDBRANCH  89  90
ENDBRANCH  63  84
ENDBRANCH  37  38
ENDBRANCH  29  32
ENDBRANCH  27  28
ENDBRANCH  26  27
ENDBRANCH  25  26
ENDBRANCH   1  25
TORSDOF 20
