REMARK SMILES COc1cc(OC)cc(-c2ccc([C@@H](C)C(=O)NCCCCCCNC(=O)c3ccc(-c4c5nc(c(-c6ccc(S(=O)(=O)[O-])cc6)c6ccc([nH]6)c(-c6ccc(S(=O)(=O)[O-])cc6)c6nc(c(-c7ccc(S(=O)(=O)[O-])cc7)c7ccc4[nH]7)C=C6)C=C5)cc3)cc2F)c1
REMARK SMILES IDX 21 1 20 2 19 3 18 4 16 5 17 6 14 8 15 9 13 10 10 11 11 12
REMARK SMILES IDX 89 13 12 14 88 15 90 16 9 17 3 18 4 19 91 20 5 21 8 22 2 23
REMARK SMILES IDX 1 24 6 25 7 26 22 27 23 28 24 29 25 30 26 31 27 33 28 34
REMARK SMILES IDX 29 35 87 36 30 37 86 38 31 39 32 40 33 41 80 42 34 43 85 44
REMARK SMILES IDX 79 45 81 46 35 47 84 48 78 49 77 50 36 52 66 53 47 54 65 55
REMARK SMILES IDX 48 56 51 57 64 58 82 59 49 60 50 61 63 63 83 64 52 65 37 66
REMARK SMILES IDX 38 67 46 68 39 69 45 70 40 71 41 72 42 73 43 74 44 75 67 76
REMARK SMILES IDX 68 77 76 78 69 79 75 80 70 81 71 82 72 83 73 84 74 85 53 86
REMARK SMILES IDX 54 87 62 88 55 89 61 90 56 91 57 92 58 93 59 94 60 95
REMARK H PARENT 18 7 25 32 81 51 51 62
REMARK Flexibility Score: inf
ROOT
ATOM      1  C   UNL     1       6.133  -6.263  -4.255  1.00  0.00     0.002 C 
ENDROOT
BRANCH   1   2
ATOM      2  C   UNL     1       6.072  -6.328  -2.725  1.00  0.00     0.021 C 
BRANCH   2   3
ATOM      3  C   UNL     1       7.368  -6.817  -2.075  1.00  0.00     0.116 C 
BRANCH   3   4
ATOM      4  N   UNL     1       8.280  -5.724  -1.806  1.00  0.00    -0.356 N 
ATOM      5  C   UNL     1       8.580  -5.057  -0.659  1.00  0.00     0.227 C 
ATOM      6  O   UNL     1       9.357  -4.100  -0.765  1.00  0.00    -0.274 OA
ATOM      7  H   UNL     1       8.772  -5.406  -2.598  1.00  0.00     0.163 HD
BRANCH   5   8
ATOM      8  C   UNL     1       8.021  -5.437   0.721  1.00  0.00     0.105 C 
ATOM      9  C   UNL     1       8.398  -6.847   1.180  1.00  0.00     0.023 C 
BRANCH   8  10
ATOM     10  C   UNL     1       6.566  -5.040   0.911  1.00  0.00    -0.033 A 
ATOM     11  C   UNL     1       3.850  -4.171   1.172  1.00  0.00     0.018 A 
ATOM     12  C   UNL     1       4.177  -5.447   0.682  1.00  0.00     0.012 A 
ATOM     13  C   UNL     1       4.923  -3.349   1.539  1.00  0.00     0.131 A 
ATOM     14  C   UNL     1       5.502  -5.886   0.593  1.00  0.00     0.005 A 
ATOM     15  C   UNL     1       6.253  -3.761   1.397  1.00  0.00     0.044 A 
ATOM     16  F   UNL     1       4.702  -2.130   2.057  1.00  0.00    -0.206 F 
BRANCH  11  17
ATOM     17  C   UNL     1       2.432  -3.769   1.309  1.00  0.00    -0.008 A 
ATOM     18  C   UNL     1       0.636  -2.126   1.140  1.00  0.00     0.123 A 
ATOM     19  C   UNL     1      -0.281  -3.081   1.582  1.00  0.00     0.092 A 
ATOM     20  C   UNL     1       1.985  -2.469   1.008  1.00  0.00     0.055 A 
ATOM     21  C   UNL     1       0.129  -4.378   1.881  1.00  0.00     0.123 A 
ATOM     22  C   UNL     1       1.476  -4.708   1.750  1.00  0.00     0.055 A 
BRANCH  18  23
ATOM     23  O   UNL     1       0.108  -0.883   0.916  1.00  0.00    -0.497 OA
ATOM     24  C   UNL     1       0.789  -0.077  -0.037  1.00  0.00     0.278 C 
ENDBRANCH  18  23
BRANCH  21  25
ATOM     25  O   UNL     1      -0.862  -5.224   2.295  1.00  0.00    -0.497 OA
ATOM     26  C   UNL     1      -0.478  -6.556   2.620  1.00  0.00     0.278 C 
ENDBRANCH  21  25
ENDBRANCH  11  17
ENDBRANCH   8  10
ENDBRANCH   5   8
ENDBRANCH   3   4
ENDBRANCH   2   3
ENDBRANCH   1   2
BRANCH   1  27
ATOM     27  C   UNL     1       6.358  -7.611  -4.953  1.00  0.00     0.002 C 
BRANCH  27  28
ATOM     28  C   UNL     1       5.356  -8.713  -4.596  1.00  0.00     0.021 C 
BRANCH  28  29
ATOM     29  C   UNL     1       3.904  -8.389  -4.936  1.00  0.00     0.116 C 
BRANCH  29  30
ATOM     30  N   UNL     1       3.717  -8.200  -6.365  1.00  0.00    -0.352 N 
ATOM     31  C   UNL     1       2.903  -8.880  -7.237  1.00  0.00     0.251 C 
ATOM     32  H   UNL     1       4.252  -7.479  -6.767  1.00  0.00     0.163 HD
ATOM     33  O   UNL     1       3.062  -8.749  -8.446  1.00  0.00    -0.269 OA
BRANCH  31  34
ATOM     34  C   UNL     1       1.841  -9.770  -6.720  1.00  0.00     0.039 A 
ATOM     35  C   UNL     1       1.626 -11.003  -7.341  1.00  0.00     0.014 A 
ATOM     36  C   UNL     1       1.030  -9.371  -5.654  1.00  0.00     0.014 A 
ATOM     37  C   UNL     1       0.624 -11.853  -6.867  1.00  0.00     0.010 A 
ATOM     38  C   UNL     1       0.078 -10.248  -5.138  1.00  0.00     0.010 A 
ATOM     39  C   UNL     1      -0.145 -11.491  -5.749  1.00  0.00    -0.014 A 
BRANCH  39  40
ATOM     40  C   UNL     1      -1.212 -12.381  -5.224  1.00  0.00     0.031 A 
ATOM     41  C   UNL     1      -2.651 -11.940  -5.274  1.00  0.00     0.074 A 
ATOM     42  C   UNL     1      -0.884 -13.559  -4.659  1.00  0.00     0.049 A 
ATOM     43  N   UNL     1      -3.715 -12.544  -4.811  1.00  0.00    -0.248 NA
ATOM     44  C   UNL     1      -2.926 -10.637  -5.902  1.00  0.00     0.031 C 
ATOM     45  C   UNL     1       0.476 -14.086  -4.523  1.00  0.00     0.029 A 
ATOM     46  N   UNL     1      -1.672 -14.527  -4.087  1.00  0.00    -0.354 N 
ATOM     47  C   UNL     1      -4.780 -11.691  -5.078  1.00  0.00     0.074 A 
ATOM     48  C   UNL     1      -4.227 -10.504  -5.694  1.00  0.00     0.031 C 
ATOM     49  C   UNL     1       0.424 -15.292  -3.933  1.00  0.00     0.029 A 
ATOM     50  C   UNL     1      -0.965 -15.607  -3.613  1.00  0.00     0.049 A 
ATOM     51  H   UNL     1      -2.652 -14.454  -4.022  1.00  0.00     0.167 HD
ATOM     52  C   UNL     1      -6.102 -11.884  -4.853  1.00  0.00     0.031 A 
ATOM     53  C   UNL     1      -1.387 -16.723  -2.988  1.00  0.00     0.031 A 
ATOM     54  C   UNL     1      -6.651 -13.072  -4.254  1.00  0.00     0.049 A 
ATOM     55  C   UNL     1      -2.859 -16.912  -2.740  1.00  0.00     0.074 A 
ATOM     56  C   UNL     1      -7.978 -13.383  -4.019  1.00  0.00     0.029 A 
ATOM     57  N   UNL     1      -5.901 -14.146  -3.800  1.00  0.00    -0.354 N 
ATOM     58  N   UNL     1      -3.855 -16.113  -3.042  1.00  0.00    -0.248 NA
ATOM     59  C   UNL     1      -3.265 -18.161  -2.081  1.00  0.00     0.031 C 
ATOM     60  C   UNL     1      -8.029 -14.628  -3.383  1.00  0.00     0.029 A 
ATOM     61  C   UNL     1      -6.737 -15.116  -3.273  1.00  0.00     0.049 A 
ATOM     62  H   UNL     1      -4.920 -14.210  -3.845  1.00  0.00     0.167 HD
ATOM     63  C   UNL     1      -5.008 -16.779  -2.641  1.00  0.00     0.074 A 
ATOM     64  C   UNL     1      -4.586 -18.048  -2.084  1.00  0.00     0.031 C 
ATOM     65  C   UNL     1      -6.300 -16.377  -2.729  1.00  0.00     0.031 A 
BRANCH  52  66
ATOM     66  C   UNL     1      -7.045 -10.782  -5.260  1.00  0.00    -0.014 A 
ATOM     67  C   UNL     1      -7.280 -10.493  -6.617  1.00  0.00     0.010 A 
ATOM     68  C   UNL     1      -7.731 -10.046  -4.277  1.00  0.00     0.010 A 
ATOM     69  C   UNL     1      -8.146  -9.460  -6.982  1.00  0.00     0.020 A 
ATOM     70  C   UNL     1      -8.622  -9.031  -4.639  1.00  0.00     0.020 A 
ATOM     71  C   UNL     1      -8.809  -8.732  -5.990  1.00  0.00     0.054 A 
BRANCH  71  72
ATOM     72  S   UNL     1      -9.942  -7.408  -6.494  1.00  0.00     0.124 S 
ATOM     73  O   UNL     1      -9.014  -6.370  -6.934  1.00  0.00    -0.237 OA
ATOM     74  O   UNL     1     -10.724  -8.041  -7.553  1.00  0.00    -0.237 OA
ATOM     75  O   UNL     1     -10.684  -7.104  -5.273  1.00  0.00    -0.744 OA
ENDBRANCH  71  72
ENDBRANCH  52  66
BRANCH  53  76
ATOM     76  C   UNL     1      -0.404 -17.761  -2.573  1.00  0.00    -0.014 A 
ATOM     77  C   UNL     1      -0.354 -19.000  -3.236  1.00  0.00     0.010 A 
ATOM     78  C   UNL     1       0.491 -17.515  -1.516  1.00  0.00     0.010 A 
ATOM     79  C   UNL     1       0.556 -19.983  -2.835  1.00  0.00     0.020 A 
ATOM     80  C   UNL     1       1.422 -18.484  -1.131  1.00  0.00     0.020 A 
ATOM     81  C   UNL     1       1.439 -19.717  -1.785  1.00  0.00     0.054 A 
BRANCH  81  82
ATOM     82  S   UNL     1       2.642 -20.990  -1.309  1.00  0.00     0.124 S 
ATOM     83  O   UNL     1       1.802 -21.956  -0.610  1.00  0.00    -0.237 OA
ATOM     84  O   UNL     1       3.169 -21.425  -2.601  1.00  0.00    -0.237 OA
ATOM     85  O   UNL     1       3.593 -20.263  -0.471  1.00  0.00    -0.744 OA
ENDBRANCH  81  82
ENDBRANCH  53  76
BRANCH  65  86
ATOM     86  C   UNL     1      -7.359 -17.338  -2.256  1.00  0.00    -0.014 A 
ATOM     87  C   UNL     1      -7.556 -17.596  -0.889  1.00  0.00     0.010 A 
ATOM     88  C   UNL     1      -8.204 -17.950  -3.200  1.00  0.00     0.010 A 
ATOM     89  C   UNL     1      -8.559 -18.476  -0.475  1.00  0.00     0.020 A 
ATOM     90  C   UNL     1      -9.226 -18.809  -2.788  1.00  0.00     0.020 A 
ATOM     91  C   UNL     1      -9.388 -19.078  -1.428  1.00  0.00     0.054 A 
BRANCH  91  92
ATOM     92  S   UNL     1     -10.710 -20.183  -0.863  1.00  0.00     0.124 S 
ATOM     93  O   UNL     1      -9.964 -21.380  -0.484  1.00  0.00    -0.237 OA
ATOM     94  O   UNL     1     -11.303 -19.435   0.243  1.00  0.00    -0.237 OA
ATOM     95  O   UNL     1     -11.566 -20.328  -2.038  1.00  0.00    -0.744 OA
ENDBRANCH  91  92
ENDBRANCH  65  86
ENDBRANCH  39  40
ENDBRANCH  31  34
ENDBRANCH  29  30
ENDBRANCH  28  29
ENDBRANCH  27  28
ENDBRANCH   1  27
TORSDOF 20
