REMARK SMILES CS(=O)(=O)c1ccc(C2=NN(c3ccc(C(=O)NCCCCCCNC(=O)c4ccc(-c5c6nc(c(-c7ccc(S(=O)(=O)[O-])cc7)c7ccc([nH]7)c(-c7ccc(S(=O)(=O)[O-])cc7)c7nc(c(-c8ccc(S(=O)(=O)[O-])cc8)c8ccc5[nH]8)C=C7)C=C6)cc4)cc3)[C@H](c3ccc(F)cc3)C2)cc1
REMARK SMILES IDX 21 1 20 2 19 3 18 4 16 5 17 6 15 8 12 9 13 10 89 11 14 12
REMARK SMILES IDX 88 13 11 14 9 15 10 16 98 17 90 18 8 19 5 20 6 21 100 22
REMARK SMILES IDX 7 23 99 24 2 25 1 26 3 27 4 28 91 29 92 30 97 31 93 32 96 33
REMARK SMILES IDX 94 34 95 35 22 36 23 37 24 38 25 39 26 40 27 42 28 43 29 44
REMARK SMILES IDX 87 45 30 46 86 47 31 48 32 49 33 50 80 51 34 52 85 53 79 54
REMARK SMILES IDX 81 55 35 56 84 57 78 58 77 59 36 61 66 62 47 63 65 64 48 65
REMARK SMILES IDX 51 66 64 67 82 68 49 69 50 70 63 72 83 73 52 74 37 75 38 76
REMARK SMILES IDX 46 77 39 78 45 79 40 80 41 81 42 82 43 83 44 84 67 85 68 86
REMARK SMILES IDX 76 87 69 88 75 89 70 90 71 91 72 92 73 93 74 94 53 95 54 96
REMARK SMILES IDX 62 97 55 98 61 99 56 100 57 101 58 102 59 103 60 104
REMARK H PARENT 18 7 25 41 81 60 51 71
REMARK Flexibility Score: inf
ROOT
ATOM      1  C   UNL     1       8.729  10.236   9.438  1.00  0.00     0.002 C 
ENDROOT
BRANCH   1   2
ATOM      2  C   UNL     1       7.522   9.724   8.644  1.00  0.00     0.021 C 
BRANCH   2   3
ATOM      3  C   UNL     1       7.095  10.672   7.521  1.00  0.00     0.116 C 
BRANCH   3   4
ATOM      4  N   UNL     1       7.987  10.533   6.384  1.00  0.00    -0.352 N 
ATOM      5  C   UNL     1       7.819   9.909   5.174  1.00  0.00     0.251 C 
ATOM      6  O   UNL     1       8.734   9.963   4.353  1.00  0.00    -0.269 OA
ATOM      7  H   UNL     1       8.865  10.961   6.502  1.00  0.00     0.163 HD
BRANCH   5   8
ATOM      8  C   UNL     1       6.545   9.239   4.804  1.00  0.00     0.039 A 
ATOM      9  C   UNL     1       4.069   8.161   4.005  1.00  0.00     0.060 A 
ATOM     10  C   UNL     1       4.904   8.783   3.072  1.00  0.00     0.029 A 
ATOM     11  C   UNL     1       4.524   8.017   5.318  1.00  0.00     0.029 A 
ATOM     12  C   UNL     1       6.133   9.323   3.467  1.00  0.00     0.016 A 
ATOM     13  C   UNL     1       5.761   8.525   5.710  1.00  0.00     0.016 A 
BRANCH   9  14
ATOM     14  N   UNL     1       2.829   7.647   3.663  1.00  0.00    -0.257 N 
ATOM     15  C   UNL     1       1.643   6.427   2.397  1.00  0.00     0.071 C 
ATOM     16  N   UNL     1       2.805   6.493   2.961  1.00  0.00    -0.176 NA
ATOM     17  C   UNL     1       0.738   7.608   2.603  1.00  0.00     0.091 C 
ATOM     18  C   UNL     1       1.616   8.465   3.538  1.00  0.00     0.144 C 
BRANCH  15  19
ATOM     19  C   UNL     1       1.244   5.245   1.626  1.00  0.00    -0.002 A 
ATOM     20  C   UNL     1       0.651   2.931   0.208  1.00  0.00     0.067 A 
ATOM     21  C   UNL     1       1.204   2.826   1.485  1.00  0.00     0.021 A 
ATOM     22  C   UNL     1       0.400   4.189  -0.363  1.00  0.00     0.021 A 
ATOM     23  C   UNL     1       1.510   3.990   2.188  1.00  0.00     0.011 A 
ATOM     24  C   UNL     1       0.688   5.354   0.352  1.00  0.00     0.011 A 
BRANCH  20  25
ATOM     25  S   UNL     1       0.261   1.496  -0.764  1.00  0.00     0.175 S 
ATOM     26  C   UNL     1       0.945   0.089   0.065  1.00  0.00     0.163 C 
ATOM     27  O   UNL     1       0.970   1.645  -2.019  1.00  0.00    -0.224 OA
ATOM     28  O   UNL     1      -1.185   1.368  -0.732  1.00  0.00    -0.224 OA
ENDBRANCH  20  25
ENDBRANCH  15  19
BRANCH  18  29
ATOM     29  C   UNL     1       1.063   8.828   4.917  1.00  0.00    -0.023 A 
ATOM     30  C   UNL     1      -0.007   8.162   5.540  1.00  0.00     0.009 A 
ATOM     31  C   UNL     1       1.694   9.868   5.636  1.00  0.00     0.009 A 
ATOM     32  C   UNL     1      -0.429   8.526   6.825  1.00  0.00     0.039 A 
ATOM     33  C   UNL     1       1.291  10.211   6.929  1.00  0.00     0.039 A 
ATOM     34  C   UNL     1       0.229   9.538   7.511  1.00  0.00     0.123 A 
ATOM     35  F   UNL     1      -0.160   9.861   8.750  1.00  0.00    -0.207 F 
ENDBRANCH  18  29
ENDBRANCH   9  14
ENDBRANCH   5   8
ENDBRANCH   3   4
ENDBRANCH   2   3
ENDBRANCH   1   2
BRANCH   1  36
ATOM     36  C   UNL     1       8.487  11.552  10.186  1.00  0.00     0.002 C 
BRANCH  36  37
ATOM     37  C   UNL     1       7.292  11.536  11.142  1.00  0.00     0.021 C 
BRANCH  37  38
ATOM     38  C   UNL     1       7.407  10.508  12.263  1.00  0.00     0.116 C 
BRANCH  38  39
ATOM     39  N   UNL     1       8.529  10.802  13.142  1.00  0.00    -0.352 N 
ATOM     40  C   UNL     1       8.532  11.024  14.496  1.00  0.00     0.251 C 
ATOM     41  H   UNL     1       9.409  10.848  12.704  1.00  0.00     0.163 HD
ATOM     42  O   UNL     1       9.522  11.506  15.038  1.00  0.00    -0.269 OA
BRANCH  40  43
ATOM     43  C   UNL     1       7.334  10.688  15.293  1.00  0.00     0.039 A 
ATOM     44  C   UNL     1       6.893  11.582  16.271  1.00  0.00     0.014 A 
ATOM     45  C   UNL     1       6.654   9.485  15.079  1.00  0.00     0.014 A 
ATOM     46  C   UNL     1       5.739  11.291  17.001  1.00  0.00     0.010 A 
ATOM     47  C   UNL     1       5.462   9.235  15.751  1.00  0.00     0.010 A 
ATOM     48  C   UNL     1       4.998  10.128  16.727  1.00  0.00    -0.014 A 
BRANCH  48  49
ATOM     49  C   UNL     1       3.743   9.824  17.459  1.00  0.00     0.031 A 
ATOM     50  C   UNL     1       3.657   8.602  18.333  1.00  0.00     0.074 A 
ATOM     51  C   UNL     1       2.667  10.618  17.297  1.00  0.00     0.049 A 
ATOM     52  N   UNL     1       2.640   8.151  19.023  1.00  0.00    -0.248 NA
ATOM     53  C   UNL     1       4.863   7.763  18.425  1.00  0.00     0.031 C 
ATOM     54  C   UNL     1       2.617  11.816  16.455  1.00  0.00     0.029 A 
ATOM     55  N   UNL     1       1.408  10.539  17.836  1.00  0.00    -0.354 N 
ATOM     56  C   UNL     1       3.081   6.976  19.621  1.00  0.00     0.074 A 
ATOM     57  C   UNL     1       4.433   6.750  19.160  1.00  0.00     0.031 C 
ATOM     58  C   UNL     1       1.405  12.382  16.569  1.00  0.00     0.029 A 
ATOM     59  C   UNL     1       0.579  11.566  17.452  1.00  0.00     0.049 A 
ATOM     60  H   UNL     1       1.126   9.816  18.441  1.00  0.00     0.167 HD
ATOM     61  C   UNL     1       2.430   6.169  20.494  1.00  0.00     0.031 A 
ATOM     62  C   UNL     1      -0.704  11.822  17.776  1.00  0.00     0.031 A 
ATOM     63  C   UNL     1       1.081   6.395  20.943  1.00  0.00     0.049 A 
ATOM     64  C   UNL     1      -1.422  10.889  18.711  1.00  0.00     0.074 A 
ATOM     65  C   UNL     1       0.341   5.659  21.851  1.00  0.00     0.029 A 
ATOM     66  N   UNL     1       0.268   7.433  20.512  1.00  0.00    -0.354 N 
ATOM     67  N   UNL     1      -0.972   9.812  19.310  1.00  0.00    -0.248 NA
ATOM     68  C   UNL     1      -2.821  11.213  19.021  1.00  0.00     0.031 C 
ATOM     69  C   UNL     1      -0.940   6.218  21.925  1.00  0.00     0.029 A 
ATOM     70  C   UNL     1      -0.976   7.342  21.115  1.00  0.00     0.049 A 
ATOM     71  H   UNL     1       0.535   8.131  19.871  1.00  0.00     0.167 HD
ATOM     72  C   UNL     1      -2.022   9.349  20.096  1.00  0.00     0.074 A 
ATOM     73  C   UNL     1      -3.124  10.269  19.902  1.00  0.00     0.031 C 
ATOM     74  C   UNL     1      -2.066   8.264  20.909  1.00  0.00     0.031 A 
BRANCH  61  75
ATOM     75  C   UNL     1       3.175   4.961  21.004  1.00  0.00    -0.014 A 
ATOM     76  C   UNL     1       4.302   5.099  21.838  1.00  0.00     0.010 A 
ATOM     77  C   UNL     1       2.747   3.670  20.648  1.00  0.00     0.010 A 
ATOM     78  C   UNL     1       5.022   3.975  22.250  1.00  0.00     0.020 A 
ATOM     79  C   UNL     1       3.444   2.540  21.087  1.00  0.00     0.020 A 
ATOM     80  C   UNL     1       4.593   2.702  21.864  1.00  0.00     0.054 A 
BRANCH  80  81
ATOM     81  S   UNL     1       5.555   1.262  22.401  1.00  0.00     0.124 S 
ATOM     82  O   UNL     1       6.750   1.371  21.567  1.00  0.00    -0.237 OA
ATOM     83  O   UNL     1       5.758   1.523  23.824  1.00  0.00    -0.237 OA
ATOM     84  O   UNL     1       4.685   0.129  22.096  1.00  0.00    -0.744 OA
ENDBRANCH  80  81
ENDBRANCH  61  75
BRANCH  62  85
ATOM     85  C   UNL     1      -1.376  13.038  17.240  1.00  0.00    -0.014 A 
ATOM     86  C   UNL     1      -1.688  14.109  18.096  1.00  0.00     0.010 A 
ATOM     87  C   UNL     1      -1.690  13.143  15.873  1.00  0.00     0.010 A 
ATOM     88  C   UNL     1      -2.312  15.256  17.598  1.00  0.00     0.020 A 
ATOM     89  C   UNL     1      -2.288  14.300  15.366  1.00  0.00     0.020 A 
ATOM     90  C   UNL     1      -2.604  15.347  16.235  1.00  0.00     0.054 A 
BRANCH  90  91
ATOM     91  S   UNL     1      -3.362  16.869  15.604  1.00  0.00     0.124 S 
ATOM     92  O   UNL     1      -4.716  16.780  16.141  1.00  0.00    -0.237 OA
ATOM     93  O   UNL     1      -2.516  17.907  16.188  1.00  0.00    -0.237 OA
ATOM     94  O   UNL     1      -3.253  16.731  14.153  1.00  0.00    -0.744 OA
ENDBRANCH  90  91
ENDBRANCH  62  85
BRANCH  74  95
ATOM     95  C   UNL     1      -3.337   8.031  21.684  1.00  0.00    -0.014 A 
ATOM     96  C   UNL     1      -4.519   7.613  21.047  1.00  0.00     0.010 A 
ATOM     97  C   UNL     1      -3.332   8.190  23.082  1.00  0.00     0.010 A 
ATOM     98  C   UNL     1      -5.681   7.391  21.791  1.00  0.00     0.020 A 
ATOM     99  C   UNL     1      -4.483   7.937  23.833  1.00  0.00     0.020 A 
ATOM    100  C   UNL     1      -5.655   7.553  23.180  1.00  0.00     0.054 A 
BRANCH 100 101
ATOM    101  S   UNL     1      -7.166   7.217  24.126  1.00  0.00     0.124 S 
ATOM    102  O   UNL     1      -8.004   8.361  23.779  1.00  0.00    -0.237 OA
ATOM    103  O   UNL     1      -7.601   5.931  23.585  1.00  0.00    -0.237 OA
ATOM    104  O   UNL     1      -6.706   7.179  25.512  1.00  0.00    -0.744 OA
ENDBRANCH 100 101
ENDBRANCH  74  95
ENDBRANCH  48  49
ENDBRANCH  40  43
ENDBRANCH  38  39
ENDBRANCH  37  38
ENDBRANCH  36  37
ENDBRANCH   1  36
TORSDOF 20
