REMARK SMILES C/C=C(\C)[C@H]1C(C)=C[C@H]2CC[C@@H](OS(=O)(=O)[O-])[C@@H](C)[C@H]2[C@H]1/C=C/C=C/C(=O)NCCCCCCNC(=O)c1ccc(-c2c3nc(c(-c4ccc(S(=O)(=O)[O-])cc4)c4ccc([nH]4)c(-c4ccc(S(=O)(=O)[O-])cc4)c4nc(c(-c5ccc(S(=O)(=O)[O-])cc5)c5ccc2[nH]5)C=C4)C=C3)cc1
REMARK SMILES IDX 31 1 30 2 29 3 28 4 26 5 27 6 25 8 24 9 23 10 22 11 21 12
REMARK SMILES IDX 5 13 6 14 7 15 8 16 20 17 9 18 18 19 10 20 12 21 19 22 11 23
REMARK SMILES IDX 3 24 1 25 2 26 4 27 13 28 14 29 15 30 16 31 17 32 32 33
REMARK SMILES IDX 33 34 34 35 35 36 36 37 37 39 38 40 39 41 97 42 40 43 96 44
REMARK SMILES IDX 41 45 42 46 43 47 90 48 44 49 95 50 89 51 91 52 45 53 94 54
REMARK SMILES IDX 88 55 87 56 46 58 76 59 57 60 75 61 58 62 61 63 74 64 92 65
REMARK SMILES IDX 59 66 60 67 73 69 93 70 62 71 47 72 48 73 56 74 49 75 55 76
REMARK SMILES IDX 50 77 51 78 52 79 53 80 54 81 77 82 78 83 86 84 79 85 85 86
REMARK SMILES IDX 80 87 81 88 82 89 83 90 84 91 63 92 64 93 72 94 65 95 71 96
REMARK SMILES IDX 66 97 67 98 68 99 69 100 70 101
REMARK H PARENT 28 7 35 38 91 57 61 68
REMARK Flexibility Score: inf
ROOT
ATOM      1  C   UNL     1       6.147  -3.048  -1.977  1.00  0.00     0.002 C 
ENDROOT
BRANCH   1   2
ATOM      2  C   UNL     1       5.064  -2.888  -0.912  1.00  0.00     0.021 C 
BRANCH   2   3
ATOM      3  C   UNL     1       3.685  -2.661  -1.529  1.00  0.00     0.116 C 
BRANCH   3   4
ATOM      4  N   UNL     1       3.148  -3.937  -1.948  1.00  0.00    -0.353 N 
ATOM      5  C   UNL     1       2.408  -4.813  -1.223  1.00  0.00     0.243 C 
ATOM      6  O   UNL     1       2.082  -5.899  -1.693  1.00  0.00    -0.270 OA
ATOM      7  H   UNL     1       3.345  -4.203  -2.875  1.00  0.00     0.163 HD
BRANCH   5   8
ATOM      8  C   UNL     1       1.819  -4.358   0.050  1.00  0.00     0.071 C 
ATOM      9  C   UNL     1       2.361  -3.631   1.045  1.00  0.00     0.005 C 
BRANCH   9  10
ATOM     10  C   UNL     1       1.457  -3.071   1.999  1.00  0.00    -0.004 C 
ATOM     11  C   UNL     1       1.585  -2.198   3.000  1.00  0.00    -0.022 C 
BRANCH  11  12
ATOM     12  C   UNL     1       0.392  -1.792   3.881  1.00  0.00     0.027 C 
ATOM     13  C   UNL     1      -0.605  -0.607   3.432  1.00  0.00     0.047 C 
ATOM     14  C   UNL     1      -2.092  -0.923   3.677  1.00  0.00    -0.069 C 
ATOM     15  C   UNL     1      -3.190  -0.353   2.819  1.00  0.00     0.040 C 
ATOM     16  C   UNL     1      -2.456  -1.744   4.687  1.00  0.00    -0.024 C 
ATOM     17  C   UNL     1      -0.332  -3.026   4.567  1.00  0.00     0.009 C 
ATOM     18  C   UNL     1      -1.461  -2.529   5.495  1.00  0.00     0.016 C 
ATOM     19  C   UNL     1      -0.825  -4.200   3.647  1.00  0.00     0.021 C 
ATOM     20  C   UNL     1      -2.095  -3.712   6.259  1.00  0.00     0.011 C 
ATOM     21  C   UNL     1      -1.454  -5.351   4.456  1.00  0.00     0.141 C 
ATOM     22  C   UNL     1      -1.742  -3.792   2.479  1.00  0.00     0.011 C 
ATOM     23  C   UNL     1      -2.575  -4.864   5.370  1.00  0.00     0.034 C 
BRANCH  13  24
ATOM     24  C   UNL     1      -0.292   0.219   2.156  1.00  0.00    -0.070 C 
ATOM     25  C   UNL     1       0.611   0.349  -0.252  1.00  0.00     0.035 C 
ATOM     26  C   UNL     1       0.085  -0.320   0.979  1.00  0.00    -0.031 C 
ATOM     27  C   UNL     1      -0.404   1.720   2.345  1.00  0.00     0.040 C 
ENDBRANCH  13  24
BRANCH  21  28
ATOM     28  O   UNL     1      -1.731  -6.440   3.575  1.00  0.00    -0.276 OA
BRANCH  28  29
ATOM     29  S   UNL     1      -3.216  -6.904   3.123  1.00  0.00     0.217 S 
ATOM     30  O   UNL     1      -3.846  -7.595   4.225  1.00  0.00    -0.213 OA
ATOM     31  O   UNL     1      -3.873  -5.832   2.417  1.00  0.00    -0.213 OA
ATOM     32  O   UNL     1      -2.892  -7.993   1.982  1.00  0.00    -0.726 OA
ENDBRANCH  28  29
ENDBRANCH  21  28
ENDBRANCH  11  12
ENDBRANCH   9  10
ENDBRANCH   5   8
ENDBRANCH   3   4
ENDBRANCH   2   3
ENDBRANCH   1   2
BRANCH   1  33
ATOM     33  C   UNL     1       6.288  -1.825  -2.886  1.00  0.00     0.002 C 
BRANCH  33  34
ATOM     34  C   UNL     1       6.477  -0.509  -2.127  1.00  0.00     0.021 C 
BRANCH  34  35
ATOM     35  C   UNL     1       7.711  -0.505  -1.235  1.00  0.00     0.116 C 
BRANCH  35  36
ATOM     36  N   UNL     1       8.914  -0.707  -2.027  1.00  0.00    -0.352 N 
ATOM     37  C   UNL     1       9.982   0.134  -2.182  1.00  0.00     0.251 C 
ATOM     38  H   UNL     1       8.966  -1.560  -2.516  1.00  0.00     0.163 HD
ATOM     39  O   UNL     1      10.748  -0.008  -3.129  1.00  0.00    -0.269 OA
BRANCH  37  40
ATOM     40  C   UNL     1      10.200   1.203  -1.188  1.00  0.00     0.039 A 
ATOM     41  C   UNL     1      10.615   2.462  -1.620  1.00  0.00     0.014 A 
ATOM     42  C   UNL     1      10.019   0.942   0.174  1.00  0.00     0.014 A 
ATOM     43  C   UNL     1      10.832   3.469  -0.681  1.00  0.00     0.010 A 
ATOM     44  C   UNL     1      10.149   1.969   1.098  1.00  0.00     0.010 A 
ATOM     45  C   UNL     1      10.589   3.233   0.683  1.00  0.00    -0.014 A 
BRANCH  45  46
ATOM     46  C   UNL     1      10.852   4.278   1.701  1.00  0.00     0.031 A 
ATOM     47  C   UNL     1      11.906   4.042   2.752  1.00  0.00     0.074 A 
ATOM     48  C   UNL     1      10.127   5.413   1.701  1.00  0.00     0.049 A 
ATOM     49  N   UNL     1      12.245   4.800   3.762  1.00  0.00    -0.248 NA
ATOM     50  C   UNL     1      12.659   2.777   2.675  1.00  0.00     0.031 C 
ATOM     51  C   UNL     1       9.057   5.737   0.753  1.00  0.00     0.029 A 
ATOM     52  N   UNL     1      10.178   6.505   2.528  1.00  0.00    -0.354 N 
ATOM     53  C   UNL     1      13.242   4.105   4.437  1.00  0.00     0.074 A 
ATOM     54  C   UNL     1      13.405   2.835   3.768  1.00  0.00     0.031 C 
ATOM     55  C   UNL     1       8.573   6.957   1.037  1.00  0.00     0.029 A 
ATOM     56  C   UNL     1       9.264   7.482   2.211  1.00  0.00     0.049 A 
ATOM     57  H   UNL     1      10.810   6.583   3.279  1.00  0.00     0.167 HD
ATOM     58  C   UNL     1      13.981   4.501   5.499  1.00  0.00     0.031 A 
ATOM     59  C   UNL     1       9.005   8.662   2.806  1.00  0.00     0.031 A 
ATOM     60  C   UNL     1      13.825   5.772   6.153  1.00  0.00     0.049 A 
ATOM     61  C   UNL     1       9.825   9.067   4.004  1.00  0.00     0.074 A 
ATOM     62  C   UNL     1      14.540   6.283   7.222  1.00  0.00     0.029 A 
ATOM     63  N   UNL     1      12.898   6.738   5.793  1.00  0.00    -0.354 N 
ATOM     64  N   UNL     1      10.793   8.412   4.601  1.00  0.00    -0.248 NA
ATOM     65  C   UNL     1       9.531  10.379   4.596  1.00  0.00     0.031 C 
ATOM     66  C   UNL     1      14.011   7.536   7.541  1.00  0.00     0.029 A 
ATOM     67  C   UNL     1      13.016   7.837   6.625  1.00  0.00     0.049 A 
ATOM     68  H   UNL     1      12.251   6.654   5.056  1.00  0.00     0.167 HD
ATOM     69  C   UNL     1      11.252   9.254   5.610  1.00  0.00     0.074 A 
ATOM     70  C   UNL     1      10.465  10.467   5.531  1.00  0.00     0.031 C 
ATOM     71  C   UNL     1      12.236   9.044   6.518  1.00  0.00     0.031 A 
BRANCH  58  72
ATOM     72  C   UNL     1      15.039   3.559   6.010  1.00  0.00    -0.014 A 
ATOM     73  C   UNL     1      16.195   3.294   5.253  1.00  0.00     0.010 A 
ATOM     74  C   UNL     1      14.913   2.986   7.289  1.00  0.00     0.010 A 
ATOM     75  C   UNL     1      17.194   2.456   5.754  1.00  0.00     0.020 A 
ATOM     76  C   UNL     1      15.925   2.173   7.807  1.00  0.00     0.020 A 
ATOM     77  C   UNL     1      17.056   1.906   7.032  1.00  0.00     0.054 A 
BRANCH  77  78
ATOM     78  S   UNL     1      18.399   0.874   7.678  1.00  0.00     0.124 S 
ATOM     79  O   UNL     1      18.292  -0.320   6.843  1.00  0.00    -0.237 OA
ATOM     80  O   UNL     1      19.578   1.702   7.442  1.00  0.00    -0.237 OA
ATOM     81  O   UNL     1      18.045   0.683   9.083  1.00  0.00    -0.744 OA
ENDBRANCH  77  78
ENDBRANCH  58  72
BRANCH  59  82
ATOM     82  C   UNL     1       7.923   9.547   2.290  1.00  0.00    -0.014 A 
ATOM     83  C   UNL     1       8.220  10.803   1.732  1.00  0.00     0.010 A 
ATOM     84  C   UNL     1       6.577   9.147   2.387  1.00  0.00     0.010 A 
ATOM     85  C   UNL     1       7.193  11.663   1.331  1.00  0.00     0.020 A 
ATOM     86  C   UNL     1       5.549   9.987   1.953  1.00  0.00     0.020 A 
ATOM     87  C   UNL     1       5.863  11.251   1.450  1.00  0.00     0.054 A 
BRANCH  87  88
ATOM     88  S   UNL     1       4.545  12.382   0.927  1.00  0.00     0.124 S 
ATOM     89  O   UNL     1       4.577  13.391   1.980  1.00  0.00    -0.237 OA
ATOM     90  O   UNL     1       5.008  12.820  -0.387  1.00  0.00    -0.237 OA
ATOM     91  O   UNL     1       3.355  11.533   0.909  1.00  0.00    -0.744 OA
ENDBRANCH  87  88
ENDBRANCH  59  82
BRANCH  71  92
ATOM     92  C   UNL     1      12.573  10.177   7.453  1.00  0.00    -0.014 A 
ATOM     93  C   UNL     1      11.694  10.580   8.473  1.00  0.00     0.010 A 
ATOM     94  C   UNL     1      13.821  10.816   7.331  1.00  0.00     0.010 A 
ATOM     95  C   UNL     1      12.038  11.634   9.324  1.00  0.00     0.020 A 
ATOM     96  C   UNL     1      14.184  11.844   8.202  1.00  0.00     0.020 A 
ATOM     97  C   UNL     1      13.282  12.259   9.183  1.00  0.00     0.054 A 
BRANCH  97  98
ATOM     98  S   UNL     1      13.716  13.602  10.320  1.00  0.00     0.124 S 
ATOM     99  O   UNL     1      12.849  14.683   9.860  1.00  0.00    -0.237 OA
ATOM    100  O   UNL     1      13.380  13.037  11.625  1.00  0.00    -0.237 OA
ATOM    101  O   UNL     1      15.144  13.807  10.086  1.00  0.00    -0.744 OA
ENDBRANCH  97  98
ENDBRANCH  71  92
ENDBRANCH  45  46
ENDBRANCH  37  40
ENDBRANCH  35  36
ENDBRANCH  34  35
ENDBRANCH  33  34
ENDBRANCH   1  33
TORSDOF 21
