REMARK SMILES O=C(/C=C/C(=O)NCc1ccc(-c2cccs2)s1)NCCCCCCNC(=O)c1ccc(-c2c3nc(c(-c4ccc(S(=O)(=O)[O-])cc4)c4ccc([nH]4)c(-c4ccc(S(=O)(=O)[O-])cc4)c4nc(c(-c5ccc(S(=O)(=O)[O-])cc5)c5ccc2[nH]5)C=C4)C=C3)cc1
REMARK SMILES IDX 22 1 21 2 20 3 19 4 1 5 2 6 3 8 4 9 5 10 6 11 7 12 8 14 9 15
REMARK SMILES IDX 10 16 18 17 11 18 12 19 13 20 14 21 17 22 15 23 16 24 23 25
REMARK SMILES IDX 24 26 25 27 26 28 27 29 28 31 29 32 30 33 88 34 31 35 87 36
REMARK SMILES IDX 32 37 33 38 34 39 81 40 35 41 86 42 80 43 82 44 36 45 85 46
REMARK SMILES IDX 79 47 78 48 37 50 67 51 48 52 66 53 49 54 52 55 65 56 83 57
REMARK SMILES IDX 50 58 51 59 64 61 84 62 53 63 38 64 39 65 47 66 40 67 46 68
REMARK SMILES IDX 41 69 42 70 43 71 44 72 45 73 68 74 69 75 77 76 70 77 76 78
REMARK SMILES IDX 71 79 72 80 73 81 74 82 75 83 54 84 55 85 63 86 56 87 62 88
REMARK SMILES IDX 57 89 58 90 59 91 60 92 61 93
REMARK H PARENT 19 7 7 13 26 30 82 49 52 60
REMARK Flexibility Score: inf
ROOT
ATOM      1  C   UNL     1       4.146  -1.002   3.561  1.00  0.00     0.002 C 
ENDROOT
BRANCH   1   2
ATOM      2  C   UNL     1       2.642  -1.073   3.273  1.00  0.00     0.021 C 
BRANCH   2   3
ATOM      3  C   UNL     1       2.087   0.111   2.482  1.00  0.00     0.116 C 
BRANCH   3   4
ATOM      4  N   UNL     1       2.713   0.235   1.181  1.00  0.00    -0.353 N 
ATOM      5  O   UNL     1       0.841  -0.274  -0.061  1.00  0.00    -0.270 OA
ATOM      6  C   UNL     1       2.029   0.013   0.018  1.00  0.00     0.244 C 
ATOM      7  H   UNL     1       3.664   0.488   1.133  1.00  0.00     0.163 HD
BRANCH   6   8
ATOM      8  C   UNL     1       2.811   0.207  -1.222  1.00  0.00     0.077 C 
ATOM      9  C   UNL     1       4.040  -0.300  -1.375  1.00  0.00     0.077 C 
BRANCH   9  10
ATOM     10  C   UNL     1       4.881  -0.202  -2.588  1.00  0.00     0.244 C 
ATOM     11  O   UNL     1       6.099  -0.098  -2.443  1.00  0.00    -0.270 OA
ATOM     12  N   UNL     1       4.376  -0.301  -3.840  1.00  0.00    -0.348 N 
ATOM     13  H   UNL     1       5.052  -0.209  -4.550  1.00  0.00     0.164 HD
BRANCH  12  14
ATOM     14  C   UNL     1       3.034  -0.517  -4.336  1.00  0.00     0.163 C 
BRANCH  14  15
ATOM     15  C   UNL     1       2.533   0.695  -5.075  1.00  0.00     0.024 A 
ATOM     16  C   UNL     1       1.658   0.711  -6.146  1.00  0.00     0.018 A 
ATOM     17  S   UNL     1       2.989   2.295  -4.643  1.00  0.00    -0.138 S 
ATOM     18  C   UNL     1       1.396   2.029  -6.622  1.00  0.00     0.022 A 
ATOM     19  C   UNL     1       2.087   2.993  -5.916  1.00  0.00     0.045 A 
BRANCH  19  20
ATOM     20  C   UNL     1       2.065   4.412  -6.162  1.00  0.00     0.044 A 
ATOM     21  C   UNL     1       0.945   5.202  -6.347  1.00  0.00     0.021 A 
ATOM     22  S   UNL     1       3.505   5.329  -6.332  1.00  0.00    -0.143 S 
ATOM     23  C   UNL     1       1.274   6.559  -6.637  1.00  0.00     0.012 A 
ATOM     24  C   UNL     1       2.635   6.763  -6.668  1.00  0.00     0.065 A 
ENDBRANCH  19  20
ENDBRANCH  14  15
ENDBRANCH  12  14
ENDBRANCH   9  10
ENDBRANCH   6   8
ENDBRANCH   3   4
ENDBRANCH   2   3
ENDBRANCH   1   2
BRANCH   1  25
ATOM     25  C   UNL     1       4.620   0.268   4.276  1.00  0.00     0.002 C 
BRANCH  25  26
ATOM     26  C   UNL     1       3.927   0.564   5.607  1.00  0.00     0.021 C 
BRANCH  26  27
ATOM     27  C   UNL     1       4.053  -0.537   6.655  1.00  0.00     0.116 C 
BRANCH  27  28
ATOM     28  N   UNL     1       5.433  -0.761   7.058  1.00  0.00    -0.352 N 
ATOM     29  C   UNL     1       5.978  -0.786   8.320  1.00  0.00     0.251 C 
ATOM     30  H   UNL     1       6.067  -0.917   6.322  1.00  0.00     0.163 HD
ATOM     31  O   UNL     1       7.194  -0.807   8.463  1.00  0.00    -0.269 OA
BRANCH  29  32
ATOM     32  C   UNL     1       5.088  -0.765   9.503  1.00  0.00     0.039 A 
ATOM     33  C   UNL     1       5.400   0.082  10.569  1.00  0.00     0.014 A 
ATOM     34  C   UNL     1       3.950  -1.575   9.559  1.00  0.00     0.014 A 
ATOM     35  C   UNL     1       4.535   0.163  11.663  1.00  0.00     0.010 A 
ATOM     36  C   UNL     1       3.051  -1.434  10.611  1.00  0.00     0.010 A 
ATOM     37  C   UNL     1       3.335  -0.568  11.678  1.00  0.00    -0.014 A 
BRANCH  37  38
ATOM     38  C   UNL     1       2.364  -0.436  12.796  1.00  0.00     0.031 A 
ATOM     39  C   UNL     1       2.041  -1.623  13.664  1.00  0.00     0.074 A 
ATOM     40  C   UNL     1       1.729   0.737  12.993  1.00  0.00     0.049 A 
ATOM     41  N   UNL     1       1.195  -1.711  14.658  1.00  0.00    -0.248 NA
ATOM     42  C   UNL     1       2.743  -2.880  13.360  1.00  0.00     0.031 C 
ATOM     43  C   UNL     1       1.929   1.953  12.200  1.00  0.00     0.029 A 
ATOM     44  N   UNL     1       0.785   1.100  13.921  1.00  0.00    -0.354 N 
ATOM     45  C   UNL     1       1.250  -3.033  15.086  1.00  0.00     0.074 A 
ATOM     46  C   UNL     1       2.171  -3.721  14.209  1.00  0.00     0.031 C 
ATOM     47  C   UNL     1       1.162   2.935  12.700  1.00  0.00     0.029 A 
ATOM     48  C   UNL     1       0.381   2.410  13.815  1.00  0.00     0.049 A 
ATOM     49  H   UNL     1       0.432   0.480  14.600  1.00  0.00     0.167 HD
ATOM     50  C   UNL     1       0.608  -3.618  16.126  1.00  0.00     0.031 A 
ATOM     51  C   UNL     1      -0.520   3.111  14.531  1.00  0.00     0.031 A 
ATOM     52  C   UNL     1      -0.308  -2.928  16.997  1.00  0.00     0.049 A 
ATOM     53  C   UNL     1      -1.246   2.431  15.661  1.00  0.00     0.074 A 
ATOM     54  C   UNL     1      -0.968  -3.415  18.111  1.00  0.00     0.029 A 
ATOM     55  N   UNL     1      -0.701  -1.606  16.846  1.00  0.00    -0.354 N 
ATOM     56  N   UNL     1      -1.126   1.199  16.096  1.00  0.00    -0.248 NA
ATOM     57  C   UNL     1      -2.223   3.241  16.402  1.00  0.00     0.031 C 
ATOM     58  C   UNL     1      -1.809  -2.408  18.595  1.00  0.00     0.029 A 
ATOM     59  C   UNL     1      -1.619  -1.270  17.827  1.00  0.00     0.049 A 
ATOM     60  H   UNL     1      -0.374  -0.996  16.146  1.00  0.00     0.167 HD
ATOM     61  C   UNL     1      -1.987   1.096  17.183  1.00  0.00     0.074 A 
ATOM     62  C   UNL     1      -2.610   2.394  17.346  1.00  0.00     0.031 C 
ATOM     63  C   UNL     1      -2.235   0.025  17.978  1.00  0.00     0.031 A 
BRANCH  50  64
ATOM     64  C   UNL     1       0.862  -5.085  16.365  1.00  0.00    -0.014 A 
ATOM     65  C   UNL     1       2.120  -5.549  16.794  1.00  0.00     0.010 A 
ATOM     66  C   UNL     1      -0.179  -6.013  16.180  1.00  0.00     0.010 A 
ATOM     67  C   UNL     1       2.347  -6.916  16.978  1.00  0.00     0.020 A 
ATOM     68  C   UNL     1       0.034  -7.378  16.397  1.00  0.00     0.020 A 
ATOM     69  C   UNL     1       1.302  -7.822  16.773  1.00  0.00     0.054 A 
BRANCH  69  70
ATOM     70  S   UNL     1       1.625  -9.590  17.022  1.00  0.00     0.124 S 
ATOM     71  O   UNL     1       2.463  -9.908  15.868  1.00  0.00    -0.237 OA
ATOM     72  O   UNL     1       2.303  -9.612  18.315  1.00  0.00    -0.237 OA
ATOM     73  O   UNL     1       0.294 -10.191  17.008  1.00  0.00    -0.744 OA
ENDBRANCH  69  70
ENDBRANCH  50  64
BRANCH  51  74
ATOM     74  C   UNL     1      -0.769   4.546  14.218  1.00  0.00    -0.014 A 
ATOM     75  C   UNL     1      -0.363   5.550  15.115  1.00  0.00     0.010 A 
ATOM     76  C   UNL     1      -1.403   4.918  13.019  1.00  0.00     0.010 A 
ATOM     77  C   UNL     1      -0.603   6.897  14.828  1.00  0.00     0.020 A 
ATOM     78  C   UNL     1      -1.618   6.266  12.714  1.00  0.00     0.020 A 
ATOM     79  C   UNL     1      -1.226   7.246  13.627  1.00  0.00     0.054 A 
BRANCH  79  80
ATOM     80  S   UNL     1      -1.482   9.004  13.255  1.00  0.00     0.124 S 
ATOM     81  O   UNL     1      -2.539   9.363  14.195  1.00  0.00    -0.237 OA
ATOM     82  O   UNL     1      -0.167   9.577  13.531  1.00  0.00    -0.237 OA
ATOM     83  O   UNL     1      -1.870   9.002  11.847  1.00  0.00    -0.744 OA
ENDBRANCH  79  80
ENDBRANCH  51  74
BRANCH  63  84
ATOM     84  C   UNL     1      -3.194   0.218  19.124  1.00  0.00    -0.014 A 
ATOM     85  C   UNL     1      -4.573   0.388  18.907  1.00  0.00     0.010 A 
ATOM     86  C   UNL     1      -2.710   0.174  20.445  1.00  0.00     0.010 A 
ATOM     87  C   UNL     1      -5.444   0.544  19.988  1.00  0.00     0.020 A 
ATOM     88  C   UNL     1      -3.582   0.297  21.529  1.00  0.00     0.020 A 
ATOM     89  C   UNL     1      -4.943   0.496  21.293  1.00  0.00     0.054 A 
BRANCH  89  90
ATOM     90  S   UNL     1      -6.101   0.656  22.680  1.00  0.00     0.124 S 
ATOM     91  O   UNL     1      -6.458   2.071  22.617  1.00  0.00    -0.237 OA
ATOM     92  O   UNL     1      -7.165  -0.277  22.316  1.00  0.00    -0.237 OA
ATOM     93  O   UNL     1      -5.308   0.265  23.842  1.00  0.00    -0.744 OA
ENDBRANCH  89  90
ENDBRANCH  63  84
ENDBRANCH  37  38
ENDBRANCH  29  32
ENDBRANCH  27  28
ENDBRANCH  26  27
ENDBRANCH  25  26
ENDBRANCH   1  25
TORSDOF 20
