REMARK SMILES CN1C(=O)/C(=C\c2ccc(-c3ccccc3C(=O)NCCCCCCNC(=O)c3ccc(-c4c5nc(c(-c6ccc(S(=O)(=O)[O-])cc6)c6ccc([nH]6)c(-c6ccc(S(=O)(=O)[O-])cc6)c6nc(c(-c7ccc(S(=O)(=O)[O-])cc7)c7ccc4[nH]7)C=C6)C=C5)cc3)o2)C(=O)[NH+]=C1S
REMARK SMILES IDX 22 1 21 2 20 3 19 4 17 5 18 6 16 8 11 9 12 10 13 11 15 12
REMARK SMILES IDX 14 13 10 14 7 15 8 16 89 17 9 18 6 19 1 20 2 21 3 22 93 23
REMARK SMILES IDX 4 24 5 25 92 26 90 27 91 29 94 30 23 32 24 33 25 34 26 35
REMARK SMILES IDX 27 36 28 38 29 39 30 40 88 41 31 42 87 43 32 44 33 45 34 46
REMARK SMILES IDX 81 47 35 48 86 49 80 50 82 51 36 52 85 53 79 54 78 55 37 57
REMARK SMILES IDX 67 58 48 59 66 60 49 61 52 62 65 63 83 64 50 65 51 66 64 68
REMARK SMILES IDX 84 69 53 70 38 71 39 72 47 73 40 74 46 75 41 76 42 77 43 78
REMARK SMILES IDX 44 79 45 80 68 81 69 82 77 83 70 84 76 85 71 86 72 87 73 88
REMARK SMILES IDX 74 89 75 90 54 91 55 92 63 93 56 94 62 95 57 96 58 97 59 98
REMARK SMILES IDX 60 99 61 100
REMARK H PARENT 19 7 92 28 94 31 26 37 82 56 52 67
REMARK Flexibility Score: inf
ROOT
ATOM      1  C   UNL     1       5.658  -5.478   1.073  1.00  0.00     0.002 C 
ENDROOT
BRANCH   1   2
ATOM      2  C   UNL     1       4.839  -6.074  -0.073  1.00  0.00     0.021 C 
BRANCH   2   3
ATOM      3  C   UNL     1       5.040  -5.522  -1.479  1.00  0.00     0.116 C 
BRANCH   3   4
ATOM      4  N   UNL     1       6.067  -6.083  -2.312  1.00  0.00    -0.352 N 
ATOM      5  C   UNL     1       6.136  -6.276  -3.678  1.00  0.00     0.252 C 
ATOM      6  O   UNL     1       7.248  -6.664  -4.067  1.00  0.00    -0.269 OA
ATOM      7  H   UNL     1       6.866  -6.385  -1.820  1.00  0.00     0.163 HD
BRANCH   5   8
ATOM      8  C   UNL     1       5.040  -6.136  -4.733  1.00  0.00     0.050 A 
ATOM      9  C   UNL     1       3.827  -5.413  -4.750  1.00  0.00     0.030 A 
ATOM     10  C   UNL     1       2.971  -5.472  -5.882  1.00  0.00     0.013 A 
ATOM     11  C   UNL     1       3.310  -6.181  -7.026  1.00  0.00     0.001 A 
ATOM     12  C   UNL     1       5.348  -6.844  -5.928  1.00  0.00     0.014 A 
ATOM     13  C   UNL     1       4.513  -6.859  -7.055  1.00  0.00     0.001 A 
BRANCH   9  14
ATOM     14  C   UNL     1       3.364  -4.494  -3.740  1.00  0.00     0.135 A 
ATOM     15  C   UNL     1       2.049  -3.980  -2.021  1.00  0.00     0.128 A 
ATOM     16  C   UNL     1       2.944  -2.931  -2.236  1.00  0.00     0.051 A 
ATOM     17  O   UNL     1       2.307  -4.923  -2.991  1.00  0.00    -0.457 OA
ATOM     18  C   UNL     1       3.735  -3.230  -3.365  1.00  0.00     0.051 A 
BRANCH  15  19
ATOM     19  C   UNL     1       1.102  -4.202  -0.978  1.00  0.00     0.071 C 
ATOM     20  C   UNL     1       0.640   0.397   0.129  1.00  0.00     0.301 C 
ATOM     21  N   UNL     1       0.107  -0.953   0.237  1.00  0.00    -0.189 N 
ATOM     22  C   UNL     1       0.424  -1.815  -0.773  1.00  0.00     0.349 C 
ATOM     23  C   UNL     1      -0.924  -1.347   1.038  1.00  0.00     0.318 C 
ATOM     24  O   UNL     1       0.658  -1.440  -1.916  1.00  0.00    -0.240 OA
ATOM     25  C   UNL     1       0.401  -3.231  -0.364  1.00  0.00     0.157 C 
ATOM     26  N   UNL     1      -1.199  -2.577   1.313  1.00  0.00    -0.200 N 
ATOM     27  C   UNL     1      -0.362  -3.558   0.863  1.00  0.00     0.347 C 
ATOM     28  H   UNL     1      -1.999  -2.805   1.839  1.00  0.00     0.316 HD
ATOM     29  O   UNL     1      -0.204  -4.627   1.450  1.00  0.00    -0.241 OA
BRANCH  23  30
ATOM     30  S   UNL     1      -1.996  -0.113   1.619  1.00  0.00    -0.055 SA
ATOM     31  H   UNL     1      -1.537   1.106   1.228  1.00  0.00     0.116 HD
ENDBRANCH  23  30
ENDBRANCH  15  19
ENDBRANCH   9  14
ENDBRANCH   5   8
ENDBRANCH   3   4
ENDBRANCH   2   3
ENDBRANCH   1   2
BRANCH   1  32
ATOM     32  C   UNL     1       5.653  -3.955   1.254  1.00  0.00     0.002 C 
BRANCH  32  33
ATOM     33  C   UNL     1       4.297  -3.249   1.357  1.00  0.00     0.021 C 
BRANCH  33  34
ATOM     34  C   UNL     1       3.340  -3.732   2.445  1.00  0.00     0.116 C 
BRANCH  34  35
ATOM     35  N   UNL     1       3.906  -3.606   3.774  1.00  0.00    -0.352 N 
ATOM     36  C   UNL     1       3.491  -2.895   4.873  1.00  0.00     0.251 C 
ATOM     37  H   UNL     1       4.733  -4.121   3.913  1.00  0.00     0.163 HD
ATOM     38  O   UNL     1       4.265  -2.782   5.823  1.00  0.00    -0.269 OA
BRANCH  36  39
ATOM     39  C   UNL     1       2.152  -2.258   4.947  1.00  0.00     0.039 A 
ATOM     40  C   UNL     1       2.020  -1.066   5.671  1.00  0.00     0.014 A 
ATOM     41  C   UNL     1       1.008  -2.855   4.416  1.00  0.00     0.014 A 
ATOM     42  C   UNL     1       0.762  -0.476   5.849  1.00  0.00     0.010 A 
ATOM     43  C   UNL     1      -0.233  -2.219   4.523  1.00  0.00     0.010 A 
ATOM     44  C   UNL     1      -0.385  -1.035   5.263  1.00  0.00    -0.014 A 
BRANCH  44  45
ATOM     45  C   UNL     1      -1.734  -0.418   5.454  1.00  0.00     0.031 A 
ATOM     46  C   UNL     1      -2.873  -1.223   6.045  1.00  0.00     0.074 A 
ATOM     47  C   UNL     1      -1.969   0.848   5.046  1.00  0.00     0.049 A 
ATOM     48  N   UNL     1      -4.118  -0.866   6.248  1.00  0.00    -0.248 NA
ATOM     49  C   UNL     1      -2.587  -2.614   6.433  1.00  0.00     0.031 C 
ATOM     50  C   UNL     1      -0.993   1.731   4.399  1.00  0.00     0.029 A 
ATOM     51  N   UNL     1      -3.119   1.602   5.074  1.00  0.00    -0.354 N 
ATOM     52  C   UNL     1      -4.753  -1.982   6.785  1.00  0.00     0.074 A 
ATOM     53  C   UNL     1      -3.784  -3.054   6.790  1.00  0.00     0.031 C 
ATOM     54  C   UNL     1      -1.586   2.894   4.083  1.00  0.00     0.029 A 
ATOM     55  C   UNL     1      -2.985   2.843   4.492  1.00  0.00     0.049 A 
ATOM     56  H   UNL     1      -3.961   1.284   5.473  1.00  0.00     0.167 HD
ATOM     57  C   UNL     1      -6.012  -2.102   7.276  1.00  0.00     0.031 A 
ATOM     58  C   UNL     1      -3.880   3.834   4.304  1.00  0.00     0.031 A 
ATOM     59  C   UNL     1      -6.976  -1.034   7.297  1.00  0.00     0.049 A 
ATOM     60  C   UNL     1      -5.277   3.678   4.841  1.00  0.00     0.074 A 
ATOM     61  C   UNL     1      -8.244  -1.030   7.854  1.00  0.00     0.029 A 
ATOM     62  N   UNL     1      -6.785   0.218   6.735  1.00  0.00    -0.354 N 
ATOM     63  N   UNL     1      -5.818   2.647   5.445  1.00  0.00    -0.248 NA
ATOM     64  C   UNL     1      -6.170   4.837   4.707  1.00  0.00     0.031 C 
ATOM     65  C   UNL     1      -8.841   0.204   7.575  1.00  0.00     0.029 A 
ATOM     66  C   UNL     1      -7.919   0.994   6.909  1.00  0.00     0.049 A 
ATOM     67  H   UNL     1      -5.963   0.513   6.280  1.00  0.00     0.167 HD
ATOM     68  C   UNL     1      -7.098   3.054   5.809  1.00  0.00     0.074 A 
ATOM     69  C   UNL     1      -7.244   4.424   5.364  1.00  0.00     0.031 C 
ATOM     70  C   UNL     1      -8.061   2.357   6.463  1.00  0.00     0.031 A 
BRANCH  57  71
ATOM     71  C   UNL     1      -6.413  -3.434   7.863  1.00  0.00    -0.014 A 
ATOM     72  C   UNL     1      -5.823  -3.912   9.049  1.00  0.00     0.010 A 
ATOM     73  C   UNL     1      -7.433  -4.193   7.260  1.00  0.00     0.010 A 
ATOM     74  C   UNL     1      -6.211  -5.138   9.594  1.00  0.00     0.020 A 
ATOM     75  C   UNL     1      -7.849  -5.405   7.820  1.00  0.00     0.020 A 
ATOM     76  C   UNL     1      -7.223  -5.877   8.976  1.00  0.00     0.054 A 
BRANCH  76  77
ATOM     77  S   UNL     1      -7.731  -7.448   9.729  1.00  0.00     0.124 S 
ATOM     78  O   UNL     1      -6.576  -8.300   9.459  1.00  0.00    -0.237 OA
ATOM     79  O   UNL     1      -7.927  -7.081  11.129  1.00  0.00    -0.237 OA
ATOM     80  O   UNL     1      -8.949  -7.803   9.005  1.00  0.00    -0.744 OA
ENDBRANCH  76  77
ENDBRANCH  57  71
BRANCH  58  81
ATOM     81  C   UNL     1      -3.470   5.090   3.615  1.00  0.00    -0.014 A 
ATOM     82  C   UNL     1      -3.336   6.290   4.337  1.00  0.00     0.010 A 
ATOM     83  C   UNL     1      -3.219   5.095   2.231  1.00  0.00     0.010 A 
ATOM     84  C   UNL     1      -2.989   7.477   3.684  1.00  0.00     0.020 A 
ATOM     85  C   UNL     1      -2.842   6.273   1.579  1.00  0.00     0.020 A 
ATOM     86  C   UNL     1      -2.742   7.460   2.309  1.00  0.00     0.054 A 
BRANCH  86  87
ATOM     87  S   UNL     1      -2.253   9.005   1.492  1.00  0.00     0.124 S 
ATOM     88  O   UNL     1      -3.494   9.772   1.523  1.00  0.00    -0.237 OA
ATOM     89  O   UNL     1      -1.184   9.492   2.360  1.00  0.00    -0.237 OA
ATOM     90  O   UNL     1      -1.819   8.568   0.167  1.00  0.00    -0.744 OA
ENDBRANCH  86  87
ENDBRANCH  58  81
BRANCH  70  91
ATOM     91  C   UNL     1      -9.341   3.082   6.790  1.00  0.00    -0.014 A 
ATOM     92  C   UNL     1     -10.244   3.476   5.786  1.00  0.00     0.010 A 
ATOM     93  C   UNL     1      -9.652   3.358   8.135  1.00  0.00     0.010 A 
ATOM     94  C   UNL     1     -11.405   4.181   6.117  1.00  0.00     0.020 A 
ATOM     95  C   UNL     1     -10.830   4.029   8.473  1.00  0.00     0.020 A 
ATOM     96  C   UNL     1     -11.688   4.457   7.458  1.00  0.00     0.054 A 
BRANCH  96  97
ATOM     97  S   UNL     1     -13.204   5.366   7.862  1.00  0.00     0.124 S 
ATOM     98  O   UNL     1     -12.876   6.717   7.416  1.00  0.00    -0.237 OA
ATOM     99  O   UNL     1     -14.215   4.670   7.070  1.00  0.00    -0.237 OA
ATOM    100  O   UNL     1     -13.333   5.202   9.308  1.00  0.00    -0.744 OA
ENDBRANCH  96  97
ENDBRANCH  70  91
ENDBRANCH  44  45
ENDBRANCH  36  39
ENDBRANCH  34  35
ENDBRANCH  33  34
ENDBRANCH  32  33
ENDBRANCH   1  32
TORSDOF 19
