REMARK SMILES O=C(NCCCCCCNC(=O)[C@H]1COCCN1C(=O)c1ccc(Br)nc1)c1ccc(-c2c3nc(c(-c4ccc(S(=O)(=O)[O-])cc4)c4ccc([nH]4)c(-c4ccc(S(=O)(=O)[O-])cc4)c4nc(c(-c5ccc(S(=O)(=O)[O-])cc5)c5ccc2[nH]5)C=C4)C=C3)cc1
REMARK SMILES IDX 6 1 5 2 4 3 3 4 1 5 2 6 28 8 29 9 87 10 30 11 86 12 31 13
REMARK SMILES IDX 32 14 33 15 80 16 34 17 85 18 79 19 81 20 35 21 84 22 78 23
REMARK SMILES IDX 77 24 36 26 66 27 47 28 65 29 48 30 51 31 64 32 82 33 49 34
REMARK SMILES IDX 50 35 63 37 83 38 52 39 37 40 38 41 46 42 39 43 45 44 40 45
REMARK SMILES IDX 41 46 42 47 43 48 44 49 67 50 68 51 76 52 69 53 75 54 70 55
REMARK SMILES IDX 71 56 72 57 73 58 74 59 53 60 54 61 62 62 55 63 61 64 56 65
REMARK SMILES IDX 57 66 58 67 59 68 60 69 7 70 8 71 9 72 10 73 11 74 12 76
REMARK SMILES IDX 13 77 14 78 18 79 15 80 17 81 16 82 19 83 20 84 21 85 22 86
REMARK SMILES IDX 27 87 23 88 26 89 24 90 25 91
REMARK H PARENT 3 7 81 25 51 36 10 75
REMARK Flexibility Score: inf
ROOT
ATOM      1  C   UNL     1       6.149   4.153  -1.998  1.00  0.00     0.002 C 
ENDROOT
BRANCH   1   2
ATOM      2  C   UNL     1       5.066   5.138  -2.441  1.00  0.00     0.021 C 
BRANCH   2   3
ATOM      3  C   UNL     1       3.639   4.661  -2.209  1.00  0.00     0.116 C 
BRANCH   3   4
ATOM      4  N   UNL     1       3.298   4.583  -0.798  1.00  0.00    -0.352 N 
ATOM      5  O   UNL     1       2.118   5.062   1.067  1.00  0.00    -0.269 OA
ATOM      6  C   UNL     1       2.182   5.072  -0.159  1.00  0.00     0.251 C 
ATOM      7  H   UNL     1       3.951   4.121  -0.225  1.00  0.00     0.163 HD
BRANCH   6   8
ATOM      8  C   UNL     1       1.073   5.635  -0.962  1.00  0.00     0.039 A 
ATOM      9  C   UNL     1       0.613   4.967  -2.098  1.00  0.00     0.014 A 
ATOM     10  C   UNL     1       0.495   6.850  -0.580  1.00  0.00     0.014 A 
ATOM     11  C   UNL     1      -0.321   5.578  -2.926  1.00  0.00     0.010 A 
ATOM     12  C   UNL     1      -0.508   7.422  -1.370  1.00  0.00     0.010 A 
ATOM     13  C   UNL     1      -0.904   6.804  -2.566  1.00  0.00    -0.014 A 
BRANCH  13  14
ATOM     14  C   UNL     1      -1.974   7.367  -3.429  1.00  0.00     0.031 A 
ATOM     15  C   UNL     1      -1.786   8.656  -4.181  1.00  0.00     0.074 A 
ATOM     16  C   UNL     1      -3.110   6.656  -3.579  1.00  0.00     0.049 A 
ATOM     17  N   UNL     1      -2.592   9.228  -5.039  1.00  0.00    -0.248 NA
ATOM     18  C   UNL     1      -0.541   9.402  -3.940  1.00  0.00     0.031 C 
ATOM     19  C   UNL     1      -3.416   5.402  -2.884  1.00  0.00     0.029 A 
ATOM     20  N   UNL     1      -4.199   6.861  -4.385  1.00  0.00    -0.354 N 
ATOM     21  C   UNL     1      -1.962  10.402  -5.434  1.00  0.00     0.074 A 
ATOM     22  C   UNL     1      -0.716  10.476  -4.701  1.00  0.00     0.031 C 
ATOM     23  C   UNL     1      -4.581   4.919  -3.338  1.00  0.00     0.029 A 
ATOM     24  C   UNL     1      -5.132   5.853  -4.312  1.00  0.00     0.049 A 
ATOM     25  H   UNL     1      -4.304   7.653  -4.960  1.00  0.00     0.167 HD
ATOM     26  C   UNL     1      -2.380  11.329  -6.330  1.00  0.00     0.031 A 
ATOM     27  C   UNL     1      -6.305   5.695  -4.952  1.00  0.00     0.031 A 
ATOM     28  C   UNL     1      -3.625  11.257  -7.052  1.00  0.00     0.049 A 
ATOM     29  C   UNL     1      -6.739   6.733  -5.943  1.00  0.00     0.074 A 
ATOM     30  C   UNL     1      -4.137  12.149  -7.980  1.00  0.00     0.029 A 
ATOM     31  N   UNL     1      -4.553  10.233  -6.933  1.00  0.00    -0.354 N 
ATOM     32  N   UNL     1      -6.118   7.829  -6.310  1.00  0.00    -0.248 NA
ATOM     33  C   UNL     1      -8.030   6.513  -6.607  1.00  0.00     0.031 C 
ATOM     34  C   UNL     1      -5.390  11.681  -8.395  1.00  0.00     0.029 A 
ATOM     35  C   UNL     1      -5.636  10.475  -7.761  1.00  0.00     0.049 A 
ATOM     36  H   UNL     1      -4.455   9.449  -6.345  1.00  0.00     0.167 HD
ATOM     37  C   UNL     1      -6.944   8.431  -7.250  1.00  0.00     0.074 A 
ATOM     38  C   UNL     1      -8.090   7.559  -7.420  1.00  0.00     0.031 C 
ATOM     39  C   UNL     1      -6.775   9.605  -7.905  1.00  0.00     0.031 A 
BRANCH  26  40
ATOM     40  C   UNL     1      -1.485  12.515  -6.577  1.00  0.00    -0.014 A 
ATOM     41  C   UNL     1      -0.303  12.383  -7.328  1.00  0.00     0.010 A 
ATOM     42  C   UNL     1      -1.856  13.788  -6.105  1.00  0.00     0.010 A 
ATOM     43  C   UNL     1       0.506  13.495  -7.577  1.00  0.00     0.020 A 
ATOM     44  C   UNL     1      -1.060  14.907  -6.370  1.00  0.00     0.020 A 
ATOM     45  C   UNL     1       0.124  14.750  -7.093  1.00  0.00     0.054 A 
BRANCH  45  46
ATOM     46  S   UNL     1       1.180  16.181  -7.455  1.00  0.00     0.124 S 
ATOM     47  O   UNL     1       2.300  15.965  -6.543  1.00  0.00    -0.237 OA
ATOM     48  O   UNL     1       1.484  16.006  -8.873  1.00  0.00    -0.237 OA
ATOM     49  O   UNL     1       0.331  17.327  -7.140  1.00  0.00    -0.744 OA
ENDBRANCH  45  46
ENDBRANCH  26  40
BRANCH  27  50
ATOM     50  C   UNL     1      -7.151   4.509  -4.654  1.00  0.00    -0.014 A 
ATOM     51  C   UNL     1      -7.310   3.480  -5.597  1.00  0.00     0.010 A 
ATOM     52  C   UNL     1      -7.780   4.396  -3.401  1.00  0.00     0.010 A 
ATOM     53  C   UNL     1      -8.098   2.365  -5.298  1.00  0.00     0.020 A 
ATOM     54  C   UNL     1      -8.545   3.270  -3.088  1.00  0.00     0.020 A 
ATOM     55  C   UNL     1      -8.711   2.268  -4.045  1.00  0.00     0.054 A 
BRANCH  55  56
ATOM     56  S   UNL     1      -9.686   0.790  -3.651  1.00  0.00     0.124 S 
ATOM     57  O   UNL     1     -10.950   1.076  -4.322  1.00  0.00    -0.237 OA
ATOM     58  O   UNL     1      -8.888  -0.285  -4.234  1.00  0.00    -0.237 OA
ATOM     59  O   UNL     1      -9.734   0.796  -2.190  1.00  0.00    -0.744 OA
ENDBRANCH  55  56
ENDBRANCH  27  50
BRANCH  39  60
ATOM     60  C   UNL     1      -7.858  10.003  -8.870  1.00  0.00    -0.014 A 
ATOM     61  C   UNL     1      -9.105  10.459  -8.407  1.00  0.00     0.010 A 
ATOM     62  C   UNL     1      -7.622   9.927 -10.254  1.00  0.00     0.010 A 
ATOM     63  C   UNL     1     -10.116  10.789  -9.313  1.00  0.00     0.020 A 
ATOM     64  C   UNL     1      -8.623  10.279 -11.163  1.00  0.00     0.020 A 
ATOM     65  C   UNL     1      -9.870  10.688 -10.686  1.00  0.00     0.054 A 
BRANCH  65  66
ATOM     66  S   UNL     1     -11.191  11.132 -11.847  1.00  0.00     0.124 S 
ATOM     67  O   UNL     1     -12.046   9.950 -11.798  1.00  0.00    -0.237 OA
ATOM     68  O   UNL     1     -11.754  12.341 -11.251  1.00  0.00    -0.237 OA
ATOM     69  O   UNL     1     -10.484  11.339 -13.109  1.00  0.00    -0.744 OA
ENDBRANCH  65  66
ENDBRANCH  39  60
ENDBRANCH  13  14
ENDBRANCH   6   8
ENDBRANCH   3   4
ENDBRANCH   2   3
ENDBRANCH   1   2
BRANCH   1  70
ATOM     70  C   UNL     1       6.082   2.769  -2.654  1.00  0.00     0.002 C 
BRANCH  70  71
ATOM     71  C   UNL     1       6.030   2.765  -4.190  1.00  0.00     0.021 C 
BRANCH  71  72
ATOM     72  C   UNL     1       7.175   3.525  -4.861  1.00  0.00     0.116 C 
BRANCH  72  73
ATOM     73  N   UNL     1       8.448   2.899  -4.554  1.00  0.00    -0.354 N 
ATOM     74  C   UNL     1       9.285   2.160  -5.339  1.00  0.00     0.245 C 
ATOM     75  H   UNL     1       8.758   3.029  -3.629  1.00  0.00     0.163 HD
ATOM     76  O   UNL     1      10.185   1.544  -4.766  1.00  0.00    -0.273 OA
BRANCH  74  77
ATOM     77  C   UNL     1       9.129   2.203  -6.877  1.00  0.00     0.200 C 
ATOM     78  C   UNL     1       9.923   3.403  -7.419  1.00  0.00     0.195 C 
ATOM     79  N   UNL     1       9.555   0.953  -7.546  1.00  0.00    -0.322 N 
ATOM     80  O   UNL     1      11.341   3.183  -7.391  1.00  0.00    -0.377 OA
ATOM     81  C   UNL     1      11.005   0.755  -7.607  1.00  0.00     0.149 C 
ATOM     82  C   UNL     1      11.706   2.010  -8.133  1.00  0.00     0.181 C 
BRANCH  79  83
ATOM     83  C   UNL     1       8.719  -0.088  -7.932  1.00  0.00     0.256 C 
ATOM     84  O   UNL     1       9.122  -1.205  -8.244  1.00  0.00    -0.269 OA
BRANCH  83  85
ATOM     85  C   UNL     1       7.268   0.147  -8.025  1.00  0.00     0.058 A 
ATOM     86  C   UNL     1       6.729   1.142  -8.844  1.00  0.00     0.018 A 
ATOM     87  C   UNL     1       6.400  -0.692  -7.346  1.00  0.00     0.126 A 
ATOM     88  C   UNL     1       5.344   1.297  -8.899  1.00  0.00     0.037 A 
ATOM     89  N   UNL     1       5.052  -0.555  -7.377  1.00  0.00    -0.249 NA
ATOM     90  C   UNL     1       4.551   0.434  -8.152  1.00  0.00     0.106 A 
ATOM     91  Br  UNL     1       2.669   0.644  -8.208  1.00  0.00    -0.029 Br
ENDBRANCH  83  85
ENDBRANCH  79  83
ENDBRANCH  74  77
ENDBRANCH  72  73
ENDBRANCH  71  72
ENDBRANCH  70  71
ENDBRANCH   1  70
TORSDOF 18
