REMARK SMILES O=C(C[C@@H]1C(=O)O[C@H]2[C@@H]3OC(=O)c4cc(O)c(O)c(O)c4-c4ccccc4C(=O)OC[C@@H]2O[C@@H](OC(=O)c2cc(O)c(O)c(O)c2)[C@@H]3OC(=O)c2cc(O)c(O)c3c2[C@H]1[C@H](O)C(=O)O3)NCCCCCCNC(=O)c1ccc(-c2c3nc(c(-c4ccc(S(=O)(=O)[O-])cc4)c4ccc([nH]4)c(-c4ccc(S(=O)(=O)[O-])cc4)c4nc(c(-c5ccc(S(=O)(=O)[O-])cc5)c5ccc2[nH]5)C=C4)C=C3)cc1
REMARK SMILES IDX 3 1 2 2 1 3 65 4 66 6 67 7 68 8 69 9 70 10 71 11 72 12 73 13
REMARK SMILES IDX 74 15 75 16 76 17 134 18 77 19 133 20 78 21 79 22 80 23
REMARK SMILES IDX 127 24 81 25 132 26 126 27 128 28 82 29 131 30 125 31 124 32
REMARK SMILES IDX 83 34 113 35 94 36 112 37 95 38 98 39 111 40 129 41 96 42
REMARK SMILES IDX 97 43 110 45 130 46 99 47 84 48 85 49 93 50 86 51 92 52
REMARK SMILES IDX 87 53 88 54 89 55 90 56 91 57 114 58 115 59 123 60 116 61
REMARK SMILES IDX 122 62 117 63 118 64 119 65 120 66 121 67 100 68 101 69
REMARK SMILES IDX 109 70 102 71 108 72 103 73 104 74 105 75 106 76 107 77 4 78
REMARK SMILES IDX 59 80 58 81 60 82 51 83 57 84 62 85 52 86 55 87 64 88 63 89
REMARK SMILES IDX 53 90 61 91 49 93 50 94 48 95 47 96 9 97 34 98 8 99 33 100
REMARK SMILES IDX 32 101 10 103 11 104 12 105 13 106 14 107 21 108 15 109
REMARK SMILES IDX 19 110 17 111 22 112 23 113 27 114 24 115 26 116 25 117
REMARK SMILES IDX 28 118 29 119 30 120 31 121 16 123 20 125 18 127 35 129
REMARK SMILES IDX 36 130 37 131 38 132 39 133 46 134 40 135 44 136 42 137
REMARK SMILES IDX 41 138 45 140 43 142 7 144 5 145 6 146 56 148 54 150
REMARK H PARENT 65 5 72 14 128 33 98 44 61 92 16 124 20 126 18 128 41 139
REMARK H PARENT 45 141 43 143 56 149 54 151
REMARK Flexibility Score: 170.00
ROOT
ATOM      1  C   UNL     1       2.514   2.417   1.416  1.00  0.00     0.116 C 
ENDROOT
BRANCH   1   2
ATOM      2  C   UNL     1       3.389   3.355   2.236  1.00  0.00     0.220 C 
ATOM      3  O   UNL     1       3.021   4.498   2.487  1.00  0.00    -0.275 OA
ATOM      4  N   UNL     1       4.571   2.825   2.668  1.00  0.00    -0.356 N 
ATOM      5  H   UNL     1       4.848   1.946   2.321  1.00  0.00     0.163 HD
BRANCH   4   6
ATOM      6  C   UNL     1       5.433   3.499   3.612  1.00  0.00     0.116 C 
BRANCH   6   7
ATOM      7  C   UNL     1       5.181   2.973   5.015  1.00  0.00     0.021 C 
BRANCH   7   8
ATOM      8  C   UNL     1       5.442   1.465   5.131  1.00  0.00     0.002 C 
BRANCH   8   9
ATOM      9  C   UNL     1       6.870   1.032   4.777  1.00  0.00     0.002 C 
BRANCH   9  10
ATOM     10  C   UNL     1       7.960   1.739   5.580  1.00  0.00     0.021 C 
BRANCH  10  11
ATOM     11  C   UNL     1       7.781   1.630   7.086  1.00  0.00     0.116 C 
BRANCH  11  12
ATOM     12  N   UNL     1       7.866   0.255   7.560  1.00  0.00    -0.352 N 
ATOM     13  C   UNL     1       8.607  -0.247   8.604  1.00  0.00     0.251 C 
ATOM     14  H   UNL     1       7.321  -0.401   7.069  1.00  0.00     0.163 HD
ATOM     15  O   UNL     1       8.707  -1.456   8.776  1.00  0.00    -0.269 OA
BRANCH  13  16
ATOM     16  C   UNL     1       9.319   0.703   9.486  1.00  0.00     0.039 A 
ATOM     17  C   UNL     1       8.672   1.856   9.932  1.00  0.00     0.014 A 
ATOM     18  C   UNL     1      10.664   0.486   9.786  1.00  0.00     0.014 A 
ATOM     19  C   UNL     1       9.420   2.886  10.482  1.00  0.00     0.010 A 
ATOM     20  C   UNL     1      11.386   1.477  10.454  1.00  0.00     0.010 A 
ATOM     21  C   UNL     1      10.788   2.713  10.750  1.00  0.00    -0.014 A 
BRANCH  21  22
ATOM     22  C   UNL     1      11.568   3.843  11.325  1.00  0.00     0.031 A 
ATOM     23  C   UNL     1      12.739   4.431  10.580  1.00  0.00     0.074 A 
ATOM     24  C   UNL     1      11.179   4.378  12.500  1.00  0.00     0.049 A 
ATOM     25  N   UNL     1      13.511   5.430  10.927  1.00  0.00    -0.248 NA
ATOM     26  C   UNL     1      13.097   3.826   9.286  1.00  0.00     0.031 C 
ATOM     27  C   UNL     1      10.042   3.911  13.298  1.00  0.00     0.029 A 
ATOM     28  N   UNL     1      11.667   5.444  13.215  1.00  0.00    -0.354 N 
ATOM     29  C   UNL     1      14.449   5.562   9.908  1.00  0.00     0.074 A 
ATOM     30  C   UNL     1      14.181   4.513   8.951  1.00  0.00     0.031 C 
ATOM     31  C   UNL     1       9.882   4.721  14.352  1.00  0.00     0.029 A 
ATOM     32  C   UNL     1      10.955   5.709  14.362  1.00  0.00     0.049 A 
ATOM     33  H   UNL     1      12.451   5.968  12.933  1.00  0.00     0.167 HD
ATOM     34  C   UNL     1      15.428   6.488   9.775  1.00  0.00     0.031 A 
ATOM     35  C   UNL     1      11.144   6.630  15.329  1.00  0.00     0.031 A 
ATOM     36  C   UNL     1      15.671   7.541  10.730  1.00  0.00     0.049 A 
ATOM     37  C   UNL     1      12.278   7.605  15.189  1.00  0.00     0.074 A 
ATOM     38  C   UNL     1      16.625   8.542  10.669  1.00  0.00     0.029 A 
ATOM     39  N   UNL     1      14.963   7.737  11.908  1.00  0.00    -0.354 N 
ATOM     40  N   UNL     1      13.133   7.734  14.202  1.00  0.00    -0.248 NA
ATOM     41  C   UNL     1      12.470   8.568  16.281  1.00  0.00     0.031 C 
ATOM     42  C   UNL     1      16.558   9.281  11.850  1.00  0.00     0.029 A 
ATOM     43  C   UNL     1      15.488   8.817  12.600  1.00  0.00     0.049 A 
ATOM     44  H   UNL     1      14.202   7.189  12.207  1.00  0.00     0.167 HD
ATOM     45  C   UNL     1      13.946   8.808  14.541  1.00  0.00     0.074 A 
ATOM     46  C   UNL     1      13.465   9.309  15.813  1.00  0.00     0.031 C 
ATOM     47  C   UNL     1      14.998   9.325  13.860  1.00  0.00     0.031 A 
BRANCH  34  48
ATOM     48  C   UNL     1      16.316   6.436   8.553  1.00  0.00    -0.014 A 
ATOM     49  C   UNL     1      17.704   6.243   8.705  1.00  0.00     0.010 A 
ATOM     50  C   UNL     1      15.809   6.726   7.273  1.00  0.00     0.010 A 
ATOM     51  C   UNL     1      18.569   6.396   7.618  1.00  0.00     0.020 A 
ATOM     52  C   UNL     1      16.667   6.838   6.175  1.00  0.00     0.020 A 
ATOM     53  C   UNL     1      18.045   6.705   6.361  1.00  0.00     0.054 A 
BRANCH  53  54
ATOM     54  S   UNL     1      19.188   6.967   4.977  1.00  0.00     0.124 S 
ATOM     55  O   UNL     1      19.834   8.224   5.343  1.00  0.00    -0.237 OA
ATOM     56  O   UNL     1      20.034   5.778   5.036  1.00  0.00    -0.237 OA
ATOM     57  O   UNL     1      18.306   7.035   3.813  1.00  0.00    -0.744 OA
ENDBRANCH  53  54
ENDBRANCH  34  48
BRANCH  35  58
ATOM     58  C   UNL     1      10.205   6.669  16.488  1.00  0.00    -0.014 A 
ATOM     59  C   UNL     1      10.091   5.561  17.352  1.00  0.00     0.010 A 
ATOM     60  C   UNL     1       9.350   7.768  16.680  1.00  0.00     0.010 A 
ATOM     61  C   UNL     1       9.089   5.515  18.323  1.00  0.00     0.020 A 
ATOM     62  C   UNL     1       8.375   7.745  17.683  1.00  0.00     0.020 A 
ATOM     63  C   UNL     1       8.227   6.603  18.472  1.00  0.00     0.054 A 
BRANCH  63  64
ATOM     64  S   UNL     1       6.882   6.481  19.682  1.00  0.00     0.124 S 
ATOM     65  O   UNL     1       6.008   5.490  19.058  1.00  0.00    -0.237 OA
ATOM     66  O   UNL     1       7.579   6.037  20.886  1.00  0.00    -0.237 OA
ATOM     67  O   UNL     1       6.346   7.838  19.738  1.00  0.00    -0.744 OA
ENDBRANCH  63  64
ENDBRANCH  35  58
BRANCH  47  68
ATOM     68  C   UNL     1      15.722  10.515  14.446  1.00  0.00    -0.014 A 
ATOM     69  C   UNL     1      15.759  11.728  13.730  1.00  0.00     0.010 A 
ATOM     70  C   UNL     1      16.488  10.395  15.619  1.00  0.00     0.010 A 
ATOM     71  C   UNL     1      16.592  12.771  14.139  1.00  0.00     0.020 A 
ATOM     72  C   UNL     1      17.288  11.454  16.058  1.00  0.00     0.020 A 
ATOM     73  C   UNL     1      17.361  12.623  15.295  1.00  0.00     0.054 A 
BRANCH  73  74
ATOM     74  S   UNL     1      18.486  13.963  15.770  1.00  0.00     0.124 S 
ATOM     75  O   UNL     1      19.514  13.883  14.736  1.00  0.00    -0.237 OA
ATOM     76  O   UNL     1      17.622  15.140  15.709  1.00  0.00    -0.237 OA
ATOM     77  O   UNL     1      18.923  13.588  17.113  1.00  0.00    -0.744 OA
ENDBRANCH  73  74
ENDBRANCH  47  68
ENDBRANCH  21  22
ENDBRANCH  13  16
ENDBRANCH  11  12
ENDBRANCH  10  11
ENDBRANCH   9  10
ENDBRANCH   8   9
ENDBRANCH   7   8
ENDBRANCH   6   7
ENDBRANCH   4   6
ENDBRANCH   1   2
BRANCH   1  78
ATOM     78  C   UNL     1       2.810   1.967  -0.330  1.00  0.00     0.119 CG0
ATOM     79  G   UNL     1       2.055   0.675  -0.166  1.00  0.00     0.000 G0
BRANCH  78  80
ATOM     80  C   UNL     1       4.845   2.366  -1.212  1.00  0.00     0.079 C 
ATOM     81  C   UNL     1       5.503   3.946  -0.163  1.00  0.00     0.021 A 
ATOM     82  C   UNL     1       6.346   1.676  -1.146  1.00  0.00     0.232 C 
ATOM     83  C   UNL     1       4.598   5.423  -0.139  1.00  0.00     0.071 A 
ATOM     84  C   UNL     1       6.676   3.943   0.538  1.00  0.00     0.180 A 
ATOM     85  C   UNL     1       7.074   1.599   0.215  1.00  0.00     0.341 C 
ATOM     86  C   UNL     1       5.026   6.524   0.548  1.00  0.00     0.066 A 
ATOM     87  C   UNL     1       7.030   5.175   1.167  1.00  0.00     0.201 A 
ATOM     88  O   UNL     1       7.471   2.830   0.734  1.00  0.00    -0.420 OA
ATOM     89  O   UNL     1       7.446   0.556   0.743  1.00  0.00    -0.249 OA
ATOM     90  C   UNL     1       6.245   6.382   1.167  1.00  0.00     0.162 A 
BRANCH  82  91
ATOM     91  O   UNL     1       6.394   0.489  -1.942  1.00  0.00    -0.381 OA
ATOM     92  H   UNL     1       5.819  -0.187  -1.549  1.00  0.00     0.211 HD
ENDBRANCH  82  91
BRANCH  83  93
ATOM     93  C   UNL     1       3.069   5.817  -1.024  1.00  0.00     0.339 C 
ATOM     94  O   UNL     1       2.610   6.952  -0.944  1.00  0.00    -0.246 OA
BRANCH  93  95
ATOM     95  O   UNL     1       2.231   4.843  -1.784  1.00  0.00    -0.448 OA
BRANCH  95  96
ATOM     96  C   UNL     1       2.865   3.580  -2.152  1.00  0.00     0.290 C 
ATOM     97  C   UNL     1       2.490   2.212  -2.806  1.00  0.00     0.267 C 
ATOM     98  C   UNL     1       3.631   3.520  -0.778  1.00  0.00     0.357 C 
ATOM     99  C   UNL     1       2.997   0.863  -2.153  1.00  0.00     0.254 C 
ATOM    100  O   UNL     1       4.338   1.857   0.242  1.00  0.00    -0.329 OA
ATOM    101  C   UNL     1       4.165   0.396  -1.046  1.00  0.00     0.205 CG1
ATOM    102  G   UNL     1       3.300  -1.278  -1.400  1.00  0.00     0.000 G1
BRANCH  97 103
ATOM    103  O   UNL     1       2.596   2.159  -4.291  1.00  0.00    -0.450 OA
BRANCH 103 104
ATOM    104  C   UNL     1       3.109   1.056  -4.933  1.00  0.00     0.339 C 
ATOM    105  O   UNL     1       4.279   0.712  -4.835  1.00  0.00    -0.246 OA
BRANCH 104 106
ATOM    106  C   UNL     1       2.102   0.287  -5.749  1.00  0.00     0.075 A 
ATOM    107  C   UNL     1       2.558  -0.577  -6.759  1.00  0.00     0.066 A 
ATOM    108  C   UNL     1       0.715   0.401  -5.549  1.00  0.00     0.043 A 
ATOM    109  C   UNL     1       1.648  -1.132  -7.661  1.00  0.00     0.162 A 
ATOM    110  C   UNL     1      -0.160  -0.020  -6.570  1.00  0.00     0.170 A 
ATOM    111  C   UNL     1       0.309  -0.785  -7.617  1.00  0.00     0.200 A 
BRANCH 108 112
ATOM    112  C   UNL     1       0.137   0.922  -4.327  1.00  0.00     0.001 A 
ATOM    113  C   UNL     1      -0.299   2.292  -4.409  1.00  0.00     0.010 A 
ATOM    114  C   UNL     1      -0.034   0.154  -3.138  1.00  0.00     0.068 A 
ATOM    115  C   UNL     1      -0.942   2.915  -3.353  1.00  0.00     0.001 A 
ATOM    116  C   UNL     1      -0.839   0.789  -2.150  1.00  0.00     0.016 A 
ATOM    117  C   UNL     1      -1.257   2.145  -2.243  1.00  0.00     0.001 A 
BRANCH 114 118
ATOM    118  C   UNL     1       0.697  -1.222  -2.658  1.00  0.00     0.338 C 
ATOM    119  O   UNL     1       0.008  -2.058  -2.082  1.00  0.00    -0.246 OA
BRANCH 118 120
ATOM    120  O   UNL     1       2.119  -1.340  -2.682  1.00  0.00    -0.459 OA
BRANCH 120 121
ATOM    121  C   UNL     1       3.300  -1.278  -1.400  1.00  0.00     0.269 CG1
ATOM    122  G   UNL     1       4.165   0.396  -1.046  1.00  0.00     0.000 G1
ENDBRANCH 120 121
ENDBRANCH 118 120
ENDBRANCH 114 118
ENDBRANCH 108 112
BRANCH 109 123
ATOM    123  O   UNL     1       2.075  -2.003  -8.619  1.00  0.00    -0.504 OA
ATOM    124  H   UNL     1       2.979  -2.247  -8.662  1.00  0.00     0.293 HD
ENDBRANCH 109 123
BRANCH 110 125
ATOM    125  O   UNL     1      -1.500   0.290  -6.612  1.00  0.00    -0.504 OA
ATOM    126  H   UNL     1      -2.031  -0.020  -7.319  1.00  0.00     0.293 HD
ENDBRANCH 110 125
BRANCH 111 127
ATOM    127  O   UNL     1      -0.546  -1.215  -8.593  1.00  0.00    -0.502 OA
ATOM    128  H   UNL     1      -0.223  -1.735  -9.303  1.00  0.00     0.293 HD
ENDBRANCH 111 127
ENDBRANCH 104 106
ENDBRANCH 103 104
ENDBRANCH  97 103
BRANCH  98 129
ATOM    129  O   UNL     1       4.756   4.423  -1.986  1.00  0.00    -0.428 OA
BRANCH 129 130
ATOM    130  C   UNL     1       5.599   4.393  -3.061  1.00  0.00     0.340 C 
ATOM    131  O   UNL     1       5.873   3.435  -3.759  1.00  0.00    -0.246 OA
BRANCH 130 132
ATOM    132  C   UNL     1       6.213   5.721  -3.233  1.00  0.00     0.067 A 
ATOM    133  C   UNL     1       5.975   6.437  -4.404  1.00  0.00     0.066 A 
ATOM    134  C   UNL     1       7.057   6.240  -2.240  1.00  0.00     0.066 A 
ATOM    135  C   UNL     1       6.545   7.698  -4.533  1.00  0.00     0.162 A 
ATOM    136  C   UNL     1       7.546   7.530  -2.350  1.00  0.00     0.162 A 
ATOM    137  C   UNL     1       7.302   8.252  -3.505  1.00  0.00     0.200 A 
BRANCH 135 138
ATOM    138  O   UNL     1       6.357   8.400  -5.687  1.00  0.00    -0.504 OA
ATOM    139  H   UNL     1       5.849   8.032  -6.382  1.00  0.00     0.293 HD
ENDBRANCH 135 138
BRANCH 136 140
ATOM    140  O   UNL     1       8.269   8.123  -1.356  1.00  0.00    -0.504 OA
ATOM    141  H   UNL     1       8.585   8.998  -1.465  1.00  0.00     0.293 HD
ENDBRANCH 136 140
BRANCH 137 142
ATOM    142  O   UNL     1       7.808   9.514  -3.649  1.00  0.00    -0.502 OA
ATOM    143  H   UNL     1       7.640  10.000  -4.433  1.00  0.00     0.293 HD
ENDBRANCH 137 142
ENDBRANCH 130 132
ENDBRANCH 129 130
ENDBRANCH  98 129
BRANCH  99 144
ATOM    144  O   UNL     1       1.795   0.475  -1.444  1.00  0.00    -0.455 OA
BRANCH 144 145
ATOM    145  C   UNL     1       2.055   0.675  -0.166  1.00  0.00     0.310 CG0
ATOM    146  O   UNL     1       1.744  -0.035   0.761  1.00  0.00    -0.252 OA
ATOM    147  G   UNL     1       2.810   1.967  -0.330  1.00  0.00     0.000 G0
ENDBRANCH 144 145
ENDBRANCH  99 144
ENDBRANCH  95  96
ENDBRANCH  93  95
ENDBRANCH  83  93
BRANCH  87 148
ATOM    148  O   UNL     1       8.235   5.311   1.823  1.00  0.00    -0.502 OA
ATOM    149  H   UNL     1       8.457   6.124   2.232  1.00  0.00     0.293 HD
ENDBRANCH  87 148
BRANCH  90 150
ATOM    150  O   UNL     1       6.732   7.520   1.761  1.00  0.00    -0.504 OA
ATOM    151  H   UNL     1       6.219   8.304   1.760  1.00  0.00     0.293 HD
ENDBRANCH  90 150
ENDBRANCH  78  80
ENDBRANCH   1  78
TORSDOF 29
