REMARK SMILES CC(C)[NH2+][C@@]1(C(=O)NCCCCCCNC(=O)c2ccc(-c3c4nc(c(-c5ccc(S(=O)(=O)[O-])cc5)c5ccc([nH]5)c(-c5ccc(S(=O)(=O)[O-])cc5)c5nc(c(-c6ccc(S(=O)(=O)[O-])cc6)c6ccc3[nH]6)C=C5)C=C4)cc2)CCC[C@H](SC2CCCCC2)C1
REMARK SMILES IDX 12 1 11 2 10 3 9 4 8 5 6 6 7 7 5 9 78 10 89 11 79 12 81 13
REMARK SMILES IDX 80 14 4 15 2 18 1 19 3 20 82 21 83 22 84 23 88 24 85 25
REMARK SMILES IDX 87 26 86 27 13 28 14 29 15 30 16 31 17 33 18 34 19 35 77 36
REMARK SMILES IDX 20 37 76 38 21 39 22 40 23 41 70 42 24 43 75 44 69 45 71 46
REMARK SMILES IDX 25 47 74 48 68 49 67 50 26 52 56 53 37 54 55 55 38 56 41 57
REMARK SMILES IDX 54 58 72 59 39 60 40 61 53 63 73 64 42 65 27 66 28 67 36 68
REMARK SMILES IDX 29 69 35 70 30 71 31 72 32 73 33 74 34 75 57 76 58 77 66 78
REMARK SMILES IDX 59 79 65 80 60 81 61 82 62 83 63 84 64 85 43 86 44 87 52 88
REMARK SMILES IDX 45 89 51 90 46 91 47 92 48 93 49 94 50 95
REMARK H PARENT 8 8 4 16 4 17 15 32 71 51 41 62
REMARK Flexibility Score: inf
ROOT
ATOM      1  C   UNL     1      -6.016   4.552   5.881  1.00  0.00     0.002 C 
ENDROOT
BRANCH   1   2
ATOM      2  C   UNL     1      -5.713   4.295   4.395  1.00  0.00     0.002 C 
BRANCH   2   3
ATOM      3  C   UNL     1      -4.264   3.916   4.056  1.00  0.00     0.021 C 
BRANCH   3   4
ATOM      4  C   UNL     1      -3.879   2.451   4.271  1.00  0.00     0.116 C 
BRANCH   4   5
ATOM      5  N   UNL     1      -3.811   1.724   3.014  1.00  0.00    -0.351 N 
ATOM      6  C   UNL     1      -2.892   1.540   2.035  1.00  0.00     0.281 C 
ATOM      7  O   UNL     1      -3.351   0.928   1.050  1.00  0.00    -0.268 OA
ATOM      8  H   UNL     1      -4.648   1.241   2.825  1.00  0.00     0.163 HD
BRANCH   6   9
ATOM      9  C   UNL     1      -1.368   2.073   1.978  1.00  0.00     0.176 C 
ATOM     10  C   UNL     1      -0.657   1.997   3.340  1.00  0.00     0.079 C 
ATOM     11  C   UNL     1      -1.420   3.463   1.274  1.00  0.00     0.093 C 
ATOM     12  C   UNL     1      -0.497   3.322   4.073  1.00  0.00     0.008 C 
ATOM     13  C   UNL     1      -0.852   4.723   1.991  1.00  0.00     0.053 C 
ATOM     14  C   UNL     1       0.059   4.389   3.159  1.00  0.00     0.015 C 
BRANCH   9  15
ATOM     15  N   UNL     1      -0.750   1.071   1.040  1.00  0.00    -0.332 N 
ATOM     16  H   UNL     1      -1.044   0.158   1.388  1.00  0.00     0.347 HD
ATOM     17  H   UNL     1      -1.071   1.440   0.146  1.00  0.00     0.347 HD
BRANCH  15  18
ATOM     18  C   UNL     1       0.676   0.937   0.765  1.00  0.00     0.176 C 
ATOM     19  C   UNL     1       0.832  -0.156  -0.306  1.00  0.00     0.075 C 
ATOM     20  C   UNL     1       1.410   2.181   0.272  1.00  0.00     0.075 C 
ENDBRANCH  15  18
ENDBRANCH   9  15
BRANCH  13  21
ATOM     21  S   UNL     1      -2.228   5.962   2.021  1.00  0.00    -0.155 SA
BRANCH  21  22
ATOM     22  C   UNL     1      -2.305   6.954   3.565  1.00  0.00     0.047 C 
ATOM     23  C   UNL     1      -1.336   6.747   4.719  1.00  0.00     0.014 C 
ATOM     24  C   UNL     1      -2.321   8.432   3.132  1.00  0.00     0.014 C 
ATOM     25  C   UNL     1      -1.644   7.664   5.901  1.00  0.00     0.001 C 
ATOM     26  C   UNL     1      -2.616   9.355   4.311  1.00  0.00     0.001 C 
ATOM     27  C   UNL     1      -1.656   9.123   5.471  1.00  0.00     0.000 C 
ENDBRANCH  21  22
ENDBRANCH  13  21
ENDBRANCH   6   9
ENDBRANCH   4   5
ENDBRANCH   3   4
ENDBRANCH   2   3
ENDBRANCH   1   2
BRANCH   1  28
ATOM     28  C   UNL     1      -5.264   5.718   6.548  1.00  0.00     0.021 C 
BRANCH  28  29
ATOM     29  C   UNL     1      -5.614   7.131   6.058  1.00  0.00     0.116 C 
BRANCH  29  30
ATOM     30  N   UNL     1      -6.824   7.657   6.668  1.00  0.00    -0.352 N 
ATOM     31  C   UNL     1      -7.019   8.710   7.535  1.00  0.00     0.251 C 
ATOM     32  H   UNL     1      -7.647   7.178   6.418  1.00  0.00     0.163 HD
ATOM     33  O   UNL     1      -8.129   8.843   8.050  1.00  0.00    -0.269 OA
BRANCH  31  34
ATOM     34  C   UNL     1      -5.947   9.685   7.883  1.00  0.00     0.039 A 
ATOM     35  C   UNL     1      -5.848  10.129   9.207  1.00  0.00     0.014 A 
ATOM     36  C   UNL     1      -5.121  10.270   6.924  1.00  0.00     0.014 A 
ATOM     37  C   UNL     1      -4.901  11.102   9.571  1.00  0.00     0.010 A 
ATOM     38  C   UNL     1      -4.136  11.203   7.298  1.00  0.00     0.010 A 
ATOM     39  C   UNL     1      -4.006  11.637   8.628  1.00  0.00    -0.014 A 
BRANCH  39  40
ATOM     40  C   UNL     1      -2.973  12.650   9.030  1.00  0.00     0.031 A 
ATOM     41  C   UNL     1      -2.963  14.043   8.434  1.00  0.00     0.074 A 
ATOM     42  C   UNL     1      -2.023  12.339   9.941  1.00  0.00     0.049 A 
ATOM     43  N   UNL     1      -2.145  15.040   8.676  1.00  0.00    -0.248 NA
ATOM     44  C   UNL     1      -3.994  14.353   7.432  1.00  0.00     0.031 C 
ATOM     45  C   UNL     1      -1.866  11.038  10.595  1.00  0.00     0.029 A 
ATOM     46  N   UNL     1      -1.011  13.100  10.486  1.00  0.00    -0.354 N 
ATOM     47  C   UNL     1      -2.561  16.089   7.861  1.00  0.00     0.074 A 
ATOM     48  C   UNL     1      -3.668  15.588   7.074  1.00  0.00     0.031 C 
ATOM     49  C   UNL     1      -0.853  11.104  11.476  1.00  0.00     0.029 A 
ATOM     50  C   UNL     1      -0.257  12.436  11.428  1.00  0.00     0.049 A 
ATOM     51  H   UNL     1      -0.843  14.034  10.224  1.00  0.00     0.167 HD
ATOM     52  C   UNL     1      -2.095  17.361   7.784  1.00  0.00     0.031 A 
ATOM     53  C   UNL     1       0.793  12.841  12.174  1.00  0.00     0.031 A 
ATOM     54  C   UNL     1      -1.007  17.892   8.566  1.00  0.00     0.049 A 
ATOM     55  C   UNL     1       1.310  14.252  12.050  1.00  0.00     0.074 A 
ATOM     56  C   UNL     1      -0.492  19.179   8.558  1.00  0.00     0.029 A 
ATOM     57  N   UNL     1      -0.276  17.180   9.500  1.00  0.00    -0.354 N 
ATOM     58  N   UNL     1       0.868  15.230  11.298  1.00  0.00    -0.248 NA
ATOM     59  C   UNL     1       2.463  14.616  12.891  1.00  0.00     0.031 C 
ATOM     60  C   UNL     1       0.573  19.235   9.462  1.00  0.00     0.029 A 
ATOM     61  C   UNL     1       0.688  17.997  10.070  1.00  0.00     0.049 A 
ATOM     62  H   UNL     1      -0.419  16.232   9.727  1.00  0.00     0.167 HD
ATOM     63  C   UNL     1       1.662  16.332  11.607  1.00  0.00     0.074 A 
ATOM     64  C   UNL     1       2.603  15.906  12.619  1.00  0.00     0.031 C 
ATOM     65  C   UNL     1       1.610  17.585  11.095  1.00  0.00     0.031 A 
BRANCH  52  66
ATOM     66  C   UNL     1      -2.782  18.301   6.826  1.00  0.00    -0.014 A 
ATOM     67  C   UNL     1      -4.067  18.798   7.110  1.00  0.00     0.010 A 
ATOM     68  C   UNL     1      -2.110  18.757   5.677  1.00  0.00     0.010 A 
ATOM     69  C   UNL     1      -4.680  19.710   6.248  1.00  0.00     0.020 A 
ATOM     70  C   UNL     1      -2.710  19.691   4.826  1.00  0.00     0.020 A 
ATOM     71  C   UNL     1      -3.998  20.150   5.111  1.00  0.00     0.054 A 
BRANCH  71  72
ATOM     72  S   UNL     1      -4.801  21.366   4.030  1.00  0.00     0.124 S 
ATOM     73  O   UNL     1      -5.824  20.553   3.374  1.00  0.00    -0.237 OA
ATOM     74  O   UNL     1      -5.306  22.356   4.982  1.00  0.00    -0.237 OA
ATOM     75  O   UNL     1      -3.725  21.830   3.165  1.00  0.00    -0.744 OA
ENDBRANCH  71  72
ENDBRANCH  52  66
BRANCH  53  76
ATOM     76  C   UNL     1       1.449  11.901  13.128  1.00  0.00    -0.014 A 
ATOM     77  C   UNL     1       1.357  12.111  14.517  1.00  0.00     0.010 A 
ATOM     78  C   UNL     1       2.220  10.827  12.650  1.00  0.00     0.010 A 
ATOM     79  C   UNL     1       2.061  11.293  15.406  1.00  0.00     0.020 A 
ATOM     80  C   UNL     1       2.900   9.988  13.538  1.00  0.00     0.020 A 
ATOM     81  C   UNL     1       2.834  10.240  14.909  1.00  0.00     0.054 A 
BRANCH  81  82
ATOM     82  S   UNL     1       3.741   9.187  16.076  1.00  0.00     0.124 S 
ATOM     83  O   UNL     1       4.876  10.034  16.428  1.00  0.00    -0.237 OA
ATOM     84  O   UNL     1       2.760   8.967  17.136  1.00  0.00    -0.237 OA
ATOM     85  O   UNL     1       4.063   8.003  15.282  1.00  0.00    -0.744 OA
ENDBRANCH  81  82
ENDBRANCH  53  76
BRANCH  65  86
ATOM     86  C   UNL     1       2.553  18.617  11.660  1.00  0.00    -0.014 A 
ATOM     87  C   UNL     1       3.931  18.587  11.380  1.00  0.00     0.010 A 
ATOM     88  C   UNL     1       2.040  19.664  12.449  1.00  0.00     0.010 A 
ATOM     89  C   UNL     1       4.782  19.564  11.906  1.00  0.00     0.020 A 
ATOM     90  C   UNL     1       2.883  20.658  12.954  1.00  0.00     0.020 A 
ATOM     91  C   UNL     1       4.253  20.593  12.692  1.00  0.00     0.054 A 
BRANCH  91  92
ATOM     92  S   UNL     1       5.371  21.873  13.329  1.00  0.00     0.124 S 
ATOM     93  O   UNL     1       6.059  21.167  14.407  1.00  0.00    -0.237 OA
ATOM     94  O   UNL     1       6.192  22.193  12.164  1.00  0.00    -0.237 OA
ATOM     95  O   UNL     1       4.469  22.939  13.759  1.00  0.00    -0.744 OA
ENDBRANCH  91  92
ENDBRANCH  65  86
ENDBRANCH  39  40
ENDBRANCH  31  34
ENDBRANCH  29  30
ENDBRANCH  28  29
ENDBRANCH   1  28
TORSDOF 20
