REMARK SMILES C[C@@H](Oc1ccc(/C=C2\C(=O)[NH+]=C(NCCCCCCNC(=O)c3ccc(-c4c5nc(c(-c6ccc(S(=O)(=O)[O-])cc6)c6ccc([nH]6)c(-c6ccc(S(=O)(=O)[O-])cc6)c6nc(c(-c7ccc(S(=O)(=O)[O-])cc7)c7ccc4[nH]7)C=C6)C=C5)cc3)N(c3ccc4c(c3)OCO4)C2=O)cc1)C(=O)[O-]
REMARK SMILES IDX 17 1 16 2 15 3 14 4 8 5 9 6 10 7 94 8 11 9 12 10 84 11 95 12
REMARK SMILES IDX 13 13 7 16 4 17 5 18 97 19 6 20 96 21 3 22 2 23 1 24 98 25
REMARK SMILES IDX 99 26 100 27 85 28 86 29 90 30 87 31 89 32 88 33 91 34 93 35
REMARK SMILES IDX 92 36 18 37 19 38 20 39 21 40 22 41 23 43 24 44 25 45 83 46
REMARK SMILES IDX 26 47 82 48 27 49 28 50 29 51 76 52 30 53 81 54 75 55 77 56
REMARK SMILES IDX 31 57 80 58 74 59 73 60 32 62 62 63 43 64 61 65 44 66 47 67
REMARK SMILES IDX 60 68 78 69 45 70 46 71 59 73 79 74 48 75 33 76 34 77 42 78
REMARK SMILES IDX 35 79 41 80 36 81 37 82 38 83 39 84 40 85 63 86 64 87 72 88
REMARK SMILES IDX 65 89 71 90 66 91 67 92 68 93 69 94 70 95 49 96 50 97 58 98
REMARK SMILES IDX 51 99 57 100 52 101 53 102 54 103 55 104 56 105
REMARK H PARENT 12 14 14 15 21 42 77 61 47 72
REMARK Flexibility Score: inf
ROOT
ATOM      1  C   UNL     1       9.537 -10.613  -0.412  1.00  0.00     0.003 C 
ENDROOT
BRANCH   1   2
ATOM      2  C   UNL     1       8.093 -10.121  -0.580  1.00  0.00     0.037 C 
BRANCH   2   3
ATOM      3  C   UNL     1       7.513  -9.461   0.669  1.00  0.00     0.197 C 
BRANCH   3   4
ATOM      4  N   UNL     1       8.279  -8.276   0.994  1.00  0.00    -0.277 N 
ATOM      5  C   UNL     1       6.223  -3.403   1.024  1.00  0.00     0.031 C 
ATOM      6  C   UNL     1       6.887  -4.486   0.582  1.00  0.00     0.138 C 
ATOM      7  C   UNL     1       6.348  -5.556  -0.272  1.00  0.00     0.321 C 
ATOM      8  C   UNL     1       8.293  -4.628   1.002  1.00  0.00     0.328 C 
ATOM      9  O   UNL     1       5.575  -5.333  -1.190  1.00  0.00    -0.250 OA
ATOM     10  N   UNL     1       6.772  -6.808   0.066  1.00  0.00    -0.210 N 
ATOM     11  N   UNL     1       8.741  -5.944   1.010  1.00  0.00    -0.162 N 
ATOM     12  O   UNL     1       8.961  -3.647   1.329  1.00  0.00    -0.249 OA
ATOM     13  C   UNL     1       7.908  -7.000   0.660  1.00  0.00     0.366 C 
ATOM     14  H   UNL     1       6.203  -7.583  -0.147  1.00  0.00     0.270 HD
ATOM     15  H   UNL     1       9.123  -8.394   1.488  1.00  0.00     0.260 HD
BRANCH   5  16
ATOM     16  C   UNL     1       4.812  -3.033   0.848  1.00  0.00    -0.024 A 
ATOM     17  C   UNL     1       2.143  -2.171   0.674  1.00  0.00     0.120 A 
ATOM     18  C   UNL     1       2.434  -3.530   0.733  1.00  0.00     0.047 A 
ATOM     19  C   UNL     1       3.174  -1.240   0.754  1.00  0.00     0.047 A 
ATOM     20  C   UNL     1       3.762  -3.959   0.832  1.00  0.00     0.012 A 
ATOM     21  C   UNL     1       4.500  -1.668   0.826  1.00  0.00     0.012 A 
BRANCH  17  22
ATOM     22  O   UNL     1       0.830  -1.796   0.693  1.00  0.00    -0.485 OA
BRANCH  22  23
ATOM     23  C   UNL     1       0.401  -1.085  -0.475  1.00  0.00     0.216 C 
ATOM     24  C   UNL     1       0.605   0.421  -0.335  1.00  0.00     0.059 C 
BRANCH  23  25
ATOM     25  C   UNL     1      -1.094  -1.325  -0.660  1.00  0.00     0.082 C 
ATOM     26  O   UNL     1      -1.669  -1.467  -1.730  1.00  0.00    -0.546 OA
ATOM     27  O   UNL     1      -1.808  -1.275   0.485  1.00  0.00    -0.546 OA
ENDBRANCH  23  25
ENDBRANCH  22  23
ENDBRANCH  17  22
ENDBRANCH   5  16
BRANCH  11  28
ATOM     28  C   UNL     1      10.064  -6.157   1.476  1.00  0.00     0.115 A 
ATOM     29  C   UNL     1      11.090  -6.466   0.556  1.00  0.00     0.048 A 
ATOM     30  C   UNL     1      10.357  -5.902   2.820  1.00  0.00     0.094 A 
ATOM     31  C   UNL     1      12.428  -6.455   0.967  1.00  0.00     0.054 A 
ATOM     32  C   UNL     1      11.681  -5.886   3.186  1.00  0.00     0.169 A 
ATOM     33  C   UNL     1      12.689  -6.136   2.284  1.00  0.00     0.166 A 
ATOM     34  O   UNL     1      12.154  -5.565   4.420  1.00  0.00    -0.453 OA
ATOM     35  O   UNL     1      13.921  -5.976   2.841  1.00  0.00    -0.454 OA
ATOM     36  C   UNL     1      13.555  -5.415   4.121  1.00  0.00     0.468 C 
ENDBRANCH  11  28
ENDBRANCH   3   4
ENDBRANCH   2   3
ENDBRANCH   1   2
BRANCH   1  37
ATOM     37  C   UNL     1       9.763 -11.582   0.753  1.00  0.00     0.002 C 
BRANCH  37  38
ATOM     38  C   UNL     1       8.861 -12.818   0.752  1.00  0.00     0.021 C 
BRANCH  38  39
ATOM     39  C   UNL     1       8.964 -13.677  -0.503  1.00  0.00     0.116 C 
BRANCH  39  40
ATOM     40  N   UNL     1      10.290 -14.253  -0.664  1.00  0.00    -0.352 N 
ATOM     41  C   UNL     1      10.648 -15.566  -0.845  1.00  0.00     0.251 C 
ATOM     42  H   UNL     1      11.035 -13.611  -0.640  1.00  0.00     0.163 HD
ATOM     43  O   UNL     1      11.828 -15.896  -0.767  1.00  0.00    -0.269 OA
BRANCH  41  44
ATOM     44  C   UNL     1       9.607 -16.582  -1.112  1.00  0.00     0.039 A 
ATOM     45  C   UNL     1       9.660 -17.801  -0.432  1.00  0.00     0.014 A 
ATOM     46  C   UNL     1       8.581 -16.334  -2.028  1.00  0.00     0.014 A 
ATOM     47  C   UNL     1       8.651 -18.747  -0.627  1.00  0.00     0.010 A 
ATOM     48  C   UNL     1       7.536 -17.245  -2.163  1.00  0.00     0.010 A 
ATOM     49  C   UNL     1       7.562 -18.463  -1.468  1.00  0.00    -0.014 A 
BRANCH  49  50
ATOM     50  C   UNL     1       6.442 -19.426  -1.632  1.00  0.00     0.031 A 
ATOM     51  C   UNL     1       6.161 -20.038  -2.979  1.00  0.00     0.074 A 
ATOM     52  C   UNL     1       5.642 -19.705  -0.584  1.00  0.00     0.049 A 
ATOM     53  N   UNL     1       5.197 -20.850  -3.330  1.00  0.00    -0.248 NA
ATOM     54  C   UNL     1       7.067 -19.672  -4.081  1.00  0.00     0.031 C 
ATOM     55  C   UNL     1       5.786 -19.150   0.765  1.00  0.00     0.029 A 
ATOM     56  N   UNL     1       4.542 -20.522  -0.488  1.00  0.00    -0.354 N 
ATOM     57  C   UNL     1       5.371 -21.079  -4.690  1.00  0.00     0.074 A 
ATOM     58  C   UNL     1       6.501 -20.281  -5.112  1.00  0.00     0.031 C 
ATOM     59  C   UNL     1       4.830 -19.663   1.556  1.00  0.00     0.029 A 
ATOM     60  C   UNL     1       3.978 -20.545   0.766  1.00  0.00     0.049 A 
ATOM     61  H   UNL     1       4.190 -21.042  -1.246  1.00  0.00     0.167 HD
ATOM     62  C   UNL     1       4.667 -21.896  -5.511  1.00  0.00     0.031 A 
ATOM     63  C   UNL     1       2.890 -21.194   1.228  1.00  0.00     0.031 A 
ATOM     64  C   UNL     1       3.548 -22.695  -5.086  1.00  0.00     0.049 A 
ATOM     65  C   UNL     1       2.111 -22.077   0.291  1.00  0.00     0.074 A 
ATOM     66  C   UNL     1       2.802 -23.592  -5.830  1.00  0.00     0.029 A 
ATOM     67  N   UNL     1       3.011 -22.692  -3.807  1.00  0.00    -0.354 N 
ATOM     68  N   UNL     1       2.332 -22.331  -0.977  1.00  0.00    -0.248 NA
ATOM     69  C   UNL     1       0.944 -22.772   0.851  1.00  0.00     0.031 C 
ATOM     70  C   UNL     1       1.777 -24.087  -5.017  1.00  0.00     0.029 A 
ATOM     71  C   UNL     1       1.927 -23.552  -3.748  1.00  0.00     0.049 A 
ATOM     72  H   UNL     1       3.350 -22.158  -3.053  1.00  0.00     0.167 HD
ATOM     73  C   UNL     1       1.349 -23.238  -1.358  1.00  0.00     0.074 A 
ATOM     74  C   UNL     1       0.544 -23.500  -0.182  1.00  0.00     0.031 C 
ATOM     75  C   UNL     1       1.135 -23.805  -2.571  1.00  0.00     0.031 A 
BRANCH  62  76
ATOM     76  C   UNL     1       5.085 -21.963  -6.957  1.00  0.00    -0.014 A 
ATOM     77  C   UNL     1       6.300 -22.563  -7.337  1.00  0.00     0.010 A 
ATOM     78  C   UNL     1       4.227 -21.466  -7.957  1.00  0.00     0.010 A 
ATOM     79  C   UNL     1       6.667 -22.629  -8.684  1.00  0.00     0.020 A 
ATOM     80  C   UNL     1       4.577 -21.558  -9.307  1.00  0.00     0.020 A 
ATOM     81  C   UNL     1       5.803 -22.125  -9.661  1.00  0.00     0.054 A 
BRANCH  81  82
ATOM     82  S   UNL     1       6.293 -22.254 -11.402  1.00  0.00     0.124 S 
ATOM     83  O   UNL     1       7.371 -21.271 -11.484  1.00  0.00    -0.237 OA
ATOM     84  O   UNL     1       6.706 -23.650 -11.515  1.00  0.00    -0.237 OA
ATOM     85  O   UNL     1       5.077 -21.905 -12.133  1.00  0.00    -0.744 OA
ENDBRANCH  81  82
ENDBRANCH  62  76
BRANCH  63  86
ATOM     86  C   UNL     1       2.477 -21.038   2.651  1.00  0.00    -0.014 A 
ATOM     87  C   UNL     1       2.585 -22.113   3.550  1.00  0.00     0.010 A 
ATOM     88  C   UNL     1       1.972 -19.809   3.115  1.00  0.00     0.010 A 
ATOM     89  C   UNL     1       2.175 -21.971   4.879  1.00  0.00     0.020 A 
ATOM     90  C   UNL     1       1.591 -19.653   4.451  1.00  0.00     0.020 A 
ATOM     91  C   UNL     1       1.682 -20.741   5.321  1.00  0.00     0.054 A 
BRANCH  91  92
ATOM     92  S   UNL     1       1.196 -20.567   7.061  1.00  0.00     0.124 S 
ATOM     93  O   UNL     1      -0.041 -21.340   7.109  1.00  0.00    -0.237 OA
ATOM     94  O   UNL     1       2.335 -21.149   7.765  1.00  0.00    -0.237 OA
ATOM     95  O   UNL     1       1.040 -19.124   7.230  1.00  0.00    -0.744 OA
ENDBRANCH  91  92
ENDBRANCH  63  86
BRANCH  75  96
ATOM     96  C   UNL     1       0.010 -24.801  -2.685  1.00  0.00    -0.014 A 
ATOM     97  C   UNL     1      -1.336 -24.396  -2.636  1.00  0.00     0.010 A 
ATOM     98  C   UNL     1       0.309 -26.159  -2.902  1.00  0.00     0.010 A 
ATOM     99  C   UNL     1      -2.361 -25.336  -2.771  1.00  0.00     0.020 A 
ATOM    100  C   UNL     1      -0.713 -27.096  -3.069  1.00  0.00     0.020 A 
ATOM    101  C   UNL     1      -2.043 -26.680  -2.988  1.00  0.00     0.054 A 
BRANCH 101 102
ATOM    102  S   UNL     1      -3.393 -27.872  -3.206  1.00  0.00     0.124 S 
ATOM    103  O   UNL     1      -3.926 -27.979  -1.851  1.00  0.00    -0.237 OA
ATOM    104  O   UNL     1      -4.260 -27.201  -4.172  1.00  0.00    -0.237 OA
ATOM    105  O   UNL     1      -2.722 -29.069  -3.707  1.00  0.00    -0.744 OA
ENDBRANCH 101 102
ENDBRANCH  75  96
ENDBRANCH  49  50
ENDBRANCH  41  44
ENDBRANCH  39  40
ENDBRANCH  38  39
ENDBRANCH  37  38
ENDBRANCH   1  37
TORSDOF 20
