REMARK SMILES Cc1c(CC(=O)NCCCCCCNC(=O)c2ccc(-c3c4nc(c(-c5ccc(S(=O)(=O)[O-])cc5)c5ccc([nH]5)c(-c5ccc(S(=O)(=O)[O-])cc5)c5nc(c(-c6ccc(S(=O)(=O)[O-])cc6)c6ccc3[nH]6)C=C5)C=C4)cc2)c(=O)oc2cc(OCc3c(F)cccc3Cl)ccc12
REMARK SMILES IDX 10 1 9 2 8 3 7 4 5 5 6 6 4 8 3 9 1 10 2 11 95 12 77 13 80 14
REMARK SMILES IDX 94 15 78 16 79 17 81 18 93 19 82 20 83 21 84 22 85 23 86 24
REMARK SMILES IDX 91 25 87 26 88 27 90 28 92 29 89 30 11 31 12 32 13 33 14 34
REMARK SMILES IDX 15 35 16 37 17 38 18 39 76 40 19 41 75 42 20 43 21 44 22 45
REMARK SMILES IDX 69 46 23 47 74 48 68 49 70 50 24 51 73 52 67 53 66 54 25 56
REMARK SMILES IDX 55 57 36 58 54 59 37 60 40 61 53 62 71 63 38 64 39 65 52 67
REMARK SMILES IDX 72 68 41 69 26 70 27 71 35 72 28 73 34 74 29 75 30 76 31 77
REMARK SMILES IDX 32 78 33 79 56 80 57 81 65 82 58 83 64 84 59 85 60 86 61 87
REMARK SMILES IDX 62 88 63 89 42 90 43 91 51 92 44 93 50 94 45 95 46 96 47 97
REMARK SMILES IDX 48 98 49 99
REMARK H PARENT 7 7 14 36 70 55 40 66
REMARK Flexibility Score: inf
ROOT
ATOM      1  C   UNL     1      -1.748  -0.904  -4.855  1.00  0.00     0.002 C 
ENDROOT
BRANCH   1   2
ATOM      2  C   UNL     1      -1.870  -0.291  -3.452  1.00  0.00     0.021 C 
BRANCH   2   3
ATOM      3  C   UNL     1      -3.166  -0.650  -2.724  1.00  0.00     0.116 C 
BRANCH   3   4
ATOM      4  N   UNL     1      -3.208  -2.062  -2.402  1.00  0.00    -0.356 N 
ATOM      5  C   UNL     1      -3.110  -2.685  -1.197  1.00  0.00     0.224 C 
ATOM      6  O   UNL     1      -3.114  -3.919  -1.183  1.00  0.00    -0.275 OA
ATOM      7  H   UNL     1      -3.326  -2.662  -3.174  1.00  0.00     0.163 HD
BRANCH   5   8
ATOM      8  C   UNL     1      -3.048  -1.883   0.100  1.00  0.00     0.143 C 
BRANCH   8   9
ATOM      9  C   UNL     1      -1.777  -1.084   0.297  1.00  0.00     0.051 A 
ATOM     10  C   UNL     1      -0.227  -3.071   0.215  1.00  0.00     0.046 C 
ATOM     11  C   UNL     1      -0.527  -1.598   0.322  1.00  0.00    -0.029 A 
ATOM     12  C   UNL     1       0.625  -0.678   0.409  1.00  0.00     0.021 A 
ATOM     13  C   UNL     1      -2.012   0.375   0.503  1.00  0.00     0.340 A 
ATOM     14  C   UNL     1       0.394   0.693   0.489  1.00  0.00     0.142 A 
ATOM     15  C   UNL     1       1.958  -1.097   0.341  1.00  0.00     0.016 A 
ATOM     16  O   UNL     1      -3.143   0.841   0.593  1.00  0.00    -0.246 OA
ATOM     17  O   UNL     1      -0.908   1.203   0.574  1.00  0.00    -0.422 OA
ATOM     18  C   UNL     1       1.421   1.642   0.439  1.00  0.00     0.094 A 
ATOM     19  C   UNL     1       2.996  -0.163   0.276  1.00  0.00     0.047 A 
ATOM     20  C   UNL     1       2.727   1.207   0.263  1.00  0.00     0.123 A 
BRANCH  20  21
ATOM     21  O   UNL     1       3.807   1.981  -0.051  1.00  0.00    -0.489 OA
BRANCH  21  22
ATOM     22  C   UNL     1       3.622   3.360  -0.378  1.00  0.00     0.270 C 
BRANCH  22  23
ATOM     23  C   UNL     1       2.808   3.758  -1.596  1.00  0.00     0.044 A 
ATOM     24  C   UNL     1       2.428   5.111  -1.646  1.00  0.00     0.131 A 
ATOM     25  C   UNL     1       2.418   2.953  -2.676  1.00  0.00     0.050 A 
ATOM     26  F   UNL     1       2.849   5.946  -0.684  1.00  0.00    -0.207 F 
ATOM     27  C   UNL     1       1.628   5.632  -2.660  1.00  0.00     0.040 A 
ATOM     28  C   UNL     1       1.568   3.460  -3.674  1.00  0.00     0.021 A 
ATOM     29  Cl  UNL     1       2.966   1.335  -2.925  1.00  0.00    -0.084 Cl
ATOM     30  C   UNL     1       1.166   4.793  -3.664  1.00  0.00     0.005 A 
ENDBRANCH  22  23
ENDBRANCH  21  22
ENDBRANCH  20  21
ENDBRANCH   8   9
ENDBRANCH   5   8
ENDBRANCH   3   4
ENDBRANCH   2   3
ENDBRANCH   1   2
BRANCH   1  31
ATOM     31  C   UNL     1      -2.892  -0.565  -5.818  1.00  0.00     0.002 C 
BRANCH  31  32
ATOM     32  C   UNL     1      -3.157   0.930  -6.010  1.00  0.00     0.021 C 
BRANCH  32  33
ATOM     33  C   UNL     1      -1.976   1.720  -6.564  1.00  0.00     0.116 C 
BRANCH  33  34
ATOM     34  N   UNL     1      -1.617   1.295  -7.908  1.00  0.00    -0.352 N 
ATOM     35  C   UNL     1      -1.486   2.044  -9.052  1.00  0.00     0.251 C 
ATOM     36  H   UNL     1      -1.442   0.332  -8.013  1.00  0.00     0.163 HD
ATOM     37  O   UNL     1      -1.376   1.488 -10.139  1.00  0.00    -0.269 OA
BRANCH  35  38
ATOM     38  C   UNL     1      -1.497   3.521  -8.971  1.00  0.00     0.039 A 
ATOM     39  C   UNL     1      -2.250   4.244  -9.899  1.00  0.00     0.014 A 
ATOM     40  C   UNL     1      -0.760   4.192  -7.990  1.00  0.00     0.014 A 
ATOM     41  C   UNL     1      -2.310   5.636  -9.807  1.00  0.00     0.010 A 
ATOM     42  C   UNL     1      -0.879   5.573  -7.856  1.00  0.00     0.010 A 
ATOM     43  C   UNL     1      -1.652   6.311  -8.765  1.00  0.00    -0.014 A 
BRANCH  43  44
ATOM     44  C   UNL     1      -1.766   7.784  -8.611  1.00  0.00     0.031 A 
ATOM     45  C   UNL     1      -0.548   8.659  -8.743  1.00  0.00     0.074 A 
ATOM     46  C   UNL     1      -2.958   8.330  -8.298  1.00  0.00     0.049 A 
ATOM     47  N   UNL     1      -0.447   9.956  -8.601  1.00  0.00    -0.248 NA
ATOM     48  C   UNL     1       0.726   7.988  -9.048  1.00  0.00     0.031 C 
ATOM     49  C   UNL     1      -4.205   7.587  -8.101  1.00  0.00     0.029 A 
ATOM     50  N   UNL     1      -3.317   9.638  -8.088  1.00  0.00    -0.354 N 
ATOM     51  C   UNL     1       0.898  10.254  -8.786  1.00  0.00     0.074 A 
ATOM     52  C   UNL     1       1.583   8.997  -8.996  1.00  0.00     0.031 C 
ATOM     53  C   UNL     1      -5.196   8.452  -7.830  1.00  0.00     0.029 A 
ATOM     54  C   UNL     1      -4.650   9.805  -7.792  1.00  0.00     0.049 A 
ATOM     55  H   UNL     1      -2.680  10.387  -8.143  1.00  0.00     0.167 HD
ATOM     56  C   UNL     1       1.506  11.465  -8.802  1.00  0.00     0.031 A 
ATOM     57  C   UNL     1      -5.356  10.920  -7.517  1.00  0.00     0.031 A 
ATOM     58  C   UNL     1       0.819  12.714  -8.606  1.00  0.00     0.049 A 
ATOM     59  C   UNL     1      -4.657  12.252  -7.530  1.00  0.00     0.074 A 
ATOM     60  C   UNL     1       1.336  13.997  -8.661  1.00  0.00     0.029 A 
ATOM     61  N   UNL     1      -0.531  12.840  -8.315  1.00  0.00    -0.354 N 
ATOM     62  N   UNL     1      -3.396  12.517  -7.776  1.00  0.00    -0.248 NA
ATOM     63  C   UNL     1      -5.478  13.435  -7.240  1.00  0.00     0.031 C 
ATOM     64  C   UNL     1       0.311  14.895  -8.348  1.00  0.00     0.029 A 
ATOM     65  C   UNL     1      -0.859  14.176  -8.160  1.00  0.00     0.049 A 
ATOM     66  H   UNL     1      -1.163  12.089  -8.232  1.00  0.00     0.167 HD
ATOM     67  C   UNL     1      -3.279  13.901  -7.696  1.00  0.00     0.074 A 
ATOM     68  C   UNL     1      -4.599  14.416  -7.396  1.00  0.00     0.031 C 
ATOM     69  C   UNL     1      -2.178  14.675  -7.859  1.00  0.00     0.031 A 
BRANCH  56  70
ATOM     70  C   UNL     1       2.994  11.495  -9.036  1.00  0.00    -0.014 A 
ATOM     71  C   UNL     1       3.541  11.161 -10.289  1.00  0.00     0.010 A 
ATOM     72  C   UNL     1       3.856  11.904  -8.002  1.00  0.00     0.010 A 
ATOM     73  C   UNL     1       4.923  11.192 -10.489  1.00  0.00     0.020 A 
ATOM     74  C   UNL     1       5.238  11.965  -8.207  1.00  0.00     0.020 A 
ATOM     75  C   UNL     1       5.764  11.591  -9.445  1.00  0.00     0.054 A 
BRANCH  75  76
ATOM     76  S   UNL     1       7.553  11.640  -9.741  1.00  0.00     0.124 S 
ATOM     77  O   UNL     1       7.888  10.219  -9.782  1.00  0.00    -0.237 OA
ATOM     78  O   UNL     1       7.647  12.344 -11.017  1.00  0.00    -0.237 OA
ATOM     79  O   UNL     1       8.075  12.370  -8.589  1.00  0.00    -0.744 OA
ENDBRANCH  75  76
ENDBRANCH  56  70
BRANCH  57  80
ATOM     80  C   UNL     1      -6.812  10.823  -7.221  1.00  0.00    -0.014 A 
ATOM     81  C   UNL     1      -7.761  11.310  -8.137  1.00  0.00     0.010 A 
ATOM     82  C   UNL     1      -7.258  10.231  -6.026  1.00  0.00     0.010 A 
ATOM     83  C   UNL     1      -9.128  11.224  -7.855  1.00  0.00     0.020 A 
ATOM     84  C   UNL     1      -8.624  10.116  -5.753  1.00  0.00     0.020 A 
ATOM     85  C   UNL     1      -9.550  10.625  -6.665  1.00  0.00     0.054 A 
BRANCH  85  86
ATOM     86  S   UNL     1     -11.330  10.478  -6.343  1.00  0.00     0.124 S 
ATOM     87  O   UNL     1     -11.696  11.855  -6.027  1.00  0.00    -0.237 OA
ATOM     88  O   UNL     1     -11.838   9.962  -7.612  1.00  0.00    -0.237 OA
ATOM     89  O   UNL     1     -11.398   9.538  -5.226  1.00  0.00    -0.744 OA
ENDBRANCH  85  86
ENDBRANCH  57  80
BRANCH  69  90
ATOM     90  C   UNL     1      -2.353  16.166  -7.747  1.00  0.00    -0.014 A 
ATOM     91  C   UNL     1      -2.590  16.782  -6.505  1.00  0.00     0.010 A 
ATOM     92  C   UNL     1      -2.221  16.968  -8.896  1.00  0.00     0.010 A 
ATOM     93  C   UNL     1      -2.721  18.171  -6.419  1.00  0.00     0.020 A 
ATOM     94  C   UNL     1      -2.321  18.359  -8.809  1.00  0.00     0.020 A 
ATOM     95  C   UNL     1      -2.584  18.950  -7.572  1.00  0.00     0.054 A 
BRANCH  95  96
ATOM     96  S   UNL     1      -2.709  20.754  -7.425  1.00  0.00     0.124 S 
ATOM     97  O   UNL     1      -4.141  20.943  -7.210  1.00  0.00    -0.237 OA
ATOM     98  O   UNL     1      -1.857  21.041  -6.274  1.00  0.00    -0.237 OA
ATOM     99  O   UNL     1      -2.201  21.242  -8.706  1.00  0.00    -0.744 OA
ENDBRANCH  95  96
ENDBRANCH  69  90
ENDBRANCH  43  44
ENDBRANCH  35  38
ENDBRANCH  33  34
ENDBRANCH  32  33
ENDBRANCH  31  32
ENDBRANCH   1  31
TORSDOF 20
