REMARK SMILES CC[C@H](C)[C@H](NC(=O)[C@H](C)Oc1ccc2c(C)c(C)c(=O)oc2c1C)C(=O)NCCCCCCNC(=O)c1ccc(-c2c3nc(c(-c4ccc(S(=O)(=O)[O-])cc4)c4ccc([nH]4)c(-c4ccc(S(=O)(=O)[O-])cc4)c4nc(c(-c5ccc(S(=O)(=O)[O-])cc5)c5ccc2[nH]5)C=C4)C=C3)cc1
REMARK SMILES IDX 31 1 30 2 29 3 28 4 26 5 27 6 5 8 3 9 4 10 2 11 1 12 6 13
REMARK SMILES IDX 7 14 8 16 9 17 10 18 11 19 12 20 13 21 24 22 14 23 23 24
REMARK SMILES IDX 25 25 15 26 22 27 16 28 20 29 17 30 18 31 21 32 19 33 32 34
REMARK SMILES IDX 33 35 34 36 35 37 36 38 37 40 38 41 39 42 97 43 40 44 96 45
REMARK SMILES IDX 41 46 42 47 43 48 90 49 44 50 95 51 89 52 91 53 45 54 94 55
REMARK SMILES IDX 88 56 87 57 46 59 76 60 57 61 75 62 58 63 61 64 74 65 92 66
REMARK SMILES IDX 59 67 60 68 73 70 93 71 62 72 47 73 48 74 56 75 49 76 55 77
REMARK SMILES IDX 50 78 51 79 52 80 53 81 54 82 77 83 78 84 86 85 79 86 85 87
REMARK SMILES IDX 80 88 81 89 82 90 83 91 84 92 63 93 64 94 72 95 65 96 71 97
REMARK SMILES IDX 66 98 67 99 68 100 69 101 70 102
REMARK H PARENT 28 7 6 15 35 39 91 58 61 69
REMARK Flexibility Score: inf
ROOT
ATOM      1  C   UNL     1      -0.811   3.849  -2.843  1.00  0.00     0.002 C 
ENDROOT
BRANCH   1   2
ATOM      2  C   UNL     1       0.592   3.664  -2.256  1.00  0.00     0.021 C 
BRANCH   2   3
ATOM      3  C   UNL     1       1.587   2.993  -3.193  1.00  0.00     0.116 C 
BRANCH   3   4
ATOM      4  N   UNL     1       2.346   3.899  -4.034  1.00  0.00    -0.354 N 
ATOM      5  C   UNL     1       3.479   3.653  -4.772  1.00  0.00     0.242 C 
ATOM      6  O   UNL     1       3.781   4.483  -5.636  1.00  0.00    -0.273 OA
ATOM      7  H   UNL     1       2.001   4.819  -4.084  1.00  0.00     0.163 HD
BRANCH   5   8
ATOM      8  C   UNL     1       4.282   2.305  -4.647  1.00  0.00     0.174 C 
BRANCH   8   9
ATOM      9  C   UNL     1       3.538   1.234  -5.494  1.00  0.00     0.018 C 
ATOM     10  C   UNL     1       4.528   0.614  -6.489  1.00  0.00     0.010 C 
BRANCH   9  11
ATOM     11  C   UNL     1       2.805   0.199  -4.644  1.00  0.00     0.002 C 
ATOM     12  C   UNL     1       1.944  -0.812  -5.371  1.00  0.00     0.004 C 
ENDBRANCH   9  11
ENDBRANCH   8   9
BRANCH   8  13
ATOM     13  N   UNL     1       4.537   2.039  -3.218  1.00  0.00    -0.341 N 
ATOM     14  C   UNL     1       5.144   1.216  -2.348  1.00  0.00     0.261 C 
ATOM     15  H   UNL     1       4.084   2.742  -2.698  1.00  0.00     0.164 HD
ATOM     16  O   UNL     1       5.070   1.681  -1.192  1.00  0.00    -0.271 OA
BRANCH  14  17
ATOM     17  C   UNL     1       5.960  -0.103  -2.541  1.00  0.00     0.258 C 
ATOM     18  C   UNL     1       6.004  -1.041  -3.736  1.00  0.00     0.064 C 
BRANCH  17  19
ATOM     19  O   UNL     1       5.963  -0.908  -1.337  1.00  0.00    -0.480 OA
BRANCH  19  20
ATOM     20  C   UNL     1       4.813  -1.413  -0.794  1.00  0.00     0.127 A 
ATOM     21  C   UNL     1       3.620  -1.605  -1.483  1.00  0.00     0.047 A 
ATOM     22  C   UNL     1       4.870  -1.806   0.550  1.00  0.00     0.035 A 
ATOM     23  C   UNL     1       2.487  -2.155  -0.871  1.00  0.00     0.016 A 
ATOM     24  C   UNL     1       3.710  -2.340   1.155  1.00  0.00     0.145 A 
ATOM     25  C   UNL     1       6.128  -1.667   1.362  1.00  0.00     0.052 C 
ATOM     26  C   UNL     1       2.516  -2.538   0.468  1.00  0.00     0.021 A 
ATOM     27  O   UNL     1       3.789  -2.657   2.525  1.00  0.00    -0.422 OA
ATOM     28  C   UNL     1       1.366  -3.142   1.161  1.00  0.00    -0.030 A 
ATOM     29  C   UNL     1       2.682  -3.062   3.255  1.00  0.00     0.339 A 
ATOM     30  C   UNL     1       0.160  -3.502   0.333  1.00  0.00     0.045 C 
ATOM     31  C   UNL     1       1.442  -3.366   2.490  1.00  0.00     0.038 A 
ATOM     32  O   UNL     1       2.751  -3.179   4.473  1.00  0.00    -0.246 OA
ATOM     33  C   UNL     1       0.299  -3.926   3.297  1.00  0.00     0.052 C 
ENDBRANCH  19  20
ENDBRANCH  17  19
ENDBRANCH  14  17
ENDBRANCH   8  13
ENDBRANCH   5   8
ENDBRANCH   3   4
ENDBRANCH   2   3
ENDBRANCH   1   2
BRANCH   1  34
ATOM     34  C   UNL     1      -1.515   2.580  -3.351  1.00  0.00     0.002 C 
BRANCH  34  35
ATOM     35  C   UNL     1      -1.554   1.388  -2.391  1.00  0.00     0.021 C 
BRANCH  35  36
ATOM     36  C   UNL     1      -2.099   1.685  -0.998  1.00  0.00     0.116 C 
BRANCH  36  37
ATOM     37  N   UNL     1      -3.435   2.257  -1.033  1.00  0.00    -0.352 N 
ATOM     38  C   UNL     1      -4.588   1.800  -0.450  1.00  0.00     0.251 C 
ATOM     39  H   UNL     1      -3.524   3.090  -1.549  1.00  0.00     0.163 HD
ATOM     40  O   UNL     1      -5.665   2.331  -0.705  1.00  0.00    -0.269 OA
BRANCH  38  41
ATOM     41  C   UNL     1      -4.527   0.645   0.466  1.00  0.00     0.039 A 
ATOM     42  C   UNL     1      -5.388  -0.433   0.249  1.00  0.00     0.014 A 
ATOM     43  C   UNL     1      -3.616   0.627   1.528  1.00  0.00     0.014 A 
ATOM     44  C   UNL     1      -5.305  -1.554   1.073  1.00  0.00     0.010 A 
ATOM     45  C   UNL     1      -3.493  -0.517   2.310  1.00  0.00     0.010 A 
ATOM     46  C   UNL     1      -4.347  -1.611   2.098  1.00  0.00    -0.014 A 
BRANCH  46  47
ATOM     47  C   UNL     1      -4.268  -2.790   2.991  1.00  0.00     0.031 A 
ATOM     48  C   UNL     1      -4.669  -2.656   4.434  1.00  0.00     0.074 A 
ATOM     49  C   UNL     1      -3.826  -3.970   2.515  1.00  0.00     0.049 A 
ATOM     50  N   UNL     1      -4.686  -3.571   5.366  1.00  0.00    -0.248 NA
ATOM     51  C   UNL     1      -5.104  -1.324   4.890  1.00  0.00     0.031 C 
ATOM     52  C   UNL     1      -3.401  -4.222   1.137  1.00  0.00     0.029 A 
ATOM     53  N   UNL     1      -3.654  -5.180   3.141  1.00  0.00    -0.354 N 
ATOM     54  C   UNL     1      -5.145  -2.932   6.510  1.00  0.00     0.074 A 
ATOM     55  C   UNL     1      -5.335  -1.539   6.177  1.00  0.00     0.031 C 
ATOM     56  C   UNL     1      -3.019  -5.505   1.022  1.00  0.00     0.029 A 
ATOM     57  C   UNL     1      -3.154  -6.162   2.319  1.00  0.00     0.049 A 
ATOM     58  H   UNL     1      -3.868  -5.330   4.090  1.00  0.00     0.167 HD
ATOM     59  C   UNL     1      -5.422  -3.467   7.720  1.00  0.00     0.031 A 
ATOM     60  C   UNL     1      -2.837  -7.446   2.577  1.00  0.00     0.031 A 
ATOM     61  C   UNL     1      -5.256  -4.856   8.043  1.00  0.00     0.049 A 
ATOM     62  C   UNL     1      -3.099  -8.007   3.946  1.00  0.00     0.074 A 
ATOM     63  C   UNL     1      -5.579  -5.503   9.221  1.00  0.00     0.029 A 
ATOM     64  N   UNL     1      -4.718  -5.806   7.191  1.00  0.00    -0.354 N 
ATOM     65  N   UNL     1      -3.609  -7.402   4.991  1.00  0.00    -0.248 NA
ATOM     66  C   UNL     1      -2.766  -9.421   4.168  1.00  0.00     0.031 C 
ATOM     67  C   UNL     1      -5.190  -6.839   9.100  1.00  0.00     0.029 A 
ATOM     68  C   UNL     1      -4.669  -7.031   7.829  1.00  0.00     0.049 A 
ATOM     69  H   UNL     1      -4.416  -5.635   6.270  1.00  0.00     0.167 HD
ATOM     70  C   UNL     1      -3.683  -8.368   5.988  1.00  0.00     0.074 A 
ATOM     71  C   UNL     1      -3.164  -9.596   5.423  1.00  0.00     0.031 C 
ATOM     72  C   UNL     1      -4.150  -8.245   7.253  1.00  0.00     0.031 A 
BRANCH  59  73
ATOM     73  C   UNL     1      -5.965  -2.557   8.783  1.00  0.00    -0.014 A 
ATOM     74  C   UNL     1      -7.300  -2.118   8.733  1.00  0.00     0.010 A 
ATOM     75  C   UNL     1      -5.165  -2.212   9.887  1.00  0.00     0.010 A 
ATOM     76  C   UNL     1      -7.824  -1.340   9.767  1.00  0.00     0.020 A 
ATOM     77  C   UNL     1      -5.693  -1.450  10.933  1.00  0.00     0.020 A 
ATOM     78  C   UNL     1      -7.020  -1.020  10.865  1.00  0.00     0.054 A 
BRANCH  78  79
ATOM     79  S   UNL     1      -7.750  -0.050  12.212  1.00  0.00     0.124 S 
ATOM     80  O   UNL     1      -8.135   1.183  11.528  1.00  0.00    -0.237 OA
ATOM     81  O   UNL     1      -8.856  -0.899  12.645  1.00  0.00    -0.237 OA
ATOM     82  O   UNL     1      -6.659   0.091  13.173  1.00  0.00    -0.744 OA
ENDBRANCH  78  79
ENDBRANCH  59  73
BRANCH  60  83
ATOM     83  C   UNL     1      -2.257  -8.285   1.496  1.00  0.00    -0.014 A 
ATOM     84  C   UNL     1      -3.047  -9.233   0.825  1.00  0.00     0.010 A 
ATOM     85  C   UNL     1      -0.921  -8.097   1.097  1.00  0.00     0.010 A 
ATOM     86  C   UNL     1      -2.514  -9.974  -0.234  1.00  0.00     0.020 A 
ATOM     87  C   UNL     1      -0.389  -8.824   0.028  1.00  0.00     0.020 A 
ATOM     88  C   UNL     1      -1.191  -9.755  -0.634  1.00  0.00     0.054 A 
BRANCH  88  89
ATOM     89  S   UNL     1      -0.550 -10.682  -2.055  1.00  0.00     0.124 S 
ATOM     90  O   UNL     1      -0.690 -12.066  -1.611  1.00  0.00    -0.237 OA
ATOM     91  O   UNL     1      -1.454 -10.265  -3.124  1.00  0.00    -0.237 OA
ATOM     92  O   UNL     1       0.825 -10.204  -2.187  1.00  0.00    -0.744 OA
ENDBRANCH  88  89
ENDBRANCH  60  83
BRANCH  72  93
ATOM     93  C   UNL     1      -4.141  -9.459   8.138  1.00  0.00    -0.014 A 
ATOM     94  C   UNL     1      -2.958  -9.866   8.777  1.00  0.00     0.010 A 
ATOM     95  C   UNL     1      -5.356 -10.090   8.462  1.00  0.00     0.010 A 
ATOM     96  C   UNL     1      -2.994 -10.877   9.740  1.00  0.00     0.020 A 
ATOM     97  C   UNL     1      -5.398 -11.087   9.438  1.00  0.00     0.020 A 
ATOM     98  C   UNL     1      -4.216 -11.468  10.077  1.00  0.00     0.054 A 
BRANCH  98  99
ATOM     99  S   UNL     1      -4.242 -12.707  11.402  1.00  0.00     0.124 S 
ATOM    100  O   UNL     1      -3.362 -13.745  10.871  1.00  0.00    -0.237 OA
ATOM    101  O   UNL     1      -3.716 -11.958  12.540  1.00  0.00    -0.237 OA
ATOM    102  O   UNL     1      -5.651 -13.082  11.503  1.00  0.00    -0.744 OA
ENDBRANCH  98  99
ENDBRANCH  72  93
ENDBRANCH  46  47
ENDBRANCH  38  41
ENDBRANCH  36  37
ENDBRANCH  35  36
ENDBRANCH  34  35
ENDBRANCH   1  34
TORSDOF 22
