REMARK SMILES CS(=O)(=O)c1ccc(N2N=C(C(=O)NCCCCCCNC(=O)c3ccc(-c4c5nc(c(-c6ccc(S(=O)(=O)[O-])cc6)c6ccc([nH]6)c(-c6ccc(S(=O)(=O)[O-])cc6)c6nc(c(-c7ccc(S(=O)(=O)[O-])cc7)c7ccc4[nH]7)C=C6)C=C5)cc3)C[C@H]2c2cccs2)cc1
REMARK SMILES IDX 18 1 17 2 16 3 15 4 14 5 12 6 13 7 11 9 9 10 10 11 85 12
REMARK SMILES IDX 84 13 8 14 5 15 6 16 92 17 7 18 91 19 2 20 1 21 3 22 4 23
REMARK SMILES IDX 86 24 87 25 90 26 88 27 89 28 19 29 20 30 21 31 22 32 23 34
REMARK SMILES IDX 24 35 25 36 83 37 26 38 82 39 27 40 28 41 29 42 76 43 30 44
REMARK SMILES IDX 81 45 75 46 77 47 31 48 80 49 74 50 73 51 32 53 62 54 43 55
REMARK SMILES IDX 61 56 44 57 47 58 60 59 78 60 45 61 46 62 59 64 79 65 48 66
REMARK SMILES IDX 33 67 34 68 42 69 35 70 41 71 36 72 37 73 38 74 39 75 40 76
REMARK SMILES IDX 63 77 64 78 72 79 65 80 71 81 66 82 67 83 68 84 69 85 70 86
REMARK SMILES IDX 49 87 50 88 58 89 51 90 57 91 52 92 53 93 54 94 55 95 56 96
REMARK H PARENT 14 8 21 33 77 52 47 63
REMARK Flexibility Score: inf
ROOT
ATOM      1  C   UNL     1       3.574  12.188  -7.996  1.00  0.00     0.002 C 
ENDROOT
BRANCH   1   2
ATOM      2  C   UNL     1       4.489  10.973  -8.181  1.00  0.00     0.002 C 
BRANCH   2   3
ATOM      3  C   UNL     1       4.603  10.059  -6.963  1.00  0.00     0.021 C 
BRANCH   3   4
ATOM      4  C   UNL     1       3.272   9.522  -6.454  1.00  0.00     0.116 C 
BRANCH   4   5
ATOM      5  N   UNL     1       2.770   8.457  -7.299  1.00  0.00    -0.351 N 
ATOM      6  C   UNL     1       2.401   7.155  -7.076  1.00  0.00     0.267 C 
ATOM      7  O   UNL     1       2.084   6.479  -8.052  1.00  0.00    -0.268 OA
ATOM      8  H   UNL     1       2.671   8.729  -8.240  1.00  0.00     0.163 HD
BRANCH   6   9
ATOM      9  C   UNL     1       2.318   6.521  -5.694  1.00  0.00     0.128 C 
ATOM     10  N   UNL     1       1.774   5.109  -4.199  1.00  0.00    -0.256 N 
ATOM     11  N   UNL     1       1.866   5.312  -5.537  1.00  0.00    -0.171 NA
ATOM     12  C   UNL     1       2.267   6.215  -3.379  1.00  0.00     0.154 C 
ATOM     13  C   UNL     1       2.739   7.210  -4.439  1.00  0.00     0.097 C 
BRANCH  10  14
ATOM     14  C   UNL     1       1.456   3.862  -3.686  1.00  0.00     0.060 A 
ATOM     15  C   UNL     1       0.841   1.389  -2.520  1.00  0.00     0.067 A 
ATOM     16  C   UNL     1       1.962   1.503  -3.345  1.00  0.00     0.022 A 
ATOM     17  C   UNL     1      -0.004   2.478  -2.313  1.00  0.00     0.022 A 
ATOM     18  C   UNL     1       2.260   2.740  -3.929  1.00  0.00     0.029 A 
ATOM     19  C   UNL     1       0.309   3.702  -2.898  1.00  0.00     0.029 A 
BRANCH  15  20
ATOM     20  S   UNL     1       0.444  -0.153  -1.740  1.00  0.00     0.175 S 
ATOM     21  C   UNL     1       1.073   0.058  -0.094  1.00  0.00     0.163 C 
ATOM     22  O   UNL     1       1.220  -1.197  -2.385  1.00  0.00    -0.224 OA
ATOM     23  O   UNL     1      -1.001  -0.244  -1.660  1.00  0.00    -0.224 OA
ENDBRANCH  15  20
ENDBRANCH  10  14
BRANCH  12  24
ATOM     24  C   UNL     1       1.312   6.795  -2.346  1.00  0.00     0.030 A 
ATOM     25  C   UNL     1       1.131   6.343  -1.048  1.00  0.00     0.017 A 
ATOM     26  S   UNL     1       0.254   8.109  -2.675  1.00  0.00    -0.147 S 
ATOM     27  C   UNL     1       0.152   7.089  -0.332  1.00  0.00     0.012 A 
ATOM     28  C   UNL     1      -0.363   8.116  -1.086  1.00  0.00     0.065 A 
ENDBRANCH  12  24
ENDBRANCH   6   9
ENDBRANCH   4   5
ENDBRANCH   3   4
ENDBRANCH   2   3
ENDBRANCH   1   2
BRANCH   1  29
ATOM     29  C   UNL     1       3.845  13.031  -6.746  1.00  0.00     0.021 C 
BRANCH  29  30
ATOM     30  C   UNL     1       5.273  13.551  -6.622  1.00  0.00     0.116 C 
BRANCH  30  31
ATOM     31  N   UNL     1       5.642  14.391  -7.747  1.00  0.00    -0.352 N 
ATOM     32  C   UNL     1       6.158  15.661  -7.755  1.00  0.00     0.251 C 
ATOM     33  H   UNL     1       5.501  13.989  -8.634  1.00  0.00     0.163 HD
ATOM     34  O   UNL     1       6.199  16.289  -8.809  1.00  0.00    -0.269 OA
BRANCH  32  35
ATOM     35  C   UNL     1       6.655  16.274  -6.504  1.00  0.00     0.039 A 
ATOM     36  C   UNL     1       6.405  17.630  -6.278  1.00  0.00     0.014 A 
ATOM     37  C   UNL     1       7.400  15.537  -5.578  1.00  0.00     0.014 A 
ATOM     38  C   UNL     1       6.882  18.237  -5.115  1.00  0.00     0.010 A 
ATOM     39  C   UNL     1       7.801  16.123  -4.380  1.00  0.00     0.010 A 
ATOM     40  C   UNL     1       7.570  17.486  -4.148  1.00  0.00    -0.014 A 
BRANCH  40  41
ATOM     41  C   UNL     1       8.084  18.129  -2.911  1.00  0.00     0.031 A 
ATOM     42  C   UNL     1       9.567  18.191  -2.649  1.00  0.00     0.074 A 
ATOM     43  C   UNL     1       7.217  18.641  -2.016  1.00  0.00     0.049 A 
ATOM     44  N   UNL     1      10.203  18.723  -1.636  1.00  0.00    -0.248 NA
ATOM     45  C   UNL     1      10.450  17.553  -3.640  1.00  0.00     0.031 C 
ATOM     46  C   UNL     1       5.757  18.607  -2.135  1.00  0.00     0.029 A 
ATOM     47  N   UNL     1       7.437  19.299  -0.832  1.00  0.00    -0.354 N 
ATOM     48  C   UNL     1      11.553  18.476  -1.863  1.00  0.00     0.074 A 
ATOM     49  C   UNL     1      11.640  17.692  -3.075  1.00  0.00     0.031 C 
ATOM     50  C   UNL     1       5.215  19.253  -1.090  1.00  0.00     0.029 A 
ATOM     51  C   UNL     1       6.284  19.711  -0.207  1.00  0.00     0.049 A 
ATOM     52  H   UNL     1       8.336  19.460  -0.464  1.00  0.00     0.167 HD
ATOM     53  C   UNL     1      12.625  18.884  -1.144  1.00  0.00     0.031 A 
ATOM     54  C   UNL     1       6.105  20.387   0.945  1.00  0.00     0.031 A 
ATOM     55  C   UNL     1      12.535  19.671   0.058  1.00  0.00     0.049 A 
ATOM     56  C   UNL     1       7.312  20.827   1.728  1.00  0.00     0.074 A 
ATOM     57  C   UNL     1      13.562  20.174   0.837  1.00  0.00     0.029 A 
ATOM     58  N   UNL     1      11.349  20.068   0.656  1.00  0.00    -0.354 N 
ATOM     59  N   UNL     1       8.583  20.633   1.465  1.00  0.00    -0.248 NA
ATOM     60  C   UNL     1       7.059  21.596   2.953  1.00  0.00     0.031 C 
ATOM     61  C   UNL     1      12.997  20.826   1.937  1.00  0.00     0.029 A 
ATOM     62  C   UNL     1      11.618  20.794   1.805  1.00  0.00     0.049 A 
ATOM     63  H   UNL     1      10.448  19.865   0.315  1.00  0.00     0.167 HD
ATOM     64  C   UNL     1       9.282  21.291   2.472  1.00  0.00     0.074 A 
ATOM     65  C   UNL     1       8.291  21.899   3.337  1.00  0.00     0.031 C 
ATOM     66  C   UNL     1      10.622  21.389   2.660  1.00  0.00     0.031 A 
BRANCH  53  67
ATOM     67  C   UNL     1      13.992  18.481  -1.639  1.00  0.00    -0.014 A 
ATOM     68  C   UNL     1      14.520  19.003  -2.834  1.00  0.00     0.010 A 
ATOM     69  C   UNL     1      14.777  17.595  -0.878  1.00  0.00     0.010 A 
ATOM     70  C   UNL     1      15.785  18.613  -3.282  1.00  0.00     0.020 A 
ATOM     71  C   UNL     1      16.057  17.228  -1.305  1.00  0.00     0.020 A 
ATOM     72  C   UNL     1      16.546  17.727  -2.514  1.00  0.00     0.054 A 
BRANCH  72  73
ATOM     73  S   UNL     1      18.194  17.257  -3.108  1.00  0.00     0.124 S 
ATOM     74  O   UNL     1      17.870  16.400  -4.246  1.00  0.00    -0.237 OA
ATOM     75  O   UNL     1      18.791  18.547  -3.443  1.00  0.00    -0.237 OA
ATOM     76  O   UNL     1      18.793  16.574  -1.965  1.00  0.00    -0.744 OA
ENDBRANCH  72  73
ENDBRANCH  53  67
BRANCH  54  77
ATOM     77  C   UNL     1       4.728  20.712   1.412  1.00  0.00    -0.014 A 
ATOM     78  C   UNL     1       4.268  22.041   1.422  1.00  0.00     0.010 A 
ATOM     79  C   UNL     1       3.866  19.689   1.846  1.00  0.00     0.010 A 
ATOM     80  C   UNL     1       2.983  22.344   1.883  1.00  0.00     0.020 A 
ATOM     81  C   UNL     1       2.570  19.983   2.277  1.00  0.00     0.020 A 
ATOM     82  C   UNL     1       2.141  21.312   2.305  1.00  0.00     0.054 A 
BRANCH  82  83
ATOM     83  S   UNL     1       0.463  21.722   2.860  1.00  0.00     0.124 S 
ATOM     84  O   UNL     1       0.716  22.362   4.146  1.00  0.00    -0.237 OA
ATOM     85  O   UNL     1      -0.013  22.602   1.795  1.00  0.00    -0.237 OA
ATOM     86  O   UNL     1      -0.201  20.422   2.926  1.00  0.00    -0.744 OA
ENDBRANCH  82  83
ENDBRANCH  54  77
BRANCH  66  87
ATOM     87  C   UNL     1      11.096  22.230   3.818  1.00  0.00    -0.014 A 
ATOM     88  C   UNL     1      10.895  21.831   5.152  1.00  0.00     0.010 A 
ATOM     89  C   UNL     1      11.774  23.436   3.560  1.00  0.00     0.010 A 
ATOM     90  C   UNL     1      11.310  22.652   6.204  1.00  0.00     0.020 A 
ATOM     91  C   UNL     1      12.222  24.241   4.608  1.00  0.00     0.020 A 
ATOM     92  C   UNL     1      11.966  23.856   5.925  1.00  0.00     0.054 A 
BRANCH  92  93
ATOM     93  S   UNL     1      12.496  24.903   7.307  1.00  0.00     0.124 S 
ATOM     94  O   UNL     1      11.227  25.450   7.777  1.00  0.00    -0.237 OA
ATOM     95  O   UNL     1      13.140  23.947   8.204  1.00  0.00    -0.237 OA
ATOM     96  O   UNL     1      13.398  25.869   6.684  1.00  0.00    -0.744 OA
ENDBRANCH  92  93
ENDBRANCH  66  87
ENDBRANCH  40  41
ENDBRANCH  32  35
ENDBRANCH  30  31
ENDBRANCH  29  30
ENDBRANCH   1  29
TORSDOF 19
