REMARK SMILES CCc1cccc(CC)c1N1/C(=[NH+]/C(=O)CCCC(=O)NCCCCCCNC(=O)c2ccc(-c3c4nc(c(-c5ccc(S(=O)(=O)[O-])cc5)c5ccc([nH]5)c(-c5ccc(S(=O)(=O)[O-])cc5)c5nc(c(-c6ccc(S(=O)(=O)[O-])cc6)c6ccc3[nH]6)C=C5)C=C4)cc2)S[C@@H]2CS(=O)(=O)C[C@@H]21
REMARK SMILES IDX 23 1 22 2 21 3 19 4 20 5 18 7 17 8 16 9 14 10 11 11 12 12
REMARK SMILES IDX 98 13 13 14 91 15 92 16 97 17 93 19 94 20 15 21 95 22 96 23
REMARK SMILES IDX 10 24 3 25 4 26 5 27 7 28 6 29 2 30 1 31 8 32 9 33 24 34
REMARK SMILES IDX 25 35 26 36 27 37 28 38 29 39 30 41 31 42 32 43 90 44 33 45
REMARK SMILES IDX 89 46 34 47 35 48 36 49 83 50 37 51 88 52 82 53 84 54 38 55
REMARK SMILES IDX 87 56 81 57 80 58 39 60 69 61 50 62 68 63 51 64 54 65 67 66
REMARK SMILES IDX 85 67 52 68 53 69 66 71 86 72 55 73 40 74 41 75 49 76 42 77
REMARK SMILES IDX 48 78 43 79 44 80 45 81 46 82 47 83 70 84 71 85 79 86 72 87
REMARK SMILES IDX 78 88 73 89 74 90 75 91 76 92 77 93 56 94 57 95 65 96 58 97
REMARK SMILES IDX 64 98 59 99 60 100 61 101 62 102 63 103
REMARK H PARENT 21 6 13 18 28 40 84 59 54 70
REMARK Flexibility Score: inf
ROOT
ATOM      1  C   UNL     1      -4.412   1.613   3.002  1.00  0.00     0.021 C 
ENDROOT
BRANCH   1   2
ATOM      2  C   UNL     1      -3.326   0.542   2.916  1.00  0.00     0.116 C 
BRANCH   2   3
ATOM      3  N   UNL     1      -3.910  -0.733   2.564  1.00  0.00    -0.356 N 
ATOM      4  C   UNL     1      -3.771  -1.450   1.417  1.00  0.00     0.220 C 
ATOM      5  O   UNL     1      -4.440  -2.474   1.275  1.00  0.00    -0.275 OA
ATOM      6  H   UNL     1      -4.489  -1.138   3.249  1.00  0.00     0.163 HD
BRANCH   4   7
ATOM      7  C   UNL     1      -2.759  -1.025   0.375  1.00  0.00     0.100 C 
BRANCH   7   8
ATOM      8  C   UNL     1      -3.217  -0.013  -0.672  1.00  0.00     0.022 C 
BRANCH   8   9
ATOM      9  C   UNL     1      -3.105   1.476  -0.346  1.00  0.00     0.128 C 
BRANCH   9  10
ATOM     10  C   UNL     1      -1.715   2.080  -0.138  1.00  0.00     0.307 C 
ATOM     11  N   UNL     1       1.318   1.096   1.692  1.00  0.00    -0.216 N 
ATOM     12  C   UNL     1       0.267   1.819   1.112  1.00  0.00     0.319 C 
ATOM     13  C   UNL     1       2.603   1.839   1.841  1.00  0.00     0.212 C 
ATOM     14  N   UNL     1      -0.846   1.349   0.645  1.00  0.00    -0.204 N 
ATOM     15  S   UNL     1       0.747   3.530   1.052  1.00  0.00    -0.029 SA
ATOM     16  C   UNL     1       2.497   3.105   0.978  1.00  0.00     0.120 C 
ATOM     17  C   UNL     1       3.847   1.063   1.408  1.00  0.00     0.188 C 
ATOM     18  H   UNL     1      -1.084   0.418   0.861  1.00  0.00     0.316 HD
ATOM     19  C   UNL     1       2.926   2.749  -0.434  1.00  0.00     0.156 C 
ATOM     20  S   UNL     1       4.356   1.737  -0.158  1.00  0.00     0.155 S 
ATOM     21  O   UNL     1      -1.464   3.144  -0.700  1.00  0.00    -0.247 OA
ATOM     22  O   UNL     1       4.402   0.681  -1.148  1.00  0.00    -0.229 OA
ATOM     23  O   UNL     1       5.487   2.605   0.079  1.00  0.00    -0.229 OA
BRANCH  11  24
ATOM     24  C   UNL     1       1.206  -0.148   2.366  1.00  0.00     0.134 A 
ATOM     25  C   UNL     1       1.050  -1.380   1.667  1.00  0.00    -0.001 A 
ATOM     26  C   UNL     1       1.092  -2.598   2.399  1.00  0.00     0.008 A 
ATOM     27  C   UNL     1       1.361  -2.646   3.755  1.00  0.00     0.001 A 
ATOM     28  C   UNL     1       1.378  -0.212   3.797  1.00  0.00    -0.001 A 
ATOM     29  C   UNL     1       1.516  -1.460   4.443  1.00  0.00     0.008 A 
BRANCH  25  30
ATOM     30  C   UNL     1       0.826  -1.633   0.184  1.00  0.00     0.036 C 
ATOM     31  C   UNL     1       1.230  -0.651  -0.889  1.00  0.00     0.009 C 
ENDBRANCH  25  30
BRANCH  28  32
ATOM     32  C   UNL     1       1.455   1.009   4.707  1.00  0.00     0.036 C 
ATOM     33  C   UNL     1       0.595   0.930   5.970  1.00  0.00     0.009 C 
ENDBRANCH  28  32
ENDBRANCH  11  24
ENDBRANCH   9  10
ENDBRANCH   8   9
ENDBRANCH   7   8
ENDBRANCH   4   7
ENDBRANCH   2   3
ENDBRANCH   1   2
BRANCH   1  34
ATOM     34  C   UNL     1      -4.923   1.809   4.426  1.00  0.00     0.002 C 
BRANCH  34  35
ATOM     35  C   UNL     1      -3.877   2.408   5.375  1.00  0.00     0.002 C 
BRANCH  35  36
ATOM     36  C   UNL     1      -3.312   3.763   4.939  1.00  0.00     0.021 C 
BRANCH  36  37
ATOM     37  C   UNL     1      -4.372   4.836   4.710  1.00  0.00     0.116 C 
BRANCH  37  38
ATOM     38  N   UNL     1      -5.176   5.053   5.904  1.00  0.00    -0.352 N 
ATOM     39  C   UNL     1      -5.346   6.204   6.630  1.00  0.00     0.251 C 
ATOM     40  H   UNL     1      -5.665   4.265   6.235  1.00  0.00     0.163 HD
ATOM     41  O   UNL     1      -5.843   6.165   7.750  1.00  0.00    -0.269 OA
BRANCH  39  42
ATOM     42  C   UNL     1      -4.919   7.487   6.042  1.00  0.00     0.039 A 
ATOM     43  C   UNL     1      -4.169   8.381   6.809  1.00  0.00     0.014 A 
ATOM     44  C   UNL     1      -5.259   7.792   4.721  1.00  0.00     0.014 A 
ATOM     45  C   UNL     1      -3.713   9.567   6.230  1.00  0.00     0.010 A 
ATOM     46  C   UNL     1      -4.742   8.935   4.127  1.00  0.00     0.010 A 
ATOM     47  C   UNL     1      -3.975   9.839   4.878  1.00  0.00    -0.014 A 
BRANCH  47  48
ATOM     48  C   UNL     1      -3.502  11.079   4.216  1.00  0.00     0.031 A 
ATOM     49  C   UNL     1      -4.514  12.057   3.683  1.00  0.00     0.074 A 
ATOM     50  C   UNL     1      -2.186  11.274   4.005  1.00  0.00     0.049 A 
ATOM     51  N   UNL     1      -4.329  13.107   2.928  1.00  0.00    -0.248 NA
ATOM     52  C   UNL     1      -5.925  11.797   4.018  1.00  0.00     0.031 C 
ATOM     53  C   UNL     1      -1.112  10.388   4.460  1.00  0.00     0.029 A 
ATOM     54  N   UNL     1      -1.529  12.273   3.332  1.00  0.00    -0.354 N 
ATOM     55  C   UNL     1      -5.598  13.613   2.672  1.00  0.00     0.074 A 
ATOM     56  C   UNL     1      -6.546  12.730   3.313  1.00  0.00     0.031 C 
ATOM     57  C   UNL     1       0.069  10.889   4.061  1.00  0.00     0.029 A 
ATOM     58  C   UNL     1      -0.166  12.099   3.278  1.00  0.00     0.049 A 
ATOM     59  H   UNL     1      -1.991  13.042   2.925  1.00  0.00     0.167 HD
ATOM     60  C   UNL     1      -5.941  14.721   1.975  1.00  0.00     0.031 A 
ATOM     61  C   UNL     1       0.784  12.820   2.650  1.00  0.00     0.031 A 
ATOM     62  C   UNL     1      -4.989  15.601   1.353  1.00  0.00     0.049 A 
ATOM     63  C   UNL     1       0.378  14.037   1.863  1.00  0.00     0.074 A 
ATOM     64  C   UNL     1      -5.228  16.777   0.665  1.00  0.00     0.029 A 
ATOM     65  N   UNL     1      -3.616  15.402   1.347  1.00  0.00    -0.354 N 
ATOM     66  N   UNL     1      -0.823  14.527   1.666  1.00  0.00    -0.248 NA
ATOM     67  C   UNL     1       1.454  14.806   1.220  1.00  0.00     0.031 C 
ATOM     68  C   UNL     1      -4.004  17.261   0.196  1.00  0.00     0.029 A 
ATOM     69  C   UNL     1      -2.996  16.425   0.652  1.00  0.00     0.049 A 
ATOM     70  H   UNL     1      -3.152  14.645   1.773  1.00  0.00     0.167 HD
ATOM     71  C   UNL     1      -0.643  15.684   0.915  1.00  0.00     0.074 A 
ATOM     72  C   UNL     1       0.781  15.819   0.690  1.00  0.00     0.031 C 
ATOM     73  C   UNL     1      -1.573  16.558   0.462  1.00  0.00     0.031 A 
BRANCH  60  74
ATOM     74  C   UNL     1      -7.407  15.037   1.840  1.00  0.00    -0.014 A 
ATOM     75  C   UNL     1      -8.173  15.438   2.950  1.00  0.00     0.010 A 
ATOM     76  C   UNL     1      -8.022  14.967   0.576  1.00  0.00     0.010 A 
ATOM     77  C   UNL     1      -9.534  15.719   2.807  1.00  0.00     0.020 A 
ATOM     78  C   UNL     1      -9.376  15.279   0.423  1.00  0.00     0.020 A 
ATOM     79  C   UNL     1     -10.127  15.635   1.544  1.00  0.00     0.054 A 
BRANCH  79  80
ATOM     80  S   UNL     1     -11.891  16.026   1.387  1.00  0.00     0.124 S 
ATOM     81  O   UNL     1     -12.513  14.870   2.026  1.00  0.00    -0.237 OA
ATOM     82  O   UNL     1     -12.006  17.285   2.119  1.00  0.00    -0.237 OA
ATOM     83  O   UNL     1     -12.097  16.126  -0.056  1.00  0.00    -0.744 OA
ENDBRANCH  79  80
ENDBRANCH  60  74
BRANCH  61  84
ATOM     84  C   UNL     1       2.213  12.412   2.748  1.00  0.00    -0.014 A 
ATOM     85  C   UNL     1       3.126  13.187   3.484  1.00  0.00     0.010 A 
ATOM     86  C   UNL     1       2.666  11.238   2.118  1.00  0.00     0.010 A 
ATOM     87  C   UNL     1       4.468  12.806   3.575  1.00  0.00     0.020 A 
ATOM     88  C   UNL     1       4.000  10.838   2.231  1.00  0.00     0.020 A 
ATOM     89  C   UNL     1       4.896  11.631   2.950  1.00  0.00     0.054 A 
BRANCH  89  90
ATOM     90  S   UNL     1       6.630  11.127   3.128  1.00  0.00     0.124 S 
ATOM     91  O   UNL     1       7.316  12.094   2.277  1.00  0.00    -0.237 OA
ATOM     92  O   UNL     1       6.855  11.274   4.564  1.00  0.00    -0.237 OA
ATOM     93  O   UNL     1       6.636   9.748   2.643  1.00  0.00    -0.744 OA
ENDBRANCH  89  90
ENDBRANCH  61  84
BRANCH  73  94
ATOM     94  C   UNL     1      -1.095  17.788  -0.261  1.00  0.00    -0.014 A 
ATOM     95  C   UNL     1      -0.619  17.727  -1.581  1.00  0.00     0.010 A 
ATOM     96  C   UNL     1      -1.240  19.043   0.361  1.00  0.00     0.010 A 
ATOM     97  C   UNL     1      -0.292  18.902  -2.266  1.00  0.00     0.020 A 
ATOM     98  C   UNL     1      -0.942  20.219  -0.329  1.00  0.00     0.020 A 
ATOM     99  C   UNL     1      -0.465  20.141  -1.639  1.00  0.00     0.054 A 
BRANCH  99 100
ATOM    100  S   UNL     1      -0.127  21.652  -2.582  1.00  0.00     0.124 S 
ATOM    101  O   UNL     1       1.331  21.641  -2.664  1.00  0.00    -0.237 OA
ATOM    102  O   UNL     1      -0.829  21.408  -3.840  1.00  0.00    -0.237 OA
ATOM    103  O   UNL     1      -0.696  22.714  -1.754  1.00  0.00    -0.744 OA
ENDBRANCH  99 100
ENDBRANCH  73  94
ENDBRANCH  47  48
ENDBRANCH  39  42
ENDBRANCH  37  38
ENDBRANCH  36  37
ENDBRANCH  35  36
ENDBRANCH  34  35
ENDBRANCH   1  34
TORSDOF 22
