REMARK SMILES CCC(=O)Nc1ccc(NC(=O)[C@@H]2CC=CC[C@@H]2C(=O)NCCCCCCNC(=O)c2ccc(-c3c4nc(c(-c5ccc(S(=O)(=O)[O-])cc5)c5ccc([nH]5)c(-c5ccc(S(=O)(=O)[O-])cc5)c5nc(c(-c6ccc(S(=O)(=O)[O-])cc6)c6ccc3[nH]6)C=C5)C=C4)cc2)cc1
REMARK SMILES IDX 24 1 23 2 22 3 21 4 19 5 20 6 18 8 13 9 14 10 15 11 17 12
REMARK SMILES IDX 16 13 11 14 10 15 12 17 9 18 6 19 7 20 92 21 8 22 91 23 5 24
REMARK SMILES IDX 3 25 4 26 2 28 1 29 25 30 26 31 27 32 28 33 29 34 30 36
REMARK SMILES IDX 31 37 32 38 90 39 33 40 89 41 34 42 35 43 36 44 83 45 37 46
REMARK SMILES IDX 88 47 82 48 84 49 38 50 87 51 81 52 80 53 39 55 69 56 50 57
REMARK SMILES IDX 68 58 51 59 54 60 67 61 85 62 52 63 53 64 66 66 86 67 55 68
REMARK SMILES IDX 40 69 41 70 49 71 42 72 48 73 43 74 44 75 45 76 46 77 47 78
REMARK SMILES IDX 70 79 71 80 79 81 72 82 78 83 73 84 74 85 75 86 76 87 77 88
REMARK SMILES IDX 56 89 57 90 65 91 58 92 64 93 59 94 60 95 61 96 62 97 63 98
REMARK H PARENT 21 7 10 16 5 27 28 35 84 54 54 65
REMARK Flexibility Score: inf
ROOT
ATOM      1  C   UNL     1       6.699   6.910   1.442  1.00  0.00     0.002 C 
ENDROOT
BRANCH   1   2
ATOM      2  C   UNL     1       6.064   5.581   1.870  1.00  0.00     0.021 C 
BRANCH   2   3
ATOM      3  C   UNL     1       5.934   4.478   0.811  1.00  0.00     0.116 C 
BRANCH   3   4
ATOM      4  N   UNL     1       7.174   4.184   0.112  1.00  0.00    -0.356 N 
ATOM      5  C   UNL     1       7.823   3.015  -0.156  1.00  0.00     0.224 C 
ATOM      6  O   UNL     1       8.678   3.065  -1.046  1.00  0.00    -0.275 OA
ATOM      7  H   UNL     1       7.634   4.982  -0.234  1.00  0.00     0.163 HD
BRANCH   5   8
ATOM      8  C   UNL     1       7.477   1.695   0.543  1.00  0.00     0.095 C 
ATOM      9  C   UNL     1       7.873   1.480   2.028  1.00  0.00     0.095 C 
ATOM     10  C   UNL     1       8.992   0.480   2.388  1.00  0.00     0.041 C 
ATOM     11  C   UNL     1       9.684  -0.176   1.243  1.00  0.00    -0.030 C 
ATOM     12  C   UNL     1       7.901   0.501  -0.352  1.00  0.00     0.041 C 
ATOM     13  C   UNL     1       9.204  -0.148  -0.002  1.00  0.00    -0.030 C 
BRANCH   9  14
ATOM     14  C   UNL     1       8.007   2.677   2.947  1.00  0.00     0.228 C 
ATOM     15  N   UNL     1       9.020   3.583   2.940  1.00  0.00    -0.326 N 
ATOM     16  H   UNL     1       9.127   4.075   3.786  1.00  0.00     0.169 HD
ATOM     17  O   UNL     1       7.132   2.858   3.807  1.00  0.00    -0.274 OA
BRANCH  15  18
ATOM     18  C   UNL     1       9.936   3.942   1.947  1.00  0.00     0.041 A 
ATOM     19  C   UNL     1      11.389   4.921  -0.254  1.00  0.00     0.041 A 
ATOM     20  C   UNL     1      11.513   3.588   0.136  1.00  0.00     0.028 A 
ATOM     21  C   UNL     1      10.535   5.740   0.466  1.00  0.00     0.028 A 
ATOM     22  C   UNL     1      10.781   3.099   1.235  1.00  0.00     0.028 A 
ATOM     23  C   UNL     1       9.904   5.288   1.614  1.00  0.00     0.028 A 
BRANCH  19  24
ATOM     24  N   UNL     1      12.069   5.388  -1.386  1.00  0.00    -0.326 N 
ATOM     25  C   UNL     1      12.458   6.664  -1.704  1.00  0.00     0.224 C 
ATOM     26  O   UNL     1      12.825   6.909  -2.857  1.00  0.00    -0.275 OA
ATOM     27  H   UNL     1      12.303   4.700  -2.050  1.00  0.00     0.169 HD
BRANCH  25  28
ATOM     28  C   UNL     1      12.563   7.733  -0.621  1.00  0.00     0.097 C 
ATOM     29  C   UNL     1      11.476   8.796  -0.683  1.00  0.00     0.014 C 
ENDBRANCH  25  28
ENDBRANCH  19  24
ENDBRANCH  15  18
ENDBRANCH   9  14
ENDBRANCH   5   8
ENDBRANCH   3   4
ENDBRANCH   2   3
ENDBRANCH   1   2
BRANCH   1  30
ATOM     30  C   UNL     1       6.002   7.727   0.362  1.00  0.00     0.002 C 
BRANCH  30  31
ATOM     31  C   UNL     1       4.580   8.173   0.674  1.00  0.00     0.021 C 
BRANCH  31  32
ATOM     32  C   UNL     1       4.381   8.867   2.016  1.00  0.00     0.116 C 
BRANCH  32  33
ATOM     33  N   UNL     1       5.189  10.066   2.186  1.00  0.00    -0.352 N 
ATOM     34  C   UNL     1       4.815  11.278   2.727  1.00  0.00     0.251 C 
ATOM     35  H   UNL     1       6.121  10.004   1.874  1.00  0.00     0.163 HD
ATOM     36  O   UNL     1       5.580  12.228   2.730  1.00  0.00    -0.269 OA
BRANCH  34  37
ATOM     37  C   UNL     1       3.446  11.411   3.271  1.00  0.00     0.039 A 
ATOM     38  C   UNL     1       2.621  12.424   2.781  1.00  0.00     0.014 A 
ATOM     39  C   UNL     1       2.962  10.480   4.195  1.00  0.00     0.014 A 
ATOM     40  C   UNL     1       1.279  12.455   3.164  1.00  0.00     0.010 A 
ATOM     41  C   UNL     1       1.608  10.468   4.513  1.00  0.00     0.010 A 
ATOM     42  C   UNL     1       0.752  11.454   3.999  1.00  0.00    -0.014 A 
BRANCH  42  43
ATOM     43  C   UNL     1      -0.698  11.420   4.313  1.00  0.00     0.031 A 
ATOM     44  C   UNL     1      -1.178  11.621   5.723  1.00  0.00     0.074 A 
ATOM     45  C   UNL     1      -1.582  11.173   3.325  1.00  0.00     0.049 A 
ATOM     46  N   UNL     1      -2.405  11.686   6.173  1.00  0.00    -0.248 NA
ATOM     47  C   UNL     1      -0.149  11.742   6.768  1.00  0.00     0.031 C 
ATOM     48  C   UNL     1      -1.234  10.893   1.929  1.00  0.00     0.029 A 
ATOM     49  N   UNL     1      -2.953  11.129   3.339  1.00  0.00    -0.354 N 
ATOM     50  C   UNL     1      -2.295  11.851   7.548  1.00  0.00     0.074 A 
ATOM     51  C   UNL     1      -0.885  11.812   7.867  1.00  0.00     0.031 C 
ATOM     52  C   UNL     1      -2.362  10.760   1.213  1.00  0.00     0.029 A 
ATOM     53  C   UNL     1      -3.510  10.912   2.101  1.00  0.00     0.049 A 
ATOM     54  H   UNL     1      -3.488  11.242   4.158  1.00  0.00     0.167 HD
ATOM     55  C   UNL     1      -3.277  12.044   8.461  1.00  0.00     0.031 A 
ATOM     56  C   UNL     1      -4.801  10.859   1.718  1.00  0.00     0.031 A 
ATOM     57  C   UNL     1      -4.679  12.077   8.138  1.00  0.00     0.049 A 
ATOM     58  C   UNL     1      -5.875  11.086   2.746  1.00  0.00     0.074 A 
ATOM     59  C   UNL     1      -5.752  12.322   8.977  1.00  0.00     0.029 A 
ATOM     60  N   UNL     1      -5.204  11.849   6.874  1.00  0.00    -0.354 N 
ATOM     61  N   UNL     1      -5.749  11.330   4.029  1.00  0.00    -0.248 NA
ATOM     62  C   UNL     1      -7.263  11.048   2.269  1.00  0.00     0.031 C 
ATOM     63  C   UNL     1      -6.929  12.187   8.231  1.00  0.00     0.029 A 
ATOM     64  C   UNL     1      -6.587  11.919   6.915  1.00  0.00     0.049 A 
ATOM     65  H   UNL     1      -4.672  11.664   6.067  1.00  0.00     0.167 HD
ATOM     66  C   UNL     1      -7.042  11.493   4.511  1.00  0.00     0.074 A 
ATOM     67  C   UNL     1      -7.931  11.344   3.376  1.00  0.00     0.031 C 
ATOM     68  C   UNL     1      -7.457  11.745   5.779  1.00  0.00     0.031 A 
BRANCH  55  69
ATOM     69  C   UNL     1      -2.858  12.225   9.898  1.00  0.00    -0.014 A 
ATOM     70  C   UNL     1      -2.154  13.373  10.311  1.00  0.00     0.010 A 
ATOM     71  C   UNL     1      -3.179  11.243  10.852  1.00  0.00     0.010 A 
ATOM     72  C   UNL     1      -1.732  13.507  11.636  1.00  0.00     0.020 A 
ATOM     73  C   UNL     1      -2.785  11.388  12.186  1.00  0.00     0.020 A 
ATOM     74  C   UNL     1      -2.045  12.510  12.564  1.00  0.00     0.054 A 
BRANCH  74  75
ATOM     75  S   UNL     1      -1.485  12.711  14.278  1.00  0.00     0.124 S 
ATOM     76  O   UNL     1      -0.051  12.457  14.158  1.00  0.00    -0.237 OA
ATOM     77  O   UNL     1      -1.854  14.092  14.576  1.00  0.00    -0.237 OA
ATOM     78  O   UNL     1      -2.238  11.696  15.010  1.00  0.00    -0.744 OA
ENDBRANCH  74  75
ENDBRANCH  55  69
BRANCH  56  79
ATOM     79  C   UNL     1      -5.139  10.627   0.287  1.00  0.00    -0.014 A 
ATOM     80  C   UNL     1      -5.656  11.669  -0.503  1.00  0.00     0.010 A 
ATOM     81  C   UNL     1      -4.911   9.371  -0.304  1.00  0.00     0.010 A 
ATOM     82  C   UNL     1      -5.946  11.458  -1.854  1.00  0.00     0.020 A 
ATOM     83  C   UNL     1      -5.174   9.164  -1.661  1.00  0.00     0.020 A 
ATOM     84  C   UNL     1      -5.697  10.208  -2.426  1.00  0.00     0.054 A 
BRANCH  84  85
ATOM     85  S   UNL     1      -6.010   9.979  -4.199  1.00  0.00     0.124 S 
ATOM     86  O   UNL     1      -7.468   9.941  -4.248  1.00  0.00    -0.237 OA
ATOM     87  O   UNL     1      -5.387  11.163  -4.785  1.00  0.00    -0.237 OA
ATOM     88  O   UNL     1      -5.339   8.717  -4.504  1.00  0.00    -0.744 OA
ENDBRANCH  84  85
ENDBRANCH  56  79
BRANCH  68  89
ATOM     89  C   UNL     1      -8.941  11.885   5.996  1.00  0.00    -0.014 A 
ATOM     90  C   UNL     1      -9.799  10.774   5.907  1.00  0.00     0.010 A 
ATOM     91  C   UNL     1      -9.482  13.143   6.316  1.00  0.00     0.010 A 
ATOM     92  C   UNL     1     -11.176  10.928   6.083  1.00  0.00     0.020 A 
ATOM     93  C   UNL     1     -10.854  13.296   6.525  1.00  0.00     0.020 A 
ATOM     94  C   UNL     1     -11.695  12.191   6.386  1.00  0.00     0.054 A 
BRANCH  94  95
ATOM     95  S   UNL     1     -13.485  12.365   6.621  1.00  0.00     0.124 S 
ATOM     96  O   UNL     1     -13.981  12.281   5.250  1.00  0.00    -0.237 OA
ATOM     97  O   UNL     1     -13.809  11.226   7.478  1.00  0.00    -0.237 OA
ATOM     98  O   UNL     1     -13.625  13.673   7.256  1.00  0.00    -0.744 OA
ENDBRANCH  94  95
ENDBRANCH  68  89
ENDBRANCH  42  43
ENDBRANCH  34  37
ENDBRANCH  32  33
ENDBRANCH  31  32
ENDBRANCH  30  31
ENDBRANCH   1  30
TORSDOF 20
