REMARK SMILES COc1ccc2c(c1)C(=O)N(c1ccccc1C(=O)NCCCCCCNC(=O)c1ccc(-c3c4nc(c(-c5ccc(S(=O)(=O)[O-])cc5)c5ccc([nH]5)c(-c5ccc(S(=O)(=O)[O-])cc5)c5nc(c(-c6ccc(S(=O)(=O)[O-])cc6)c6ccc3[nH]6)C=C5)C=C4)cc1)C2=O
REMARK SMILES IDX 24 1 23 2 22 3 21 4 20 5 18 6 19 7 17 9 12 10 13 11 14 12
REMARK SMILES IDX 16 13 15 14 11 15 3 16 4 17 8 18 5 19 7 20 6 21 9 22 90 23
REMARK SMILES IDX 10 24 91 25 2 26 1 27 25 28 26 29 27 30 28 31 29 33 30 34
REMARK SMILES IDX 31 35 89 36 32 37 88 38 33 39 34 40 35 41 82 42 36 43 87 44
REMARK SMILES IDX 81 45 83 46 37 47 86 48 80 49 79 50 38 52 68 53 49 54 67 55
REMARK SMILES IDX 50 56 53 57 66 58 84 59 51 60 52 61 65 63 85 64 54 65 39 66
REMARK SMILES IDX 40 67 48 68 41 69 47 70 42 71 43 72 44 73 45 74 46 75 69 76
REMARK SMILES IDX 70 77 78 78 71 79 77 80 72 81 73 82 74 83 75 84 76 85 55 86
REMARK SMILES IDX 56 87 64 88 57 89 63 90 58 91 59 92 60 93 61 94 62 95
REMARK H PARENT 20 8 27 32 83 51 53 62
REMARK Flexibility Score: inf
ROOT
ATOM      1  C   UNL     1       2.594  -0.981  -4.248  1.00  0.00     0.002 C 
ENDROOT
BRANCH   1   2
ATOM      2  C   UNL     1       2.654  -0.528  -5.712  1.00  0.00     0.002 C 
BRANCH   2   3
ATOM      3  C   UNL     1       2.518   0.963  -6.042  1.00  0.00     0.021 C 
BRANCH   3   4
ATOM      4  C   UNL     1       3.362   1.972  -5.270  1.00  0.00     0.116 C 
BRANCH   4   5
ATOM      5  N   UNL     1       4.788   1.916  -5.432  1.00  0.00    -0.352 N 
ATOM      6  C   UNL     1       5.755   2.885  -5.261  1.00  0.00     0.253 C 
ATOM      7  O   UNL     1       6.925   2.494  -5.322  1.00  0.00    -0.269 OA
ATOM      8  H   UNL     1       5.135   1.038  -5.711  1.00  0.00     0.163 HD
BRANCH   6   9
ATOM      9  C   UNL     1       5.516   4.369  -5.164  1.00  0.00     0.064 A 
ATOM     10  C   UNL     1       4.505   5.095  -4.500  1.00  0.00     0.065 A 
ATOM     11  C   UNL     1       4.457   6.504  -4.647  1.00  0.00     0.028 A 
ATOM     12  C   UNL     1       5.403   7.205  -5.391  1.00  0.00     0.002 A 
ATOM     13  C   UNL     1       6.463   5.114  -5.916  1.00  0.00     0.016 A 
ATOM     14  C   UNL     1       6.414   6.507  -6.025  1.00  0.00     0.001 A 
BRANCH  10  15
ATOM     15  N   UNL     1       3.502   4.554  -3.668  1.00  0.00    -0.241 N 
ATOM     16  C   UNL     1       0.614   2.159  -1.039  1.00  0.00     0.119 A 
ATOM     17  C   UNL     1      -0.319   2.799  -1.887  1.00  0.00     0.047 A 
ATOM     18  C   UNL     1       1.978   2.468  -1.121  1.00  0.00     0.061 A 
ATOM     19  C   UNL     1       0.086   3.733  -2.839  1.00  0.00     0.018 A 
ATOM     20  C   UNL     1       2.362   3.378  -2.091  1.00  0.00     0.057 A 
ATOM     21  C   UNL     1       1.436   4.000  -2.910  1.00  0.00     0.053 A 
ATOM     22  C   UNL     1       3.702   3.737  -2.582  1.00  0.00     0.266 C 
ATOM     23  C   UNL     1       2.164   4.801  -3.883  1.00  0.00     0.266 C 
ATOM     24  O   UNL     1       4.734   3.328  -2.084  1.00  0.00    -0.268 OA
ATOM     25  O   UNL     1       1.610   5.448  -4.753  1.00  0.00    -0.268 OA
BRANCH  16  26
ATOM     26  O   UNL     1       0.054   1.203  -0.239  1.00  0.00    -0.497 OA
ATOM     27  C   UNL     1       0.926   0.423   0.569  1.00  0.00     0.278 C 
ENDBRANCH  16  26
ENDBRANCH  10  15
ENDBRANCH   6   9
ENDBRANCH   4   5
ENDBRANCH   3   4
ENDBRANCH   2   3
ENDBRANCH   1   2
BRANCH   1  28
ATOM     28  C   UNL     1       1.506  -0.387  -3.352  1.00  0.00     0.021 C 
BRANCH  28  29
ATOM     29  C   UNL     1       0.047  -0.615  -3.740  1.00  0.00     0.116 C 
BRANCH  29  30
ATOM     30  N   UNL     1      -0.399  -1.970  -3.485  1.00  0.00    -0.352 N 
ATOM     31  C   UNL     1      -1.407  -2.470  -2.696  1.00  0.00     0.251 C 
ATOM     32  H   UNL     1       0.115  -2.659  -3.966  1.00  0.00     0.163 HD
ATOM     33  O   UNL     1      -1.462  -3.692  -2.551  1.00  0.00    -0.269 OA
BRANCH  31  34
ATOM     34  C   UNL     1      -2.418  -1.618  -2.001  1.00  0.00     0.039 A 
ATOM     35  C   UNL     1      -2.939  -2.094  -0.789  1.00  0.00     0.014 A 
ATOM     36  C   UNL     1      -2.950  -0.441  -2.535  1.00  0.00     0.014 A 
ATOM     37  C   UNL     1      -3.946  -1.391  -0.112  1.00  0.00     0.010 A 
ATOM     38  C   UNL     1      -3.914   0.297  -1.825  1.00  0.00     0.010 A 
ATOM     39  C   UNL     1      -4.434  -0.173  -0.609  1.00  0.00    -0.014 A 
BRANCH  39  40
ATOM     40  C   UNL     1      -5.474   0.588   0.149  1.00  0.00     0.031 A 
ATOM     41  C   UNL     1      -6.860   0.801  -0.414  1.00  0.00     0.074 A 
ATOM     42  C   UNL     1      -5.182   1.093   1.366  1.00  0.00     0.049 A 
ATOM     43  N   UNL     1      -7.891   1.398   0.134  1.00  0.00    -0.248 NA
ATOM     44  C   UNL     1      -7.119   0.291  -1.769  1.00  0.00     0.031 C 
ATOM     45  C   UNL     1      -3.881   0.996   2.030  1.00  0.00     0.029 A 
ATOM     46  N   UNL     1      -5.963   1.779   2.267  1.00  0.00    -0.354 N 
ATOM     47  C   UNL     1      -8.915   1.342  -0.806  1.00  0.00     0.074 A 
ATOM     48  C   UNL     1      -8.366   0.692  -1.978  1.00  0.00     0.031 C 
ATOM     49  C   UNL     1      -3.963   1.563   3.244  1.00  0.00     0.029 A 
ATOM     50  C   UNL     1      -5.308   2.102   3.434  1.00  0.00     0.049 A 
ATOM     51  H   UNL     1      -6.902   2.017   2.094  1.00  0.00     0.167 HD
ATOM     52  C   UNL     1     -10.197   1.774  -0.705  1.00  0.00     0.031 A 
ATOM     53  C   UNL     1      -5.731   2.756   4.534  1.00  0.00     0.031 A 
ATOM     54  C   UNL     1     -10.757   2.419   0.457  1.00  0.00     0.049 A 
ATOM     55  C   UNL     1      -7.153   3.242   4.616  1.00  0.00     0.074 A 
ATOM     56  C   UNL     1     -12.062   2.840   0.661  1.00  0.00     0.029 A 
ATOM     57  N   UNL     1     -10.053   2.743   1.606  1.00  0.00    -0.354 N 
ATOM     58  N   UNL     1      -8.118   3.118   3.739  1.00  0.00    -0.248 NA
ATOM     59  C   UNL     1      -7.543   3.948   5.846  1.00  0.00     0.031 C 
ATOM     60  C   UNL     1     -12.133   3.469   1.909  1.00  0.00     0.029 A 
ATOM     61  C   UNL     1     -10.887   3.385   2.509  1.00  0.00     0.049 A 
ATOM     62  H   UNL     1      -9.101   2.546   1.759  1.00  0.00     0.167 HD
ATOM     63  C   UNL     1      -9.236   3.711   4.320  1.00  0.00     0.074 A 
ATOM     64  C   UNL     1      -8.832   4.173   5.631  1.00  0.00     0.031 C 
ATOM     65  C   UNL     1     -10.484   3.857   3.809  1.00  0.00     0.031 A 
BRANCH  52  66
ATOM     66  C   UNL     1     -11.099   1.573  -1.897  1.00  0.00    -0.014 A 
ATOM     67  C   UNL     1     -11.552   0.291  -2.259  1.00  0.00     0.010 A 
ATOM     68  C   UNL     1     -11.551   2.688  -2.629  1.00  0.00     0.010 A 
ATOM     69  C   UNL     1     -12.406   0.124  -3.353  1.00  0.00     0.020 A 
ATOM     70  C   UNL     1     -12.427   2.527  -3.707  1.00  0.00     0.020 A 
ATOM     71  C   UNL     1     -12.836   1.243  -4.072  1.00  0.00     0.054 A 
BRANCH  71  72
ATOM     72  S   UNL     1     -13.960   0.998  -5.475  1.00  0.00     0.124 S 
ATOM     73  O   UNL     1     -13.069   0.414  -6.475  1.00  0.00    -0.237 OA
ATOM     74  O   UNL     1     -14.965   0.092  -4.926  1.00  0.00    -0.237 OA
ATOM     75  O   UNL     1     -14.438   2.345  -5.778  1.00  0.00    -0.744 OA
ENDBRANCH  71  72
ENDBRANCH  52  66
BRANCH  53  76
ATOM     76  C   UNL     1      -4.789   2.990   5.664  1.00  0.00    -0.014 A 
ATOM     77  C   UNL     1      -4.951   2.314   6.886  1.00  0.00     0.010 A 
ATOM     78  C   UNL     1      -3.720   3.893   5.519  1.00  0.00     0.010 A 
ATOM     79  C   UNL     1      -4.072   2.549   7.948  1.00  0.00     0.020 A 
ATOM     80  C   UNL     1      -2.822   4.109   6.568  1.00  0.00     0.020 A 
ATOM     81  C   UNL     1      -3.011   3.443   7.780  1.00  0.00     0.054 A 
BRANCH  81  82
ATOM     82  S   UNL     1      -1.849   3.692   9.151  1.00  0.00     0.124 S 
ATOM     83  O   UNL     1      -2.632   4.513  10.068  1.00  0.00    -0.237 OA
ATOM     84  O   UNL     1      -1.584   2.325   9.592  1.00  0.00    -0.237 OA
ATOM     85  O   UNL     1      -0.716   4.364   8.518  1.00  0.00    -0.744 OA
ENDBRANCH  81  82
ENDBRANCH  53  76
BRANCH  65  86
ATOM     86  C   UNL     1     -11.516   4.527   4.680  1.00  0.00    -0.014 A 
ATOM     87  C   UNL     1     -11.455   5.904   4.958  1.00  0.00     0.010 A 
ATOM     88  C   UNL     1     -12.581   3.772   5.206  1.00  0.00     0.010 A 
ATOM     89  C   UNL     1     -12.414   6.505   5.779  1.00  0.00     0.020 A 
ATOM     90  C   UNL     1     -13.558   4.374   6.004  1.00  0.00     0.020 A 
ATOM     91  C   UNL     1     -13.458   5.735   6.301  1.00  0.00     0.054 A 
BRANCH  91  92
ATOM     92  S   UNL     1     -14.702   6.541   7.347  1.00  0.00     0.124 S 
ATOM     93  O   UNL     1     -13.969   6.739   8.595  1.00  0.00    -0.237 OA
ATOM     94  O   UNL     1     -15.010   7.758   6.600  1.00  0.00    -0.237 OA
ATOM     95  O   UNL     1     -15.787   5.565   7.411  1.00  0.00    -0.744 OA
ENDBRANCH  91  92
ENDBRANCH  65  86
ENDBRANCH  39  40
ENDBRANCH  31  34
ENDBRANCH  29  30
ENDBRANCH  28  29
ENDBRANCH   1  28
TORSDOF 18
