REMARK SMILES O=C(N[C@@H]1C=C[C@@H](C(=O)NCCCCCCNC(=O)c2ccc(-c3c4nc(c(-c5ccc(S(=O)(=O)[O-])cc5)c5ccc([nH]5)c(-c5ccc(S(=O)(=O)[O-])cc5)c5nc(c(-c6ccc(S(=O)(=O)[O-])cc6)c6ccc3[nH]6)C=C5)C=C4)cc2)C1)N[C@H]1CCCc2sccc21
REMARK SMILES IDX 14 1 13 2 12 3 11 4 10 5 8 6 9 7 7 9 4 10 5 11 80 12 6 13
REMARK SMILES IDX 3 14 1 15 2 16 81 17 82 20 83 21 90 22 84 23 86 24 89 25
REMARK SMILES IDX 85 26 87 27 88 28 15 29 16 30 17 31 18 32 19 34 20 35 21 36
REMARK SMILES IDX 79 37 22 38 78 39 23 40 24 41 25 42 72 43 26 44 77 45 71 46
REMARK SMILES IDX 73 47 27 48 76 49 70 50 69 51 28 53 58 54 39 55 57 56 40 57
REMARK SMILES IDX 43 58 56 59 74 60 41 61 42 62 55 64 75 65 44 66 29 67 30 68
REMARK SMILES IDX 38 69 31 70 37 71 32 72 33 73 34 74 35 75 36 76 59 77 60 78
REMARK SMILES IDX 68 79 61 80 67 81 62 82 63 83 64 84 65 85 66 86 45 87 46 88
REMARK SMILES IDX 54 89 47 90 53 91 48 92 49 93 50 94 51 95 52 96
REMARK H PARENT 10 8 3 18 81 19 17 33 73 52 43 63
REMARK Flexibility Score: inf
ROOT
ATOM      1  C   UNL     1       1.927   0.665   7.273  1.00  0.00     0.002 C 
ENDROOT
BRANCH   1   2
ATOM      2  C   UNL     1       2.313  -0.660   6.606  1.00  0.00     0.002 C 
BRANCH   2   3
ATOM      3  C   UNL     1       2.585  -0.571   5.101  1.00  0.00     0.021 C 
BRANCH   3   4
ATOM      4  C   UNL     1       3.686   0.419   4.729  1.00  0.00     0.116 C 
BRANCH   4   5
ATOM      5  N   UNL     1       4.993  -0.079   5.104  1.00  0.00    -0.356 N 
ATOM      6  C   UNL     1       6.061  -0.441   4.345  1.00  0.00     0.227 C 
ATOM      7  O   UNL     1       7.071  -0.830   4.943  1.00  0.00    -0.274 OA
ATOM      8  H   UNL     1       5.132  -0.172   6.074  1.00  0.00     0.163 HD
BRANCH   6   9
ATOM      9  C   UNL     1       6.057  -0.368   2.813  1.00  0.00     0.103 C 
ATOM     10  C   UNL     1       4.207  -0.222   1.176  1.00  0.00     0.107 C 
ATOM     11  C   UNL     1       4.894   1.091   1.384  1.00  0.00    -0.006 C 
ATOM     12  C   UNL     1       4.963  -1.186   2.112  1.00  0.00     0.047 C 
ATOM     13  C   UNL     1       5.886   1.019   2.279  1.00  0.00    -0.016 C 
BRANCH  10  14
ATOM     14  N   UNL     1       4.367  -0.587  -0.212  1.00  0.00    -0.332 N 
ATOM     15  O   UNL     1       3.902  -1.029  -2.333  1.00  0.00    -0.249 OA
ATOM     16  C   UNL     1       3.477  -0.732  -1.220  1.00  0.00     0.315 C 
ATOM     17  N   UNL     1       2.166  -0.527  -0.950  1.00  0.00    -0.331 N 
ATOM     18  H   UNL     1       5.299  -0.764  -0.473  1.00  0.00     0.165 HD
ATOM     19  H   UNL     1       1.886  -0.397  -0.015  1.00  0.00     0.166 HD
BRANCH  17  20
ATOM     20  C   UNL     1       1.156  -0.494  -2.002  1.00  0.00     0.115 C 
ATOM     21  C   UNL     1       0.172  -1.686  -1.875  1.00  0.00     0.030 C 
ATOM     22  C   UNL     1       0.492   0.850  -1.896  1.00  0.00    -0.012 A 
ATOM     23  C   UNL     1      -1.326  -1.342  -1.731  1.00  0.00     0.008 C 
ATOM     24  C   UNL     1      -0.767   1.011  -1.359  1.00  0.00     0.010 A 
ATOM     25  C   UNL     1       1.030   2.102  -2.332  1.00  0.00     0.018 A 
ATOM     26  C   UNL     1      -1.600  -0.117  -0.854  1.00  0.00     0.047 C 
ATOM     27  S   UNL     1      -1.296   2.624  -1.373  1.00  0.00    -0.149 S 
ATOM     28  C   UNL     1       0.154   3.145  -2.120  1.00  0.00     0.065 A 
ENDBRANCH  17  20
ENDBRANCH  10  14
ENDBRANCH   6   9
ENDBRANCH   4   5
ENDBRANCH   3   4
ENDBRANCH   2   3
ENDBRANCH   1   2
BRANCH   1  29
ATOM     29  C   UNL     1       0.757   1.404   6.617  1.00  0.00     0.021 C 
BRANCH  29  30
ATOM     30  C   UNL     1      -0.539   0.604   6.549  1.00  0.00     0.116 C 
BRANCH  30  31
ATOM     31  N   UNL     1      -1.045   0.274   7.872  1.00  0.00    -0.352 N 
ATOM     32  C   UNL     1      -2.269   0.553   8.427  1.00  0.00     0.251 C 
ATOM     33  H   UNL     1      -0.421  -0.220   8.452  1.00  0.00     0.163 HD
ATOM     34  O   UNL     1      -2.451   0.386   9.631  1.00  0.00    -0.269 OA
BRANCH  32  35
ATOM     35  C   UNL     1      -3.357   1.076   7.575  1.00  0.00     0.039 A 
ATOM     36  C   UNL     1      -4.102   2.169   8.021  1.00  0.00     0.014 A 
ATOM     37  C   UNL     1      -3.631   0.494   6.334  1.00  0.00     0.014 A 
ATOM     38  C   UNL     1      -5.076   2.725   7.188  1.00  0.00     0.010 A 
ATOM     39  C   UNL     1      -4.551   1.093   5.478  1.00  0.00     0.010 A 
ATOM     40  C   UNL     1      -5.279   2.218   5.894  1.00  0.00    -0.014 A 
BRANCH  40  41
ATOM     41  C   UNL     1      -6.224   2.869   4.950  1.00  0.00     0.031 A 
ATOM     42  C   UNL     1      -7.428   2.122   4.443  1.00  0.00     0.074 A 
ATOM     43  C   UNL     1      -5.957   4.109   4.495  1.00  0.00     0.049 A 
ATOM     44  N   UNL     1      -8.323   2.501   3.567  1.00  0.00    -0.248 NA
ATOM     45  C   UNL     1      -7.644   0.766   4.973  1.00  0.00     0.031 C 
ATOM     46  C   UNL     1      -4.803   4.924   4.884  1.00  0.00     0.029 A 
ATOM     47  N   UNL     1      -6.633   4.901   3.600  1.00  0.00    -0.354 N 
ATOM     48  C   UNL     1      -9.198   1.431   3.432  1.00  0.00     0.074 A 
ATOM     49  C   UNL     1      -8.699   0.368   4.277  1.00  0.00     0.031 C 
ATOM     50  C   UNL     1      -4.867   6.108   4.254  1.00  0.00     0.029 A 
ATOM     51  C   UNL     1      -6.034   6.119   3.378  1.00  0.00     0.049 A 
ATOM     52  H   UNL     1      -7.467   4.623   3.158  1.00  0.00     0.167 HD
ATOM     53  C   UNL     1     -10.326   1.346   2.686  1.00  0.00     0.031 A 
ATOM     54  C   UNL     1      -6.374   7.128   2.552  1.00  0.00     0.031 A 
ATOM     55  C   UNL     1     -10.818   2.407   1.846  1.00  0.00     0.049 A 
ATOM     56  C   UNL     1      -7.608   6.994   1.702  1.00  0.00     0.074 A 
ATOM     57  C   UNL     1     -11.977   2.437   1.091  1.00  0.00     0.029 A 
ATOM     58  N   UNL     1     -10.177   3.620   1.642  1.00  0.00    -0.354 N 
ATOM     59  N   UNL     1      -8.462   6.000   1.643  1.00  0.00    -0.248 NA
ATOM     60  C   UNL     1      -7.928   8.120   0.813  1.00  0.00     0.031 C 
ATOM     61  C   UNL     1     -12.005   3.641   0.380  1.00  0.00     0.029 A 
ATOM     62  C   UNL     1     -10.898   4.391   0.745  1.00  0.00     0.049 A 
ATOM     63  H   UNL     1      -9.334   3.893   2.071  1.00  0.00     0.167 HD
ATOM     64  C   UNL     1      -9.433   6.391   0.727  1.00  0.00     0.074 A 
ATOM     65  C   UNL     1      -9.071   7.719   0.275  1.00  0.00     0.031 C 
ATOM     66  C   UNL     1     -10.525   5.711   0.300  1.00  0.00     0.031 A 
BRANCH  53  67
ATOM     67  C   UNL     1     -11.102   0.055   2.735  1.00  0.00    -0.014 A 
ATOM     68  C   UNL     1     -11.789  -0.338   3.898  1.00  0.00     0.010 A 
ATOM     69  C   UNL     1     -11.187  -0.754   1.586  1.00  0.00     0.010 A 
ATOM     70  C   UNL     1     -12.511  -1.534   3.925  1.00  0.00     0.020 A 
ATOM     71  C   UNL     1     -11.933  -1.936   1.599  1.00  0.00     0.020 A 
ATOM     72  C   UNL     1     -12.577  -2.327   2.775  1.00  0.00     0.054 A 
BRANCH  72  73
ATOM     73  S   UNL     1     -13.539  -3.863   2.834  1.00  0.00     0.124 S 
ATOM     74  O   UNL     1     -12.708  -4.705   3.691  1.00  0.00    -0.237 OA
ATOM     75  O   UNL     1     -14.803  -3.425   3.421  1.00  0.00    -0.237 OA
ATOM     76  O   UNL     1     -13.614  -4.281   1.437  1.00  0.00    -0.744 OA
ENDBRANCH  72  73
ENDBRANCH  53  67
BRANCH  54  77
ATOM     77  C   UNL     1      -5.532   8.356   2.490  1.00  0.00    -0.014 A 
ATOM     78  C   UNL     1      -6.016   9.581   2.982  1.00  0.00     0.010 A 
ATOM     79  C   UNL     1      -4.234   8.303   1.948  1.00  0.00     0.010 A 
ATOM     80  C   UNL     1      -5.227  10.732   2.917  1.00  0.00     0.020 A 
ATOM     81  C   UNL     1      -3.430   9.445   1.910  1.00  0.00     0.020 A 
ATOM     82  C   UNL     1      -3.936  10.656   2.385  1.00  0.00     0.054 A 
BRANCH  82  83
ATOM     83  S   UNL     1      -2.911  12.153   2.359  1.00  0.00     0.124 S 
ATOM     84  O   UNL     1      -3.556  12.945   1.316  1.00  0.00    -0.237 OA
ATOM     85  O   UNL     1      -3.059  12.658   3.721  1.00  0.00    -0.237 OA
ATOM     86  O   UNL     1      -1.579  11.650   2.031  1.00  0.00    -0.744 OA
ENDBRANCH  82  83
ENDBRANCH  54  77
BRANCH  66  87
ATOM     87  C   UNL     1     -11.428   6.395  -0.693  1.00  0.00    -0.014 A 
ATOM     88  C   UNL     1     -11.030   6.588  -2.028  1.00  0.00     0.010 A 
ATOM     89  C   UNL     1     -12.721   6.789  -0.300  1.00  0.00     0.010 A 
ATOM     90  C   UNL     1     -11.901   7.183  -2.945  1.00  0.00     0.020 A 
ATOM     91  C   UNL     1     -13.605   7.355  -1.221  1.00  0.00     0.020 A 
ATOM     92  C   UNL     1     -13.185   7.558  -2.537  1.00  0.00     0.054 A 
BRANCH  92  93
ATOM     93  S   UNL     1     -14.315   8.270  -3.764  1.00  0.00     0.124 S 
ATOM     94  O   UNL     1     -13.730   9.588  -3.988  1.00  0.00    -0.237 OA
ATOM     95  O   UNL     1     -14.204   7.334  -4.881  1.00  0.00    -0.237 OA
ATOM     96  O   UNL     1     -15.609   8.270  -3.086  1.00  0.00    -0.744 OA
ENDBRANCH  92  93
ENDBRANCH  66  87
ENDBRANCH  40  41
ENDBRANCH  32  35
ENDBRANCH  30  31
ENDBRANCH  29  30
ENDBRANCH   1  29
TORSDOF 18
