REMARK SMILES O=C(C[C@H]1c2ccccc2CCN1C(=O)Nc1ccccc1Br)NCCCCCCNC(=O)c1ccc(-c2c3nc(c(-c4ccc(S(=O)(=O)[O-])cc4)c4ccc([nH]4)c(-c4ccc(S(=O)(=O)[O-])cc4)c4nc(c(-c5ccc(S(=O)(=O)[O-])cc5)c5ccc2[nH]5)C=C4)C=C3)cc1
REMARK SMILES IDX 27 1 26 2 25 3 24 4 1 5 2 6 3 8 4 9 5 10 13 11 6 12 10 13
REMARK SMILES IDX 12 14 7 15 9 16 11 17 8 18 14 19 15 20 16 21 17 23 18 24
REMARK SMILES IDX 22 25 19 26 21 27 23 28 20 29 28 30 29 31 30 32 31 33 32 34
REMARK SMILES IDX 33 36 34 37 35 38 93 39 36 40 92 41 37 42 38 43 39 44 86 45
REMARK SMILES IDX 40 46 91 47 85 48 87 49 41 50 90 51 84 52 83 53 42 55 72 56
REMARK SMILES IDX 53 57 71 58 54 59 57 60 70 61 88 62 55 63 56 64 69 66 89 67
REMARK SMILES IDX 58 68 43 69 44 70 52 71 45 72 51 73 46 74 47 75 48 76 49 77
REMARK SMILES IDX 50 78 73 79 74 80 82 81 75 82 81 83 76 84 77 85 78 86 79 87
REMARK SMILES IDX 80 88 59 89 60 90 68 91 61 92 67 93 62 94 63 95 64 96 65 97
REMARK SMILES IDX 66 98
REMARK H PARENT 24 7 16 22 31 35 87 54 57 65
REMARK Flexibility Score: inf
ROOT
ATOM      1  C   UNL     1       4.088  -1.010  -3.603  1.00  0.00     0.002 C 
ENDROOT
BRANCH   1   2
ATOM      2  C   UNL     1       2.580  -0.796  -3.405  1.00  0.00     0.021 C 
BRANCH   2   3
ATOM      3  C   UNL     1       2.044  -1.227  -2.041  1.00  0.00     0.116 C 
BRANCH   3   4
ATOM      4  N   UNL     1       2.652  -0.456  -0.977  1.00  0.00    -0.356 N 
ATOM      5  O   UNL     1       0.804  -0.370   0.366  1.00  0.00    -0.275 OA
ATOM      6  C   UNL     1       1.985  -0.104   0.168  1.00  0.00     0.222 C 
ATOM      7  H   UNL     1       3.588  -0.172  -1.081  1.00  0.00     0.163 HD
BRANCH   6   8
ATOM      8  C   UNL     1       2.797   0.729   1.138  1.00  0.00     0.130 C 
BRANCH   8   9
ATOM      9  C   UNL     1       3.969  -0.038   1.793  1.00  0.00     0.127 C 
ATOM     10  C   UNL     1       5.238   0.022   0.927  1.00  0.00    -0.022 A 
ATOM     11  N   UNL     1       4.219   0.519   3.157  1.00  0.00    -0.317 N 
ATOM     12  C   UNL     1       5.645  -1.039   0.112  1.00  0.00     0.006 A 
ATOM     13  C   UNL     1       6.043   1.177   0.976  1.00  0.00    -0.041 A 
ATOM     14  C   UNL     1       5.439   1.331   3.307  1.00  0.00     0.127 C 
ATOM     15  C   UNL     1       6.781  -0.909  -0.695  1.00  0.00     0.000 A 
ATOM     16  C   UNL     1       7.152   1.323   0.141  1.00  0.00     0.004 A 
ATOM     17  C   UNL     1       5.747   2.166   2.063  1.00  0.00     0.057 C 
ATOM     18  C   UNL     1       7.516   0.277  -0.700  1.00  0.00     0.000 A 
BRANCH  11  19
ATOM     19  C   UNL     1       3.409   0.034   4.166  1.00  0.00     0.322 C 
ATOM     20  O   UNL     1       2.575  -0.851   3.953  1.00  0.00    -0.248 OA
ATOM     21  N   UNL     1       3.574   0.399   5.464  1.00  0.00    -0.307 N 
ATOM     22  H   UNL     1       3.235  -0.263   6.109  1.00  0.00     0.171 HD
BRANCH  21  23
ATOM     23  C   UNL     1       4.132   1.536   6.057  1.00  0.00     0.057 A 
ATOM     24  C   UNL     1       5.102   1.294   7.036  1.00  0.00     0.027 A 
ATOM     25  C   UNL     1       3.842   2.859   5.680  1.00  0.00     0.041 A 
ATOM     26  C   UNL     1       5.887   2.342   7.517  1.00  0.00     0.002 A 
ATOM     27  C   UNL     1       4.624   3.907   6.176  1.00  0.00     0.018 A 
ATOM     28  Br  UNL     1       2.414   3.307   4.512  1.00  0.00    -0.049 Br
ATOM     29  C   UNL     1       5.666   3.643   7.067  1.00  0.00     0.001 A 
ENDBRANCH  21  23
ENDBRANCH  11  19
ENDBRANCH   8   9
ENDBRANCH   6   8
ENDBRANCH   3   4
ENDBRANCH   2   3
ENDBRANCH   1   2
BRANCH   1  30
ATOM     30  C   UNL     1       4.570  -2.457  -3.464  1.00  0.00     0.002 C 
BRANCH  30  31
ATOM     31  C   UNL     1       3.906  -3.453  -4.416  1.00  0.00     0.021 C 
BRANCH  31  32
ATOM     32  C   UNL     1       4.045  -3.112  -5.896  1.00  0.00     0.116 C 
BRANCH  32  33
ATOM     33  N   UNL     1       5.426  -3.161  -6.353  1.00  0.00    -0.352 N 
ATOM     34  C   UNL     1       5.950  -3.803  -7.453  1.00  0.00     0.251 C 
ATOM     35  H   UNL     1       6.074  -2.668  -5.799  1.00  0.00     0.163 HD
ATOM     36  O   UNL     1       7.159  -3.878  -7.605  1.00  0.00    -0.269 OA
BRANCH  34  37
ATOM     37  C   UNL     1       5.030  -4.424  -8.434  1.00  0.00     0.039 A 
ATOM     38  C   UNL     1       5.272  -5.733  -8.857  1.00  0.00     0.014 A 
ATOM     39  C   UNL     1       3.922  -3.721  -8.915  1.00  0.00     0.014 A 
ATOM     40  C   UNL     1       4.360  -6.364  -9.710  1.00  0.00     0.010 A 
ATOM     41  C   UNL     1       2.981  -4.374  -9.707  1.00  0.00     0.010 A 
ATOM     42  C   UNL     1       3.188  -5.703 -10.111  1.00  0.00    -0.014 A 
BRANCH  42  43
ATOM     43  C   UNL     1       2.160  -6.374 -10.950  1.00  0.00     0.031 A 
ATOM     44  C   UNL     1       1.841  -5.836 -12.320  1.00  0.00     0.074 A 
ATOM     45  C   UNL     1       1.453  -7.408 -10.448  1.00  0.00     0.049 A 
ATOM     46  N   UNL     1       0.904  -6.207 -13.154  1.00  0.00    -0.248 NA
ATOM     47  C   UNL     1       2.668  -4.718 -12.808  1.00  0.00     0.031 C 
ATOM     48  C   UNL     1       1.641  -8.004  -9.122  1.00  0.00     0.029 A 
ATOM     49  N   UNL     1       0.419  -8.133 -10.989  1.00  0.00    -0.354 N 
ATOM     50  C   UNL     1       1.006  -5.352 -14.245  1.00  0.00     0.074 A 
ATOM     51  C   UNL     1       2.075  -4.423 -13.957  1.00  0.00     0.031 C 
ATOM     52  C   UNL     1       0.765  -9.009  -8.961  1.00  0.00     0.029 A 
ATOM     53  C   UNL     1      -0.079  -9.102 -10.148  1.00  0.00     0.049 A 
ATOM     54  H   UNL     1       0.067  -7.974 -11.895  1.00  0.00     0.167 HD
ATOM     55  C   UNL     1       0.280  -5.348 -15.388  1.00  0.00     0.031 A 
ATOM     56  C   UNL     1      -1.111  -9.956 -10.305  1.00  0.00     0.031 A 
ATOM     57  C   UNL     1      -0.760  -6.296 -15.686  1.00  0.00     0.049 A 
ATOM     58  C   UNL     1      -1.904  -9.921 -11.586  1.00  0.00     0.074 A 
ATOM     59  C   UNL     1      -1.494  -6.422 -16.853  1.00  0.00     0.029 A 
ATOM     60  N   UNL     1      -1.214  -7.276 -14.819  1.00  0.00    -0.354 N 
ATOM     61  N   UNL     1      -1.737  -9.156 -12.639  1.00  0.00    -0.248 NA
ATOM     62  C   UNL     1      -3.020 -10.872 -11.704  1.00  0.00     0.031 C 
ATOM     63  C   UNL     1      -2.433  -7.439 -16.670  1.00  0.00     0.029 A 
ATOM     64  C   UNL     1      -2.240  -7.990 -15.413  1.00  0.00     0.049 A 
ATOM     65  H   UNL     1      -0.861  -7.439 -13.914  1.00  0.00     0.167 HD
ATOM     66  C   UNL     1      -2.700  -9.563 -13.557  1.00  0.00     0.074 A 
ATOM     67  C   UNL     1      -3.438 -10.645 -12.942  1.00  0.00     0.031 C 
ATOM     68  C   UNL     1      -2.949  -9.083 -14.800  1.00  0.00     0.031 A 
BRANCH  55  69
ATOM     69  C   UNL     1       0.574  -4.286 -16.413  1.00  0.00    -0.014 A 
ATOM     70  C   UNL     1       1.747  -4.322 -17.186  1.00  0.00     0.010 A 
ATOM     71  C   UNL     1      -0.389  -3.292 -16.674  1.00  0.00     0.010 A 
ATOM     72  C   UNL     1       1.960  -3.375 -18.191  1.00  0.00     0.020 A 
ATOM     73  C   UNL     1      -0.192  -2.360 -17.696  1.00  0.00     0.020 A 
ATOM     74  C   UNL     1       0.987  -2.403 -18.444  1.00  0.00     0.054 A 
BRANCH  74  75
ATOM     75  S   UNL     1       1.260  -1.232 -19.802  1.00  0.00     0.124 S 
ATOM     76  O   UNL     1       2.317  -0.382 -19.258  1.00  0.00    -0.237 OA
ATOM     77  O   UNL     1       1.661  -2.106 -20.901  1.00  0.00    -0.237 OA
ATOM     78  O   UNL     1      -0.037  -0.581 -19.967  1.00  0.00    -0.744 OA
ENDBRANCH  74  75
ENDBRANCH  55  69
BRANCH  56  79
ATOM     79  C   UNL     1      -1.472 -10.917  -9.225  1.00  0.00    -0.014 A 
ATOM     80  C   UNL     1      -1.311 -12.301  -9.418  1.00  0.00     0.010 A 
ATOM     81  C   UNL     1      -2.020 -10.458  -8.014  1.00  0.00     0.010 A 
ATOM     82  C   UNL     1      -1.735 -13.208  -8.442  1.00  0.00     0.020 A 
ATOM     83  C   UNL     1      -2.415 -11.360  -7.022  1.00  0.00     0.020 A 
ATOM     84  C   UNL     1      -2.291 -12.731  -7.252  1.00  0.00     0.054 A 
BRANCH  84  85
ATOM     85  S   UNL     1      -2.837 -13.926  -6.000  1.00  0.00     0.124 S 
ATOM     86  O   UNL     1      -4.064 -14.447  -6.595  1.00  0.00    -0.237 OA
ATOM     87  O   UNL     1      -1.715 -14.859  -5.942  1.00  0.00    -0.237 OA
ATOM     88  O   UNL     1      -3.019 -13.106  -4.804  1.00  0.00    -0.744 OA
ENDBRANCH  84  85
ENDBRANCH  56  79
BRANCH  68  89
ATOM     89  C   UNL     1      -4.021  -9.759 -15.613  1.00  0.00    -0.014 A 
ATOM     90  C   UNL     1      -5.383  -9.595 -15.313  1.00  0.00     0.010 A 
ATOM     91  C   UNL     1      -3.653 -10.509 -16.746  1.00  0.00     0.010 A 
ATOM     92  C   UNL     1      -6.359 -10.187 -16.120  1.00  0.00     0.020 A 
ATOM     93  C   UNL     1      -4.625 -11.077 -17.571  1.00  0.00     0.020 A 
ATOM     94  C   UNL     1      -5.974 -10.921 -17.247  1.00  0.00     0.054 A 
BRANCH  94  95
ATOM     95  S   UNL     1      -7.261 -11.623 -18.314  1.00  0.00     0.124 S 
ATOM     96  O   UNL     1      -7.759 -12.730 -17.502  1.00  0.00    -0.237 OA
ATOM     97  O   UNL     1      -8.183 -10.503 -18.483  1.00  0.00    -0.237 OA
ATOM     98  O   UNL     1      -6.536 -12.014 -19.521  1.00  0.00    -0.744 OA
ENDBRANCH  94  95
ENDBRANCH  68  89
ENDBRANCH  42  43
ENDBRANCH  34  37
ENDBRANCH  32  33
ENDBRANCH  31  32
ENDBRANCH  30  31
ENDBRANCH   1  30
TORSDOF 19
