REMARK SMILES O=C(NCCCCCCNC(=O)c1cc(-n2ccnc2)ccn1)c1ccc(-c2c3nc(c(-c4ccc(S(=O)(=O)[O-])cc4)c4ccc([nH]4)c(-c4ccc(S(=O)(=O)[O-])cc4)c4nc(c(-c5ccc(S(=O)(=O)[O-])cc5)c5ccc2[nH]5)C=C4)C=C3)cc1
REMARK SMILES IDX 5 1 4 2 3 3 1 4 2 5 24 7 25 8 83 9 26 10 82 11 27 12 28 13
REMARK SMILES IDX 29 14 76 15 30 16 81 17 75 18 77 19 31 20 80 21 74 22 73 23
REMARK SMILES IDX 32 25 62 26 43 27 61 28 44 29 47 30 60 31 78 32 45 33 46 34
REMARK SMILES IDX 59 36 79 37 48 38 33 39 34 40 42 41 35 42 41 43 36 44 37 45
REMARK SMILES IDX 38 46 39 47 40 48 63 49 64 50 72 51 65 52 71 53 66 54 67 55
REMARK SMILES IDX 68 56 69 57 70 58 49 59 50 60 58 61 51 62 57 63 52 64 53 65
REMARK SMILES IDX 54 66 55 67 56 68 6 69 7 70 8 71 9 72 10 73 11 74 12 76
REMARK SMILES IDX 13 77 14 78 23 79 15 80 22 81 21 82 16 83 17 84 20 85 18 86
REMARK SMILES IDX 19 87
REMARK H PARENT 3 6 77 24 47 35 10 75
REMARK Flexibility Score: inf
ROOT
ATOM      1  C   UNL     1       4.887   0.596  -2.283  1.00  0.00     0.021 C 
ENDROOT
BRANCH   1   2
ATOM      2  C   UNL     1       4.701   0.855  -0.787  1.00  0.00     0.116 C 
BRANCH   2   3
ATOM      3  N   UNL     1       3.326   1.069  -0.390  1.00  0.00    -0.352 N 
ATOM      4  O   UNL     1       1.268   0.823   0.359  1.00  0.00    -0.269 OA
ATOM      5  C   UNL     1       2.278   0.253  -0.065  1.00  0.00     0.251 C 
ATOM      6  H   UNL     1       3.090   2.024  -0.344  1.00  0.00     0.163 HD
BRANCH   5   7
ATOM      7  C   UNL     1       2.254  -1.230  -0.220  1.00  0.00     0.039 A 
ATOM      8  C   UNL     1       3.336  -2.034  -0.581  1.00  0.00     0.014 A 
ATOM      9  C   UNL     1       1.009  -1.851  -0.001  1.00  0.00     0.014 A 
ATOM     10  C   UNL     1       3.170  -3.405  -0.776  1.00  0.00     0.010 A 
ATOM     11  C   UNL     1       0.839  -3.221  -0.180  1.00  0.00     0.010 A 
ATOM     12  C   UNL     1       1.918  -3.996  -0.595  1.00  0.00    -0.014 A 
BRANCH  12  13
ATOM     13  C   UNL     1       1.817  -5.449  -0.732  1.00  0.00     0.031 A 
ATOM     14  C   UNL     1       2.554  -6.247   0.291  1.00  0.00     0.074 A 
ATOM     15  C   UNL     1       0.993  -6.065  -1.601  1.00  0.00     0.049 A 
ATOM     16  N   UNL     1       3.496  -7.118   0.115  1.00  0.00    -0.248 NA
ATOM     17  C   UNL     1       2.242  -5.981   1.704  1.00  0.00     0.031 C 
ATOM     18  C   UNL     1      -0.034  -5.451  -2.446  1.00  0.00     0.029 A 
ATOM     19  N   UNL     1       0.819  -7.402  -1.819  1.00  0.00    -0.354 N 
ATOM     20  C   UNL     1       3.769  -7.652   1.375  1.00  0.00     0.074 A 
ATOM     21  C   UNL     1       3.067  -6.824   2.325  1.00  0.00     0.031 C 
ATOM     22  C   UNL     1      -0.868  -6.414  -2.897  1.00  0.00     0.029 A 
ATOM     23  C   UNL     1      -0.358  -7.712  -2.486  1.00  0.00     0.049 A 
ATOM     24  H   UNL     1       1.468  -8.083  -1.528  1.00  0.00     0.167 HD
ATOM     25  C   UNL     1       4.383  -8.857   1.546  1.00  0.00     0.031 A 
ATOM     26  C   UNL     1      -0.918  -8.939  -2.627  1.00  0.00     0.031 A 
ATOM     27  C   UNL     1       5.053  -9.301   0.353  1.00  0.00     0.049 A 
ATOM     28  C   UNL     1       0.135  -9.952  -2.386  1.00  0.00     0.074 A 
ATOM     29  C   UNL     1       6.066  -8.811  -0.445  1.00  0.00     0.029 A 
ATOM     30  N   UNL     1       4.454 -10.302  -0.373  1.00  0.00    -0.354 N 
ATOM     31  N   UNL     1       1.154 -10.143  -3.176  1.00  0.00    -0.248 NA
ATOM     32  C   UNL     1       0.266 -10.521  -1.054  1.00  0.00     0.031 C 
ATOM     33  C   UNL     1       5.723  -9.212  -1.769  1.00  0.00     0.029 A 
ATOM     34  C   UNL     1       4.541  -9.952  -1.694  1.00  0.00     0.049 A 
ATOM     35  H   UNL     1       4.039 -11.118  -0.011  1.00  0.00     0.167 HD
ATOM     36  C   UNL     1       2.202 -10.480  -2.333  1.00  0.00     0.074 A 
ATOM     37  C   UNL     1       1.569 -10.813  -1.061  1.00  0.00     0.031 C 
ATOM     38  C   UNL     1       3.496 -10.196  -2.665  1.00  0.00     0.031 A 
BRANCH  25  39
ATOM     39  C   UNL     1       4.048  -9.816   2.670  1.00  0.00    -0.014 A 
ATOM     40  C   UNL     1       4.744 -11.042   2.750  1.00  0.00     0.010 A 
ATOM     41  C   UNL     1       2.881  -9.695   3.453  1.00  0.00     0.010 A 
ATOM     42  C   UNL     1       4.233 -12.124   3.480  1.00  0.00     0.020 A 
ATOM     43  C   UNL     1       2.390 -10.752   4.223  1.00  0.00     0.020 A 
ATOM     44  C   UNL     1       3.042 -11.976   4.190  1.00  0.00     0.054 A 
BRANCH  44  45
ATOM     45  S   UNL     1       2.297 -13.420   4.988  1.00  0.00     0.124 S 
ATOM     46  O   UNL     1       1.898 -14.221   3.835  1.00  0.00    -0.237 OA
ATOM     47  O   UNL     1       3.407 -13.949   5.775  1.00  0.00    -0.237 OA
ATOM     48  O   UNL     1       1.201 -12.851   5.768  1.00  0.00    -0.744 OA
ENDBRANCH  44  45
ENDBRANCH  25  39
BRANCH  26  49
ATOM     49  C   UNL     1      -2.362  -9.279  -2.662  1.00  0.00    -0.014 A 
ATOM     50  C   UNL     1      -2.803 -10.548  -3.080  1.00  0.00     0.010 A 
ATOM     51  C   UNL     1      -3.297  -8.438  -2.023  1.00  0.00     0.010 A 
ATOM     52  C   UNL     1      -4.116 -10.978  -2.820  1.00  0.00     0.020 A 
ATOM     53  C   UNL     1      -4.608  -8.855  -1.771  1.00  0.00     0.020 A 
ATOM     54  C   UNL     1      -5.005 -10.134  -2.150  1.00  0.00     0.054 A 
BRANCH  54  55
ATOM     55  S   UNL     1      -6.641 -10.756  -1.662  1.00  0.00     0.124 S 
ATOM     56  O   UNL     1      -7.336 -10.839  -2.943  1.00  0.00    -0.237 OA
ATOM     57  O   UNL     1      -6.321 -12.034  -1.033  1.00  0.00    -0.237 OA
ATOM     58  O   UNL     1      -7.142  -9.729  -0.750  1.00  0.00    -0.744 OA
ENDBRANCH  54  55
ENDBRANCH  26  49
BRANCH  38  59
ATOM     59  C   UNL     1       3.812  -9.828  -4.096  1.00  0.00    -0.014 A 
ATOM     60  C   UNL     1       3.253  -8.716  -4.752  1.00  0.00     0.010 A 
ATOM     61  C   UNL     1       4.831 -10.548  -4.745  1.00  0.00     0.010 A 
ATOM     62  C   UNL     1       3.686  -8.348  -6.034  1.00  0.00     0.020 A 
ATOM     63  C   UNL     1       5.281 -10.176  -6.014  1.00  0.00     0.020 A 
ATOM     64  C   UNL     1       4.701  -9.080  -6.656  1.00  0.00     0.054 A 
BRANCH  64  65
ATOM     65  S   UNL     1       5.306  -8.555  -8.284  1.00  0.00     0.124 S 
ATOM     66  O   UNL     1       4.183  -8.879  -9.160  1.00  0.00    -0.237 OA
ATOM     67  O   UNL     1       5.562  -7.129  -8.091  1.00  0.00    -0.237 OA
ATOM     68  O   UNL     1       6.505  -9.367  -8.490  1.00  0.00    -0.744 OA
ENDBRANCH  64  65
ENDBRANCH  38  59
ENDBRANCH  12  13
ENDBRANCH   5   7
ENDBRANCH   2   3
ENDBRANCH   1   2
BRANCH   1  69
ATOM     69  C   UNL     1       4.372   1.706  -3.207  1.00  0.00     0.002 C 
BRANCH  69  70
ATOM     70  C   UNL     1       4.907   3.115  -2.929  1.00  0.00     0.002 C 
BRANCH  70  71
ATOM     71  C   UNL     1       6.431   3.256  -2.911  1.00  0.00     0.021 C 
BRANCH  71  72
ATOM     72  C   UNL     1       7.136   2.874  -4.210  1.00  0.00     0.116 C 
BRANCH  72  73
ATOM     73  N   UNL     1       6.818   3.774  -5.309  1.00  0.00    -0.351 N 
ATOM     74  C   UNL     1       7.674   4.499  -6.111  1.00  0.00     0.269 C 
ATOM     75  H   UNL     1       5.860   3.881  -5.506  1.00  0.00     0.163 HD
ATOM     76  O   UNL     1       7.222   5.280  -6.950  1.00  0.00    -0.268 OA
BRANCH  74  77
ATOM     77  C   UNL     1       9.144   4.323  -5.956  1.00  0.00     0.130 A 
ATOM     78  C   UNL     1       9.703   3.060  -6.110  1.00  0.00     0.060 A 
ATOM     79  N   UNL     1       9.839   5.417  -5.551  1.00  0.00    -0.251 NA
ATOM     80  C   UNL     1      11.024   2.889  -5.700  1.00  0.00     0.050 A 
ATOM     81  C   UNL     1      11.136   5.230  -5.242  1.00  0.00     0.114 A 
ATOM     82  C   UNL     1      11.761   3.994  -5.263  1.00  0.00     0.047 A 
BRANCH  80  83
ATOM     83  N   UNL     1      11.590   1.592  -5.660  1.00  0.00    -0.306 N 
ATOM     84  C   UNL     1      11.223   0.495  -6.403  1.00  0.00     0.113 A 
ATOM     85  C   UNL     1      12.586   1.159  -4.814  1.00  0.00     0.204 A 
ATOM     86  C   UNL     1      12.038  -0.531  -5.984  1.00  0.00     0.131 A 
ATOM     87  N   UNL     1      12.881  -0.109  -4.993  1.00  0.00    -0.245 NA
ENDBRANCH  80  83
ENDBRANCH  74  77
ENDBRANCH  72  73
ENDBRANCH  71  72
ENDBRANCH  70  71
ENDBRANCH  69  70
ENDBRANCH   1  69
TORSDOF 17
