REMARK SMILES CNC(=O)CC[NH+]1CCC(CC(=O)NCCCCCCNC(=O)c2ccc(-c3c4nc(c(-c5ccc(S(=O)(=O)[O-])cc5)c5ccc([nH]5)c(-c5ccc(S(=O)(=O)[O-])cc5)c5nc(c(-c6ccc(S(=O)(=O)[O-])cc6)c6ccc3[nH]6)C=C5)C=C4)cc2)CC1
REMARK SMILES IDX 17 1 16 2 15 3 14 4 12 5 13 6 11 8 10 9 7 10 8 11 85 12 9 14
REMARK SMILES IDX 84 15 6 16 5 17 3 18 1 19 2 20 4 22 18 23 19 24 20 25 21 26
REMARK SMILES IDX 22 27 23 29 24 30 25 31 83 32 26 33 82 34 27 35 28 36 29 37
REMARK SMILES IDX 76 38 30 39 81 40 75 41 77 42 31 43 80 44 74 45 73 46 32 48
REMARK SMILES IDX 62 49 43 50 61 51 44 52 47 53 60 54 78 55 45 56 46 57 59 59
REMARK SMILES IDX 79 60 48 61 33 62 34 63 42 64 35 65 41 66 36 67 37 68 38 69
REMARK SMILES IDX 39 70 40 71 63 72 64 73 72 74 65 75 71 76 66 77 67 78 68 79
REMARK SMILES IDX 69 80 70 81 49 82 50 83 58 84 51 85 57 86 52 87 53 88 54 89
REMARK SMILES IDX 55 90 56 91
REMARK H PARENT 14 7 7 13 2 21 21 28 77 47 47 58
REMARK Flexibility Score: inf
ROOT
ATOM      1  C   UNL     1      -0.535  -4.356   0.016  1.00  0.00     0.002 C 
ENDROOT
BRANCH   1   2
ATOM      2  C   UNL     1       0.299  -3.137  -0.375  1.00  0.00     0.021 C 
BRANCH   2   3
ATOM      3  C   UNL     1       1.813  -3.382  -0.431  1.00  0.00     0.116 C 
BRANCH   3   4
ATOM      4  N   UNL     1       2.217  -3.870  -1.743  1.00  0.00    -0.356 N 
ATOM      5  C   UNL     1       2.922  -3.263  -2.744  1.00  0.00     0.220 C 
ATOM      6  O   UNL     1       3.050  -3.857  -3.816  1.00  0.00    -0.275 OA
ATOM      7  H   UNL     1       1.935  -4.792  -1.942  1.00  0.00     0.163 HD
BRANCH   5   8
ATOM      8  C   UNL     1       3.546  -1.892  -2.536  1.00  0.00     0.104 C 
BRANCH   8   9
ATOM      9  C   UNL     1       2.724  -0.699  -3.079  1.00  0.00     0.009 C 
ATOM     10  N   UNL     1       1.334   1.492  -1.812  1.00  0.00    -0.334 N 
ATOM     11  C   UNL     1       0.528   0.569  -2.615  1.00  0.00     0.262 C 
ATOM     12  C   UNL     1       2.519   1.849  -2.597  1.00  0.00     0.262 C 
ATOM     13  H   UNL     1       1.615   1.016  -0.955  1.00  0.00     0.348 HD
ATOM     14  C   UNL     1       1.274  -0.754  -2.592  1.00  0.00     0.066 C 
ATOM     15  C   UNL     1       3.432   0.620  -2.682  1.00  0.00     0.066 C 
BRANCH  10  16
ATOM     16  C   UNL     1       0.603   2.653  -1.289  1.00  0.00     0.272 C 
BRANCH  16  17
ATOM     17  C   UNL     1      -0.522   2.298  -0.300  1.00  0.00     0.161 C 
BRANCH  17  18
ATOM     18  C   UNL     1      -0.185   2.468   1.168  1.00  0.00     0.225 C 
ATOM     19  C   UNL     1       1.348   0.454   1.310  1.00  0.00     0.142 C 
ATOM     20  N   UNL     1       0.603   1.574   1.823  1.00  0.00    -0.359 N 
ATOM     21  H   UNL     1       0.674   1.713   2.795  1.00  0.00     0.163 HD
ATOM     22  O   UNL     1      -0.674   3.394   1.818  1.00  0.00    -0.275 OA
ENDBRANCH  17  18
ENDBRANCH  16  17
ENDBRANCH  10  16
ENDBRANCH   8   9
ENDBRANCH   5   8
ENDBRANCH   3   4
ENDBRANCH   2   3
ENDBRANCH   1   2
BRANCH   1  23
ATOM     23  C   UNL     1      -0.373  -4.814   1.467  1.00  0.00     0.002 C 
BRANCH  23  24
ATOM     24  C   UNL     1      -0.622  -3.742   2.534  1.00  0.00     0.021 C 
BRANCH  24  25
ATOM     25  C   UNL     1      -1.973  -3.034   2.453  1.00  0.00     0.116 C 
BRANCH  25  26
ATOM     26  N   UNL     1      -3.085  -3.957   2.594  1.00  0.00    -0.352 N 
ATOM     27  C   UNL     1      -4.099  -3.978   3.519  1.00  0.00     0.251 C 
ATOM     28  H   UNL     1      -3.117  -4.678   1.924  1.00  0.00     0.163 HD
ATOM     29  O   UNL     1      -4.825  -4.964   3.598  1.00  0.00    -0.269 OA
BRANCH  27  30
ATOM     30  C   UNL     1      -4.311  -2.828   4.427  1.00  0.00     0.039 A 
ATOM     31  C   UNL     1      -4.597  -3.078   5.772  1.00  0.00     0.014 A 
ATOM     32  C   UNL     1      -4.271  -1.513   3.955  1.00  0.00     0.014 A 
ATOM     33  C   UNL     1      -4.795  -2.009   6.650  1.00  0.00     0.010 A 
ATOM     34  C   UNL     1      -4.402  -0.447   4.845  1.00  0.00     0.010 A 
ATOM     35  C   UNL     1      -4.675  -0.684   6.200  1.00  0.00    -0.014 A 
BRANCH  35  36
ATOM     36  C   UNL     1      -4.838   0.456   7.140  1.00  0.00     0.031 A 
ATOM     37  C   UNL     1      -5.987   1.417   6.985  1.00  0.00     0.074 A 
ATOM     38  C   UNL     1      -3.929   0.645   8.117  1.00  0.00     0.049 A 
ATOM     39  N   UNL     1      -6.292   2.461   7.715  1.00  0.00    -0.248 NA
ATOM     40  C   UNL     1      -6.900   1.190   5.854  1.00  0.00     0.031 C 
ATOM     41  C   UNL     1      -2.744  -0.188   8.345  1.00  0.00     0.029 A 
ATOM     42  N   UNL     1      -3.858   1.596   9.104  1.00  0.00    -0.354 N 
ATOM     43  C   UNL     1      -7.422   3.019   7.126  1.00  0.00     0.074 A 
ATOM     44  C   UNL     1      -7.718   2.228   5.951  1.00  0.00     0.031 C 
ATOM     45  C   UNL     1      -2.086   0.270   9.423  1.00  0.00     0.029 A 
ATOM     46  C   UNL     1      -2.780   1.443   9.943  1.00  0.00     0.049 A 
ATOM     47  H   UNL     1      -4.519   2.320   9.203  1.00  0.00     0.167 HD
ATOM     48  C   UNL     1      -8.159   4.080   7.535  1.00  0.00     0.031 A 
ATOM     49  C   UNL     1      -2.394   2.162  11.015  1.00  0.00     0.031 A 
ATOM     50  C   UNL     1      -7.865   4.864   8.706  1.00  0.00     0.049 A 
ATOM     51  C   UNL     1      -3.236   3.327  11.457  1.00  0.00     0.074 A 
ATOM     52  C   UNL     1      -8.576   5.930   9.230  1.00  0.00     0.029 A 
ATOM     53  N   UNL     1      -6.773   4.666   9.537  1.00  0.00    -0.354 N 
ATOM     54  N   UNL     1      -4.337   3.799  10.923  1.00  0.00    -0.248 NA
ATOM     55  C   UNL     1      -2.793   4.042  12.662  1.00  0.00     0.031 C 
ATOM     56  C   UNL     1      -7.890   6.403  10.355  1.00  0.00     0.029 A 
ATOM     57  C   UNL     1      -6.784   5.596  10.564  1.00  0.00     0.049 A 
ATOM     58  H   UNL     1      -6.090   3.967   9.416  1.00  0.00     0.167 HD
ATOM     59  C   UNL     1      -4.737   4.846  11.746  1.00  0.00     0.074 A 
ATOM     60  C   UNL     1      -3.768   4.927  12.820  1.00  0.00     0.031 C 
ATOM     61  C   UNL     1      -5.812   5.665  11.626  1.00  0.00     0.031 A 
BRANCH  48  62
ATOM     62  C   UNL     1      -9.360   4.455   6.705  1.00  0.00    -0.014 A 
ATOM     63  C   UNL     1     -10.503   3.634   6.672  1.00  0.00     0.010 A 
ATOM     64  C   UNL     1      -9.364   5.660   5.979  1.00  0.00     0.010 A 
ATOM     65  C   UNL     1     -11.610   3.990   5.898  1.00  0.00     0.020 A 
ATOM     66  C   UNL     1     -10.482   6.034   5.226  1.00  0.00     0.020 A 
ATOM     67  C   UNL     1     -11.591   5.188   5.177  1.00  0.00     0.054 A 
BRANCH  67  68
ATOM     68  S   UNL     1     -13.053   5.637   4.200  1.00  0.00     0.124 S 
ATOM     69  O   UNL     1     -12.957   4.713   3.072  1.00  0.00    -0.237 OA
ATOM     70  O   UNL     1     -14.151   5.381   5.128  1.00  0.00    -0.237 OA
ATOM     71  O   UNL     1     -12.833   7.043   3.873  1.00  0.00    -0.744 OA
ENDBRANCH  67  68
ENDBRANCH  48  62
BRANCH  49  72
ATOM     72  C   UNL     1      -1.169   1.777  11.767  1.00  0.00    -0.014 A 
ATOM     73  C   UNL     1      -1.266   1.215  13.053  1.00  0.00     0.010 A 
ATOM     74  C   UNL     1       0.104   1.965  11.199  1.00  0.00     0.010 A 
ATOM     75  C   UNL     1      -0.115   0.869  13.765  1.00  0.00     0.020 A 
ATOM     76  C   UNL     1       1.257   1.595  11.897  1.00  0.00     0.020 A 
ATOM     77  C   UNL     1       1.141   1.062  13.182  1.00  0.00     0.054 A 
BRANCH  77  78
ATOM     78  S   UNL     1       2.622   0.564  14.105  1.00  0.00     0.124 S 
ATOM     79  O   UNL     1       2.732   1.626  15.098  1.00  0.00    -0.237 OA
ATOM     80  O   UNL     1       2.247  -0.751  14.621  1.00  0.00    -0.237 OA
ATOM     81  O   UNL     1       3.669   0.547  13.085  1.00  0.00    -0.744 OA
ENDBRANCH  77  78
ENDBRANCH  49  72
BRANCH  61  82
ATOM     82  C   UNL     1      -6.022   6.687  12.711  1.00  0.00    -0.014 A 
ATOM     83  C   UNL     1      -5.178   7.804  12.842  1.00  0.00     0.010 A 
ATOM     84  C   UNL     1      -7.098   6.532  13.605  1.00  0.00     0.010 A 
ATOM     85  C   UNL     1      -5.375   8.720  13.880  1.00  0.00     0.020 A 
ATOM     86  C   UNL     1      -7.316   7.462  14.625  1.00  0.00     0.020 A 
ATOM     87  C   UNL     1      -6.439   8.538  14.769  1.00  0.00     0.054 A 
BRANCH  87  88
ATOM     88  S   UNL     1      -6.682   9.743  16.103  1.00  0.00     0.124 S 
ATOM     89  O   UNL     1      -5.626   9.373  17.041  1.00  0.00    -0.237 OA
ATOM     90  O   UNL     1      -6.496  11.022  15.421  1.00  0.00    -0.237 OA
ATOM     91  O   UNL     1      -8.044   9.482  16.562  1.00  0.00    -0.744 OA
ENDBRANCH  87  88
ENDBRANCH  61  82
ENDBRANCH  35  36
ENDBRANCH  27  30
ENDBRANCH  25  26
ENDBRANCH  24  25
ENDBRANCH  23  24
ENDBRANCH   1  23
TORSDOF 20
