REMARK SMILES CC(C)[C@H](NS(=O)(=O)CCC(=O)NCCCCCCNC(=O)c1ccc(-c2c3nc(c(-c4ccc(S(=O)(=O)[O-])cc4)c4ccc([nH]4)c(-c4ccc(S(=O)(=O)[O-])cc4)c4nc(c(-c5ccc(S(=O)(=O)[O-])cc5)c5ccc2[nH]5)C=C4)C=C3)cc1)c1ccccc1
REMARK SMILES IDX 15 1 14 2 13 3 11 4 12 5 10 7 9 8 6 9 7 10 8 11 5 12 4 14
REMARK SMILES IDX 2 15 1 16 3 17 83 18 84 19 88 20 85 21 87 22 86 23 16 24
REMARK SMILES IDX 17 25 18 26 19 27 20 28 21 29 22 31 23 32 24 33 82 34 25 35
REMARK SMILES IDX 81 36 26 37 27 38 28 39 75 40 29 41 80 42 74 43 76 44 30 45
REMARK SMILES IDX 79 46 73 47 72 48 31 50 61 51 42 52 60 53 43 54 46 55 59 56
REMARK SMILES IDX 77 57 44 58 45 59 58 61 78 62 47 63 32 64 33 65 41 66 34 67
REMARK SMILES IDX 40 68 35 69 36 70 37 71 38 72 39 73 62 74 63 75 71 76 64 77
REMARK SMILES IDX 70 78 65 79 66 80 67 81 68 82 69 83 48 84 49 85 57 86 50 87
REMARK SMILES IDX 56 88 51 89 52 90 53 91 54 92 55 93
REMARK H PARENT 13 6 5 13 20 30 76 49 46 60
REMARK Flexibility Score: inf
ROOT
ATOM      1  C   UNL     1       0.834   0.325   1.014  1.00  0.00     0.021 C 
ENDROOT
BRANCH   1   2
ATOM      2  C   UNL     1      -0.056  -0.963   0.726  1.00  0.00     0.116 C 
BRANCH   2   3
ATOM      3  N   UNL     1      -1.191  -1.085  -0.192  1.00  0.00    -0.356 N 
ATOM      4  C   UNL     1      -1.454  -1.835  -1.295  1.00  0.00     0.221 C 
ATOM      5  O   UNL     1      -2.630  -1.925  -1.669  1.00  0.00    -0.275 OA
ATOM      6  H   UNL     1      -1.935  -0.485   0.045  1.00  0.00     0.163 HD
BRANCH   4   7
ATOM      7  C   UNL     1      -0.383  -2.443  -2.147  1.00  0.00     0.117 C 
BRANCH   7   8
ATOM      8  C   UNL     1      -0.021  -1.508  -3.283  1.00  0.00     0.164 C 
BRANCH   8   9
ATOM      9  S   UNL     1       0.790  -0.032  -2.737  1.00  0.00     0.212 S 
ATOM     10  O   UNL     1       1.252   0.684  -3.905  1.00  0.00    -0.212 OA
ATOM     11  O   UNL     1       1.766  -0.429  -1.742  1.00  0.00    -0.212 OA
BRANCH   9  12
ATOM     12  N   UNL     1      -0.294   0.991  -1.986  1.00  0.00    -0.207 NA
ATOM     13  H   UNL     1      -0.231   0.733  -1.001  1.00  0.00     0.141 HD
BRANCH  12  14
ATOM     14  C   UNL     1      -1.756   1.202  -2.206  1.00  0.00     0.102 C 
BRANCH  14  15
ATOM     15  C   UNL     1      -2.772   1.413  -0.923  1.00  0.00     0.005 C 
ATOM     16  C   UNL     1      -2.417   1.601   0.565  1.00  0.00     0.009 C 
ATOM     17  C   UNL     1      -3.852   2.505  -1.118  1.00  0.00     0.009 C 
ENDBRANCH  14  15
BRANCH  14  18
ATOM     18  C   UNL     1      -1.978   2.291  -3.228  1.00  0.00    -0.030 A 
ATOM     19  C   UNL     1      -1.385   3.560  -3.121  1.00  0.00     0.005 A 
ATOM     20  C   UNL     1      -2.906   2.042  -4.247  1.00  0.00     0.005 A 
ATOM     21  C   UNL     1      -1.710   4.555  -4.038  1.00  0.00     0.000 A 
ATOM     22  C   UNL     1      -3.244   3.044  -5.143  1.00  0.00     0.000 A 
ATOM     23  C   UNL     1      -2.641   4.295  -5.043  1.00  0.00     0.000 A 
ENDBRANCH  14  18
ENDBRANCH  12  14
ENDBRANCH   9  12
ENDBRANCH   8   9
ENDBRANCH   7   8
ENDBRANCH   4   7
ENDBRANCH   2   3
ENDBRANCH   1   2
BRANCH   1  24
ATOM     24  C   UNL     1       0.718   1.781   0.474  1.00  0.00     0.002 C 
BRANCH  24  25
ATOM     25  C   UNL     1       0.415   3.023   1.320  1.00  0.00     0.002 C 
BRANCH  25  26
ATOM     26  C   UNL     1       0.889   3.009   2.740  1.00  0.00     0.021 C 
BRANCH  26  27
ATOM     27  C   UNL     1       2.300   3.526   2.756  1.00  0.00     0.116 C 
BRANCH  27  28
ATOM     28  N   UNL     1       2.274   4.990   2.742  1.00  0.00    -0.352 N 
ATOM     29  C   UNL     1       2.580   5.818   3.799  1.00  0.00     0.251 C 
ATOM     30  H   UNL     1       2.013   5.423   1.897  1.00  0.00     0.163 HD
ATOM     31  O   UNL     1       2.174   6.961   3.862  1.00  0.00    -0.269 OA
BRANCH  29  32
ATOM     32  C   UNL     1       3.425   5.228   4.853  1.00  0.00     0.039 A 
ATOM     33  C   UNL     1       3.098   5.389   6.197  1.00  0.00     0.014 A 
ATOM     34  C   UNL     1       4.480   4.401   4.455  1.00  0.00     0.014 A 
ATOM     35  C   UNL     1       3.840   4.693   7.147  1.00  0.00     0.010 A 
ATOM     36  C   UNL     1       5.078   3.575   5.380  1.00  0.00     0.010 A 
ATOM     37  C   UNL     1       4.824   3.775   6.740  1.00  0.00    -0.014 A 
BRANCH  37  38
ATOM     38  C   UNL     1       5.720   3.106   7.704  1.00  0.00     0.031 A 
ATOM     39  C   UNL     1       7.204   3.354   7.588  1.00  0.00     0.074 A 
ATOM     40  C   UNL     1       5.215   2.267   8.625  1.00  0.00     0.049 A 
ATOM     41  N   UNL     1       8.185   2.816   8.260  1.00  0.00    -0.248 NA
ATOM     42  C   UNL     1       7.652   4.294   6.538  1.00  0.00     0.031 C 
ATOM     43  C   UNL     1       3.799   1.913   8.775  1.00  0.00     0.029 A 
ATOM     44  N   UNL     1       5.840   1.559   9.616  1.00  0.00    -0.354 N 
ATOM     45  C   UNL     1       9.347   3.337   7.703  1.00  0.00     0.074 A 
ATOM     46  C   UNL     1       8.964   4.143   6.572  1.00  0.00     0.031 C 
ATOM     47  C   UNL     1       3.662   1.091   9.828  1.00  0.00     0.029 A 
ATOM     48  C   UNL     1       4.978   0.828  10.398  1.00  0.00     0.049 A 
ATOM     49  H   UNL     1       6.814   1.573   9.755  1.00  0.00     0.167 HD
ATOM     50  C   UNL     1      10.622   3.208   8.132  1.00  0.00     0.031 A 
ATOM     51  C   UNL     1       5.234   0.039  11.457  1.00  0.00     0.031 A 
ATOM     52  C   UNL     1      10.982   2.441   9.289  1.00  0.00     0.049 A 
ATOM     53  C   UNL     1       6.662  -0.081  11.925  1.00  0.00     0.074 A 
ATOM     54  C   UNL     1      12.231   2.258   9.848  1.00  0.00     0.029 A 
ATOM     55  N   UNL     1      10.076   1.746  10.077  1.00  0.00    -0.354 N 
ATOM     56  N   UNL     1       7.745   0.457  11.413  1.00  0.00    -0.248 NA
ATOM     57  C   UNL     1       6.898  -0.890  13.125  1.00  0.00     0.031 C 
ATOM     58  C   UNL     1      12.087   1.417  10.955  1.00  0.00     0.029 A 
ATOM     59  C   UNL     1      10.739   1.132  11.121  1.00  0.00     0.049 A 
ATOM     60  H   UNL     1       9.106   1.698   9.917  1.00  0.00     0.167 HD
ATOM     61  C   UNL     1       8.787   0.083  12.255  1.00  0.00     0.074 A 
ATOM     62  C   UNL     1       8.197  -0.709  13.316  1.00  0.00     0.031 C 
ATOM     63  C   UNL     1      10.111   0.365  12.166  1.00  0.00     0.031 A 
BRANCH  50  64
ATOM     64  C   UNL     1      11.693   3.945   7.372  1.00  0.00    -0.014 A 
ATOM     65  C   UNL     1      11.745   5.352   7.379  1.00  0.00     0.010 A 
ATOM     66  C   UNL     1      12.677   3.229   6.668  1.00  0.00     0.010 A 
ATOM     67  C   UNL     1      12.741   6.030   6.674  1.00  0.00     0.020 A 
ATOM     68  C   UNL     1      13.696   3.904   5.988  1.00  0.00     0.020 A 
ATOM     69  C   UNL     1      13.716   5.301   5.988  1.00  0.00     0.054 A 
BRANCH  69  70
ATOM     70  S   UNL     1      15.033   6.209   5.135  1.00  0.00     0.124 S 
ATOM     71  O   UNL     1      14.310   6.811   4.017  1.00  0.00    -0.237 OA
ATOM     72  O   UNL     1      15.492   7.141   6.161  1.00  0.00    -0.237 OA
ATOM     73  O   UNL     1      15.990   5.168   4.768  1.00  0.00    -0.744 OA
ENDBRANCH  69  70
ENDBRANCH  50  64
BRANCH  51  74
ATOM     74  C   UNL     1       4.128  -0.676  12.152  1.00  0.00    -0.014 A 
ATOM     75  C   UNL     1       3.771  -0.347  13.473  1.00  0.00     0.010 A 
ATOM     76  C   UNL     1       3.433  -1.708  11.497  1.00  0.00     0.010 A 
ATOM     77  C   UNL     1       2.778  -1.071  14.141  1.00  0.00     0.020 A 
ATOM     78  C   UNL     1       2.415  -2.410  12.149  1.00  0.00     0.020 A 
ATOM     79  C   UNL     1       2.111  -2.102  13.475  1.00  0.00     0.054 A 
BRANCH  79  80
ATOM     80  S   UNL     1       0.828  -3.032  14.360  1.00  0.00     0.124 S 
ATOM     81  O   UNL     1       1.621  -3.828  15.292  1.00  0.00    -0.237 OA
ATOM     82  O   UNL     1       0.024  -1.969  14.959  1.00  0.00    -0.237 OA
ATOM     83  O   UNL     1       0.161  -3.786  13.302  1.00  0.00    -0.744 OA
ENDBRANCH  79  80
ENDBRANCH  51  74
BRANCH  63  84
ATOM     84  C   UNL     1      10.992  -0.128  13.280  1.00  0.00    -0.014 A 
ATOM     85  C   UNL     1      11.275  -1.495  13.443  1.00  0.00     0.010 A 
ATOM     86  C   UNL     1      11.581   0.808  14.150  1.00  0.00     0.010 A 
ATOM     87  C   UNL     1      12.091  -1.921  14.492  1.00  0.00     0.020 A 
ATOM     88  C   UNL     1      12.428   0.388  15.176  1.00  0.00     0.020 A 
ATOM     89  C   UNL     1      12.660  -0.977  15.352  1.00  0.00     0.054 A 
BRANCH  89  90
ATOM     90  S   UNL     1      13.732  -1.555  16.693  1.00  0.00     0.124 S 
ATOM     91  O   UNL     1      12.769  -2.151  17.615  1.00  0.00    -0.237 OA
ATOM     92  O   UNL     1      14.616  -2.498  16.011  1.00  0.00    -0.237 OA
ATOM     93  O   UNL     1      14.380  -0.336  17.170  1.00  0.00    -0.744 OA
ENDBRANCH  89  90
ENDBRANCH  63  84
ENDBRANCH  37  38
ENDBRANCH  29  32
ENDBRANCH  27  28
ENDBRANCH  26  27
ENDBRANCH  25  26
ENDBRANCH  24  25
ENDBRANCH   1  24
TORSDOF 22
