REMARK SMILES Cc1cc(N2N=C(C(=O)NCCCCCCNC(=O)c3ccc(-c4c5nc(c(-c6ccc(S(=O)(=O)[O-])cc6)c6ccc([nH]6)c(-c6ccc(S(=O)(=O)[O-])cc6)c6nc(c(-c7ccc(S(=O)(=O)[O-])cc7)c7ccc4[nH]7)C=C6)C=C5)cc3)C[C@H]2c2ccccc2)c([N+](=O)[O-])cc1C
REMARK SMILES IDX 14 1 13 2 12 3 11 4 10 5 8 6 9 7 7 9 5 10 6 11 81 12 80 13
REMARK SMILES IDX 4 14 1 15 2 16 3 17 93 18 92 19 94 20 88 21 89 22 90 23
REMARK SMILES IDX 91 24 82 25 83 26 87 27 84 28 86 29 85 30 15 31 16 32 17 33
REMARK SMILES IDX 18 34 19 36 20 37 21 38 79 39 22 40 78 41 23 42 24 43 25 44
REMARK SMILES IDX 72 45 26 46 77 47 71 48 73 49 27 50 76 51 70 52 69 53 28 55
REMARK SMILES IDX 58 56 39 57 57 58 40 59 43 60 56 61 74 62 41 63 42 64 55 66
REMARK SMILES IDX 75 67 44 68 29 69 30 70 38 71 31 72 37 73 32 74 33 75 34 76
REMARK SMILES IDX 35 77 36 78 59 79 60 80 68 81 61 82 67 83 62 84 63 85 64 86
REMARK SMILES IDX 65 87 66 88 45 89 46 90 54 91 47 92 53 93 48 94 49 95 50 96
REMARK SMILES IDX 51 97 52 98
REMARK H PARENT 10 8 17 35 73 54 43 65
REMARK Flexibility Score: inf
ROOT
ATOM      1  C   UNL     1     -10.379   4.865   0.533  1.00  0.00     0.002 C 
ENDROOT
BRANCH   1   2
ATOM      2  C   UNL     1     -10.235   3.363   0.270  1.00  0.00     0.002 C 
BRANCH   2   3
ATOM      3  C   UNL     1      -9.021   2.949  -0.564  1.00  0.00     0.021 C 
BRANCH   3   4
ATOM      4  C   UNL     1      -7.669   3.385  -0.010  1.00  0.00     0.116 C 
BRANCH   4   5
ATOM      5  N   UNL     1      -7.287   2.613   1.155  1.00  0.00    -0.351 N 
ATOM      6  C   UNL     1      -6.138   1.967   1.535  1.00  0.00     0.267 C 
ATOM      7  O   UNL     1      -6.153   1.375   2.613  1.00  0.00    -0.268 OA
ATOM      8  H   UNL     1      -8.010   2.535   1.819  1.00  0.00     0.163 HD
BRANCH   6   9
ATOM      9  C   UNL     1      -4.844   1.976   0.732  1.00  0.00     0.128 C 
ATOM     10  N   UNL     1      -2.762   1.688   0.324  1.00  0.00    -0.250 N 
ATOM     11  N   UNL     1      -3.754   1.463   1.226  1.00  0.00    -0.171 NA
ATOM     12  C   UNL     1      -3.225   2.339  -0.909  1.00  0.00     0.144 C 
ATOM     13  C   UNL     1      -4.725   2.506  -0.658  1.00  0.00     0.096 C 
BRANCH  10  14
ATOM     14  C   UNL     1      -1.670   0.820   0.274  1.00  0.00     0.138 A 
ATOM     15  C   UNL     1       2.110   1.345   0.271  1.00  0.00     0.045 C 
ATOM     16  C   UNL     1       0.791   0.622   0.238  1.00  0.00    -0.046 A 
ATOM     17  C   UNL     1      -0.386   1.381   0.362  1.00  0.00     0.039 A 
ATOM     18  C   UNL     1       0.695  -0.771   0.078  1.00  0.00    -0.041 A 
ATOM     19  C   UNL     1      -0.579  -1.360   0.031  1.00  0.00     0.091 A 
ATOM     20  C   UNL     1       1.896  -1.669  -0.035  1.00  0.00     0.045 C 
ATOM     21  C   UNL     1      -1.739  -0.568   0.117  1.00  0.00     0.294 A 
BRANCH  21  22
ATOM     22  N   UNL     1      -3.017  -1.245  -0.051  1.00  0.00     0.065 N 
ATOM     23  O   UNL     1      -3.197  -2.284   0.604  1.00  0.00    -0.258 OA
ATOM     24  O   UNL     1      -3.791  -0.814  -0.921  1.00  0.00    -0.258 OA
ENDBRANCH  21  22
ENDBRANCH  10  14
BRANCH  12  25
ATOM     25  C   UNL     1      -2.453   3.622  -1.194  1.00  0.00    -0.023 A 
ATOM     26  C   UNL     1      -2.832   4.882  -0.701  1.00  0.00     0.006 A 
ATOM     27  C   UNL     1      -1.281   3.546  -1.969  1.00  0.00     0.006 A 
ATOM     28  C   UNL     1      -2.090   6.026  -1.009  1.00  0.00     0.000 A 
ATOM     29  C   UNL     1      -0.516   4.683  -2.239  1.00  0.00     0.000 A 
ATOM     30  C   UNL     1      -0.930   5.925  -1.770  1.00  0.00     0.000 A 
ENDBRANCH  12  25
ENDBRANCH   6   9
ENDBRANCH   4   5
ENDBRANCH   3   4
ENDBRANCH   2   3
ENDBRANCH   1   2
BRANCH   1  31
ATOM     31  C   UNL     1     -10.267   5.772  -0.696  1.00  0.00     0.021 C 
BRANCH  31  32
ATOM     32  C   UNL     1     -11.222   5.443  -1.838  1.00  0.00     0.116 C 
BRANCH  32  33
ATOM     33  N   UNL     1     -12.616   5.603  -1.461  1.00  0.00    -0.352 N 
ATOM     34  C   UNL     1     -13.603   6.314  -2.100  1.00  0.00     0.251 C 
ATOM     35  H   UNL     1     -12.891   5.140  -0.637  1.00  0.00     0.163 HD
ATOM     36  O   UNL     1     -14.694   6.480  -1.562  1.00  0.00    -0.269 OA
BRANCH  34  37
ATOM     37  C   UNL     1     -13.332   6.900  -3.430  1.00  0.00     0.039 A 
ATOM     38  C   UNL     1     -13.633   8.246  -3.654  1.00  0.00     0.014 A 
ATOM     39  C   UNL     1     -12.763   6.124  -4.444  1.00  0.00     0.014 A 
ATOM     40  C   UNL     1     -13.299   8.835  -4.877  1.00  0.00     0.010 A 
ATOM     41  C   UNL     1     -12.377   6.727  -5.637  1.00  0.00     0.010 A 
ATOM     42  C   UNL     1     -12.637   8.089  -5.865  1.00  0.00    -0.014 A 
BRANCH  42  43
ATOM     43  C   UNL     1     -12.199   8.698  -7.146  1.00  0.00     0.031 A 
ATOM     44  C   UNL     1     -12.784   8.211  -8.443  1.00  0.00     0.074 A 
ATOM     45  C   UNL     1     -11.204   9.608  -7.151  1.00  0.00     0.049 A 
ATOM     46  N   UNL     1     -12.424   8.494  -9.668  1.00  0.00    -0.248 NA
ATOM     47  C   UNL     1     -13.902   7.257  -8.349  1.00  0.00     0.031 C 
ATOM     48  C   UNL     1     -10.532  10.139  -5.963  1.00  0.00     0.029 A 
ATOM     49  N   UNL     1     -10.564  10.229  -8.197  1.00  0.00    -0.354 N 
ATOM     50  C   UNL     1     -13.245   7.729 -10.489  1.00  0.00     0.074 A 
ATOM     51  C   UNL     1     -14.102   6.949  -9.623  1.00  0.00     0.031 C 
ATOM     52  C   UNL     1      -9.576  11.002  -6.346  1.00  0.00     0.029 A 
ATOM     53  C   UNL     1      -9.536  11.053  -7.804  1.00  0.00     0.049 A 
ATOM     54  H   UNL     1     -10.818  10.095  -9.139  1.00  0.00     0.167 HD
ATOM     55  C   UNL     1     -13.285   7.687 -11.841  1.00  0.00     0.031 A 
ATOM     56  C   UNL     1      -8.643  11.752  -8.533  1.00  0.00     0.031 A 
ATOM     57  C   UNL     1     -12.451   8.486 -12.698  1.00  0.00     0.049 A 
ATOM     58  C   UNL     1      -8.712  11.693 -10.035  1.00  0.00     0.074 A 
ATOM     59  C   UNL     1     -12.468   8.567 -14.079  1.00  0.00     0.029 A 
ATOM     60  N   UNL     1     -11.453   9.341 -12.258  1.00  0.00    -0.354 N 
ATOM     61  N   UNL     1      -9.537  11.011 -10.793  1.00  0.00    -0.248 NA
ATOM     62  C   UNL     1      -7.736  12.500 -10.781  1.00  0.00     0.031 C 
ATOM     63  C   UNL     1     -11.448   9.435 -14.477  1.00  0.00     0.029 A 
ATOM     64  C   UNL     1     -10.832   9.937 -13.341  1.00  0.00     0.049 A 
ATOM     65  H   UNL     1     -11.221   9.501 -11.315  1.00  0.00     0.167 HD
ATOM     66  C   UNL     1      -9.199  11.331 -12.103  1.00  0.00     0.074 A 
ATOM     67  C   UNL     1      -8.101  12.272 -12.036  1.00  0.00     0.031 C 
ATOM     68  C   UNL     1      -9.751  10.885 -13.257  1.00  0.00     0.031 A 
BRANCH  55  69
ATOM     69  C   UNL     1     -14.259   6.737 -12.486  1.00  0.00    -0.014 A 
ATOM     70  C   UNL     1     -15.643   6.984 -12.462  1.00  0.00     0.010 A 
ATOM     71  C   UNL     1     -13.776   5.612 -13.180  1.00  0.00     0.010 A 
ATOM     72  C   UNL     1     -16.528   6.107 -13.092  1.00  0.00     0.020 A 
ATOM     73  C   UNL     1     -14.656   4.747 -13.835  1.00  0.00     0.020 A 
ATOM     74  C   UNL     1     -16.029   4.993 -13.774  1.00  0.00     0.054 A 
BRANCH  74  75
ATOM     75  S   UNL     1     -17.199   3.892 -14.616  1.00  0.00     0.124 S 
ATOM     76  O   UNL     1     -17.811   3.187 -13.492  1.00  0.00    -0.237 OA
ATOM     77  O   UNL     1     -18.072   4.829 -15.319  1.00  0.00    -0.237 OA
ATOM     78  O   UNL     1     -16.348   3.073 -15.476  1.00  0.00    -0.744 OA
ENDBRANCH  74  75
ENDBRANCH  55  69
BRANCH  56  79
ATOM     79  C   UNL     1      -7.593  12.557  -7.851  1.00  0.00    -0.014 A 
ATOM     80  C   UNL     1      -7.641  13.962  -7.873  1.00  0.00     0.010 A 
ATOM     81  C   UNL     1      -6.537  11.920  -7.174  1.00  0.00     0.010 A 
ATOM     82  C   UNL     1      -6.641  14.715  -7.249  1.00  0.00     0.020 A 
ATOM     83  C   UNL     1      -5.550  12.669  -6.527  1.00  0.00     0.020 A 
ATOM     84  C   UNL     1      -5.601  14.063  -6.581  1.00  0.00     0.054 A 
BRANCH  84  85
ATOM     85  S   UNL     1      -4.335  15.057  -5.742  1.00  0.00     0.124 S 
ATOM     86  O   UNL     1      -3.531  15.531  -6.864  1.00  0.00    -0.237 OA
ATOM     87  O   UNL     1      -5.132  16.073  -5.058  1.00  0.00    -0.237 OA
ATOM     88  O   UNL     1      -3.677  14.095  -4.860  1.00  0.00    -0.744 OA
ENDBRANCH  84  85
ENDBRANCH  56  79
BRANCH  68  89
ATOM     89  C   UNL     1      -9.215  11.437 -14.550  1.00  0.00    -0.014 A 
ATOM     90  C   UNL     1      -7.977  11.015 -15.065  1.00  0.00     0.010 A 
ATOM     91  C   UNL     1     -10.009  12.320 -15.305  1.00  0.00     0.010 A 
ATOM     92  C   UNL     1      -7.538  11.476 -16.309  1.00  0.00     0.020 A 
ATOM     93  C   UNL     1      -9.585  12.763 -16.559  1.00  0.00     0.020 A 
ATOM     94  C   UNL     1      -8.347  12.343 -17.050  1.00  0.00     0.054 A 
BRANCH  94  95
ATOM     95  S   UNL     1      -7.791  12.864 -18.696  1.00  0.00     0.124 S 
ATOM     96  O   UNL     1      -6.741  13.826 -18.372  1.00  0.00    -0.237 OA
ATOM     97  O   UNL     1      -7.332  11.611 -19.292  1.00  0.00    -0.237 OA
ATOM     98  O   UNL     1      -8.992  13.433 -19.304  1.00  0.00    -0.744 OA
ENDBRANCH  94  95
ENDBRANCH  68  89
ENDBRANCH  42  43
ENDBRANCH  34  37
ENDBRANCH  32  33
ENDBRANCH  31  32
ENDBRANCH   1  31
TORSDOF 19
