REMARK SMILES Cc1ccc(C[C@@H](Cc2cc(F)cc(Br)c2)C(=O)NCCCCCCNC(=O)c2ccc(-c3c4nc(c(-c5ccc(S(=O)(=O)[O-])cc5)c5ccc([nH]5)c(-c5ccc(S(=O)(=O)[O-])cc5)c5nc(c(-c6ccc(S(=O)(=O)[O-])cc6)c6ccc3[nH]6)C=C5)C=C4)cc2)cc1
REMARK SMILES IDX 23 1 22 2 21 3 20 4 19 5 17 6 18 7 7 9 6 10 5 11 1 12 2 13
REMARK SMILES IDX 3 14 90 15 4 16 89 17 8 18 9 19 10 20 16 21 11 22 14 23
REMARK SMILES IDX 12 24 13 25 15 26 24 27 25 28 26 29 27 30 28 32 29 33 30 34
REMARK SMILES IDX 88 35 31 36 87 37 32 38 33 39 34 40 81 41 35 42 86 43 80 44
REMARK SMILES IDX 82 45 36 46 85 47 79 48 78 49 37 51 67 52 48 53 66 54 49 55
REMARK SMILES IDX 52 56 65 57 83 58 50 59 51 60 64 62 84 63 53 64 38 65 39 66
REMARK SMILES IDX 47 67 40 68 46 69 41 70 42 71 43 72 44 73 45 74 68 75 69 76
REMARK SMILES IDX 77 77 70 78 76 79 71 80 72 81 73 82 74 83 75 84 54 85 55 86
REMARK SMILES IDX 63 87 56 88 62 89 57 90 58 91 59 92 60 93 61 94
REMARK H PARENT 19 8 26 31 82 50 52 61
REMARK Flexibility Score: inf
ROOT
ATOM      1  C   UNL     1      -8.288  -3.006   2.216  1.00  0.00     0.002 C 
ENDROOT
BRANCH   1   2
ATOM      2  C   UNL     1      -7.766  -1.590   2.529  1.00  0.00     0.002 C 
BRANCH   2   3
ATOM      3  C   UNL     1      -6.259  -1.347   2.376  1.00  0.00     0.021 C 
BRANCH   3   4
ATOM      4  C   UNL     1      -5.694  -1.680   1.001  1.00  0.00     0.116 C 
BRANCH   4   5
ATOM      5  N   UNL     1      -5.997  -0.660   0.014  1.00  0.00    -0.356 N 
ATOM      6  C   UNL     1      -5.270  -0.233  -1.054  1.00  0.00     0.223 C 
ATOM      7  O   UNL     1      -5.811   0.542  -1.849  1.00  0.00    -0.275 OA
ATOM      8  H   UNL     1      -6.862  -0.207   0.137  1.00  0.00     0.163 HD
BRANCH   6   9
ATOM      9  C   UNL     1      -3.819  -0.653  -1.275  1.00  0.00     0.087 C 
BRANCH   9  10
ATOM     10  C   UNL     1      -2.976   0.054  -0.179  1.00  0.00     0.049 C 
BRANCH  10  11
ATOM     11  C   UNL     1      -1.465   0.041  -0.277  1.00  0.00    -0.047 A 
ATOM     12  C   UNL     1       2.856   0.157  -0.027  1.00  0.00     0.044 C 
ATOM     13  C   UNL     1       1.361   0.125  -0.136  1.00  0.00    -0.051 A 
ATOM     14  C   UNL     1       0.676  -1.079   0.041  1.00  0.00     0.004 A 
ATOM     15  C   UNL     1       0.628   1.284  -0.408  1.00  0.00     0.004 A 
ATOM     16  C   UNL     1      -0.720  -1.116  -0.011  1.00  0.00     0.004 A 
ATOM     17  C   UNL     1      -0.769   1.241  -0.481  1.00  0.00     0.004 A 
ENDBRANCH  10  11
ENDBRANCH   9  10
BRANCH   9  18
ATOM     18  C   UNL     1      -3.547  -2.168  -1.434  1.00  0.00     0.049 C 
BRANCH  18  19
ATOM     19  C   UNL     1      -4.620  -3.199  -1.725  1.00  0.00    -0.043 A 
ATOM     20  C   UNL     1      -4.370  -4.519  -1.300  1.00  0.00     0.043 A 
ATOM     21  C   UNL     1      -5.849  -2.936  -2.344  1.00  0.00     0.019 A 
ATOM     22  C   UNL     1      -5.353  -5.500  -1.393  1.00  0.00     0.124 A 
ATOM     23  C   UNL     1      -6.842  -3.925  -2.393  1.00  0.00     0.021 A 
ATOM     24  F   UNL     1      -5.088  -6.737  -0.954  1.00  0.00    -0.207 F 
ATOM     25  C   UNL     1      -6.604  -5.207  -1.909  1.00  0.00     0.055 A 
ATOM     26  Br  UNL     1      -8.552  -3.498  -3.079  1.00  0.00    -0.051 Br
ENDBRANCH  18  19
ENDBRANCH   9  18
ENDBRANCH   6   9
ENDBRANCH   4   5
ENDBRANCH   3   4
ENDBRANCH   2   3
ENDBRANCH   1   2
BRANCH   1  27
ATOM     27  C   UNL     1      -7.488  -4.193   2.762  1.00  0.00     0.021 C 
BRANCH  27  28
ATOM     28  C   UNL     1      -7.277  -4.188   4.265  1.00  0.00     0.116 C 
BRANCH  28  29
ATOM     29  N   UNL     1      -8.350  -4.736   5.069  1.00  0.00    -0.352 N 
ATOM     30  C   UNL     1      -7.987  -5.202   6.338  1.00  0.00     0.251 C 
ATOM     31  H   UNL     1      -9.278  -4.779   4.742  1.00  0.00     0.163 HD
ATOM     32  O   UNL     1      -7.480  -6.291   6.570  1.00  0.00    -0.269 OA
BRANCH  30  33
ATOM     33  C   UNL     1      -7.878  -4.101   7.316  1.00  0.00     0.039 A 
ATOM     34  C   UNL     1      -8.945  -3.702   8.116  1.00  0.00     0.014 A 
ATOM     35  C   UNL     1      -6.729  -3.317   7.191  1.00  0.00     0.014 A 
ATOM     36  C   UNL     1      -8.904  -2.436   8.709  1.00  0.00     0.010 A 
ATOM     37  C   UNL     1      -6.737  -2.033   7.686  1.00  0.00     0.010 A 
ATOM     38  C   UNL     1      -7.835  -1.580   8.425  1.00  0.00    -0.014 A 
BRANCH  38  39
ATOM     39  C   UNL     1      -7.772  -0.172   8.800  1.00  0.00     0.031 A 
ATOM     40  C   UNL     1      -6.884   0.265   9.903  1.00  0.00     0.074 A 
ATOM     41  C   UNL     1      -8.400   0.755   8.043  1.00  0.00     0.049 A 
ATOM     42  N   UNL     1      -7.014   1.377  10.548  1.00  0.00    -0.248 NA
ATOM     43  C   UNL     1      -5.784  -0.559  10.398  1.00  0.00     0.031 C 
ATOM     44  C   UNL     1      -8.160   2.196   8.044  1.00  0.00     0.029 A 
ATOM     45  N   UNL     1      -9.547   0.608   7.263  1.00  0.00    -0.354 N 
ATOM     46  C   UNL     1      -5.875   1.551  11.302  1.00  0.00     0.074 A 
ATOM     47  C   UNL     1      -5.180   0.286  11.238  1.00  0.00     0.031 C 
ATOM     48  C   UNL     1      -9.263   2.812   7.593  1.00  0.00     0.029 A 
ATOM     49  C   UNL     1     -10.285   1.792   7.428  1.00  0.00     0.049 A 
ATOM     50  H   UNL     1      -9.791  -0.169   6.708  1.00  0.00     0.167 HD
ATOM     51  C   UNL     1      -5.557   2.787  11.784  1.00  0.00     0.031 A 
ATOM     52  C   UNL     1     -11.544   1.845   7.955  1.00  0.00     0.031 A 
ATOM     53  C   UNL     1      -6.583   3.776  11.463  1.00  0.00     0.049 A 
ATOM     54  C   UNL     1     -11.641   2.750   9.164  1.00  0.00     0.074 A 
ATOM     55  C   UNL     1      -6.679   4.750  10.483  1.00  0.00     0.029 A 
ATOM     56  N   UNL     1      -7.846   3.657  12.029  1.00  0.00    -0.354 N 
ATOM     57  N   UNL     1     -10.609   3.180   9.835  1.00  0.00    -0.248 NA
ATOM     58  C   UNL     1     -12.904   3.205   9.739  1.00  0.00     0.031 C 
ATOM     59  C   UNL     1      -8.033   5.168  10.413  1.00  0.00     0.029 A 
ATOM     60  C   UNL     1      -8.749   4.466  11.367  1.00  0.00     0.049 A 
ATOM     61  H   UNL     1      -8.066   3.077  12.794  1.00  0.00     0.167 HD
ATOM     62  C   UNL     1     -11.029   3.938  10.896  1.00  0.00     0.074 A 
ATOM     63  C   UNL     1     -12.476   3.934  10.786  1.00  0.00     0.031 C 
ATOM     64  C   UNL     1     -10.146   4.495  11.777  1.00  0.00     0.031 A 
BRANCH  51  65
ATOM     65  C   UNL     1      -4.178   3.152  12.287  1.00  0.00    -0.014 A 
ATOM     66  C   UNL     1      -3.701   4.470  12.120  1.00  0.00     0.010 A 
ATOM     67  C   UNL     1      -3.285   2.240  12.882  1.00  0.00     0.010 A 
ATOM     68  C   UNL     1      -2.380   4.829  12.424  1.00  0.00     0.020 A 
ATOM     69  C   UNL     1      -1.948   2.574  13.154  1.00  0.00     0.020 A 
ATOM     70  C   UNL     1      -1.499   3.867  12.909  1.00  0.00     0.054 A 
BRANCH  70  71
ATOM     71  S   UNL     1       0.230   4.323  13.202  1.00  0.00     0.124 S 
ATOM     72  O   UNL     1       0.643   4.847  11.902  1.00  0.00    -0.237 OA
ATOM     73  O   UNL     1       0.118   5.309  14.272  1.00  0.00    -0.237 OA
ATOM     74  O   UNL     1       0.862   3.061  13.583  1.00  0.00    -0.744 OA
ENDBRANCH  70  71
ENDBRANCH  51  65
BRANCH  52  75
ATOM     75  C   UNL     1     -12.346   0.607   7.742  1.00  0.00    -0.014 A 
ATOM     76  C   UNL     1     -12.758   0.331   6.421  1.00  0.00     0.010 A 
ATOM     77  C   UNL     1     -12.267  -0.449   8.667  1.00  0.00     0.010 A 
ATOM     78  C   UNL     1     -12.876  -0.989   5.979  1.00  0.00     0.020 A 
ATOM     79  C   UNL     1     -12.397  -1.774   8.226  1.00  0.00     0.020 A 
ATOM     80  C   UNL     1     -12.610  -2.030   6.868  1.00  0.00     0.054 A 
BRANCH  80  81
ATOM     81  S   UNL     1     -12.342  -3.696   6.186  1.00  0.00     0.124 S 
ATOM     82  O   UNL     1     -13.510  -3.881   5.332  1.00  0.00    -0.237 OA
ATOM     83  O   UNL     1     -11.062  -3.538   5.489  1.00  0.00    -0.237 OA
ATOM     84  O   UNL     1     -12.291  -4.541   7.375  1.00  0.00    -0.744 OA
ENDBRANCH  80  81
ENDBRANCH  52  75
BRANCH  64  85
ATOM     85  C   UNL     1     -10.489   5.188  13.076  1.00  0.00    -0.014 A 
ATOM     86  C   UNL     1     -11.683   4.992  13.787  1.00  0.00     0.010 A 
ATOM     87  C   UNL     1      -9.503   5.996  13.695  1.00  0.00     0.010 A 
ATOM     88  C   UNL     1     -11.905   5.616  15.024  1.00  0.00     0.020 A 
ATOM     89  C   UNL     1      -9.696   6.586  14.948  1.00  0.00     0.020 A 
ATOM     90  C   UNL     1     -10.912   6.411  15.596  1.00  0.00     0.054 A 
BRANCH  90  91
ATOM     91  S   UNL     1     -11.178   7.152  17.227  1.00  0.00     0.124 S 
ATOM     92  O   UNL     1     -11.803   8.425  16.880  1.00  0.00    -0.237 OA
ATOM     93  O   UNL     1     -12.052   6.186  17.889  1.00  0.00    -0.237 OA
ATOM     94  O   UNL     1      -9.830   7.244  17.783  1.00  0.00    -0.744 OA
ENDBRANCH  90  91
ENDBRANCH  64  85
ENDBRANCH  38  39
ENDBRANCH  30  33
ENDBRANCH  28  29
ENDBRANCH  27  28
ENDBRANCH   1  27
TORSDOF 20
