REMARK SMILES Cc1ccc(NC(=O)C[C@H]2C(=O)NCCN2C(=O)CCC(=O)NCCCCCCNC(=O)c2ccc(-c3c4nc(c(-c5ccc(S(=O)(=O)[O-])cc5)c5ccc([nH]5)c(-c5ccc(S(=O)(=O)[O-])cc5)c5nc(c(-c6ccc(S(=O)(=O)[O-])cc6)c6ccc3[nH]6)C=C5)C=C4)cc2)c(C)c1
REMARK SMILES IDX 25 1 24 2 23 3 21 4 22 5 20 7 19 8 17 9 18 10 16 11 10 12
REMARK SMILES IDX 11 13 12 14 13 15 15 16 14 17 9 19 7 20 6 21 8 23 5 24 1 25
REMARK SMILES IDX 2 26 3 27 95 28 4 29 93 30 94 31 26 32 27 33 28 34 29 35
REMARK SMILES IDX 30 36 31 37 32 39 33 40 34 41 92 42 35 43 91 44 36 45 37 46
REMARK SMILES IDX 38 47 85 48 39 49 90 50 84 51 86 52 40 53 89 54 83 55 82 56
REMARK SMILES IDX 41 58 71 59 52 60 70 61 53 62 56 63 69 64 87 65 54 66 55 67
REMARK SMILES IDX 68 69 88 70 57 71 42 72 43 73 51 74 44 75 50 76 45 77 46 78
REMARK SMILES IDX 47 79 48 80 49 81 72 82 73 83 81 84 74 85 80 86 75 87 76 88
REMARK SMILES IDX 77 89 78 90 79 91 58 92 59 93 67 94 60 95 66 96 61 97 62 98
REMARK SMILES IDX 63 99 64 100 65 101
REMARK H PARENT 23 6 13 18 6 22 30 38 86 57 56 68
REMARK Flexibility Score: inf
ROOT
ATOM      1  C   UNL     1      -2.990   3.574   2.202  1.00  0.00     0.021 C 
ENDROOT
BRANCH   1   2
ATOM      2  C   UNL     1      -3.415   3.204   0.711  1.00  0.00     0.116 C 
BRANCH   2   3
ATOM      3  N   UNL     1      -2.734   2.167  -0.074  1.00  0.00    -0.356 N 
ATOM      4  C   UNL     1      -2.971   1.433  -1.198  1.00  0.00     0.220 C 
ATOM      5  O   UNL     1      -2.069   0.740  -1.679  1.00  0.00    -0.275 OA
ATOM      6  H   UNL     1      -1.862   1.937   0.322  1.00  0.00     0.163 HD
BRANCH   4   7
ATOM      7  C   UNL     1      -4.330   1.304  -1.768  1.00  0.00     0.110 C 
BRANCH   7   8
ATOM      8  C   UNL     1      -5.047   0.266  -0.932  1.00  0.00     0.110 C 
BRANCH   8   9
ATOM      9  C   UNL     1      -5.436   0.921   0.350  1.00  0.00     0.223 C 
ATOM     10  O   UNL     1      -6.426   1.668   0.297  1.00  0.00    -0.275 OA
BRANCH   9  11
ATOM     11  N   UNL     1      -4.678   0.785   1.527  1.00  0.00    -0.328 N 
ATOM     12  C   UNL     1      -3.395  -0.055   1.798  1.00  0.00     0.183 C 
ATOM     13  C   UNL     1      -3.504  -0.793   3.169  1.00  0.00     0.243 C 
ATOM     14  O   UNL     1      -2.786  -1.750   3.460  1.00  0.00    -0.273 OA
ATOM     15  N   UNL     1      -4.429  -0.398   4.092  1.00  0.00    -0.353 N 
ATOM     16  C   UNL     1      -5.476   1.323   2.651  1.00  0.00     0.141 C 
ATOM     17  C   UNL     1      -5.256   0.772   4.037  1.00  0.00     0.137 C 
ATOM     18  H   UNL     1      -4.540  -0.978   4.880  1.00  0.00     0.163 HD
BRANCH  12  19
ATOM     19  C   UNL     1      -1.744   0.174   1.338  1.00  0.00     0.135 C 
BRANCH  19  20
ATOM     20  C   UNL     1      -0.452   1.196   1.637  1.00  0.00     0.227 C 
ATOM     21  N   UNL     1       0.018   2.423   1.168  1.00  0.00    -0.326 N 
ATOM     22  H   UNL     1       0.846   2.625   1.661  1.00  0.00     0.169 HD
ATOM     23  O   UNL     1       0.322   0.775   2.530  1.00  0.00    -0.275 OA
BRANCH  21  24
ATOM     24  C   UNL     1      -0.213   3.517   0.256  1.00  0.00     0.044 A 
ATOM     25  C   UNL     1      -2.785   6.313  -1.713  1.00  0.00     0.044 C 
ATOM     26  C   UNL     1      -1.615   5.545  -1.153  1.00  0.00    -0.051 A 
ATOM     27  C   UNL     1      -1.147   5.784   0.139  1.00  0.00     0.005 A 
ATOM     28  C   UNL     1      -1.107   4.426  -1.820  1.00  0.00     0.009 A 
ATOM     29  C   UNL     1      -0.400   4.795   0.817  1.00  0.00     0.026 A 
ATOM     30  C   UNL     1      -0.368   3.429  -1.131  1.00  0.00    -0.027 A 
ATOM     31  C   UNL     1       0.299   2.357  -1.938  1.00  0.00     0.046 C 
ENDBRANCH  21  24
ENDBRANCH  19  20
ENDBRANCH  12  19
ENDBRANCH   9  11
ENDBRANCH   8   9
ENDBRANCH   7   8
ENDBRANCH   4   7
ENDBRANCH   2   3
ENDBRANCH   1   2
BRANCH   1  32
ATOM     32  C   UNL     1      -2.482   2.642   3.329  1.00  0.00     0.002 C 
BRANCH  32  33
ATOM     33  C   UNL     1      -1.262   3.086   4.167  1.00  0.00     0.002 C 
BRANCH  33  34
ATOM     34  C   UNL     1      -1.437   4.377   4.944  1.00  0.00     0.021 C 
BRANCH  34  35
ATOM     35  C   UNL     1      -2.676   4.407   5.818  1.00  0.00     0.116 C 
BRANCH  35  36
ATOM     36  N   UNL     1      -2.644   3.432   6.900  1.00  0.00    -0.352 N 
ATOM     37  C   UNL     1      -2.764   3.653   8.261  1.00  0.00     0.251 C 
ATOM     38  H   UNL     1      -2.522   2.494   6.628  1.00  0.00     0.163 HD
ATOM     39  O   UNL     1      -2.615   2.762   9.062  1.00  0.00    -0.269 OA
BRANCH  37  40
ATOM     40  C   UNL     1      -3.040   5.040   8.702  1.00  0.00     0.039 A 
ATOM     41  C   UNL     1      -2.163   5.653   9.598  1.00  0.00     0.014 A 
ATOM     42  C   UNL     1      -4.084   5.758   8.116  1.00  0.00     0.014 A 
ATOM     43  C   UNL     1      -2.283   7.023   9.835  1.00  0.00     0.010 A 
ATOM     44  C   UNL     1      -4.130   7.136   8.269  1.00  0.00     0.010 A 
ATOM     45  C   UNL     1      -3.232   7.783   9.132  1.00  0.00    -0.014 A 
BRANCH  45  46
ATOM     46  C   UNL     1      -3.318   9.257   9.287  1.00  0.00     0.031 A 
ATOM     47  C   UNL     1      -4.589   9.876   9.803  1.00  0.00     0.074 A 
ATOM     48  C   UNL     1      -2.293  10.038   8.891  1.00  0.00     0.049 A 
ATOM     49  N   UNL     1      -4.894  11.140   9.938  1.00  0.00    -0.248 NA
ATOM     50  C   UNL     1      -5.676   8.954  10.176  1.00  0.00     0.031 C 
ATOM     51  C   UNL     1      -1.032   9.563   8.312  1.00  0.00     0.029 A 
ATOM     52  N   UNL     1      -2.151  11.403   8.911  1.00  0.00    -0.354 N 
ATOM     53  C   UNL     1      -6.211  11.163  10.383  1.00  0.00     0.074 A 
ATOM     54  C   UNL     1      -6.666   9.792  10.435  1.00  0.00     0.031 C 
ATOM     55  C   UNL     1      -0.234  10.616   8.068  1.00  0.00     0.029 A 
ATOM     56  C   UNL     1      -0.935  11.841   8.439  1.00  0.00     0.049 A 
ATOM     57  H   UNL     1      -2.854  12.012   9.233  1.00  0.00     0.167 HD
ATOM     58  C   UNL     1      -6.967  12.226  10.743  1.00  0.00     0.031 A 
ATOM     59  C   UNL     1      -0.440  13.088   8.325  1.00  0.00     0.031 A 
ATOM     60  C   UNL     1      -6.499  13.584  10.727  1.00  0.00     0.049 A 
ATOM     61  C   UNL     1      -1.280  14.251   8.774  1.00  0.00     0.074 A 
ATOM     62  C   UNL     1      -7.159  14.728  11.138  1.00  0.00     0.029 A 
ATOM     63  N   UNL     1      -5.245  13.979  10.285  1.00  0.00    -0.354 N 
ATOM     64  N   UNL     1      -2.501  14.247   9.254  1.00  0.00    -0.248 NA
ATOM     65  C   UNL     1      -0.671  15.585   8.680  1.00  0.00     0.031 C 
ATOM     66  C   UNL     1      -6.316  15.821  10.912  1.00  0.00     0.029 A 
ATOM     67  C   UNL     1      -5.115  15.351  10.403  1.00  0.00     0.049 A 
ATOM     68  H   UNL     1      -4.551  13.373   9.938  1.00  0.00     0.167 HD
ATOM     69  C   UNL     1      -2.797  15.573   9.545  1.00  0.00     0.074 A 
ATOM     70  C   UNL     1      -1.623  16.350   9.198  1.00  0.00     0.031 C 
ATOM     71  C   UNL     1      -3.937  16.102  10.054  1.00  0.00     0.031 A 
BRANCH  58  72
ATOM     72  C   UNL     1      -8.376  11.949  11.194  1.00  0.00    -0.014 A 
ATOM     73  C   UNL     1      -8.632  11.303  12.417  1.00  0.00     0.010 A 
ATOM     74  C   UNL     1      -9.459  12.350  10.392  1.00  0.00     0.010 A 
ATOM     75  C   UNL     1      -9.942  11.015  12.806  1.00  0.00     0.020 A 
ATOM     76  C   UNL     1     -10.774  12.090  10.791  1.00  0.00     0.020 A 
ATOM     77  C   UNL     1     -11.005  11.406  11.986  1.00  0.00     0.054 A 
BRANCH  77  78
ATOM     78  S   UNL     1     -12.697  11.031  12.519  1.00  0.00     0.124 S 
ATOM     79  O   UNL     1     -12.790   9.600  12.237  1.00  0.00    -0.237 OA
ATOM     80  O   UNL     1     -12.677  11.391  13.934  1.00  0.00    -0.237 OA
ATOM     81  O   UNL     1     -13.524  11.887  11.672  1.00  0.00    -0.744 OA
ENDBRANCH  77  78
ENDBRANCH  58  72
BRANCH  59  82
ATOM     82  C   UNL     1       0.937  13.296   7.798  1.00  0.00    -0.014 A 
ATOM     83  C   UNL     1       1.980  13.668   8.666  1.00  0.00     0.010 A 
ATOM     84  C   UNL     1       1.218  13.107   6.433  1.00  0.00     0.010 A 
ATOM     85  C   UNL     1       3.275  13.863   8.176  1.00  0.00     0.020 A 
ATOM     86  C   UNL     1       2.516  13.278   5.944  1.00  0.00     0.020 A 
ATOM     87  C   UNL     1       3.535  13.665   6.817  1.00  0.00     0.054 A 
BRANCH  87  88
ATOM     88  S   UNL     1       5.234  13.867   6.211  1.00  0.00     0.124 S 
ATOM     89  O   UNL     1       5.372  15.319   6.175  1.00  0.00    -0.237 OA
ATOM     90  O   UNL     1       6.019  13.181   7.234  1.00  0.00    -0.237 OA
ATOM     91  O   UNL     1       5.210  13.205   4.908  1.00  0.00    -0.744 OA
ENDBRANCH  87  88
ENDBRANCH  59  82
BRANCH  71  92
ATOM     92  C   UNL     1      -3.960  17.586  10.297  1.00  0.00    -0.014 A 
ATOM     93  C   UNL     1      -4.069  18.495   9.230  1.00  0.00     0.010 A 
ATOM     94  C   UNL     1      -3.928  18.071  11.617  1.00  0.00     0.010 A 
ATOM     95  C   UNL     1      -4.116  19.868   9.479  1.00  0.00     0.020 A 
ATOM     96  C   UNL     1      -4.000  19.443  11.870  1.00  0.00     0.020 A 
ATOM     97  C   UNL     1      -4.079  20.334  10.797  1.00  0.00     0.054 A 
BRANCH  97  98
ATOM     98  S   UNL     1      -4.185  22.119  11.098  1.00  0.00     0.124 S 
ATOM     99  O   UNL     1      -2.838  22.565  10.753  1.00  0.00    -0.237 OA
ATOM    100  O   UNL     1      -5.241  22.538  10.180  1.00  0.00    -0.237 OA
ATOM    101  O   UNL     1      -4.529  22.210  12.515  1.00  0.00    -0.744 OA
ENDBRANCH  97  98
ENDBRANCH  71  92
ENDBRANCH  45  46
ENDBRANCH  37  40
ENDBRANCH  35  36
ENDBRANCH  34  35
ENDBRANCH  33  34
ENDBRANCH  32  33
ENDBRANCH   1  32
TORSDOF 22
