REMARK SMILES C[C@@H](C(=O)NCCCCCCNC(=O)c1ccc(-c2c3nc(c(-c4ccc(S(=O)(=O)[O-])cc4)c4ccc([nH]4)c(-c4ccc(S(=O)(=O)[O-])cc4)c4nc(c(-c5ccc(S(=O)(=O)[O-])cc5)c5ccc2[nH]5)C=C4)C=C3)cc1)c1ccc(C[C@H]2CCCC2=O)cc1
REMARK SMILES IDX 8 1 7 2 6 3 5 4 3 5 4 6 2 8 1 9 75 10 76 11 87 12 77 13
REMARK SMILES IDX 86 14 78 15 79 16 80 17 81 18 84 19 82 20 83 21 85 22 9 23
REMARK SMILES IDX 10 24 11 25 12 26 13 27 14 29 15 30 16 31 74 32 17 33 73 34
REMARK SMILES IDX 18 35 19 36 20 37 67 38 21 39 72 40 66 41 68 42 22 43 71 44
REMARK SMILES IDX 65 45 64 46 23 48 53 49 34 50 52 51 35 52 38 53 51 54 69 55
REMARK SMILES IDX 36 56 37 57 50 59 70 60 39 61 24 62 25 63 33 64 26 65 32 66
REMARK SMILES IDX 27 67 28 68 29 69 30 70 31 71 54 72 55 73 63 74 56 75 62 76
REMARK SMILES IDX 57 77 58 78 59 79 60 80 61 81 40 82 41 83 49 84 42 85 48 86
REMARK SMILES IDX 43 87 44 88 45 89 46 90 47 91
REMARK H PARENT 5 7 12 28 68 47 38 58
REMARK Flexibility Score: inf
ROOT
ATOM      1  C   UNL     1       4.889  -2.669  -0.998  1.00  0.00     0.002 C 
ENDROOT
BRANCH   1   2
ATOM      2  C   UNL     1       4.160  -1.382  -0.586  1.00  0.00     0.021 C 
BRANCH   2   3
ATOM      3  C   UNL     1       3.375  -0.720  -1.720  1.00  0.00     0.116 C 
BRANCH   3   4
ATOM      4  N   UNL     1       2.349  -1.614  -2.212  1.00  0.00    -0.356 N 
ATOM      5  C   UNL     1       1.001  -1.611  -2.017  1.00  0.00     0.227 C 
ATOM      6  O   UNL     1       0.392  -2.581  -2.474  1.00  0.00    -0.274 OA
ATOM      7  H   UNL     1       2.680  -2.345  -2.782  1.00  0.00     0.163 HD
BRANCH   5   8
ATOM      8  C   UNL     1       0.328  -0.417  -1.317  1.00  0.00     0.105 C 
ATOM      9  C   UNL     1       0.679  -0.297   0.170  1.00  0.00     0.023 C 
BRANCH   8  10
ATOM     10  C   UNL     1      -1.196  -0.401  -1.421  1.00  0.00    -0.036 A 
ATOM     11  C   UNL     1      -1.858   0.808  -1.676  1.00  0.00     0.005 A 
ATOM     12  C   UNL     1      -1.966  -1.542  -1.156  1.00  0.00     0.005 A 
ATOM     13  C   UNL     1      -3.253   0.872  -1.655  1.00  0.00     0.004 A 
ATOM     14  C   UNL     1      -3.358  -1.482  -1.144  1.00  0.00     0.004 A 
ATOM     15  C   UNL     1      -4.014  -0.268  -1.365  1.00  0.00    -0.047 A 
BRANCH  15  16
ATOM     16  C   UNL     1      -5.514  -0.185  -1.238  1.00  0.00     0.047 C 
BRANCH  16  17
ATOM     17  C   UNL     1      -6.035   0.357   0.098  1.00  0.00     0.060 C 
ATOM     18  C   UNL     1      -5.533  -0.338   1.369  1.00  0.00     0.012 C 
ATOM     19  C   UNL     1      -5.619   1.790   0.335  1.00  0.00     0.136 C 
ATOM     20  C   UNL     1      -4.385   0.511   1.905  1.00  0.00     0.009 C 
ATOM     21  C   UNL     1      -4.721   1.948   1.533  1.00  0.00     0.076 C 
ATOM     22  O   UNL     1      -5.989   2.728  -0.362  1.00  0.00    -0.299 OA
ENDBRANCH  16  17
ENDBRANCH  15  16
ENDBRANCH   8  10
ENDBRANCH   5   8
ENDBRANCH   3   4
ENDBRANCH   2   3
ENDBRANCH   1   2
BRANCH   1  23
ATOM     23  C   UNL     1       5.827  -2.522  -2.199  1.00  0.00     0.002 C 
BRANCH  23  24
ATOM     24  C   UNL     1       6.874  -1.417  -2.057  1.00  0.00     0.021 C 
BRANCH  24  25
ATOM     25  C   UNL     1       7.794  -1.582  -0.855  1.00  0.00     0.116 C 
BRANCH  25  26
ATOM     26  N   UNL     1       8.615  -2.776  -0.963  1.00  0.00    -0.352 N 
ATOM     27  C   UNL     1       9.979  -2.890  -0.866  1.00  0.00     0.251 C 
ATOM     28  H   UNL     1       8.128  -3.616  -1.127  1.00  0.00     0.163 HD
ATOM     29  O   UNL     1      10.535  -3.935  -1.199  1.00  0.00    -0.269 OA
BRANCH  27  30
ATOM     30  C   UNL     1      10.772  -1.745  -0.374  1.00  0.00     0.039 A 
ATOM     31  C   UNL     1      11.954  -1.402  -1.032  1.00  0.00     0.014 A 
ATOM     32  C   UNL     1      10.344  -1.012   0.737  1.00  0.00     0.014 A 
ATOM     33  C   UNL     1      12.690  -0.298  -0.596  1.00  0.00     0.010 A 
ATOM     34  C   UNL     1      11.030   0.137   1.113  1.00  0.00     0.010 A 
ATOM     35  C   UNL     1      12.223   0.493   0.467  1.00  0.00    -0.014 A 
BRANCH  35  36
ATOM     36  C   UNL     1      12.988   1.671   0.947  1.00  0.00     0.031 A 
ATOM     37  C   UNL     1      13.539   1.686   2.348  1.00  0.00     0.074 A 
ATOM     38  C   UNL     1      13.142   2.745   0.147  1.00  0.00     0.049 A 
ATOM     39  N   UNL     1      14.203   2.630   2.965  1.00  0.00    -0.248 NA
ATOM     40  C   UNL     1      13.287   0.494   3.175  1.00  0.00     0.031 C 
ATOM     41  C   UNL     1      12.628   2.865  -1.219  1.00  0.00     0.029 A 
ATOM     42  N   UNL     1      13.778   3.940   0.369  1.00  0.00    -0.354 N 
ATOM     43  C   UNL     1      14.423   2.157   4.253  1.00  0.00     0.074 A 
ATOM     44  C   UNL     1      13.772   0.870   4.348  1.00  0.00     0.031 C 
ATOM     45  C   UNL     1      13.006   4.050  -1.726  1.00  0.00     0.029 A 
ATOM     46  C   UNL     1      13.748   4.790  -0.711  1.00  0.00     0.049 A 
ATOM     47  H   UNL     1      14.216   4.167   1.222  1.00  0.00     0.167 HD
ATOM     48  C   UNL     1      15.121   2.731   5.263  1.00  0.00     0.031 A 
ATOM     49  C   UNL     1      14.262   6.026  -0.866  1.00  0.00     0.031 A 
ATOM     50  C   UNL     1      15.773   4.010   5.160  1.00  0.00     0.049 A 
ATOM     51  C   UNL     1      15.022   6.652   0.271  1.00  0.00     0.074 A 
ATOM     52  C   UNL     1      16.555   4.655   6.101  1.00  0.00     0.029 A 
ATOM     53  N   UNL     1      15.713   4.841   4.051  1.00  0.00    -0.354 N 
ATOM     54  N   UNL     1      15.276   6.162   1.462  1.00  0.00    -0.248 NA
ATOM     55  C   UNL     1      15.577   7.991   0.037  1.00  0.00     0.031 C 
ATOM     56  C   UNL     1      16.914   5.905   5.585  1.00  0.00     0.029 A 
ATOM     57  C   UNL     1      16.420   6.006   4.294  1.00  0.00     0.049 A 
ATOM     58  H   UNL     1      15.238   4.633   3.214  1.00  0.00     0.167 HD
ATOM     59  C   UNL     1      16.057   7.117   2.105  1.00  0.00     0.074 A 
ATOM     60  C   UNL     1      16.235   8.209   1.168  1.00  0.00     0.031 C 
ATOM     61  C   UNL     1      16.587   7.087   3.353  1.00  0.00     0.031 A 
BRANCH  48  62
ATOM     62  C   UNL     1      15.186   1.986   6.572  1.00  0.00    -0.014 A 
ATOM     63  C   UNL     1      15.868   0.759   6.688  1.00  0.00     0.010 A 
ATOM     64  C   UNL     1      14.556   2.523   7.710  1.00  0.00     0.010 A 
ATOM     65  C   UNL     1      15.861   0.055   7.895  1.00  0.00     0.020 A 
ATOM     66  C   UNL     1      14.579   1.840   8.929  1.00  0.00     0.020 A 
ATOM     67  C   UNL     1      15.209   0.597   9.006  1.00  0.00     0.054 A 
BRANCH  67  68
ATOM     68  S   UNL     1      15.205  -0.344  10.556  1.00  0.00     0.124 S 
ATOM     69  O   UNL     1      14.283  -1.433  10.244  1.00  0.00    -0.237 OA
ATOM     70  O   UNL     1      16.607  -0.730  10.700  1.00  0.00    -0.237 OA
ATOM     71  O   UNL     1      14.721   0.617  11.545  1.00  0.00    -0.744 OA
ENDBRANCH  67  68
ENDBRANCH  48  62
BRANCH  49  72
ATOM     72  C   UNL     1      14.111   6.730  -2.169  1.00  0.00    -0.014 A 
ATOM     73  C   UNL     1      15.225   6.914  -3.009  1.00  0.00     0.010 A 
ATOM     74  C   UNL     1      12.852   7.192  -2.594  1.00  0.00     0.010 A 
ATOM     75  C   UNL     1      15.084   7.554  -4.243  1.00  0.00     0.020 A 
ATOM     76  C   UNL     1      12.702   7.807  -3.840  1.00  0.00     0.020 A 
ATOM     77  C   UNL     1      13.821   7.990  -4.654  1.00  0.00     0.054 A 
BRANCH  77  78
ATOM     78  S   UNL     1      13.653   8.755  -6.291  1.00  0.00     0.124 S 
ATOM     79  O   UNL     1      14.318  10.039  -6.097  1.00  0.00    -0.237 OA
ATOM     80  O   UNL     1      14.350   7.804  -7.154  1.00  0.00    -0.237 OA
ATOM     81  O   UNL     1      12.207   8.821  -6.491  1.00  0.00    -0.744 OA
ENDBRANCH  77  78
ENDBRANCH  49  72
BRANCH  61  82
ATOM     82  C   UNL     1      17.457   8.246   3.767  1.00  0.00    -0.014 A 
ATOM     83  C   UNL     1      16.922   9.522   4.014  1.00  0.00     0.010 A 
ATOM     84  C   UNL     1      18.835   8.033   3.961  1.00  0.00     0.010 A 
ATOM     85  C   UNL     1      17.755  10.573   4.410  1.00  0.00     0.020 A 
ATOM     86  C   UNL     1      19.665   9.072   4.388  1.00  0.00     0.020 A 
ATOM     87  C   UNL     1      19.122  10.340   4.594  1.00  0.00     0.054 A 
BRANCH  87  88
ATOM     88  S   UNL     1      20.174  11.711   5.143  1.00  0.00     0.124 S 
ATOM     89  O   UNL     1      20.242  12.541   3.943  1.00  0.00    -0.237 OA
ATOM     90  O   UNL     1      19.413  12.274   6.255  1.00  0.00    -0.237 OA
ATOM     91  O   UNL     1      21.426  11.058   5.520  1.00  0.00    -0.744 OA
ENDBRANCH  87  88
ENDBRANCH  61  82
ENDBRANCH  35  36
ENDBRANCH  27  30
ENDBRANCH  25  26
ENDBRANCH  24  25
ENDBRANCH  23  24
ENDBRANCH   1  23
TORSDOF 19
