REMARK SMILES Cc1cc(/C=C2/C(=O)NC(=S)[NH+]=C2NCCCCCCNC(=O)c2ccc(-c3c4nc(c(-c5ccc(S(=O)(=O)[O-])cc5)c5ccc([nH]5)c(-c5ccc(S(=O)(=O)[O-])cc5)c5nc(c(-c6ccc(S(=O)(=O)[O-])cc6)c6ccc3[nH]6)C=C5)C=C4)cc2)c(C)n1-c1cccc(C(=O)[O-])c1
REMARK SMILES IDX 18 1 17 2 16 3 15 4 14 5 5 6 6 7 7 8 13 9 8 10 9 11 12 12
REMARK SMILES IDX 10 13 11 17 4 18 1 19 2 20 3 21 86 22 84 23 85 24 87 25
REMARK SMILES IDX 88 26 95 27 89 28 91 29 90 30 92 31 93 32 94 33 19 34 20 35
REMARK SMILES IDX 21 36 22 37 23 39 24 40 25 41 83 42 26 43 82 44 27 45 28 46
REMARK SMILES IDX 29 47 76 48 30 49 81 50 75 51 77 52 31 53 80 54 74 55 73 56
REMARK SMILES IDX 32 58 62 59 43 60 61 61 44 62 47 63 60 64 78 65 45 66 46 67
REMARK SMILES IDX 59 69 79 70 48 71 33 72 34 73 42 74 35 75 41 76 36 77 37 78
REMARK SMILES IDX 38 79 39 80 40 81 63 82 64 83 72 84 65 85 71 86 66 87 67 88
REMARK SMILES IDX 68 89 69 90 70 91 49 92 50 93 58 94 51 95 57 96 52 97 53 98
REMARK SMILES IDX 54 99 55 100 56 101
REMARK H PARENT 9 14 12 15 14 16 21 38 77 57 47 68
REMARK Flexibility Score: inf
ROOT
ATOM      1  C   UNL     1       3.257   3.214  -1.105  1.00  0.00     0.002 C 
ENDROOT
BRANCH   1   2
ATOM      2  C   UNL     1       1.777   3.895  -2.118  1.00  0.00     0.003 C 
BRANCH   2   3
ATOM      3  C   UNL     1       0.215   3.720  -1.472  1.00  0.00     0.037 C 
BRANCH   3   4
ATOM      4  C   UNL     1      -0.273   4.615   0.007  1.00  0.00     0.194 C 
BRANCH   4   5
ATOM      5  N   UNL     1      -0.030   5.947   0.231  1.00  0.00    -0.305 N 
ATOM      6  C   UNL     1      -2.121   3.870   1.428  1.00  0.00     0.032 C 
ATOM      7  C   UNL     1      -2.124   5.329   1.367  1.00  0.00     0.128 C 
ATOM      8  C   UNL     1      -3.240   6.236   1.640  1.00  0.00     0.319 C 
ATOM      9  C   UNL     1      -1.040   6.335   0.893  1.00  0.00     0.234 C 
ATOM     10  O   UNL     1      -4.310   5.788   2.020  1.00  0.00    -0.250 OA
ATOM     11  N   UNL     1      -2.957   7.624   1.513  1.00  0.00    -0.229 N 
ATOM     12  N   UNL     1      -0.832   7.579   0.750  1.00  0.00    -0.236 N 
ATOM     13  C   UNL     1      -1.837   8.325   1.103  1.00  0.00     0.295 C 
ATOM     14  H   UNL     1      -3.711   8.203   1.768  1.00  0.00     0.268 HD
ATOM     15  H   UNL     1       0.013   7.946   0.402  1.00  0.00     0.268 HD
ATOM     16  H   UNL     1       0.748   6.477  -0.055  1.00  0.00     0.256 HD
ATOM     17  S   UNL     1      -1.634   9.972   1.039  1.00  0.00    -0.005 S 
BRANCH   6  18
ATOM     18  C   UNL     1      -0.881   2.709   1.122  1.00  0.00    -0.003 A 
ATOM     19  C   UNL     1       0.708  -0.542   0.200  1.00  0.00     0.065 C 
ATOM     20  C   UNL     1       0.228   0.791   0.603  1.00  0.00     0.020 A 
ATOM     21  C   UNL     1      -1.035   1.279   0.935  1.00  0.00     0.031 A 
ATOM     22  N   UNL     1       1.177   1.745   0.772  1.00  0.00    -0.318 N 
ATOM     23  C   UNL     1       0.679   2.953   0.795  1.00  0.00     0.027 A 
ATOM     24  C   UNL     1       1.729   4.521   0.274  1.00  0.00     0.065 C 
BRANCH  22  25
ATOM     25  C   UNL     1       2.284   1.942   0.077  1.00  0.00     0.046 A 
ATOM     26  C   UNL     1       3.794   2.456   0.929  1.00  0.00     0.026 A 
ATOM     27  C   UNL     1       2.172   1.784  -1.787  1.00  0.00     0.036 A 
ATOM     28  C   UNL     1       5.189   2.859  -0.065  1.00  0.00     0.003 A 
ATOM     29  C   UNL     1       3.740   2.190  -2.725  1.00  0.00    -0.001 A 
ATOM     30  C   UNL     1       5.214   2.628  -1.796  1.00  0.00     0.010 A 
BRANCH  29  31
ATOM     31  C   UNL     1       4.073   1.836  -4.128  1.00  0.00     0.072 C 
ATOM     32  O   UNL     1       5.210   1.887  -4.562  1.00  0.00    -0.545 OA
ATOM     33  O   UNL     1       3.090   1.115  -4.681  1.00  0.00    -0.545 OA
ENDBRANCH  29  31
ENDBRANCH  22  25
ENDBRANCH   6  18
ENDBRANCH   4   5
ENDBRANCH   3   4
ENDBRANCH   2   3
ENDBRANCH   1   2
BRANCH   1  34
ATOM     34  C   UNL     1       3.791   1.113  -0.881  1.00  0.00     0.021 C 
BRANCH  34  35
ATOM     35  C   UNL     1       3.466  -0.037  -1.930  1.00  0.00     0.116 C 
BRANCH  35  36
ATOM     36  N   UNL     1       4.684  -0.227  -2.432  1.00  0.00    -0.352 N 
ATOM     37  C   UNL     1       4.911  -1.400  -3.049  1.00  0.00     0.251 C 
ATOM     38  H   UNL     1       5.386   0.460  -2.356  1.00  0.00     0.163 HD
ATOM     39  O   UNL     1       6.101  -1.194  -3.346  1.00  0.00    -0.269 OA
BRANCH  37  40
ATOM     40  C   UNL     1       3.393  -2.553  -3.200  1.00  0.00     0.039 A 
ATOM     41  C   UNL     1       2.840  -3.836  -3.068  1.00  0.00     0.014 A 
ATOM     42  C   UNL     1       2.084  -2.326  -3.710  1.00  0.00     0.014 A 
ATOM     43  C   UNL     1       1.113  -4.543  -3.521  1.00  0.00     0.010 A 
ATOM     44  C   UNL     1       0.442  -3.142  -4.152  1.00  0.00     0.010 A 
ATOM     45  C   UNL     1      -0.705  -4.473  -4.188  1.00  0.00    -0.014 A 
BRANCH  45  46
ATOM     46  C   UNL     1      -2.534  -5.540  -4.690  1.00  0.00     0.031 A 
ATOM     47  C   UNL     1      -0.868  -6.177  -3.834  1.00  0.00     0.074 A 
ATOM     48  C   UNL     1      -4.345  -5.806  -5.414  1.00  0.00     0.049 A 
ATOM     49  N   UNL     1       0.320  -6.363  -4.510  1.00  0.00    -0.248 NA
ATOM     50  C   UNL     1      -0.168  -6.602  -2.430  1.00  0.00     0.031 C 
ATOM     51  C   UNL     1      -6.207  -6.115  -6.152  1.00  0.00     0.029 A 
ATOM     52  N   UNL     1      -5.608  -7.313  -5.492  1.00  0.00    -0.354 N 
ATOM     53  C   UNL     1       0.437  -7.660  -4.408  1.00  0.00     0.074 A 
ATOM     54  C   UNL     1       0.285  -7.778  -2.912  1.00  0.00     0.031 C 
ATOM     55  C   UNL     1      -7.678  -6.833  -6.325  1.00  0.00     0.029 A 
ATOM     56  C   UNL     1      -7.397  -7.939  -5.604  1.00  0.00     0.049 A 
ATOM     57  H   UNL     1      -5.050  -8.123  -5.456  1.00  0.00     0.167 HD
ATOM     58  C   UNL     1      -0.273  -7.847  -5.557  1.00  0.00     0.031 A 
ATOM     59  C   UNL     1      -8.491  -9.252  -5.742  1.00  0.00     0.031 A 
ATOM     60  C   UNL     1      -1.558  -8.220  -5.161  1.00  0.00     0.049 A 
ATOM     61  C   UNL     1      -7.475 -10.147  -5.321  1.00  0.00     0.074 A 
ATOM     62  C   UNL     1      -2.227  -8.288  -3.942  1.00  0.00     0.029 A 
ATOM     63  N   UNL     1      -2.480  -8.050  -6.103  1.00  0.00    -0.354 N 
ATOM     64  N   UNL     1      -6.544 -10.408  -6.177  1.00  0.00    -0.248 NA
ATOM     65  C   UNL     1      -7.301  -9.815  -3.928  1.00  0.00     0.031 C 
ATOM     66  C   UNL     1      -3.517  -8.420  -4.200  1.00  0.00     0.029 A 
ATOM     67  C   UNL     1      -3.548  -8.628  -5.549  1.00  0.00     0.049 A 
ATOM     68  H   UNL     1      -2.397  -7.611  -6.980  1.00  0.00     0.167 HD
ATOM     69  C   UNL     1      -5.465  -9.777  -5.648  1.00  0.00     0.074 A 
ATOM     70  C   UNL     1      -6.028  -9.475  -4.113  1.00  0.00     0.031 C 
ATOM     71  C   UNL     1      -4.521  -9.037  -6.449  1.00  0.00     0.031 A 
BRANCH  58  72
ATOM     72  C   UNL     1      -0.012  -6.612  -6.742  1.00  0.00    -0.014 A 
ATOM     73  C   UNL     1       1.217  -6.851  -7.310  1.00  0.00     0.010 A 
ATOM     74  C   UNL     1      -0.639  -5.345  -7.116  1.00  0.00     0.010 A 
ATOM     75  C   UNL     1       1.659  -6.124  -8.404  1.00  0.00     0.020 A 
ATOM     76  C   UNL     1      -0.222  -4.624  -8.258  1.00  0.00     0.020 A 
ATOM     77  C   UNL     1       0.875  -5.106  -8.954  1.00  0.00     0.054 A 
BRANCH  77  78
ATOM     78  S   UNL     1       1.254  -4.562 -10.648  1.00  0.00     0.124 S 
ATOM     79  O   UNL     1       2.619  -4.059 -10.509  1.00  0.00    -0.237 OA
ATOM     80  O   UNL     1       1.128  -5.804 -11.405  1.00  0.00    -0.237 OA
ATOM     81  O   UNL     1       0.250  -3.538 -10.923  1.00  0.00    -0.744 OA
ENDBRANCH  77  78
ENDBRANCH  58  72
BRANCH  59  82
ATOM     82  C   UNL     1     -10.120 -10.080  -5.242  1.00  0.00    -0.014 A 
ATOM     83  C   UNL     1     -10.909 -11.402  -5.445  1.00  0.00     0.010 A 
ATOM     84  C   UNL     1     -10.704  -9.528  -4.080  1.00  0.00     0.010 A 
ATOM     85  C   UNL     1     -12.085 -11.914  -4.582  1.00  0.00     0.020 A 
ATOM     86  C   UNL     1     -11.768 -10.054  -3.187  1.00  0.00     0.020 A 
ATOM     87  C   UNL     1     -12.441 -11.251  -3.411  1.00  0.00     0.054 A 
BRANCH  87  88
ATOM     88  S   UNL     1     -13.643 -11.943  -2.147  1.00  0.00     0.124 S 
ATOM     89  O   UNL     1     -14.900 -12.025  -2.885  1.00  0.00    -0.237 OA
ATOM     90  O   UNL     1     -13.048 -13.229  -1.786  1.00  0.00    -0.237 OA
ATOM     91  O   UNL     1     -13.631 -10.953  -1.068  1.00  0.00    -0.744 OA
ENDBRANCH  87  88
ENDBRANCH  59  82
BRANCH  71  92
ATOM     92  C   UNL     1      -4.599  -7.992  -7.971  1.00  0.00    -0.014 A 
ATOM     93  C   UNL     1      -5.323  -6.725  -8.550  1.00  0.00     0.010 A 
ATOM     94  C   UNL     1      -3.746  -8.489  -8.865  1.00  0.00     0.010 A 
ATOM     95  C   UNL     1      -5.697  -6.504  -9.858  1.00  0.00     0.020 A 
ATOM     96  C   UNL     1      -3.851  -8.029 -10.178  1.00  0.00     0.020 A 
ATOM     97  C   UNL     1      -4.815  -7.101 -10.679  1.00  0.00     0.054 A 
BRANCH  97  98
ATOM     98  S   UNL     1      -4.762  -6.531 -12.377  1.00  0.00     0.124 S 
ATOM     99  O   UNL     1      -6.076  -6.932 -12.877  1.00  0.00    -0.237 OA
ATOM    100  O   UNL     1      -4.575  -5.089 -12.234  1.00  0.00    -0.237 OA
ATOM    101  O   UNL     1      -3.633  -7.285 -12.904  1.00  0.00    -0.744 OA
ENDBRANCH  97  98
ENDBRANCH  71  92
ENDBRANCH  45  46
ENDBRANCH  37  40
ENDBRANCH  35  36
ENDBRANCH  34  35
ENDBRANCH   1  34
TORSDOF 18
