REMARK SMILES COc1ccc(CC(=O)NCCCCCCNC(=O)c2ccc(-c3c4nc(c(-c5ccc(S(=O)(=O)[O-])cc5)c5ccc([nH]5)c(-c5ccc(S(=O)(=O)[O-])cc5)c5nc(c(-c6ccc(S(=O)(=O)[O-])cc6)c6ccc3[nH]6)C=C5)C=C4)cc2)cc1S(=O)(=O)Nc1ccccc1Br
REMARK SMILES IDX 13 1 12 2 11 3 10 4 8 5 9 6 7 8 6 9 3 10 4 11 81 12 5 13
REMARK SMILES IDX 80 14 2 15 1 16 82 17 83 18 84 19 85 20 86 22 87 23 91 24
REMARK SMILES IDX 88 25 90 26 92 27 89 28 14 29 15 30 16 31 17 32 18 33 19 35
REMARK SMILES IDX 20 36 21 37 79 38 22 39 78 40 23 41 24 42 25 43 72 44 26 45
REMARK SMILES IDX 77 46 71 47 73 48 27 49 76 50 70 51 69 52 28 54 58 55 39 56
REMARK SMILES IDX 57 57 40 58 43 59 56 60 74 61 41 62 42 63 55 65 75 66 44 67
REMARK SMILES IDX 29 68 30 69 38 70 31 71 37 72 32 73 33 74 34 75 35 76 36 77
REMARK SMILES IDX 59 78 60 79 68 80 61 81 67 82 62 83 63 84 64 85 65 86 66 87
REMARK SMILES IDX 45 88 46 89 54 90 47 91 53 92 48 93 49 94 50 95 51 96 52 97
REMARK H PARENT 10 7 85 21 17 34 73 53 43 64
REMARK Flexibility Score: inf
ROOT
ATOM      1  C   UNL     1       2.872  -1.685  -7.566  1.00  0.00     0.002 C 
ENDROOT
BRANCH   1   2
ATOM      2  C   UNL     1       3.010  -0.775  -6.341  1.00  0.00     0.021 C 
BRANCH   2   3
ATOM      3  C   UNL     1       3.614   0.590  -6.662  1.00  0.00     0.116 C 
BRANCH   3   4
ATOM      4  N   UNL     1       2.656   1.411  -7.376  1.00  0.00    -0.356 N 
ATOM      5  C   UNL     1       1.874   2.413  -6.884  1.00  0.00     0.224 C 
ATOM      6  O   UNL     1       0.975   2.873  -7.591  1.00  0.00    -0.275 OA
ATOM      7  H   UNL     1       2.559   1.221  -8.337  1.00  0.00     0.163 HD
BRANCH   5   8
ATOM      8  C   UNL     1       2.170   2.979  -5.512  1.00  0.00     0.135 C 
BRANCH   8   9
ATOM      9  C   UNL     1       1.592   2.212  -4.346  1.00  0.00    -0.037 A 
ATOM     10  C   UNL     1       0.600   1.222  -1.916  1.00  0.00     0.139 A 
ATOM     11  C   UNL     1      -0.272   1.728  -2.889  1.00  0.00     0.048 A 
ATOM     12  C   UNL     1       1.933   1.007  -2.234  1.00  0.00     0.129 A 
ATOM     13  C   UNL     1       0.218   2.210  -4.104  1.00  0.00     0.008 A 
ATOM     14  C   UNL     1       2.431   1.563  -3.427  1.00  0.00     0.030 A 
BRANCH  10  15
ATOM     15  O   UNL     1       0.045   1.017  -0.689  1.00  0.00    -0.495 OA
ATOM     16  C   UNL     1       0.536   1.949   0.279  1.00  0.00     0.278 C 
ENDBRANCH  10  15
BRANCH  12  17
ATOM     17  S   UNL     1       3.110   0.142  -1.228  1.00  0.00     0.265 S 
ATOM     18  O   UNL     1       4.134  -0.355  -2.131  1.00  0.00    -0.201 OA
ATOM     19  O   UNL     1       3.483   1.062  -0.173  1.00  0.00    -0.201 OA
BRANCH  17  20
ATOM     20  N   UNL     1       2.509  -1.225  -0.434  1.00  0.00    -0.278 N 
ATOM     21  H   UNL     1       3.131  -1.756   0.115  1.00  0.00     0.180 HD
BRANCH  20  22
ATOM     22  C   UNL     1       1.146  -1.653  -0.517  1.00  0.00     0.063 A 
ATOM     23  C   UNL     1       0.380  -1.567   0.658  1.00  0.00     0.028 A 
ATOM     24  C   UNL     1       0.548  -2.154  -1.681  1.00  0.00     0.042 A 
ATOM     25  C   UNL     1      -0.980  -1.882   0.649  1.00  0.00     0.002 A 
ATOM     26  C   UNL     1      -0.817  -2.466  -1.686  1.00  0.00     0.018 A 
ATOM     27  Br  UNL     1       1.531  -2.508  -3.262  1.00  0.00    -0.049 Br
ATOM     28  C   UNL     1      -1.582  -2.313  -0.529  1.00  0.00     0.001 A 
ENDBRANCH  20  22
ENDBRANCH  17  20
ENDBRANCH  12  17
ENDBRANCH   8   9
ENDBRANCH   5   8
ENDBRANCH   3   4
ENDBRANCH   2   3
ENDBRANCH   1   2
BRANCH   1  29
ATOM     29  C   UNL     1       4.185  -1.974  -8.302  1.00  0.00     0.002 C 
BRANCH  29  30
ATOM     30  C   UNL     1       5.304  -2.544  -7.424  1.00  0.00     0.021 C 
BRANCH  30  31
ATOM     31  C   UNL     1       4.965  -3.870  -6.750  1.00  0.00     0.116 C 
BRANCH  31  32
ATOM     32  N   UNL     1       4.722  -4.922  -7.725  1.00  0.00    -0.352 N 
ATOM     33  C   UNL     1       5.300  -6.161  -7.835  1.00  0.00     0.251 C 
ATOM     34  H   UNL     1       4.043  -4.714  -8.406  1.00  0.00     0.163 HD
ATOM     35  O   UNL     1       5.125  -6.826  -8.852  1.00  0.00    -0.269 OA
BRANCH  33  36
ATOM     36  C   UNL     1       6.142  -6.690  -6.739  1.00  0.00     0.039 A 
ATOM     37  C   UNL     1       7.329  -7.352  -7.063  1.00  0.00     0.014 A 
ATOM     38  C   UNL     1       5.752  -6.562  -5.403  1.00  0.00     0.014 A 
ATOM     39  C   UNL     1       8.146  -7.845  -6.044  1.00  0.00     0.010 A 
ATOM     40  C   UNL     1       6.601  -6.995  -4.386  1.00  0.00     0.010 A 
ATOM     41  C   UNL     1       7.803  -7.648  -4.697  1.00  0.00    -0.014 A 
BRANCH  41  42
ATOM     42  C   UNL     1       8.697  -8.116  -3.607  1.00  0.00     0.031 A 
ATOM     43  C   UNL     1       8.248  -9.198  -2.662  1.00  0.00     0.074 A 
ATOM     44  C   UNL     1       9.899  -7.530  -3.441  1.00  0.00     0.049 A 
ATOM     45  N   UNL     1       8.891  -9.728  -1.653  1.00  0.00    -0.248 NA
ATOM     46  C   UNL     1       6.894  -9.739  -2.861  1.00  0.00     0.031 C 
ATOM     47  C   UNL     1      10.425  -6.433  -4.256  1.00  0.00     0.029 A 
ATOM     48  N   UNL     1      10.895  -7.772  -2.528  1.00  0.00    -0.354 N 
ATOM     49  C   UNL     1       8.018 -10.650  -1.087  1.00  0.00     0.074 A 
ATOM     50  C   UNL     1       6.783 -10.574  -1.838  1.00  0.00     0.031 C 
ATOM     51  C   UNL     1      11.656  -6.116  -3.824  1.00  0.00     0.029 A 
ATOM     52  C   UNL     1      11.994  -6.962  -2.684  1.00  0.00     0.049 A 
ATOM     53  H   UNL     1      10.828  -8.461  -1.828  1.00  0.00     0.167 HD
ATOM     54  C   UNL     1       8.229 -11.494  -0.049  1.00  0.00     0.031 A 
ATOM     55  C   UNL     1      13.146  -6.905  -1.989  1.00  0.00     0.031 A 
ATOM     56  C   UNL     1       9.462 -11.572   0.690  1.00  0.00     0.049 A 
ATOM     57  C   UNL     1      13.366  -7.865  -0.854  1.00  0.00     0.074 A 
ATOM     58  C   UNL     1       9.798 -12.441   1.714  1.00  0.00     0.029 A 
ATOM     59  N   UNL     1      10.559 -10.749   0.488  1.00  0.00    -0.354 N 
ATOM     60  N   UNL     1      12.557  -8.787  -0.387  1.00  0.00    -0.248 NA
ATOM     61  C   UNL     1      14.660  -7.789  -0.163  1.00  0.00     0.031 C 
ATOM     62  C   UNL     1      11.081 -12.110   2.165  1.00  0.00     0.029 A 
ATOM     63  C   UNL     1      11.565 -11.072   1.384  1.00  0.00     0.049 A 
ATOM     64  H   UNL     1      10.616 -10.040  -0.192  1.00  0.00     0.167 HD
ATOM     65  C   UNL     1      13.253  -9.414   0.641  1.00  0.00     0.074 A 
ATOM     66  C   UNL     1      14.555  -8.781   0.711  1.00  0.00     0.031 C 
ATOM     67  C   UNL     1      12.851 -10.424   1.452  1.00  0.00     0.031 A 
BRANCH  54  68
ATOM     68  C   UNL     1       7.092 -12.397   0.355  1.00  0.00    -0.014 A 
ATOM     69  C   UNL     1       6.681 -13.463  -0.467  1.00  0.00     0.010 A 
ATOM     70  C   UNL     1       6.446 -12.199   1.589  1.00  0.00     0.010 A 
ATOM     71  C   UNL     1       5.617 -14.284  -0.084  1.00  0.00     0.020 A 
ATOM     72  C   UNL     1       5.400 -13.036   1.989  1.00  0.00     0.020 A 
ATOM     73  C   UNL     1       4.979 -14.062   1.140  1.00  0.00     0.054 A 
BRANCH  73  74
ATOM     74  S   UNL     1       3.611 -15.152   1.620  1.00  0.00     0.124 S 
ATOM     75  O   UNL     1       2.537 -14.689   0.746  1.00  0.00    -0.237 OA
ATOM     76  O   UNL     1       4.137 -16.481   1.317  1.00  0.00    -0.237 OA
ATOM     77  O   UNL     1       3.423 -14.869   3.041  1.00  0.00    -0.744 OA
ENDBRANCH  73  74
ENDBRANCH  54  68
BRANCH  55  78
ATOM     78  C   UNL     1      14.189  -5.914  -2.369  1.00  0.00    -0.014 A 
ATOM     79  C   UNL     1      15.378  -6.330  -2.994  1.00  0.00     0.010 A 
ATOM     80  C   UNL     1      13.985  -4.542  -2.130  1.00  0.00     0.010 A 
ATOM     81  C   UNL     1      16.350  -5.395  -3.361  1.00  0.00     0.020 A 
ATOM     82  C   UNL     1      14.943  -3.602  -2.519  1.00  0.00     0.020 A 
ATOM     83  C   UNL     1      16.125  -4.036  -3.123  1.00  0.00     0.054 A 
BRANCH  83  84
ATOM     84  S   UNL     1      17.373  -2.834  -3.664  1.00  0.00     0.124 S 
ATOM     85  O   UNL     1      18.420  -3.014  -2.664  1.00  0.00    -0.237 OA
ATOM     86  O   UNL     1      17.696  -3.297  -5.011  1.00  0.00    -0.237 OA
ATOM     87  O   UNL     1      16.664  -1.557  -3.607  1.00  0.00    -0.744 OA
ENDBRANCH  83  84
ENDBRANCH  55  78
BRANCH  67  88
ATOM     88  C   UNL     1      13.840 -10.921   2.473  1.00  0.00    -0.014 A 
ATOM     89  C   UNL     1      14.175 -10.147   3.599  1.00  0.00     0.010 A 
ATOM     90  C   UNL     1      14.419 -12.193   2.318  1.00  0.00     0.010 A 
ATOM     91  C   UNL     1      15.105 -10.620   4.528  1.00  0.00     0.020 A 
ATOM     92  C   UNL     1      15.328 -12.681   3.260  1.00  0.00     0.020 A 
ATOM     93  C   UNL     1      15.680 -11.882   4.350  1.00  0.00     0.054 A 
BRANCH  93  94
ATOM     94  S   UNL     1      16.868 -12.484   5.581  1.00  0.00     0.124 S 
ATOM     95  O   UNL     1      18.062 -11.710   5.253  1.00  0.00    -0.237 OA
ATOM     96  O   UNL     1      16.224 -12.139   6.846  1.00  0.00    -0.237 OA
ATOM     97  O   UNL     1      16.957 -13.916   5.305  1.00  0.00    -0.744 OA
ENDBRANCH  93  94
ENDBRANCH  67  88
ENDBRANCH  41  42
ENDBRANCH  33  36
ENDBRANCH  31  32
ENDBRANCH  30  31
ENDBRANCH  29  30
ENDBRANCH   1  29
TORSDOF 21
