REMARK SMILES C[C@@H](C(=O)NCCCCCCNC(=O)c1ccc(-c2c3nc(c(-c4ccc(S(=O)(=O)[O-])cc4)c4ccc([nH]4)c(-c4ccc(S(=O)(=O)[O-])cc4)c4nc(c(-c5ccc(S(=O)(=O)[O-])cc5)c5ccc2[nH]5)C=C4)C=C3)cc1)c1ccc(C[C@@H]2CCC[C@@H]2O)cc1Br
REMARK SMILES IDX 8 1 7 2 6 3 5 4 3 5 4 6 2 8 1 9 75 10 76 11 87 12 77 13
REMARK SMILES IDX 86 14 88 15 78 16 79 17 80 18 81 19 84 20 82 21 83 22 85 23
REMARK SMILES IDX 9 25 10 26 11 27 12 28 13 29 14 31 15 32 16 33 74 34 17 35
REMARK SMILES IDX 73 36 18 37 19 38 20 39 67 40 21 41 72 42 66 43 68 44 22 45
REMARK SMILES IDX 71 46 65 47 64 48 23 50 53 51 34 52 52 53 35 54 38 55 51 56
REMARK SMILES IDX 69 57 36 58 37 59 50 61 70 62 39 63 24 64 25 65 33 66 26 67
REMARK SMILES IDX 32 68 27 69 28 70 29 71 30 72 31 73 54 74 55 75 63 76 56 77
REMARK SMILES IDX 62 78 57 79 58 80 59 81 60 82 61 83 40 84 41 85 49 86 42 87
REMARK SMILES IDX 48 88 43 89 44 90 45 91 46 92 47 93
REMARK H PARENT 5 7 85 24 12 30 68 49 38 60
REMARK Flexibility Score: inf
ROOT
ATOM      1  C   UNL     1      -9.482   4.788  10.288  1.00  0.00     0.002 C 
ENDROOT
BRANCH   1   2
ATOM      2  C   UNL     1      -9.986   3.400   9.870  1.00  0.00     0.021 C 
BRANCH   2   3
ATOM      3  C   UNL     1     -10.674   3.380   8.500  1.00  0.00     0.116 C 
BRANCH   3   4
ATOM      4  N   UNL     1      -9.691   3.597   7.458  1.00  0.00    -0.356 N 
ATOM      5  C   UNL     1      -9.053   2.684   6.667  1.00  0.00     0.227 C 
ATOM      6  O   UNL     1      -8.027   3.057   6.093  1.00  0.00    -0.274 OA
ATOM      7  H   UNL     1      -9.448   4.538   7.296  1.00  0.00     0.163 HD
BRANCH   5   8
ATOM      8  C   UNL     1      -9.644   1.268   6.505  1.00  0.00     0.106 C 
ATOM      9  C   UNL     1      -9.303   0.444   7.757  1.00  0.00     0.023 C 
BRANCH   8  10
ATOM     10  C   UNL     1      -9.182   0.622   5.190  1.00  0.00    -0.022 A 
ATOM     11  C   UNL     1      -8.432  -0.569   5.199  1.00  0.00     0.006 A 
ATOM     12  C   UNL     1      -9.440   1.205   3.934  1.00  0.00     0.022 A 
ATOM     13  C   UNL     1      -7.890  -1.103   4.031  1.00  0.00     0.004 A 
ATOM     14  C   UNL     1      -8.846   0.696   2.769  1.00  0.00     0.019 A 
ATOM     15  Br  UNL     1     -10.593   2.704   3.709  1.00  0.00    -0.051 Br
ATOM     16  C   UNL     1      -8.025  -0.436   2.816  1.00  0.00    -0.047 A 
BRANCH  16  17
ATOM     17  C   UNL     1      -7.279  -0.905   1.593  1.00  0.00     0.041 C 
BRANCH  17  18
ATOM     18  C   UNL     1      -5.758  -0.618   1.528  1.00  0.00     0.022 C 
ATOM     19  C   UNL     1      -4.908  -1.296   2.611  1.00  0.00     0.007 C 
ATOM     20  C   UNL     1      -5.321   0.847   1.632  1.00  0.00     0.117 C 
ATOM     21  C   UNL     1      -4.622  -0.235   3.679  1.00  0.00     0.003 C 
ATOM     22  C   UNL     1      -5.121   1.094   3.122  1.00  0.00     0.032 C 
BRANCH  20  23
ATOM     23  O   UNL     1      -6.236   1.741   1.035  1.00  0.00    -0.393 OA
ATOM     24  H   UNL     1      -7.101   1.655   1.466  1.00  0.00     0.210 HD
ENDBRANCH  20  23
ENDBRANCH  17  18
ENDBRANCH  16  17
ENDBRANCH   8  10
ENDBRANCH   5   8
ENDBRANCH   3   4
ENDBRANCH   2   3
ENDBRANCH   1   2
BRANCH   1  25
ATOM     25  C   UNL     1     -10.572   5.857  10.415  1.00  0.00     0.002 C 
BRANCH  25  26
ATOM     26  C   UNL     1     -11.728   5.485  11.345  1.00  0.00     0.021 C 
BRANCH  26  27
ATOM     27  C   UNL     1     -11.310   5.198  12.783  1.00  0.00     0.116 C 
BRANCH  27  28
ATOM     28  N   UNL     1     -10.787   6.385  13.443  1.00  0.00    -0.352 N 
ATOM     29  C   UNL     1     -11.185   6.952  14.629  1.00  0.00     0.251 C 
ATOM     30  H   UNL     1     -10.050   6.843  12.978  1.00  0.00     0.163 HD
ATOM     31  O   UNL     1     -10.785   8.067  14.951  1.00  0.00    -0.269 OA
BRANCH  29  32
ATOM     32  C   UNL     1     -12.116   6.212  15.505  1.00  0.00     0.039 A 
ATOM     33  C   UNL     1     -13.244   6.863  16.010  1.00  0.00     0.014 A 
ATOM     34  C   UNL     1     -11.881   4.867  15.804  1.00  0.00     0.014 A 
ATOM     35  C   UNL     1     -14.173   6.145  16.767  1.00  0.00     0.010 A 
ATOM     36  C   UNL     1     -12.839   4.139  16.499  1.00  0.00     0.010 A 
ATOM     37  C   UNL     1     -13.993   4.771  16.990  1.00  0.00    -0.014 A 
BRANCH  37  38
ATOM     38  C   UNL     1     -14.991   3.963  17.735  1.00  0.00     0.031 A 
ATOM     39  C   UNL     1     -14.604   3.304  19.029  1.00  0.00     0.074 A 
ATOM     40  C   UNL     1     -16.204   3.733  17.196  1.00  0.00     0.049 A 
ATOM     41  N   UNL     1     -15.282   2.457  19.760  1.00  0.00    -0.248 NA
ATOM     42  C   UNL     1     -13.264   3.613  19.552  1.00  0.00     0.031 C 
ATOM     43  C   UNL     1     -16.683   4.278  15.923  1.00  0.00     0.029 A 
ATOM     44  N   UNL     1     -17.247   2.958  17.638  1.00  0.00    -0.354 N 
ATOM     45  C   UNL     1     -14.441   2.108  20.810  1.00  0.00     0.074 A 
ATOM     46  C   UNL     1     -13.189   2.802  20.596  1.00  0.00     0.031 C 
ATOM     47  C   UNL     1     -17.922   3.820  15.688  1.00  0.00     0.029 A 
ATOM     48  C   UNL     1     -18.311   2.918  16.769  1.00  0.00     0.049 A 
ATOM     49  H   UNL     1     -17.234   2.476  18.497  1.00  0.00     0.167 HD
ATOM     50  C   UNL     1     -14.691   1.292  21.862  1.00  0.00     0.031 A 
ATOM     51  C   UNL     1     -19.462   2.218  16.820  1.00  0.00     0.031 A 
ATOM     52  C   UNL     1     -15.941   0.613  22.072  1.00  0.00     0.049 A 
ATOM     53  C   UNL     1     -19.728   1.325  17.999  1.00  0.00     0.074 A 
ATOM     54  C   UNL     1     -16.320  -0.178  23.141  1.00  0.00     0.029 A 
ATOM     55  N   UNL     1     -17.012   0.637  21.191  1.00  0.00    -0.354 N 
ATOM     56  N   UNL     1     -18.951   1.067  19.025  1.00  0.00    -0.248 NA
ATOM     57  C   UNL     1     -21.027   0.639  18.038  1.00  0.00     0.031 C 
ATOM     58  C   UNL     1     -17.601  -0.676  22.881  1.00  0.00     0.029 A 
ATOM     59  C   UNL     1     -18.043  -0.147  21.678  1.00  0.00     0.049 A 
ATOM     60  H   UNL     1     -17.035   1.138  20.343  1.00  0.00     0.167 HD
ATOM     61  C   UNL     1     -19.676   0.207  19.843  1.00  0.00     0.074 A 
ATOM     62  C   UNL     1     -20.955  -0.006  19.196  1.00  0.00     0.031 C 
ATOM     63  C   UNL     1     -19.313  -0.349  21.024  1.00  0.00     0.031 A 
BRANCH  50  64
ATOM     64  C   UNL     1     -13.572   1.076  22.847  1.00  0.00    -0.014 A 
ATOM     65  C   UNL     1     -13.119   2.115  23.681  1.00  0.00     0.010 A 
ATOM     66  C   UNL     1     -12.959  -0.187  22.937  1.00  0.00     0.010 A 
ATOM     67  C   UNL     1     -12.030   1.916  24.533  1.00  0.00     0.020 A 
ATOM     68  C   UNL     1     -11.890  -0.400  23.812  1.00  0.00     0.020 A 
ATOM     69  C   UNL     1     -11.414   0.662  24.584  1.00  0.00     0.054 A 
BRANCH  69  70
ATOM     70  S   UNL     1      -9.986   0.436  25.677  1.00  0.00     0.124 S 
ATOM     71  O   UNL     1      -8.932   1.131  24.941  1.00  0.00    -0.237 OA
ATOM     72  O   UNL     1     -10.419   1.084  26.912  1.00  0.00    -0.237 OA
ATOM     73  O   UNL     1      -9.836  -1.015  25.758  1.00  0.00    -0.744 OA
ENDBRANCH  69  70
ENDBRANCH  50  64
BRANCH  51  74
ATOM     74  C   UNL     1     -20.442   2.350  15.709  1.00  0.00    -0.014 A 
ATOM     75  C   UNL     1     -21.623   3.091  15.880  1.00  0.00     0.010 A 
ATOM     76  C   UNL     1     -20.160   1.791  14.448  1.00  0.00     0.010 A 
ATOM     77  C   UNL     1     -22.503   3.276  14.808  1.00  0.00     0.020 A 
ATOM     78  C   UNL     1     -21.024   1.995  13.369  1.00  0.00     0.020 A 
ATOM     79  C   UNL     1     -22.193   2.735  13.557  1.00  0.00     0.054 A 
BRANCH  79  80
ATOM     80  S   UNL     1     -23.299   3.074  12.158  1.00  0.00     0.124 S 
ATOM     81  O   UNL     1     -24.439   2.215  12.457  1.00  0.00    -0.237 OA
ATOM     82  O   UNL     1     -23.536   4.510  12.284  1.00  0.00    -0.237 OA
ATOM     83  O   UNL     1     -22.506   2.682  10.994  1.00  0.00    -0.744 OA
ENDBRANCH  79  80
ENDBRANCH  51  74
BRANCH  63  84
ATOM     84  C   UNL     1     -20.317  -1.223  21.727  1.00  0.00    -0.014 A 
ATOM     85  C   UNL     1     -20.588  -2.527  21.278  1.00  0.00     0.010 A 
ATOM     86  C   UNL     1     -20.919  -0.765  22.913  1.00  0.00     0.010 A 
ATOM     87  C   UNL     1     -21.448  -3.357  22.003  1.00  0.00     0.020 A 
ATOM     88  C   UNL     1     -21.760  -1.599  23.653  1.00  0.00     0.020 A 
ATOM     89  C   UNL     1     -22.023  -2.890  23.190  1.00  0.00     0.054 A 
BRANCH  89  90
ATOM     90  S   UNL     1     -23.066  -4.016  24.158  1.00  0.00     0.124 S 
ATOM     91  O   UNL     1     -24.283  -4.070  23.354  1.00  0.00    -0.237 OA
ATOM     92  O   UNL     1     -22.274  -5.244  24.182  1.00  0.00    -0.237 OA
ATOM     93  O   UNL     1     -23.199  -3.343  25.448  1.00  0.00    -0.744 OA
ENDBRANCH  89  90
ENDBRANCH  63  84
ENDBRANCH  37  38
ENDBRANCH  29  32
ENDBRANCH  27  28
ENDBRANCH  26  27
ENDBRANCH  25  26
ENDBRANCH   1  25
TORSDOF 20
