REMARK SMILES NC(=O)CC[C@@H](NC(=O)Nc1ccc(Cl)c(Cl)c1)C(=O)NCCCCCCNC(=O)c1ccc(-c2c3nc(c(-c4ccc(S(=O)(=O)[O-])cc4)c4ccc([nH]4)c(-c4ccc(S(=O)(=O)[O-])cc4)c4nc(c(-c5ccc(S(=O)(=O)[O-])cc5)c5ccc2[nH]5)C=C4)C=C3)cc1
REMARK SMILES IDX 24 1 23 2 22 3 21 4 19 5 20 6 6 8 5 9 4 10 2 11 1 12 3 15
REMARK SMILES IDX 7 16 8 17 9 19 10 20 11 22 12 23 18 24 13 25 16 26 14 27
REMARK SMILES IDX 17 28 15 29 25 30 26 31 27 32 28 33 29 34 30 36 31 37 32 38
REMARK SMILES IDX 90 39 33 40 89 41 34 42 35 43 36 44 83 45 37 46 88 47 82 48
REMARK SMILES IDX 84 49 38 50 87 51 81 52 80 53 39 55 69 56 50 57 68 58 51 59
REMARK SMILES IDX 54 60 67 61 85 62 52 63 53 64 66 66 86 67 55 68 40 69 41 70
REMARK SMILES IDX 49 71 42 72 48 73 43 74 44 75 45 76 46 77 47 78 70 79 71 80
REMARK SMILES IDX 79 81 72 82 78 83 73 84 74 85 75 86 76 87 77 88 56 89 57 90
REMARK SMILES IDX 65 91 58 92 64 93 59 94 60 95 61 96 62 97 63 98
REMARK H PARENT 21 7 1 13 1 14 7 18 10 21 28 35 84 54 54 65
REMARK Flexibility Score: inf
ROOT
ATOM      1  C   UNL     1       4.999  -6.885  -0.588  1.00  0.00     0.002 C 
ENDROOT
BRANCH   1   2
ATOM      2  C   UNL     1       4.072  -6.216   0.446  1.00  0.00     0.021 C 
BRANCH   2   3
ATOM      3  C   UNL     1       4.342  -4.719   0.610  1.00  0.00     0.116 C 
BRANCH   3   4
ATOM      4  N   UNL     1       4.185  -4.107  -0.687  1.00  0.00    -0.354 N 
ATOM      5  C   UNL     1       3.080  -3.431  -1.103  1.00  0.00     0.242 C 
ATOM      6  O   UNL     1       2.462  -3.844  -2.083  1.00  0.00    -0.273 OA
ATOM      7  H   UNL     1       4.935  -4.184  -1.320  1.00  0.00     0.163 HD
BRANCH   5   8
ATOM      8  C   UNL     1       2.632  -2.195  -0.313  1.00  0.00     0.173 C 
BRANCH   8   9
ATOM      9  C   UNL     1       1.458  -2.657   0.576  1.00  0.00     0.045 C 
BRANCH   9  10
ATOM     10  C   UNL     1       0.829  -1.602   1.475  1.00  0.00     0.102 C 
BRANCH  10  11
ATOM     11  C   UNL     1       0.086  -0.563   0.679  1.00  0.00     0.217 C 
ATOM     12  N   UNL     1       0.836   0.494   0.264  1.00  0.00    -0.370 N 
ATOM     13  H   UNL     1       0.420   1.216  -0.262  1.00  0.00     0.159 HD
ATOM     14  H   UNL     1       1.793   0.537   0.489  1.00  0.00     0.159 HD
ATOM     15  O   UNL     1      -1.099  -0.656   0.387  1.00  0.00    -0.275 OA
ENDBRANCH  10  11
ENDBRANCH   9  10
ENDBRANCH   8   9
BRANCH   8  16
ATOM     16  N   UNL     1       3.731  -1.551   0.430  1.00  0.00    -0.326 N 
ATOM     17  C   UNL     1       4.966  -1.109   0.101  1.00  0.00     0.319 C 
ATOM     18  H   UNL     1       3.518  -1.410   1.381  1.00  0.00     0.166 HD
ATOM     19  O   UNL     1       5.630  -0.600   1.008  1.00  0.00    -0.248 OA
ATOM     20  N   UNL     1       5.578  -1.355  -1.081  1.00  0.00    -0.308 N 
ATOM     21  H   UNL     1       6.561  -1.333  -1.030  1.00  0.00     0.171 HD
BRANCH  20  22
ATOM     22  C   UNL     1       5.087  -1.632  -2.360  1.00  0.00     0.044 A 
ATOM     23  C   UNL     1       4.000  -0.944  -2.891  1.00  0.00     0.028 A 
ATOM     24  C   UNL     1       5.671  -2.681  -3.080  1.00  0.00     0.048 A 
ATOM     25  C   UNL     1       3.396  -1.399  -4.065  1.00  0.00     0.024 A 
ATOM     26  C   UNL     1       5.032  -3.175  -4.224  1.00  0.00     0.061 A 
ATOM     27  C   UNL     1       3.881  -2.543  -4.708  1.00  0.00     0.059 A 
ATOM     28  Cl  UNL     1       5.658  -4.626  -4.925  1.00  0.00    -0.083 Cl
ATOM     29  Cl  UNL     1       2.992  -3.142  -6.063  1.00  0.00    -0.083 Cl
ENDBRANCH  20  22
ENDBRANCH   8  16
ENDBRANCH   5   8
ENDBRANCH   3   4
ENDBRANCH   2   3
ENDBRANCH   1   2
BRANCH   1  30
ATOM     30  C   UNL     1       6.491  -6.615  -0.357  1.00  0.00     0.002 C 
BRANCH  30  31
ATOM     31  C   UNL     1       6.981  -7.018   1.034  1.00  0.00     0.021 C 
BRANCH  31  32
ATOM     32  C   UNL     1       6.617  -8.444   1.410  1.00  0.00     0.116 C 
BRANCH  32  33
ATOM     33  N   UNL     1       7.189  -9.412   0.491  1.00  0.00    -0.352 N 
ATOM     34  C   UNL     1       7.692 -10.649   0.791  1.00  0.00     0.251 C 
ATOM     35  H   UNL     1       7.219  -9.147  -0.457  1.00  0.00     0.163 HD
ATOM     36  O   UNL     1       8.312 -11.296  -0.049  1.00  0.00    -0.269 OA
BRANCH  34  37
ATOM     37  C   UNL     1       7.501 -11.168   2.157  1.00  0.00     0.039 A 
ATOM     38  C   UNL     1       8.606 -11.654   2.853  1.00  0.00     0.014 A 
ATOM     39  C   UNL     1       6.238 -11.120   2.760  1.00  0.00     0.014 A 
ATOM     40  C   UNL     1       8.448 -12.072   4.172  1.00  0.00     0.010 A 
ATOM     41  C   UNL     1       6.103 -11.455   4.101  1.00  0.00     0.010 A 
ATOM     42  C   UNL     1       7.201 -11.959   4.812  1.00  0.00    -0.014 A 
BRANCH  42  43
ATOM     43  C   UNL     1       7.033 -12.401   6.217  1.00  0.00     0.031 A 
ATOM     44  C   UNL     1       6.116 -13.551   6.538  1.00  0.00     0.074 A 
ATOM     45  C   UNL     1       7.689 -11.756   7.201  1.00  0.00     0.049 A 
ATOM     46  N   UNL     1       5.865 -14.103   7.697  1.00  0.00    -0.248 NA
ATOM     47  C   UNL     1       5.364 -14.144   5.418  1.00  0.00     0.031 C 
ATOM     48  C   UNL     1       8.560 -10.591   7.017  1.00  0.00     0.029 A 
ATOM     49  N   UNL     1       7.734 -11.993   8.551  1.00  0.00    -0.354 N 
ATOM     50  C   UNL     1       4.920 -15.092   7.447  1.00  0.00     0.074 A 
ATOM     51  C   UNL     1       4.599 -15.028   6.040  1.00  0.00     0.031 C 
ATOM     52  C   UNL     1       9.082 -10.241   8.204  1.00  0.00     0.029 A 
ATOM     53  C   UNL     1       8.558 -11.131   9.235  1.00  0.00     0.049 A 
ATOM     54  H   UNL     1       7.223 -12.712   8.989  1.00  0.00     0.167 HD
ATOM     55  C   UNL     1       4.388 -15.991   8.308  1.00  0.00     0.031 A 
ATOM     56  C   UNL     1       8.860 -11.067  10.546  1.00  0.00     0.031 A 
ATOM     57  C   UNL     1       4.727 -16.060   9.704  1.00  0.00     0.049 A 
ATOM     58  C   UNL     1       8.266 -12.086  11.480  1.00  0.00     0.074 A 
ATOM     59  C   UNL     1       4.299 -16.977  10.648  1.00  0.00     0.029 A 
ATOM     60  N   UNL     1       5.573 -15.177  10.358  1.00  0.00    -0.354 N 
ATOM     61  N   UNL     1       7.444 -13.073  11.208  1.00  0.00    -0.248 NA
ATOM     62  C   UNL     1       8.655 -11.995  12.893  1.00  0.00     0.031 C 
ATOM     63  C   UNL     1       4.836 -16.611  11.885  1.00  0.00     0.029 A 
ATOM     64  C   UNL     1       5.654 -15.508  11.700  1.00  0.00     0.049 A 
ATOM     65  H   UNL     1       6.045 -14.426   9.931  1.00  0.00     0.167 HD
ATOM     66  C   UNL     1       7.236 -13.734  12.414  1.00  0.00     0.074 A 
ATOM     67  C   UNL     1       8.038 -13.050  13.408  1.00  0.00     0.031 C 
ATOM     68  C   UNL     1       6.450 -14.808  12.677  1.00  0.00     0.031 A 
BRANCH  55  69
ATOM     69  C   UNL     1       3.377 -16.967   7.765  1.00  0.00    -0.014 A 
ATOM     70  C   UNL     1       3.753 -17.987   6.871  1.00  0.00     0.010 A 
ATOM     71  C   UNL     1       2.039 -16.894   8.193  1.00  0.00     0.010 A 
ATOM     72  C   UNL     1       2.804 -18.891   6.388  1.00  0.00     0.020 A 
ATOM     73  C   UNL     1       1.093 -17.816   7.737  1.00  0.00     0.020 A 
ATOM     74  C   UNL     1       1.479 -18.801   6.826  1.00  0.00     0.054 A 
BRANCH  74  75
ATOM     75  S   UNL     1       0.277 -20.013   6.213  1.00  0.00     0.124 S 
ATOM     76  O   UNL     1       0.111 -19.597   4.823  1.00  0.00    -0.237 OA
ATOM     77  O   UNL     1       0.975 -21.281   6.410  1.00  0.00    -0.237 OA
ATOM     78  O   UNL     1      -0.890 -19.808   7.068  1.00  0.00    -0.744 OA
ENDBRANCH  74  75
ENDBRANCH  55  69
BRANCH  56  79
ATOM     79  C   UNL     1       9.778 -10.008  11.049  1.00  0.00    -0.014 A 
ATOM     80  C   UNL     1      11.059 -10.331  11.531  1.00  0.00     0.010 A 
ATOM     81  C   UNL     1       9.373  -8.660  11.043  1.00  0.00     0.010 A 
ATOM     82  C   UNL     1      11.905  -9.332  12.022  1.00  0.00     0.020 A 
ATOM     83  C   UNL     1      10.227  -7.655  11.503  1.00  0.00     0.020 A 
ATOM     84  C   UNL     1      11.484  -8.000  12.003  1.00  0.00     0.054 A 
BRANCH  84  85
ATOM     85  S   UNL     1      12.613  -6.715  12.607  1.00  0.00     0.124 S 
ATOM     86  O   UNL     1      12.583  -6.937  14.049  1.00  0.00    -0.237 OA
ATOM     87  O   UNL     1      13.866  -7.057  11.938  1.00  0.00    -0.237 OA
ATOM     88  O   UNL     1      11.992  -5.473  12.151  1.00  0.00    -0.744 OA
ENDBRANCH  84  85
ENDBRANCH  56  79
BRANCH  68  89
ATOM     89  C   UNL     1       6.441 -15.325  14.091  1.00  0.00    -0.014 A 
ATOM     90  C   UNL     1       5.841 -14.595  15.132  1.00  0.00     0.010 A 
ATOM     91  C   UNL     1       7.012 -16.580  14.374  1.00  0.00     0.010 A 
ATOM     92  C   UNL     1       5.854 -15.088  16.439  1.00  0.00     0.020 A 
ATOM     93  C   UNL     1       6.997 -17.092  15.673  1.00  0.00     0.020 A 
ATOM     94  C   UNL     1       6.435 -16.333  16.701  1.00  0.00     0.054 A 
BRANCH  94  95
ATOM     95  S   UNL     1       6.421 -16.960  18.403  1.00  0.00     0.124 S 
ATOM     96  O   UNL     1       7.422 -16.114  19.046  1.00  0.00    -0.237 OA
ATOM     97  O   UNL     1       5.040 -16.728  18.818  1.00  0.00    -0.237 OA
ATOM     98  O   UNL     1       6.795 -18.366  18.257  1.00  0.00    -0.744 OA
ENDBRANCH  94  95
ENDBRANCH  68  89
ENDBRANCH  42  43
ENDBRANCH  34  37
ENDBRANCH  32  33
ENDBRANCH  31  32
ENDBRANCH  30  31
ENDBRANCH   1  30
TORSDOF 21
