REMARK SMILES CC(C)(C)[N@@H+](CC(=O)NCCCCCCNC(=O)c1ccc(-c2c3nc(c(-c4ccc(S(=O)(=O)[O-])cc4)c4ccc([nH]4)c(-c4ccc(S(=O)(=O)[O-])cc4)c4nc(c(-c5ccc(S(=O)(=O)[O-])cc5)c5ccc2[nH]5)C=C4)C=C3)cc1)C[C@@H]1Cc2cc(F)ccc2O1
REMARK SMILES IDX 12 1 11 2 10 3 9 4 7 5 8 6 6 8 5 9 2 11 1 12 3 13 4 14 79 15
REMARK SMILES IDX 80 16 81 17 89 18 82 19 88 20 83 21 87 22 84 23 86 24 85 25
REMARK SMILES IDX 13 26 14 27 15 28 16 29 17 30 18 32 19 33 20 34 78 35 21 36
REMARK SMILES IDX 77 37 22 38 23 39 24 40 71 41 25 42 76 43 70 44 72 45 26 46
REMARK SMILES IDX 75 47 69 48 68 49 27 51 57 52 38 53 56 54 39 55 42 56 55 57
REMARK SMILES IDX 73 58 40 59 41 60 54 62 74 63 43 64 28 65 29 66 37 67 30 68
REMARK SMILES IDX 36 69 31 70 32 71 33 72 34 73 35 74 58 75 59 76 67 77 60 78
REMARK SMILES IDX 66 79 61 80 62 81 63 82 64 83 65 84 44 85 45 86 53 87 46 88
REMARK SMILES IDX 52 89 47 90 48 91 49 92 50 93 51 94
REMARK H PARENT 9 7 5 10 16 31 72 50 42 61
REMARK Flexibility Score: inf
ROOT
ATOM      1  C   UNL     1       1.676  -1.635   4.004  1.00  0.00     0.002 C 
ENDROOT
BRANCH   1   2
ATOM      2  C   UNL     1       1.763  -0.646   2.836  1.00  0.00     0.021 C 
BRANCH   2   3
ATOM      3  C   UNL     1       2.985  -0.830   1.927  1.00  0.00     0.116 C 
BRANCH   3   4
ATOM      4  N   UNL     1       3.147  -2.171   1.380  1.00  0.00    -0.351 N 
ATOM      5  C   UNL     1       2.972  -2.701   0.132  1.00  0.00     0.275 C 
ATOM      6  O   UNL     1       3.333  -3.872  -0.032  1.00  0.00    -0.269 OA
ATOM      7  H   UNL     1       3.443  -2.832   2.047  1.00  0.00     0.163 HD
BRANCH   5   8
ATOM      8  C   UNL     1       2.385  -1.891  -1.030  1.00  0.00     0.364 C 
BRANCH   8   9
ATOM      9  N   UNL     1       0.977  -2.239  -1.380  1.00  0.00    -0.320 N 
ATOM     10  H   UNL     1       0.574  -1.529  -1.991  1.00  0.00     0.349 HD
BRANCH   9  11
ATOM     11  C   UNL     1      -0.086  -1.846  -0.442  1.00  0.00     0.090 C 
ATOM     12  C   UNL     1       0.080  -0.343  -0.080  1.00  0.00     0.078 C 
ATOM     13  C   UNL     1      -0.084  -2.798   0.771  1.00  0.00     0.078 C 
ATOM     14  C   UNL     1      -1.518  -1.848  -1.011  1.00  0.00     0.078 C 
ENDBRANCH   9  11
BRANCH   9  15
ATOM     15  C   UNL     1       0.852  -3.334  -2.362  1.00  0.00     0.309 C 
BRANCH  15  16
ATOM     16  C   UNL     1       0.065  -4.682  -2.265  1.00  0.00     0.232 C 
ATOM     17  C   UNL     1      -1.412  -4.662  -2.694  1.00  0.00     0.090 C 
ATOM     18  O   UNL     1       0.216  -5.383  -1.009  1.00  0.00    -0.484 OA
ATOM     19  C   UNL     1      -2.016  -5.464  -1.606  1.00  0.00     0.001 A 
ATOM     20  C   UNL     1      -1.033  -5.865  -0.716  1.00  0.00     0.123 A 
ATOM     21  C   UNL     1      -3.338  -5.827  -1.409  1.00  0.00     0.047 A 
ATOM     22  C   UNL     1      -1.316  -6.661   0.380  1.00  0.00     0.050 A 
ATOM     23  C   UNL     1      -3.636  -6.632  -0.309  1.00  0.00     0.123 A 
ATOM     24  C   UNL     1      -2.641  -7.058   0.578  1.00  0.00     0.043 A 
ATOM     25  F   UNL     1      -4.904  -7.014  -0.102  1.00  0.00    -0.207 F 
ENDBRANCH  15  16
ENDBRANCH   9  15
ENDBRANCH   8   9
ENDBRANCH   5   8
ENDBRANCH   3   4
ENDBRANCH   2   3
ENDBRANCH   1   2
BRANCH   1  26
ATOM     26  C   UNL     1       2.105  -1.014   5.330  1.00  0.00     0.002 C 
BRANCH  26  27
ATOM     27  C   UNL     1       1.268   0.195   5.764  1.00  0.00     0.021 C 
BRANCH  27  28
ATOM     28  C   UNL     1      -0.228  -0.084   5.855  1.00  0.00     0.116 C 
BRANCH  28  29
ATOM     29  N   UNL     1      -0.514  -0.937   6.998  1.00  0.00    -0.352 N 
ATOM     30  C   UNL     1      -1.117  -0.556   8.167  1.00  0.00     0.251 C 
ATOM     31  H   UNL     1      -0.247  -1.881   6.924  1.00  0.00     0.163 HD
ATOM     32  O   UNL     1      -0.970  -1.213   9.201  1.00  0.00    -0.269 OA
BRANCH  30  33
ATOM     33  C   UNL     1      -1.953   0.657   8.158  1.00  0.00     0.039 A 
ATOM     34  C   UNL     1      -1.743   1.658   9.106  1.00  0.00     0.014 A 
ATOM     35  C   UNL     1      -2.925   0.806   7.161  1.00  0.00     0.014 A 
ATOM     36  C   UNL     1      -2.497   2.830   9.037  1.00  0.00     0.010 A 
ATOM     37  C   UNL     1      -3.623   2.001   7.055  1.00  0.00     0.010 A 
ATOM     38  C   UNL     1      -3.431   3.017   8.003  1.00  0.00    -0.014 A 
BRANCH  38  39
ATOM     39  C   UNL     1      -4.241   4.257   7.911  1.00  0.00     0.031 A 
ATOM     40  C   UNL     1      -5.735   4.187   8.077  1.00  0.00     0.074 A 
ATOM     41  C   UNL     1      -3.642   5.430   7.626  1.00  0.00     0.049 A 
ATOM     42  N   UNL     1      -6.620   5.147   7.994  1.00  0.00    -0.248 NA
ATOM     43  C   UNL     1      -6.314   2.860   8.346  1.00  0.00     0.031 C 
ATOM     44  C   UNL     1      -2.206   5.616   7.402  1.00  0.00     0.029 A 
ATOM     45  N   UNL     1      -4.167   6.688   7.473  1.00  0.00    -0.354 N 
ATOM     46  C   UNL     1      -7.855   4.539   8.184  1.00  0.00     0.074 A 
ATOM     47  C   UNL     1      -7.613   3.121   8.331  1.00  0.00     0.031 C 
ATOM     48  C   UNL     1      -1.963   6.915   7.168  1.00  0.00     0.029 A 
ATOM     49  C   UNL     1      -3.225   7.648   7.186  1.00  0.00     0.049 A 
ATOM     50  H   UNL     1      -5.127   6.885   7.559  1.00  0.00     0.167 HD
ATOM     51  C   UNL     1      -9.081   5.111   8.251  1.00  0.00     0.031 A 
ATOM     52  C   UNL     1      -3.364   8.969   6.958  1.00  0.00     0.031 A 
ATOM     53  C   UNL     1      -9.313   6.524   8.114  1.00  0.00     0.049 A 
ATOM     54  C   UNL     1      -4.736   9.582   7.031  1.00  0.00     0.074 A 
ATOM     55  C   UNL     1     -10.508   7.213   8.223  1.00  0.00     0.029 A 
ATOM     56  N   UNL     1      -8.332   7.464   7.834  1.00  0.00    -0.354 N 
ATOM     57  N   UNL     1      -5.885   9.001   7.284  1.00  0.00    -0.248 NA
ATOM     58  C   UNL     1      -4.829  11.030   6.803  1.00  0.00     0.031 C 
ATOM     59  C   UNL     1     -10.259   8.562   7.952  1.00  0.00     0.029 A 
ATOM     60  C   UNL     1      -8.898   8.724   7.740  1.00  0.00     0.049 A 
ATOM     61  H   UNL     1      -7.375   7.264   7.719  1.00  0.00     0.167 HD
ATOM     62  C   UNL     1      -6.833  10.018   7.274  1.00  0.00     0.074 A 
ATOM     63  C   UNL     1      -6.121  11.251   7.005  1.00  0.00     0.031 C 
ATOM     64  C   UNL     1      -8.173   9.940   7.472  1.00  0.00     0.031 A 
BRANCH  51  65
ATOM     65  C   UNL     1     -10.263   4.205   8.478  1.00  0.00    -0.014 A 
ATOM     66  C   UNL     1     -10.451   3.545   9.706  1.00  0.00     0.010 A 
ATOM     67  C   UNL     1     -11.221   4.040   7.461  1.00  0.00     0.010 A 
ATOM     68  C   UNL     1     -11.550   2.703   9.898  1.00  0.00     0.020 A 
ATOM     69  C   UNL     1     -12.339   3.224   7.660  1.00  0.00     0.020 A 
ATOM     70  C   UNL     1     -12.487   2.547   8.872  1.00  0.00     0.054 A 
BRANCH  70  71
ATOM     71  S   UNL     1     -13.916   1.468   9.158  1.00  0.00     0.124 S 
ATOM     72  O   UNL     1     -13.303   0.142   9.130  1.00  0.00    -0.237 OA
ATOM     73  O   UNL     1     -14.394   1.911  10.465  1.00  0.00    -0.237 OA
ATOM     74  O   UNL     1     -14.806   1.766   8.039  1.00  0.00    -0.744 OA
ENDBRANCH  70  71
ENDBRANCH  51  65
BRANCH  52  75
ATOM     75  C   UNL     1      -2.166   9.801   6.657  1.00  0.00    -0.014 A 
ATOM     76  C   UNL     1      -1.694  10.742   7.590  1.00  0.00     0.010 A 
ATOM     77  C   UNL     1      -1.480   9.644   5.439  1.00  0.00     0.010 A 
ATOM     78  C   UNL     1      -0.571  11.523   7.302  1.00  0.00     0.020 A 
ATOM     79  C   UNL     1      -0.339  10.402   5.160  1.00  0.00     0.020 A 
ATOM     80  C   UNL     1       0.102  11.345   6.090  1.00  0.00     0.054 A 
BRANCH  80  81
ATOM     81  S   UNL     1       1.588  12.333   5.761  1.00  0.00     0.124 S 
ATOM     82  O   UNL     1       1.025  13.655   5.509  1.00  0.00    -0.237 OA
ATOM     83  O   UNL     1       2.342  12.191   7.004  1.00  0.00    -0.237 OA
ATOM     84  O   UNL     1       2.185  11.674   4.601  1.00  0.00    -0.744 OA
ENDBRANCH  80  81
ENDBRANCH  52  75
BRANCH  64  85
ATOM     85  C   UNL     1      -8.956  11.226   7.443  1.00  0.00    -0.014 A 
ATOM     86  C   UNL     1      -9.180  11.919   6.241  1.00  0.00     0.010 A 
ATOM     87  C   UNL     1      -9.526  11.714   8.633  1.00  0.00     0.010 A 
ATOM     88  C   UNL     1      -9.935  13.095   6.235  1.00  0.00     0.020 A 
ATOM     89  C   UNL     1     -10.307  12.872   8.627  1.00  0.00     0.020 A 
ATOM     90  C   UNL     1     -10.495  13.563   7.429  1.00  0.00     0.054 A 
BRANCH  90  91
ATOM     91  S   UNL     1     -11.509  15.066   7.386  1.00  0.00     0.124 S 
ATOM     92  O   UNL     1     -10.503  16.106   7.192  1.00  0.00    -0.237 OA
ATOM     93  O   UNL     1     -12.391  14.824   6.246  1.00  0.00    -0.237 OA
ATOM     94  O   UNL     1     -12.172  15.075   8.688  1.00  0.00    -0.744 OA
ENDBRANCH  90  91
ENDBRANCH  64  85
ENDBRANCH  38  39
ENDBRANCH  30  33
ENDBRANCH  28  29
ENDBRANCH  27  28
ENDBRANCH  26  27
ENDBRANCH   1  26
TORSDOF 20
