REMARK SMILES COC(=O)[C@@H]1C[C@@H](C(=O)NCCCCCCNC(=O)c2ccc(-c3c4nc(c(-c5ccc(S(=O)(=O)[O-])cc5)c5ccc([nH]5)c(-c5ccc(S(=O)(=O)[O-])cc5)c5nc(c(-c6ccc(S(=O)(=O)[O-])cc6)c6ccc3[nH]6)C=C5)C=C4)cc2)[C@@H](c2cccc(F)c2F)[N@H+]1C
REMARK SMILES IDX 14 1 13 2 12 3 11 4 10 5 8 6 9 7 7 9 5 10 6 11 89 12 80 13
REMARK SMILES IDX 90 14 3 16 4 17 2 18 1 19 81 20 82 21 87 22 83 23 85 24
REMARK SMILES IDX 88 25 84 26 86 27 15 28 16 29 17 30 18 31 19 33 20 34 21 35
REMARK SMILES IDX 79 36 22 37 78 38 23 39 24 40 25 41 72 42 26 43 77 44 71 45
REMARK SMILES IDX 73 46 27 47 76 48 70 49 69 50 28 52 58 53 39 54 57 55 40 56
REMARK SMILES IDX 43 57 56 58 74 59 41 60 42 61 55 63 75 64 44 65 29 66 30 67
REMARK SMILES IDX 38 68 31 69 37 70 32 71 33 72 34 73 35 74 36 75 59 76 60 77
REMARK SMILES IDX 68 78 61 79 67 80 62 81 63 82 64 83 65 84 66 85 45 86 46 87
REMARK SMILES IDX 54 88 47 89 53 90 48 91 49 92 50 93 51 94 52 95
REMARK H PARENT 10 8 89 15 17 32 73 51 43 62
REMARK Flexibility Score: inf
ROOT
ATOM      1  C   UNL     1       4.166  -2.810  -3.482  1.00  0.00     0.002 C 
ENDROOT
BRANCH   1   2
ATOM      2  C   UNL     1       4.418  -3.308  -2.056  1.00  0.00     0.002 C 
BRANCH   2   3
ATOM      3  C   UNL     1       3.299  -2.957  -1.070  1.00  0.00     0.021 C 
BRANCH   3   4
ATOM      4  C   UNL     1       2.091  -3.880  -1.163  1.00  0.00     0.116 C 
BRANCH   4   5
ATOM      5  N   UNL     1       2.400  -5.241  -0.755  1.00  0.00    -0.356 N 
ATOM      6  C   UNL     1       2.237  -5.943   0.392  1.00  0.00     0.229 C 
ATOM      7  O   UNL     1       2.649  -7.111   0.367  1.00  0.00    -0.275 OA
ATOM      8  H   UNL     1       2.821  -5.769  -1.471  1.00  0.00     0.163 HD
BRANCH   6   9
ATOM      9  C   UNL     1       1.597  -5.415   1.673  1.00  0.00     0.148 C 
ATOM     10  C   UNL     1       0.331  -3.393   1.953  1.00  0.00     0.296 C 
ATOM     11  C   UNL     1       0.224  -4.798   1.405  1.00  0.00     0.097 C 
ATOM     12  N   UNL     1       1.202  -3.615   3.115  1.00  0.00    -0.319 N 
ATOM     13  C   UNL     1       2.337  -4.494   2.719  1.00  0.00     0.231 C 
ATOM     14  C   UNL     1       1.367  -2.465   3.969  1.00  0.00     0.333 C 
ATOM     15  H   UNL     1       0.757  -4.175   3.843  1.00  0.00     0.349 HD
BRANCH  10  16
ATOM     16  C   UNL     1      -1.075  -2.863   2.226  1.00  0.00     0.364 C 
ATOM     17  O   UNL     1      -1.713  -2.239   1.383  1.00  0.00    -0.245 OA
BRANCH  16  18
ATOM     18  O   UNL     1      -1.563  -3.221   3.444  1.00  0.00    -0.465 OA
ATOM     19  C   UNL     1      -2.855  -2.685   3.730  1.00  0.00     0.282 C 
ENDBRANCH  16  18
ENDBRANCH  10  16
BRANCH  13  20
ATOM     20  C   UNL     1       3.747  -3.977   2.380  1.00  0.00     0.049 A 
ATOM     21  C   UNL     1       4.652  -4.839   1.709  1.00  0.00     0.013 A 
ATOM     22  C   UNL     1       4.332  -2.772   2.803  1.00  0.00     0.167 A 
ATOM     23  C   UNL     1       5.935  -4.441   1.290  1.00  0.00     0.004 A 
ATOM     24  C   UNL     1       5.615  -2.373   2.403  1.00  0.00     0.159 A 
ATOM     25  F   UNL     1       3.747  -1.958   3.682  1.00  0.00    -0.203 F 
ATOM     26  C   UNL     1       6.408  -3.181   1.612  1.00  0.00     0.042 A 
ATOM     27  F   UNL     1       6.101  -1.193   2.817  1.00  0.00    -0.204 F 
ENDBRANCH  13  20
ENDBRANCH   6   9
ENDBRANCH   4   5
ENDBRANCH   3   4
ENDBRANCH   2   3
ENDBRANCH   1   2
BRANCH   1  28
ATOM     28  C   UNL     1       3.971  -1.296  -3.611  1.00  0.00     0.021 C 
BRANCH  28  29
ATOM     29  C   UNL     1       5.082  -0.456  -2.987  1.00  0.00     0.116 C 
BRANCH  29  30
ATOM     30  N   UNL     1       6.337  -0.612  -3.706  1.00  0.00    -0.352 N 
ATOM     31  C   UNL     1       7.067   0.351  -4.357  1.00  0.00     0.251 C 
ATOM     32  H   UNL     1       6.711  -1.523  -3.727  1.00  0.00     0.163 HD
ATOM     33  O   UNL     1       7.975   0.033  -5.125  1.00  0.00    -0.269 OA
BRANCH  31  34
ATOM     34  C   UNL     1       6.739   1.773  -4.137  1.00  0.00     0.039 A 
ATOM     35  C   UNL     1       6.535   2.607  -5.237  1.00  0.00     0.014 A 
ATOM     36  C   UNL     1       6.609   2.269  -2.835  1.00  0.00     0.014 A 
ATOM     37  C   UNL     1       6.149   3.933  -5.031  1.00  0.00     0.010 A 
ATOM     38  C   UNL     1       6.165   3.573  -2.634  1.00  0.00     0.010 A 
ATOM     39  C   UNL     1       5.934   4.419  -3.729  1.00  0.00    -0.014 A 
BRANCH  39  40
ATOM     40  C   UNL     1       5.465   5.809  -3.500  1.00  0.00     0.031 A 
ATOM     41  C   UNL     1       6.351   6.804  -2.802  1.00  0.00     0.074 A 
ATOM     42  C   UNL     1       4.219   6.160  -3.875  1.00  0.00     0.049 A 
ATOM     43  N   UNL     1       6.108   8.055  -2.503  1.00  0.00    -0.248 NA
ATOM     44  C   UNL     1       7.672   6.327  -2.362  1.00  0.00     0.031 C 
ATOM     45  C   UNL     1       3.244   5.272  -4.514  1.00  0.00     0.029 A 
ATOM     46  N   UNL     1       3.557   7.358  -3.771  1.00  0.00    -0.354 N 
ATOM     47  C   UNL     1       7.237   8.509  -1.831  1.00  0.00     0.074 A 
ATOM     48  C   UNL     1       8.144   7.387  -1.723  1.00  0.00     0.031 C 
ATOM     49  C   UNL     1       2.121   5.963  -4.769  1.00  0.00     0.029 A 
ATOM     50  C   UNL     1       2.282   7.331  -4.286  1.00  0.00     0.049 A 
ATOM     51  H   UNL     1       3.957   8.161  -3.365  1.00  0.00     0.167 HD
ATOM     52  C   UNL     1       7.504   9.752  -1.363  1.00  0.00     0.031 A 
ATOM     53  C   UNL     1       1.347   8.298  -4.363  1.00  0.00     0.031 A 
ATOM     54  C   UNL     1       6.604  10.868  -1.480  1.00  0.00     0.049 A 
ATOM     55  C   UNL     1       1.669   9.672  -3.844  1.00  0.00     0.074 A 
ATOM     56  C   UNL     1       6.807  12.181  -1.093  1.00  0.00     0.029 A 
ATOM     57  N   UNL     1       5.329  10.803  -2.021  1.00  0.00    -0.354 N 
ATOM     58  N   UNL     1       2.773  10.102  -3.281  1.00  0.00    -0.248 NA
ATOM     59  C   UNL     1       0.624  10.696  -3.985  1.00  0.00     0.031 C 
ATOM     60  C   UNL     1       5.637  12.901  -1.358  1.00  0.00     0.029 A 
ATOM     61  C   UNL     1       4.724  12.048  -1.958  1.00  0.00     0.049 A 
ATOM     62  H   UNL     1       4.914   9.992  -2.394  1.00  0.00     0.167 HD
ATOM     63  C   UNL     1       2.564  11.452  -3.021  1.00  0.00     0.074 A 
ATOM     64  C   UNL     1       1.235  11.770  -3.503  1.00  0.00     0.031 C 
ATOM     65  C   UNL     1       3.398  12.347  -2.437  1.00  0.00     0.031 A 
BRANCH  52  66
ATOM     66  C   UNL     1       8.827   9.966  -0.676  1.00  0.00    -0.014 A 
ATOM     67  C   UNL     1      10.031   9.953  -1.404  1.00  0.00     0.010 A 
ATOM     68  C   UNL     1       8.867  10.215   0.707  1.00  0.00     0.010 A 
ATOM     69  C   UNL     1      11.254  10.141  -0.753  1.00  0.00     0.020 A 
ATOM     70  C   UNL     1      10.086  10.431   1.358  1.00  0.00     0.020 A 
ATOM     71  C   UNL     1      11.273  10.373   0.625  1.00  0.00     0.054 A 
BRANCH  71  72
ATOM     72  S   UNL     1      12.873  10.630   1.442  1.00  0.00     0.124 S 
ATOM     73  O   UNL     1      13.418   9.275   1.466  1.00  0.00    -0.237 OA
ATOM     74  O   UNL     1      13.547  11.562   0.541  1.00  0.00    -0.237 OA
ATOM     75  O   UNL     1      12.512  11.181   2.746  1.00  0.00    -0.744 OA
ENDBRANCH  71  72
ENDBRANCH  52  66
BRANCH  53  76
ATOM     76  C   UNL     1       0.027   8.003  -4.982  1.00  0.00    -0.014 A 
ATOM     77  C   UNL     1      -0.299   8.521  -6.247  1.00  0.00     0.010 A 
ATOM     78  C   UNL     1      -0.903   7.182  -4.318  1.00  0.00     0.010 A 
ATOM     79  C   UNL     1      -1.535   8.235  -6.833  1.00  0.00     0.020 A 
ATOM     80  C   UNL     1      -2.130   6.872  -4.912  1.00  0.00     0.020 A 
ATOM     81  C   UNL     1      -2.442   7.410  -6.162  1.00  0.00     0.054 A 
BRANCH  81  82
ATOM     82  S   UNL     1      -4.016   7.000  -6.969  1.00  0.00     0.124 S 
ATOM     83  O   UNL     1      -4.771   8.238  -6.808  1.00  0.00    -0.237 OA
ATOM     84  O   UNL     1      -3.599   6.684  -8.333  1.00  0.00    -0.237 OA
ATOM     85  O   UNL     1      -4.507   5.860  -6.197  1.00  0.00    -0.744 OA
ENDBRANCH  81  82
ENDBRANCH  53  76
BRANCH  65  86
ATOM     86  C   UNL     1       2.910  13.765  -2.308  1.00  0.00    -0.014 A 
ATOM     87  C   UNL     1       1.923  14.111  -1.368  1.00  0.00     0.010 A 
ATOM     88  C   UNL     1       3.484  14.772  -3.105  1.00  0.00     0.010 A 
ATOM     89  C   UNL     1       1.496  15.436  -1.250  1.00  0.00     0.020 A 
ATOM     90  C   UNL     1       3.078  16.102  -2.971  1.00  0.00     0.020 A 
ATOM     91  C   UNL     1       2.075  16.424  -2.054  1.00  0.00     0.054 A 
BRANCH  91  92
ATOM     92  S   UNL     1       1.534  18.143  -1.853  1.00  0.00     0.124 S 
ATOM     93  O   UNL     1       0.233  18.131  -2.517  1.00  0.00    -0.237 OA
ATOM     94  O   UNL     1       1.497  18.302  -0.402  1.00  0.00    -0.237 OA
ATOM     95  O   UNL     1       2.572  18.914  -2.532  1.00  0.00    -0.744 OA
ENDBRANCH  91  92
ENDBRANCH  65  86
ENDBRANCH  39  40
ENDBRANCH  31  34
ENDBRANCH  29  30
ENDBRANCH  28  29
ENDBRANCH   1  28
TORSDOF 19
