REMARK SMILES Cc1cnn([C@H]2CC[C@@]([NH3+])(C(=O)NCCCCCCNC(=O)c3ccc(-c4c5nc(c(-c6ccc(S(=O)(=O)[O-])cc6)c6ccc([nH]6)c(-c6ccc(S(=O)(=O)[O-])cc6)c6nc(c(-c7ccc(S(=O)(=O)[O-])cc7)c7ccc4[nH]7)C=C6)C=C5)cc3)C2)c1
REMARK SMILES IDX 17 1 16 2 15 3 14 4 13 5 11 6 12 7 9 9 6 10 7 11 83 12 8 13
REMARK SMILES IDX 5 14 1 15 2 16 3 17 84 18 4 19 10 20 18 24 19 25 20 26 21 27
REMARK SMILES IDX 22 29 23 30 24 31 82 32 25 33 81 34 26 35 27 36 28 37 75 38
REMARK SMILES IDX 29 39 80 40 74 41 76 42 30 43 79 44 73 45 72 46 31 48 61 49
REMARK SMILES IDX 42 50 60 51 43 52 46 53 59 54 77 55 44 56 45 57 58 59 78 60
REMARK SMILES IDX 47 61 32 62 33 63 41 64 34 65 40 66 35 67 36 68 37 69 38 70
REMARK SMILES IDX 39 71 62 72 63 73 71 74 64 75 70 76 65 77 66 78 67 79 68 80
REMARK SMILES IDX 69 81 48 82 49 83 57 84 50 85 56 86 51 87 52 88 53 89 54 90
REMARK SMILES IDX 55 91
REMARK H PARENT 13 8 10 21 10 22 10 23 20 28 76 47 46 58
REMARK Flexibility Score: inf
ROOT
ATOM      1  C   UNL     1       1.137  12.225  -2.068  1.00  0.00     0.002 C 
ENDROOT
BRANCH   1   2
ATOM      2  C   UNL     1       0.163  11.054  -2.259  1.00  0.00     0.002 C 
BRANCH   2   3
ATOM      3  C   UNL     1       0.773   9.724  -2.713  1.00  0.00     0.021 C 
BRANCH   3   4
ATOM      4  C   UNL     1       1.952   9.230  -1.879  1.00  0.00     0.116 C 
BRANCH   4   5
ATOM      5  N   UNL     1       1.589   8.988  -0.496  1.00  0.00    -0.351 N 
ATOM      6  C   UNL     1       1.892   7.916   0.292  1.00  0.00     0.281 C 
ATOM      7  O   UNL     1       1.871   8.104   1.512  1.00  0.00    -0.268 OA
ATOM      8  H   UNL     1       1.052   9.693  -0.068  1.00  0.00     0.163 HD
BRANCH   6   9
ATOM      9  C   UNL     1       2.387   6.568  -0.329  1.00  0.00     0.176 C 
ATOM     10  C   UNL     1       0.974   4.841   0.691  1.00  0.00     0.114 C 
ATOM     11  C   UNL     1       0.544   4.990  -0.781  1.00  0.00     0.034 C 
ATOM     12  C   UNL     1       2.404   5.410   0.688  1.00  0.00     0.106 C 
ATOM     13  C   UNL     1       1.473   6.021  -1.432  1.00  0.00     0.081 C 
BRANCH  10  14
ATOM     14  N   UNL     1       0.051   5.444   1.642  1.00  0.00    -0.269 N 
ATOM     15  C   UNL     1      -0.975   7.618   4.362  1.00  0.00     0.048 C 
ATOM     16  C   UNL     1      -0.824   6.649   3.258  1.00  0.00    -0.013 A 
ATOM     17  C   UNL     1      -1.801   6.147   2.377  1.00  0.00     0.138 A 
ATOM     18  C   UNL     1       0.341   6.048   2.833  1.00  0.00     0.112 A 
ATOM     19  N   UNL     1      -1.280   5.362   1.432  1.00  0.00    -0.181 NA
ENDBRANCH  10  14
BRANCH   9  20
ATOM     20  N   UNL     1       3.769   6.815  -0.804  1.00  0.00    -0.345 N 
ATOM     21  H   UNL     1       3.764   7.581  -1.478  1.00  0.00     0.345 HD
ATOM     22  H   UNL     1       4.131   5.972  -1.250  1.00  0.00     0.345 HD
ATOM     23  H   UNL     1       4.362   7.062  -0.012  1.00  0.00     0.345 HD
ENDBRANCH   9  20
ENDBRANCH   6   9
ENDBRANCH   4   5
ENDBRANCH   3   4
ENDBRANCH   2   3
ENDBRANCH   1   2
BRANCH   1  24
ATOM     24  C   UNL     1       2.091  12.535  -3.230  1.00  0.00     0.021 C 
BRANCH  24  25
ATOM     25  C   UNL     1       1.404  12.890  -4.540  1.00  0.00     0.116 C 
BRANCH  25  26
ATOM     26  N   UNL     1       0.665  14.148  -4.472  1.00  0.00    -0.352 N 
ATOM     27  C   UNL     1      -0.138  14.716  -5.447  1.00  0.00     0.251 C 
ATOM     28  H   UNL     1       0.748  14.654  -3.631  1.00  0.00     0.163 HD
ATOM     29  O   UNL     1      -0.374  15.912  -5.441  1.00  0.00    -0.269 OA
BRANCH  27  30
ATOM     30  C   UNL     1      -0.695  13.838  -6.495  1.00  0.00     0.039 A 
ATOM     31  C   UNL     1      -0.742  14.238  -7.832  1.00  0.00     0.014 A 
ATOM     32  C   UNL     1      -1.143  12.575  -6.117  1.00  0.00     0.014 A 
ATOM     33  C   UNL     1      -1.156  13.316  -8.794  1.00  0.00     0.010 A 
ATOM     34  C   UNL     1      -1.399  11.626  -7.075  1.00  0.00     0.010 A 
ATOM     35  C   UNL     1      -1.458  11.998  -8.412  1.00  0.00    -0.014 A 
BRANCH  35  36
ATOM     36  C   UNL     1      -1.749  10.974  -9.413  1.00  0.00     0.031 A 
ATOM     37  C   UNL     1      -0.744  10.847 -10.503  1.00  0.00     0.074 A 
ATOM     38  C   UNL     1      -2.741  10.065  -9.291  1.00  0.00     0.049 A 
ATOM     39  N   UNL     1      -0.879  11.210 -11.734  1.00  0.00    -0.248 NA
ATOM     40  C   UNL     1       0.610  10.381 -10.165  1.00  0.00     0.031 C 
ATOM     41  C   UNL     1      -3.643   9.837  -8.154  1.00  0.00     0.029 A 
ATOM     42  N   UNL     1      -3.085   9.063 -10.145  1.00  0.00    -0.354 N 
ATOM     43  C   UNL     1       0.291  10.831 -12.383  1.00  0.00     0.074 A 
ATOM     44  C   UNL     1       1.229  10.482 -11.345  1.00  0.00     0.031 C 
ATOM     45  C   UNL     1      -4.250   8.636  -8.288  1.00  0.00     0.029 A 
ATOM     46  C   UNL     1      -3.936   8.108  -9.601  1.00  0.00     0.049 A 
ATOM     47  H   UNL     1      -2.757   9.018 -11.072  1.00  0.00     0.167 HD
ATOM     48  C   UNL     1       0.325  10.624 -13.730  1.00  0.00     0.031 A 
ATOM     49  C   UNL     1      -4.357   6.962 -10.189  1.00  0.00     0.031 A 
ATOM     50  C   UNL     1      -0.886  11.076 -14.367  1.00  0.00     0.049 A 
ATOM     51  C   UNL     1      -4.203   7.146 -11.650  1.00  0.00     0.074 A 
ATOM     52  C   UNL     1      -1.520  12.292 -14.513  1.00  0.00     0.029 A 
ATOM     53  N   UNL     1      -1.831  10.113 -14.633  1.00  0.00    -0.354 N 
ATOM     54  N   UNL     1      -4.896   8.012 -12.337  1.00  0.00    -0.248 NA
ATOM     55  C   UNL     1      -2.977   6.689 -12.282  1.00  0.00     0.031 C 
ATOM     56  C   UNL     1      -2.910  11.996 -14.402  1.00  0.00     0.029 A 
ATOM     57  C   UNL     1      -3.053  10.612 -14.263  1.00  0.00     0.049 A 
ATOM     58  H   UNL     1      -1.661   9.224 -15.020  1.00  0.00     0.167 HD
ATOM     59  C   UNL     1      -3.999   8.534 -13.258  1.00  0.00     0.074 A 
ATOM     60  C   UNL     1      -2.873   7.602 -13.252  1.00  0.00     0.031 C 
ATOM     61  C   UNL     1      -4.136   9.808 -13.731  1.00  0.00     0.031 A 
BRANCH  48  62
ATOM     62  C   UNL     1       1.261   9.671 -14.429  1.00  0.00    -0.014 A 
ATOM     63  C   UNL     1       1.264   9.636 -15.840  1.00  0.00     0.010 A 
ATOM     64  C   UNL     1       1.925   8.624 -13.759  1.00  0.00     0.010 A 
ATOM     65  C   UNL     1       1.845   8.571 -16.541  1.00  0.00     0.020 A 
ATOM     66  C   UNL     1       2.544   7.580 -14.450  1.00  0.00     0.020 A 
ATOM     67  C   UNL     1       2.470   7.542 -15.837  1.00  0.00     0.054 A 
BRANCH  67  68
ATOM     68  S   UNL     1       3.125   6.121 -16.746  1.00  0.00     0.124 S 
ATOM     69  O   UNL     1       1.908   5.518 -17.280  1.00  0.00    -0.237 OA
ATOM     70  O   UNL     1       4.002   6.758 -17.726  1.00  0.00    -0.237 OA
ATOM     71  O   UNL     1       3.811   5.343 -15.717  1.00  0.00    -0.744 OA
ENDBRANCH  67  68
ENDBRANCH  48  62
BRANCH  49  72
ATOM     72  C   UNL     1      -4.629   5.646  -9.565  1.00  0.00    -0.014 A 
ATOM     73  C   UNL     1      -5.359   4.655 -10.247  1.00  0.00     0.010 A 
ATOM     74  C   UNL     1      -3.915   5.260  -8.412  1.00  0.00     0.010 A 
ATOM     75  C   UNL     1      -5.322   3.313  -9.829  1.00  0.00     0.020 A 
ATOM     76  C   UNL     1      -3.875   3.925  -7.988  1.00  0.00     0.020 A 
ATOM     77  C   UNL     1      -4.559   2.953  -8.714  1.00  0.00     0.054 A 
BRANCH  77  78
ATOM     78  S   UNL     1      -4.364   1.194  -8.296  1.00  0.00     0.124 S 
ATOM     79  O   UNL     1      -5.693   0.841  -7.807  1.00  0.00    -0.237 OA
ATOM     80  O   UNL     1      -3.984   0.603  -9.576  1.00  0.00    -0.237 OA
ATOM     81  O   UNL     1      -3.310   1.196  -7.283  1.00  0.00    -0.744 OA
ENDBRANCH  77  78
ENDBRANCH  49  72
BRANCH  61  82
ATOM     82  C   UNL     1      -5.447  10.524 -13.494  1.00  0.00    -0.014 A 
ATOM     83  C   UNL     1      -5.963  10.831 -12.219  1.00  0.00     0.010 A 
ATOM     84  C   UNL     1      -6.111  11.034 -14.624  1.00  0.00     0.010 A 
ATOM     85  C   UNL     1      -7.127  11.604 -12.085  1.00  0.00     0.020 A 
ATOM     86  C   UNL     1      -7.257  11.820 -14.496  1.00  0.00     0.020 A 
ATOM     87  C   UNL     1      -7.767  12.094 -13.228  1.00  0.00     0.054 A 
BRANCH  87  88
ATOM     88  S   UNL     1      -9.249  13.128 -13.053  1.00  0.00     0.124 S 
ATOM     89  O   UNL     1     -10.242  12.178 -12.558  1.00  0.00    -0.237 OA
ATOM     90  O   UNL     1      -8.824  14.149 -12.098  1.00  0.00    -0.237 OA
ATOM     91  O   UNL     1      -9.490  13.623 -14.408  1.00  0.00    -0.744 OA
ENDBRANCH  87  88
ENDBRANCH  61  82
ENDBRANCH  35  36
ENDBRANCH  27  30
ENDBRANCH  25  26
ENDBRANCH  24  25
ENDBRANCH   1  24
TORSDOF 18
