REMARK SMILES CC(C)[C@H](NC(=O)[C@H](C)NC(=O)CNC(=O)OCc1ccccc1)C(=O)NCCCCCCNC(=O)c1ccc(-c2c3nc(c(-c4ccc(S(=O)(=O)[O-])cc4)c4ccc([nH]4)c(-c4ccc(S(=O)(=O)[O-])cc4)c4nc(c(-c5ccc(S(=O)(=O)[O-])cc5)c5ccc2[nH]5)C=C4)C=C3)cc1
REMARK SMILES IDX 28 1 27 2 25 3 26 4 4 6 2 7 1 8 3 9 5 10 6 11 7 13 8 14 9 15
REMARK SMILES IDX 10 16 11 17 12 19 13 20 14 21 15 22 16 24 17 25 18 26 19 27
REMARK SMILES IDX 20 28 24 29 21 30 23 31 22 32 29 33 30 34 31 35 32 36 33 37
REMARK SMILES IDX 34 38 35 39 36 41 37 42 38 43 96 44 39 45 95 46 40 47 41 48
REMARK SMILES IDX 42 49 89 50 43 51 94 52 88 53 90 54 44 55 93 56 87 57 86 58
REMARK SMILES IDX 45 60 75 61 56 62 74 63 57 64 60 65 73 66 91 67 58 68 59 69
REMARK SMILES IDX 72 71 92 72 61 73 46 74 47 75 55 76 48 77 54 78 49 79 50 80
REMARK SMILES IDX 51 81 52 82 53 83 76 84 77 85 85 86 78 87 84 88 79 89 80 90
REMARK SMILES IDX 81 91 82 92 83 93 62 94 63 95 71 96 64 97 70 98 65 99 66 100
REMARK SMILES IDX 67 101 68 102 69 103
REMARK H PARENT 27 5 5 12 10 18 14 23 34 40 90 59 60 70
REMARK Flexibility Score: inf
ROOT
ATOM      1  C   UNL     1      -3.894   0.494  -4.915  1.00  0.00     0.116 C 
ENDROOT
BRANCH   1   2
ATOM      2  N   UNL     1      -3.637   0.306  -3.506  1.00  0.00    -0.354 N 
ATOM      3  C   UNL     1      -2.493   0.022  -2.835  1.00  0.00     0.242 C 
ATOM      4  O   UNL     1      -2.558   0.009  -1.599  1.00  0.00    -0.273 OA
ATOM      5  H   UNL     1      -4.432   0.400  -2.932  1.00  0.00     0.163 HD
BRANCH   3   6
ATOM      6  C   UNL     1      -1.135  -0.233  -3.527  1.00  0.00     0.173 C 
BRANCH   6   7
ATOM      7  C   UNL     1      -0.329   0.993  -4.006  1.00  0.00     0.015 C 
ATOM      8  C   UNL     1      -0.902   1.768  -5.186  1.00  0.00     0.010 C 
ATOM      9  C   UNL     1      -0.058   1.950  -2.840  1.00  0.00     0.010 C 
ENDBRANCH   6   7
BRANCH   6  10
ATOM     10  N   UNL     1      -1.185  -1.312  -4.513  1.00  0.00    -0.342 N 
ATOM     11  C   UNL     1      -0.980  -2.650  -4.391  1.00  0.00     0.242 C 
ATOM     12  H   UNL     1      -1.405  -1.017  -5.426  1.00  0.00     0.164 HD
ATOM     13  O   UNL     1      -1.316  -3.341  -5.361  1.00  0.00    -0.273 OA
BRANCH  11  14
ATOM     14  C   UNL     1      -0.486  -3.346  -3.098  1.00  0.00     0.168 C 
ATOM     15  C   UNL     1      -1.664  -3.920  -2.321  1.00  0.00     0.041 C 
BRANCH  14  16
ATOM     16  N   UNL     1       0.377  -2.574  -2.208  1.00  0.00    -0.343 N 
ATOM     17  C   UNL     1       1.734  -2.413  -2.258  1.00  0.00     0.240 C 
ATOM     18  H   UNL     1      -0.080  -2.106  -1.472  1.00  0.00     0.164 HD
ATOM     19  O   UNL     1       2.242  -1.481  -1.633  1.00  0.00    -0.273 OA
BRANCH  17  20
ATOM     20  C   UNL     1       2.585  -3.406  -3.047  1.00  0.00     0.219 C 
BRANCH  20  21
ATOM     21  N   UNL     1       2.382  -4.707  -2.433  1.00  0.00    -0.312 N 
ATOM     22  C   UNL     1       1.898  -5.810  -3.062  1.00  0.00     0.407 C 
ATOM     23  H   UNL     1       2.615  -4.798  -1.481  1.00  0.00     0.167 HD
ATOM     24  O   UNL     1       1.399  -6.730  -2.433  1.00  0.00    -0.225 OA
BRANCH  22  25
ATOM     25  O   UNL     1       2.033  -5.739  -4.407  1.00  0.00    -0.445 OA
BRANCH  25  26
ATOM     26  C   UNL     1       1.482  -6.836  -5.148  1.00  0.00     0.270 C 
BRANCH  26  27
ATOM     27  C   UNL     1       2.311  -8.102  -5.115  1.00  0.00    -0.011 A 
ATOM     28  C   UNL     1       1.858  -9.222  -5.829  1.00  0.00     0.007 A 
ATOM     29  C   UNL     1       3.491  -8.220  -4.365  1.00  0.00     0.007 A 
ATOM     30  C   UNL     1       2.546 -10.435  -5.761  1.00  0.00     0.000 A 
ATOM     31  C   UNL     1       4.167  -9.437  -4.282  1.00  0.00     0.000 A 
ATOM     32  C   UNL     1       3.692 -10.546  -4.976  1.00  0.00     0.000 A 
ENDBRANCH  26  27
ENDBRANCH  25  26
ENDBRANCH  22  25
ENDBRANCH  20  21
ENDBRANCH  17  20
ENDBRANCH  14  16
ENDBRANCH  11  14
ENDBRANCH   6  10
ENDBRANCH   3   6
ENDBRANCH   1   2
BRANCH   1  33
ATOM     33  C   UNL     1      -5.218  -0.118  -5.356  1.00  0.00     0.021 C 
BRANCH  33  34
ATOM     34  C   UNL     1      -6.467   0.517  -4.735  1.00  0.00     0.002 C 
BRANCH  34  35
ATOM     35  C   UNL     1      -6.564   2.043  -4.836  1.00  0.00     0.002 C 
BRANCH  35  36
ATOM     36  C   UNL     1      -6.384   2.634  -6.237  1.00  0.00     0.021 C 
BRANCH  36  37
ATOM     37  C   UNL     1      -7.303   2.059  -7.308  1.00  0.00     0.116 C 
BRANCH  37  38
ATOM     38  N   UNL     1      -8.706   2.275  -7.011  1.00  0.00    -0.352 N 
ATOM     39  C   UNL     1      -9.706   2.713  -7.842  1.00  0.00     0.251 C 
ATOM     40  H   UNL     1      -8.978   2.082  -6.085  1.00  0.00     0.163 HD
ATOM     41  O   UNL     1     -10.808   2.990  -7.378  1.00  0.00    -0.269 OA
BRANCH  39  42
ATOM     42  C   UNL     1      -9.448   2.870  -9.291  1.00  0.00     0.039 A 
ATOM     43  C   UNL     1      -9.931   4.010  -9.939  1.00  0.00     0.014 A 
ATOM     44  C   UNL     1      -8.758   1.892 -10.015  1.00  0.00     0.014 A 
ATOM     45  C   UNL     1      -9.695   4.185 -11.305  1.00  0.00     0.010 A 
ATOM     46  C   UNL     1      -8.463   2.101 -11.360  1.00  0.00     0.010 A 
ATOM     47  C   UNL     1      -8.946   3.239 -12.023  1.00  0.00    -0.014 A 
BRANCH  47  48
ATOM     48  C   UNL     1      -8.704   3.397 -13.479  1.00  0.00     0.031 A 
ATOM     49  C   UNL     1      -9.303   2.410 -14.447  1.00  0.00     0.074 A 
ATOM     50  C   UNL     1      -7.923   4.399 -13.929  1.00  0.00     0.049 A 
ATOM     51  N   UNL     1      -9.170   2.345 -15.747  1.00  0.00    -0.248 NA
ATOM     52  C   UNL     1     -10.141   1.342 -13.876  1.00  0.00     0.031 C 
ATOM     53  C   UNL     1      -7.263   5.402 -13.091  1.00  0.00     0.029 A 
ATOM     54  N   UNL     1      -7.551   4.737 -15.206  1.00  0.00    -0.354 N 
ATOM     55  C   UNL     1      -9.892   1.224 -16.145  1.00  0.00     0.074 A 
ATOM     56  C   UNL     1     -10.415   0.610 -14.945  1.00  0.00     0.031 C 
ATOM     57  C   UNL     1      -6.591   6.259 -13.878  1.00  0.00     0.029 A 
ATOM     58  C   UNL     1      -6.743   5.847 -15.270  1.00  0.00     0.049 A 
ATOM     59  H   UNL     1      -7.835   4.231 -16.001  1.00  0.00     0.167 HD
ATOM     60  C   UNL     1     -10.121   0.761 -17.396  1.00  0.00     0.031 A 
ATOM     61  C   UNL     1      -6.188   6.464 -16.331  1.00  0.00     0.031 A 
ATOM     62  C   UNL     1      -9.617   1.385 -18.590  1.00  0.00     0.049 A 
ATOM     63  C   UNL     1      -6.456   5.930 -17.713  1.00  0.00     0.074 A 
ATOM     64  C   UNL     1      -9.820   1.014 -19.908  1.00  0.00     0.029 A 
ATOM     65  N   UNL     1      -8.816   2.517 -18.611  1.00  0.00    -0.354 N 
ATOM     66  N   UNL     1      -7.174   4.892 -18.070  1.00  0.00    -0.248 NA
ATOM     67  C   UNL     1      -5.853   6.662 -18.835  1.00  0.00     0.031 C 
ATOM     68  C   UNL     1      -9.113   1.902 -20.725  1.00  0.00     0.029 A 
ATOM     69  C   UNL     1      -8.512   2.855 -19.918  1.00  0.00     0.049 A 
ATOM     70  H   UNL     1      -8.510   3.007 -17.815  1.00  0.00     0.167 HD
ATOM     71  C   UNL     1      -7.139   4.869 -19.460  1.00  0.00     0.074 A 
ATOM     72  C   UNL     1      -6.337   6.000 -19.878  1.00  0.00     0.031 C 
ATOM     73  C   UNL     1      -7.722   3.993 -20.315  1.00  0.00     0.031 A 
BRANCH  60  74
ATOM     74  C   UNL     1     -10.960  -0.482 -17.534  1.00  0.00    -0.014 A 
ATOM     75  C   UNL     1     -12.341  -0.456 -17.262  1.00  0.00     0.010 A 
ATOM     76  C   UNL     1     -10.372  -1.682 -17.972  1.00  0.00     0.010 A 
ATOM     77  C   UNL     1     -13.108  -1.617 -17.384  1.00  0.00     0.020 A 
ATOM     78  C   UNL     1     -11.142  -2.839 -18.122  1.00  0.00     0.020 A 
ATOM     79  C   UNL     1     -12.503  -2.803 -17.809  1.00  0.00     0.054 A 
BRANCH  79  80
ATOM     80  S   UNL     1     -13.527  -4.290 -17.978  1.00  0.00     0.124 S 
ATOM     81  O   UNL     1     -13.741  -4.667 -16.583  1.00  0.00    -0.237 OA
ATOM     82  O   UNL     1     -14.706  -3.790 -18.681  1.00  0.00    -0.237 OA
ATOM     83  O   UNL     1     -12.688  -5.204 -18.748  1.00  0.00    -0.744 OA
ENDBRANCH  79  80
ENDBRANCH  60  74
BRANCH  61  84
ATOM     84  C   UNL     1      -5.344   7.675 -16.136  1.00  0.00    -0.014 A 
ATOM     85  C   UNL     1      -5.809   8.940 -16.535  1.00  0.00     0.010 A 
ATOM     86  C   UNL     1      -4.068   7.568 -15.553  1.00  0.00     0.010 A 
ATOM     87  C   UNL     1      -5.005  10.073 -16.382  1.00  0.00     0.020 A 
ATOM     88  C   UNL     1      -3.271   8.703 -15.373  1.00  0.00     0.020 A 
ATOM     89  C   UNL     1      -3.739   9.946 -15.803  1.00  0.00     0.054 A 
BRANCH  89  90
ATOM     90  S   UNL     1      -2.724  11.434 -15.582  1.00  0.00     0.124 S 
ATOM     91  O   UNL     1      -2.260  11.689 -16.941  1.00  0.00    -0.237 OA
ATOM     92  O   UNL     1      -3.684  12.396 -15.047  1.00  0.00    -0.237 OA
ATOM     93  O   UNL     1      -1.693  11.005 -14.638  1.00  0.00    -0.744 OA
ENDBRANCH  89  90
ENDBRANCH  61  84
BRANCH  73  94
ATOM     94  C   UNL     1      -7.561   4.251 -21.788  1.00  0.00    -0.014 A 
ATOM     95  C   UNL     1      -6.338   4.026 -22.442  1.00  0.00     0.010 A 
ATOM     96  C   UNL     1      -8.673   4.679 -22.537  1.00  0.00     0.010 A 
ATOM     97  C   UNL     1      -6.221   4.258 -23.816  1.00  0.00     0.020 A 
ATOM     98  C   UNL     1      -8.567   4.886 -23.914  1.00  0.00     0.020 A 
ATOM     99  C   UNL     1      -7.335   4.688 -24.542  1.00  0.00     0.054 A 
BRANCH  99 100
ATOM    100  S   UNL     1      -7.169   4.944 -26.330  1.00  0.00     0.124 S 
ATOM    101  O   UNL     1      -6.438   6.206 -26.389  1.00  0.00    -0.237 OA
ATOM    102  O   UNL     1      -6.421   3.763 -26.756  1.00  0.00    -0.237 OA
ATOM    103  O   UNL     1      -8.551   5.001 -26.802  1.00  0.00    -0.744 OA
ENDBRANCH  99 100
ENDBRANCH  73  94
ENDBRANCH  47  48
ENDBRANCH  39  42
ENDBRANCH  37  38
ENDBRANCH  36  37
ENDBRANCH  35  36
ENDBRANCH  34  35
ENDBRANCH  33  34
ENDBRANCH   1  33
TORSDOF 25
