REMARK SMILES CCc1ccc(N2C(=O)/C(=C/c3cc(Cl)c(OCC(=O)NCCCCCCNC(=O)c4ccc(-c5c6nc(c(-c7ccc(S(=O)(=O)[O-])cc7)c7ccc([nH]7)c(-c7ccc(S(=O)(=O)[O-])cc7)c7nc(c(-c8ccc(S(=O)(=O)[O-])cc8)c8ccc5[nH]8)C=C7)C=C6)cc4)c(Cl)c3)C(=O)NC2=S)cc1
REMARK SMILES IDX 23 1 22 2 21 3 19 4 20 5 18 7 17 8 16 9 12 10 13 11 93 12
REMARK SMILES IDX 14 13 91 14 15 15 92 16 11 17 7 18 8 19 97 20 9 21 10 22
REMARK SMILES IDX 96 23 98 24 94 25 95 27 6 28 3 29 4 30 100 31 5 32 99 33
REMARK SMILES IDX 2 34 1 35 24 36 25 37 26 38 27 39 28 40 29 41 30 43 31 44
REMARK SMILES IDX 32 45 90 46 33 47 89 48 34 49 35 50 36 51 83 52 37 53 88 54
REMARK SMILES IDX 82 55 84 56 38 57 87 58 81 59 80 60 39 62 69 63 50 64 68 65
REMARK SMILES IDX 51 66 54 67 67 68 85 69 52 70 53 71 66 73 86 74 55 75 40 76
REMARK SMILES IDX 41 77 49 78 42 79 48 80 43 81 44 82 45 83 46 84 47 85 70 86
REMARK SMILES IDX 71 87 79 88 72 89 78 90 73 91 74 92 75 93 76 94 77 95 56 96
REMARK SMILES IDX 57 97 65 98 58 99 64 100 59 101 60 102 61 103 62 104 63 105
REMARK H PARENT 21 6 96 26 28 42 84 61 54 72
REMARK Flexibility Score: inf
ROOT
ATOM      1  C   UNL     1       6.338  -5.456   9.680  1.00  0.00     0.021 C 
ENDROOT
BRANCH   1   2
ATOM      2  C   UNL     1       7.419  -6.474  10.047  1.00  0.00     0.116 C 
BRANCH   2   3
ATOM      3  N   UNL     1       6.978  -7.833   9.808  1.00  0.00    -0.353 N 
ATOM      4  C   UNL     1       7.574  -8.820   9.081  1.00  0.00     0.257 C 
ATOM      5  O   UNL     1       7.046  -9.934   9.071  1.00  0.00    -0.271 OA
ATOM      6  H   UNL     1       6.125  -8.080  10.232  1.00  0.00     0.163 HD
BRANCH   4   7
ATOM      7  C   UNL     1       8.902  -8.547   8.355  1.00  0.00     0.329 C 
BRANCH   7   8
ATOM      8  O   UNL     1       8.996  -7.612   7.295  1.00  0.00    -0.481 OA
BRANCH   8   9
ATOM      9  C   UNL     1       7.999  -7.555   6.359  1.00  0.00     0.157 A 
ATOM     10  C   UNL     1       6.004  -7.147   4.397  1.00  0.00    -0.021 A 
ATOM     11  C   UNL     1       6.635  -6.055   4.990  1.00  0.00     0.032 A 
ATOM     12  C   UNL     1       6.399  -8.438   4.746  1.00  0.00     0.032 A 
ATOM     13  C   UNL     1       7.625  -6.260   5.955  1.00  0.00     0.085 A 
ATOM     14  C   UNL     1       7.406  -8.644   5.703  1.00  0.00     0.085 A 
ATOM     15  Cl  UNL     1       8.388  -4.850   6.615  1.00  0.00    -0.080 Cl
ATOM     16  Cl  UNL     1       7.930 -10.280   5.892  1.00  0.00    -0.080 Cl
BRANCH  10  17
ATOM     17  C   UNL     1       4.962  -6.913   3.397  1.00  0.00     0.028 C 
ATOM     18  N   UNL     1       1.685  -5.623   2.940  1.00  0.00    -0.253 N 
ATOM     19  C   UNL     1       2.793  -6.368   2.518  1.00  0.00     0.270 C 
ATOM     20  C   UNL     1       1.067  -5.841   4.176  1.00  0.00     0.187 C 
ATOM     21  O   UNL     1       3.131  -6.570   1.353  1.00  0.00    -0.268 OA
ATOM     22  C   UNL     1       3.636  -6.866   3.636  1.00  0.00     0.106 C 
ATOM     23  N   UNL     1       1.748  -6.633   5.067  1.00  0.00    -0.298 N 
ATOM     24  S   UNL     1      -0.446  -5.306   4.677  1.00  0.00    -0.040 S 
ATOM     25  C   UNL     1       3.013  -7.130   4.944  1.00  0.00     0.263 C 
ATOM     26  H   UNL     1       1.266  -6.871   5.893  1.00  0.00     0.172 HD
ATOM     27  O   UNL     1       3.548  -7.733   5.865  1.00  0.00    -0.269 OA
BRANCH  18  28
ATOM     28  C   UNL     1       1.254  -4.567   2.071  1.00  0.00     0.052 A 
ATOM     29  C   UNL     1       0.700  -2.383   0.359  1.00  0.00    -0.048 A 
ATOM     30  C   UNL     1       0.693  -3.701  -0.124  1.00  0.00     0.006 A 
ATOM     31  C   UNL     1       0.957  -2.176   1.718  1.00  0.00     0.006 A 
ATOM     32  C   UNL     1       0.984  -4.781   0.717  1.00  0.00     0.027 A 
ATOM     33  C   UNL     1       1.233  -3.254   2.562  1.00  0.00     0.027 A 
BRANCH  29  34
ATOM     34  C   UNL     1       0.396  -1.252  -0.598  1.00  0.00     0.032 C 
ATOM     35  C   UNL     1       0.889   0.129  -0.182  1.00  0.00     0.009 C 
ENDBRANCH  29  34
ENDBRANCH  18  28
ENDBRANCH  10  17
ENDBRANCH   8   9
ENDBRANCH   7   8
ENDBRANCH   4   7
ENDBRANCH   2   3
ENDBRANCH   1   2
BRANCH   1  36
ATOM     36  C   UNL     1       5.004  -5.609  10.422  1.00  0.00     0.002 C 
BRANCH  36  37
ATOM     37  C   UNL     1       5.080  -5.607  11.951  1.00  0.00     0.002 C 
BRANCH  37  38
ATOM     38  C   UNL     1       5.760  -4.390  12.580  1.00  0.00     0.021 C 
BRANCH  38  39
ATOM     39  C   UNL     1       5.161  -3.036  12.208  1.00  0.00     0.116 C 
BRANCH  39  40
ATOM     40  N   UNL     1       3.785  -2.884  12.653  1.00  0.00    -0.352 N 
ATOM     41  C   UNL     1       3.199  -1.847  13.339  1.00  0.00     0.251 C 
ATOM     42  H   UNL     1       3.186  -3.634  12.432  1.00  0.00     0.163 HD
ATOM     43  O   UNL     1       2.046  -1.958  13.746  1.00  0.00    -0.269 OA
BRANCH  41  44
ATOM     44  C   UNL     1       3.965  -0.610  13.614  1.00  0.00     0.039 A 
ATOM     45  C   UNL     1       3.931  -0.071  14.904  1.00  0.00     0.014 A 
ATOM     46  C   UNL     1       4.713   0.017  12.614  1.00  0.00     0.014 A 
ATOM     47  C   UNL     1       4.706   1.052  15.209  1.00  0.00     0.010 A 
ATOM     48  C   UNL     1       5.530   1.101  12.934  1.00  0.00     0.010 A 
ATOM     49  C   UNL     1       5.542   1.623  14.236  1.00  0.00    -0.014 A 
BRANCH  49  50
ATOM     50  C   UNL     1       6.458   2.743  14.570  1.00  0.00     0.031 A 
ATOM     51  C   UNL     1       6.270   4.098  13.947  1.00  0.00     0.074 A 
ATOM     52  C   UNL     1       7.512   2.518  15.381  1.00  0.00     0.049 A 
ATOM     53  N   UNL     1       7.012   5.169  14.063  1.00  0.00    -0.248 NA
ATOM     54  C   UNL     1       5.108   4.263  13.060  1.00  0.00     0.031 C 
ATOM     55  C   UNL     1       7.835   1.238  16.014  1.00  0.00     0.029 A 
ATOM     56  N   UNL     1       8.515   3.357  15.797  1.00  0.00    -0.354 N 
ATOM     57  C   UNL     1       6.417   6.132  13.258  1.00  0.00     0.074 A 
ATOM     58  C   UNL     1       5.277   5.503  12.624  1.00  0.00     0.031 C 
ATOM     59  C   UNL     1       8.952   1.379  16.745  1.00  0.00     0.029 A 
ATOM     60  C   UNL     1       9.443   2.747  16.607  1.00  0.00     0.049 A 
ATOM     61  H   UNL     1       8.566   4.306  15.540  1.00  0.00     0.167 HD
ATOM     62  C   UNL     1       6.774   7.426  13.073  1.00  0.00     0.031 A 
ATOM     63  C   UNL     1      10.570   3.225  17.168  1.00  0.00     0.031 A 
ATOM     64  C   UNL     1       7.908   8.052  13.700  1.00  0.00     0.049 A 
ATOM     65  C   UNL     1      10.952   4.661  16.948  1.00  0.00     0.074 A 
ATOM     66  C   UNL     1       8.324   9.369  13.611  1.00  0.00     0.029 A 
ATOM     67  N   UNL     1       8.810   7.404  14.530  1.00  0.00    -0.354 N 
ATOM     68  N   UNL     1      10.342   5.572  16.229  1.00  0.00    -0.248 NA
ATOM     69  C   UNL     1      12.169   5.136  17.621  1.00  0.00     0.031 C 
ATOM     70  C   UNL     1       9.502   9.508  14.355  1.00  0.00     0.029 A 
ATOM     71  C   UNL     1       9.793   8.288  14.944  1.00  0.00     0.049 A 
ATOM     72  H   UNL     1       8.760   6.455  14.788  1.00  0.00     0.167 HD
ATOM     73  C   UNL     1      11.094   6.733  16.373  1.00  0.00     0.074 A 
ATOM     74  C   UNL     1      12.193   6.412  17.261  1.00  0.00     0.031 C 
ATOM     75  C   UNL     1      10.890   7.953  15.818  1.00  0.00     0.031 A 
BRANCH  62  76
ATOM     76  C   UNL     1       5.924   8.245  12.139  1.00  0.00    -0.014 A 
ATOM     77  C   UNL     1       4.622   8.635  12.502  1.00  0.00     0.010 A 
ATOM     78  C   UNL     1       6.431   8.637  10.887  1.00  0.00     0.010 A 
ATOM     79  C   UNL     1       3.822   9.351  11.608  1.00  0.00     0.020 A 
ATOM     80  C   UNL     1       5.643   9.376  10.000  1.00  0.00     0.020 A 
ATOM     81  C   UNL     1       4.334   9.707  10.357  1.00  0.00     0.054 A 
BRANCH  81  82
ATOM     82  S   UNL     1       3.272  10.625   9.209  1.00  0.00     0.124 S 
ATOM     83  O   UNL     1       2.391   9.572   8.710  1.00  0.00    -0.237 OA
ATOM     84  O   UNL     1       2.638  11.616  10.075  1.00  0.00    -0.237 OA
ATOM     85  O   UNL     1       4.210  11.168   8.230  1.00  0.00    -0.744 OA
ENDBRANCH  81  82
ENDBRANCH  62  76
BRANCH  63  86
ATOM     86  C   UNL     1      11.412   2.325  18.000  1.00  0.00    -0.014 A 
ATOM     87  C   UNL     1      11.412   2.441  19.400  1.00  0.00     0.010 A 
ATOM     88  C   UNL     1      12.181   1.315  17.395  1.00  0.00     0.010 A 
ATOM     89  C   UNL     1      12.168   1.563  20.182  1.00  0.00     0.020 A 
ATOM     90  C   UNL     1      12.921   0.421  18.174  1.00  0.00     0.020 A 
ATOM     91  C   UNL     1      12.914   0.555  19.564  1.00  0.00     0.054 A 
BRANCH  91  92
ATOM     92  S   UNL     1      13.820  -0.628  20.600  1.00  0.00     0.124 S 
ATOM     93  O   UNL     1      14.985   0.153  21.004  1.00  0.00    -0.237 OA
ATOM     94  O   UNL     1      12.858  -0.925  21.658  1.00  0.00    -0.237 OA
ATOM     95  O   UNL     1      14.093  -1.738  19.689  1.00  0.00    -0.744 OA
ENDBRANCH  91  92
ENDBRANCH  63  86
BRANCH  75  96
ATOM     96  C   UNL     1      11.873   9.039  16.161  1.00  0.00    -0.014 A 
ATOM     97  C   UNL     1      13.161   9.053  15.596  1.00  0.00     0.010 A 
ATOM     98  C   UNL     1      11.487  10.085  17.018  1.00  0.00     0.010 A 
ATOM     99  C   UNL     1      14.054  10.083  15.902  1.00  0.00     0.020 A 
ATOM    100  C   UNL     1      12.370  11.128  17.309  1.00  0.00     0.020 A 
ATOM    101  C   UNL     1      13.653  11.114  16.758  1.00  0.00     0.054 A 
BRANCH 101 102
ATOM    102  S   UNL     1      14.812  12.466  17.103  1.00  0.00     0.124 S 
ATOM    103  O   UNL     1      15.732  11.843  18.051  1.00  0.00    -0.237 OA
ATOM    104  O   UNL     1      15.371  12.756  15.785  1.00  0.00    -0.237 OA
ATOM    105  O   UNL     1      13.962  13.517  17.657  1.00  0.00    -0.744 OA
ENDBRANCH 101 102
ENDBRANCH  75  96
ENDBRANCH  49  50
ENDBRANCH  41  44
ENDBRANCH  39  40
ENDBRANCH  38  39
ENDBRANCH  37  38
ENDBRANCH  36  37
ENDBRANCH   1  36
TORSDOF 21
