REMARK SMILES C[C@@H]1[C@H](C(=O)NCCCCNC(=O)c2ccc(-c3c4nc(c(-c5ccc(S(=O)(=O)[O-])cc5)c5ccc([nH]5)c(-c5ccc(S(=O)(=O)[O-])cc5)c5nc(c(-c6ccc(S(=O)(=O)[O-])cc6)c6ccc3[nH]6)C=C5)C=C4)cc2)CCN1S(=O)(=O)c1cc(F)cc(F)c1
REMARK SMILES IDX 9 1 8 2 7 3 6 4 4 5 5 6 3 8 1 9 2 10 76 11 74 12 75 13 77 14
REMARK SMILES IDX 78 15 79 16 80 17 81 18 87 19 82 20 85 21 83 22 84 23 86 24
REMARK SMILES IDX 10 25 11 26 12 27 13 29 14 30 15 31 73 32 16 33 72 34 17 35
REMARK SMILES IDX 18 36 19 37 66 38 20 39 71 40 65 41 67 42 21 43 70 44 64 45
REMARK SMILES IDX 63 46 22 48 52 49 33 50 51 51 34 52 37 53 50 54 68 55 35 56
REMARK SMILES IDX 36 57 49 59 69 60 38 61 23 62 24 63 32 64 25 65 31 66 26 67
REMARK SMILES IDX 27 68 28 69 29 70 30 71 53 72 54 73 62 74 55 75 61 76 56 77
REMARK SMILES IDX 57 78 58 79 59 80 60 81 39 82 40 83 48 84 41 85 47 86 42 87
REMARK SMILES IDX 43 88 44 89 45 90 46 91
REMARK H PARENT 6 7 11 28 67 47 37 58
REMARK Flexibility Score: inf
ROOT
ATOM      1  C   UNL     1       3.612   2.677   3.141  1.00  0.00     0.023 C 
ENDROOT
BRANCH   1   2
ATOM      2  C   UNL     1       2.669   1.676   2.508  1.00  0.00     0.023 C 
BRANCH   2   3
ATOM      3  C   UNL     1       1.239   2.149   2.221  1.00  0.00     0.116 C 
BRANCH   3   4
ATOM      4  N   UNL     1       1.099   2.741   0.898  1.00  0.00    -0.356 N 
ATOM      5  C   UNL     1       0.587   2.321  -0.286  1.00  0.00     0.224 C 
ATOM      6  O   UNL     1       0.679   3.129  -1.220  1.00  0.00    -0.275 OA
ATOM      7  H   UNL     1       1.459   3.656   0.852  1.00  0.00     0.163 HD
BRANCH   5   8
ATOM      8  C   UNL     1      -0.049   0.960  -0.578  1.00  0.00     0.098 C 
ATOM      9  C   UNL     1       2.071  -0.251   0.147  1.00  0.00     0.026 C 
ATOM     10  C   UNL     1       0.873  -0.262  -0.759  1.00  0.00     0.082 C 
ATOM     11  N   UNL     1      -0.026  -1.469  -0.618  1.00  0.00    -0.194 NA
ATOM     12  C   UNL     1      -1.166   0.461   0.308  1.00  0.00     0.032 C 
ATOM     13  C   UNL     1      -1.389  -0.947  -0.228  1.00  0.00     0.104 C 
BRANCH  11  14
ATOM     14  S   UNL     1       0.369  -2.878   0.253  1.00  0.00     0.243 S 
ATOM     15  O   UNL     1       0.639  -2.470   1.617  1.00  0.00    -0.207 OA
ATOM     16  O   UNL     1      -0.683  -3.835  -0.025  1.00  0.00    -0.207 OA
BRANCH  14  17
ATOM     17  C   UNL     1       1.858  -3.633  -0.351  1.00  0.00     0.088 A 
ATOM     18  C   UNL     1       2.245  -4.815   0.298  1.00  0.00     0.061 A 
ATOM     19  C   UNL     1       2.686  -3.076  -1.322  1.00  0.00     0.061 A 
ATOM     20  C   UNL     1       3.490  -5.372   0.033  1.00  0.00     0.127 A 
ATOM     21  C   UNL     1       3.955  -3.620  -1.518  1.00  0.00     0.127 A 
ATOM     22  F   UNL     1       3.855  -6.497   0.660  1.00  0.00    -0.207 F 
ATOM     23  C   UNL     1       4.371  -4.761  -0.845  1.00  0.00     0.078 A 
ATOM     24  F   UNL     1       4.808  -3.003  -2.346  1.00  0.00    -0.207 F 
ENDBRANCH  14  17
ENDBRANCH  11  14
ENDBRANCH   5   8
ENDBRANCH   3   4
ENDBRANCH   2   3
ENDBRANCH   1   2
BRANCH   1  25
ATOM     25  C   UNL     1       3.243   3.080   4.550  1.00  0.00     0.116 C 
BRANCH  25  26
ATOM     26  N   UNL     1       3.121   1.965   5.482  1.00  0.00    -0.352 N 
ATOM     27  C   UNL     1       3.538   1.908   6.798  1.00  0.00     0.251 C 
ATOM     28  H   UNL     1       2.688   1.154   5.130  1.00  0.00     0.163 HD
ATOM     29  O   UNL     1       3.427   0.889   7.451  1.00  0.00    -0.269 OA
BRANCH  27  30
ATOM     30  C   UNL     1       4.175   3.115   7.367  1.00  0.00     0.039 A 
ATOM     31  C   UNL     1       5.434   3.003   7.957  1.00  0.00     0.014 A 
ATOM     32  C   UNL     1       3.583   4.364   7.174  1.00  0.00     0.014 A 
ATOM     33  C   UNL     1       6.141   4.163   8.276  1.00  0.00     0.010 A 
ATOM     34  C   UNL     1       4.337   5.508   7.372  1.00  0.00     0.010 A 
ATOM     35  C   UNL     1       5.617   5.422   7.941  1.00  0.00    -0.014 A 
BRANCH  35  36
ATOM     36  C   UNL     1       6.354   6.679   8.217  1.00  0.00     0.031 A 
ATOM     37  C   UNL     1       5.726   7.708   9.119  1.00  0.00     0.074 A 
ATOM     38  C   UNL     1       7.524   6.933   7.599  1.00  0.00     0.049 A 
ATOM     39  N   UNL     1       6.128   8.920   9.396  1.00  0.00    -0.248 NA
ATOM     40  C   UNL     1       4.446   7.342   9.753  1.00  0.00     0.031 C 
ATOM     41  C   UNL     1       8.204   6.043   6.654  1.00  0.00     0.029 A 
ATOM     42  N   UNL     1       8.349   8.027   7.672  1.00  0.00    -0.354 N 
ATOM     43  C   UNL     1       5.132   9.471  10.193  1.00  0.00     0.074 A 
ATOM     44  C   UNL     1       4.079   8.488  10.303  1.00  0.00     0.031 C 
ATOM     45  C   UNL     1       9.360   6.609   6.269  1.00  0.00     0.029 A 
ATOM     46  C   UNL     1       9.487   7.914   6.909  1.00  0.00     0.049 A 
ATOM     47  H   UNL     1       8.145   8.819   8.220  1.00  0.00     0.167 HD
ATOM     48  C   UNL     1       5.106  10.676  10.808  1.00  0.00     0.031 A 
ATOM     49  C   UNL     1      10.518   8.766   6.752  1.00  0.00     0.031 A 
ATOM     50  C   UNL     1       6.182  11.624  10.745  1.00  0.00     0.049 A 
ATOM     51  C   UNL     1      10.504  10.070   7.501  1.00  0.00     0.074 A 
ATOM     52  C   UNL     1       6.295  12.845  11.384  1.00  0.00     0.029 A 
ATOM     53  N   UNL     1       7.346  11.442  10.013  1.00  0.00    -0.354 N 
ATOM     54  N   UNL     1       9.575  10.556   8.290  1.00  0.00    -0.248 NA
ATOM     55  C   UNL     1      11.684  10.933   7.354  1.00  0.00     0.031 C 
ATOM     56  C   UNL     1       7.521  13.412  11.021  1.00  0.00     0.029 A 
ATOM     57  C   UNL     1       8.186  12.526  10.186  1.00  0.00     0.049 A 
ATOM     58  H   UNL     1       7.544  10.657   9.452  1.00  0.00     0.167 HD
ATOM     59  C   UNL     1      10.071  11.767   8.757  1.00  0.00     0.074 A 
ATOM     60  C   UNL     1      11.385  11.936   8.169  1.00  0.00     0.031 C 
ATOM     61  C   UNL     1       9.493  12.660   9.598  1.00  0.00     0.031 A 
BRANCH  48  62
ATOM     62  C   UNL     1       3.877  11.012  11.608  1.00  0.00    -0.014 A 
ATOM     63  C   UNL     1       3.586  10.336  12.807  1.00  0.00     0.010 A 
ATOM     64  C   UNL     1       2.992  12.003  11.148  1.00  0.00     0.010 A 
ATOM     65  C   UNL     1       2.402  10.600  13.500  1.00  0.00     0.020 A 
ATOM     66  C   UNL     1       1.821  12.292  11.855  1.00  0.00     0.020 A 
ATOM     67  C   UNL     1       1.522  11.571  13.014  1.00  0.00     0.054 A 
BRANCH  67  68
ATOM     68  S   UNL     1      -0.010  11.894  13.927  1.00  0.00     0.124 S 
ATOM     69  O   UNL     1      -0.842  10.761  13.526  1.00  0.00    -0.237 OA
ATOM     70  O   UNL     1       0.434  11.884  15.318  1.00  0.00    -0.237 OA
ATOM     71  O   UNL     1      -0.444  13.195  13.424  1.00  0.00    -0.744 OA
ENDBRANCH  67  68
ENDBRANCH  48  62
BRANCH  49  72
ATOM     72  C   UNL     1      11.673   8.388   5.893  1.00  0.00    -0.014 A 
ATOM     73  C   UNL     1      12.895   8.010   6.478  1.00  0.00     0.010 A 
ATOM     74  C   UNL     1      11.555   8.381   4.492  1.00  0.00     0.010 A 
ATOM     75  C   UNL     1      13.982   7.647   5.679  1.00  0.00     0.020 A 
ATOM     76  C   UNL     1      12.634   7.998   3.689  1.00  0.00     0.020 A 
ATOM     77  C   UNL     1      13.845   7.643   4.288  1.00  0.00     0.054 A 
BRANCH  77  78
ATOM     78  S   UNL     1      15.252   7.113   3.271  1.00  0.00     0.124 S 
ATOM     79  O   UNL     1      16.119   8.285   3.318  1.00  0.00    -0.237 OA
ATOM     80  O   UNL     1      15.737   5.936   3.988  1.00  0.00    -0.237 OA
ATOM     81  O   UNL     1      14.644   6.832   1.971  1.00  0.00    -0.744 OA
ENDBRANCH  77  78
ENDBRANCH  49  72
BRANCH  61  82
ATOM     82  C   UNL     1      10.295  13.876   9.968  1.00  0.00    -0.014 A 
ATOM     83  C   UNL     1      10.459  14.940   9.065  1.00  0.00     0.010 A 
ATOM     84  C   UNL     1      10.835  13.978  11.262  1.00  0.00     0.010 A 
ATOM     85  C   UNL     1      11.175  16.077   9.443  1.00  0.00     0.020 A 
ATOM     86  C   UNL     1      11.533  15.123  11.651  1.00  0.00     0.020 A 
ATOM     87  C   UNL     1      11.709  16.161  10.733  1.00  0.00     0.054 A 
BRANCH  87  88
ATOM     88  S   UNL     1      12.593  17.668  11.220  1.00  0.00     0.124 S 
ATOM     89  O   UNL     1      13.886  17.483  10.568  1.00  0.00    -0.237 OA
ATOM     90  O   UNL     1      11.754  18.727  10.665  1.00  0.00    -0.237 OA
ATOM     91  O   UNL     1      12.613  17.599  12.679  1.00  0.00    -0.744 OA
ENDBRANCH  87  88
ENDBRANCH  61  82
ENDBRANCH  35  36
ENDBRANCH  27  30
ENDBRANCH  25  26
ENDBRANCH   1  25
TORSDOF 16
