REMARK SMILES Cc1ccc(Cl)c(Nc2ccccc2C(=O)NCCCCNC(=O)c2ccc(-c3c4nc(c(-c5ccc(S(=O)(=O)[O-])cc5)c5ccc([nH]5)c(-c5ccc(S(=O)(=O)[O-])cc5)c5nc(c(-c6ccc(S(=O)(=O)[O-])cc6)c6ccc3[nH]6)C=C5)C=C4)cc2)c1Cl
REMARK SMILES IDX 20 1 19 2 18 3 17 4 15 5 16 6 14 8 9 9 10 10 11 11 13 12
REMARK SMILES IDX 12 13 8 14 7 16 1 17 2 18 3 19 85 20 4 21 86 22 5 23 6 24
REMARK SMILES IDX 21 25 22 26 23 27 24 29 25 30 26 31 84 32 27 33 83 34 28 35
REMARK SMILES IDX 29 36 30 37 77 38 31 39 82 40 76 41 78 42 32 43 81 44 75 45
REMARK SMILES IDX 74 46 33 48 63 49 44 50 62 51 45 52 48 53 61 54 79 55 46 56
REMARK SMILES IDX 47 57 60 59 80 60 49 61 34 62 35 63 43 64 36 65 42 66 37 67
REMARK SMILES IDX 38 68 39 69 40 70 41 71 64 72 65 73 73 74 66 75 72 76 67 77
REMARK SMILES IDX 68 78 69 79 70 80 71 81 50 82 51 83 59 84 52 85 58 86 53 87
REMARK SMILES IDX 54 88 55 89 56 90 57 91
REMARK H PARENT 17 7 8 15 22 28 78 47 48 58
REMARK Flexibility Score: inf
ROOT
ATOM      1  C   UNL     1      -2.772  -0.250   3.124  1.00  0.00     0.023 C 
ENDROOT
BRANCH   1   2
ATOM      2  C   UNL     1      -2.480  -1.571   2.405  1.00  0.00     0.023 C 
BRANCH   2   3
ATOM      3  C   UNL     1      -1.258  -1.607   1.498  1.00  0.00     0.116 C 
BRANCH   3   4
ATOM      4  N   UNL     1       0.019  -1.532   2.165  1.00  0.00    -0.352 N 
ATOM      5  C   UNL     1       1.234  -2.072   1.805  1.00  0.00     0.253 C 
ATOM      6  O   UNL     1       2.213  -1.767   2.489  1.00  0.00    -0.269 OA
ATOM      7  H   UNL     1       0.023  -1.018   3.004  1.00  0.00     0.163 HD
BRANCH   5   8
ATOM      8  C   UNL     1       1.403  -3.102   0.732  1.00  0.00     0.063 A 
ATOM      9  C   UNL     1       0.884  -3.087  -0.580  1.00  0.00     0.051 A 
ATOM     10  C   UNL     1       1.108  -4.225  -1.393  1.00  0.00     0.027 A 
ATOM     11  C   UNL     1       1.879  -5.306  -0.967  1.00  0.00     0.002 A 
ATOM     12  C   UNL     1       2.208  -4.194   1.134  1.00  0.00     0.016 A 
ATOM     13  C   UNL     1       2.453  -5.280   0.293  1.00  0.00     0.001 A 
BRANCH   9  14
ATOM     14  N   UNL     1       0.248  -2.015  -1.238  1.00  0.00    -0.352 N 
ATOM     15  H   UNL     1      -0.460  -2.310  -1.855  1.00  0.00     0.167 HD
BRANCH  14  16
ATOM     16  C   UNL     1       0.402  -0.607  -1.208  1.00  0.00     0.077 A 
ATOM     17  C   UNL     1       2.805   2.189  -0.129  1.00  0.00     0.046 C 
ATOM     18  C   UNL     1       1.575   1.464  -0.605  1.00  0.00    -0.030 A 
ATOM     19  C   UNL     1       0.399   2.196  -0.827  1.00  0.00     0.006 A 
ATOM     20  C   UNL     1       1.581   0.069  -0.834  1.00  0.00     0.069 A 
ATOM     21  C   UNL     1      -0.749   1.563  -1.290  1.00  0.00     0.023 A 
ATOM     22  Cl  UNL     1       3.111  -0.761  -0.808  1.00  0.00    -0.082 Cl
ATOM     23  C   UNL     1      -0.743   0.183  -1.482  1.00  0.00     0.066 A 
ATOM     24  Cl  UNL     1      -2.221  -0.563  -2.007  1.00  0.00    -0.082 Cl
ENDBRANCH  14  16
ENDBRANCH   9  14
ENDBRANCH   5   8
ENDBRANCH   3   4
ENDBRANCH   2   3
ENDBRANCH   1   2
BRANCH   1  25
ATOM     25  C   UNL     1      -2.721   1.042   2.308  1.00  0.00     0.116 C 
BRANCH  25  26
ATOM     26  N   UNL     1      -3.533   1.048   1.101  1.00  0.00    -0.352 N 
ATOM     27  C   UNL     1      -4.275   2.077   0.553  1.00  0.00     0.251 C 
ATOM     28  H   UNL     1      -3.556   0.199   0.603  1.00  0.00     0.163 HD
ATOM     29  O   UNL     1      -4.879   1.908  -0.495  1.00  0.00    -0.269 OA
BRANCH  27  30
ATOM     30  C   UNL     1      -4.376   3.375   1.262  1.00  0.00     0.039 A 
ATOM     31  C   UNL     1      -5.647   3.907   1.502  1.00  0.00     0.014 A 
ATOM     32  C   UNL     1      -3.240   4.043   1.724  1.00  0.00     0.014 A 
ATOM     33  C   UNL     1      -5.783   5.050   2.297  1.00  0.00     0.010 A 
ATOM     34  C   UNL     1      -3.381   5.147   2.566  1.00  0.00     0.010 A 
ATOM     35  C   UNL     1      -4.655   5.647   2.882  1.00  0.00    -0.014 A 
BRANCH  35  36
ATOM     36  C   UNL     1      -4.795   6.747   3.874  1.00  0.00     0.031 A 
ATOM     37  C   UNL     1      -4.239   8.117   3.587  1.00  0.00     0.074 A 
ATOM     38  C   UNL     1      -5.348   6.486   5.077  1.00  0.00     0.049 A 
ATOM     39  N   UNL     1      -4.218   9.173   4.359  1.00  0.00    -0.248 NA
ATOM     40  C   UNL     1      -3.603   8.319   2.276  1.00  0.00     0.031 C 
ATOM     41  C   UNL     1      -5.865   5.183   5.509  1.00  0.00     0.029 A 
ATOM     42  N   UNL     1      -5.556   7.297   6.166  1.00  0.00    -0.354 N 
ATOM     43  C   UNL     1      -3.547  10.156   3.640  1.00  0.00     0.074 A 
ATOM     44  C   UNL     1      -3.149   9.561   2.383  1.00  0.00     0.031 C 
ATOM     45  C   UNL     1      -6.339   5.288   6.761  1.00  0.00     0.029 A 
ATOM     46  C   UNL     1      -6.135   6.652   7.236  1.00  0.00     0.049 A 
ATOM     47  H   UNL     1      -5.314   8.251   6.181  1.00  0.00     0.167 HD
ATOM     48  C   UNL     1      -3.295  11.440   3.991  1.00  0.00     0.031 A 
ATOM     49  C   UNL     1      -6.460   7.103   8.464  1.00  0.00     0.031 A 
ATOM     50  C   UNL     1      -3.716  12.040   5.229  1.00  0.00     0.049 A 
ATOM     51  C   UNL     1      -6.212   8.547   8.807  1.00  0.00     0.074 A 
ATOM     52  C   UNL     1      -3.578  13.357   5.636  1.00  0.00     0.029 A 
ATOM     53  N   UNL     1      -4.356  11.370   6.259  1.00  0.00    -0.354 N 
ATOM     54  N   UNL     1      -5.659   9.483   8.073  1.00  0.00    -0.248 NA
ATOM     55  C   UNL     1      -6.651   9.001  10.134  1.00  0.00     0.031 C 
ATOM     56  C   UNL     1      -4.096  13.473   6.929  1.00  0.00     0.029 A 
ATOM     57  C   UNL     1      -4.605  12.241   7.306  1.00  0.00     0.049 A 
ATOM     58  H   UNL     1      -4.598  10.415   6.248  1.00  0.00     0.167 HD
ATOM     59  C   UNL     1      -5.716  10.643   8.838  1.00  0.00     0.074 A 
ATOM     60  C   UNL     1      -6.367  10.295  10.083  1.00  0.00     0.031 C 
ATOM     61  C   UNL     1      -5.269  11.886   8.534  1.00  0.00     0.031 A 
BRANCH  48  62
ATOM     62  C   UNL     1      -2.529  12.299   3.020  1.00  0.00    -0.014 A 
ATOM     63  C   UNL     1      -3.125  12.765   1.836  1.00  0.00     0.010 A 
ATOM     64  C   UNL     1      -1.223  12.715   3.340  1.00  0.00     0.010 A 
ATOM     65  C   UNL     1      -2.422  13.613   0.976  1.00  0.00     0.020 A 
ATOM     66  C   UNL     1      -0.525  13.583   2.495  1.00  0.00     0.020 A 
ATOM     67  C   UNL     1      -1.127  14.018   1.313  1.00  0.00     0.054 A 
BRANCH  67  68
ATOM     68  S   UNL     1      -0.259  15.164   0.206  1.00  0.00     0.124 S 
ATOM     69  O   UNL     1       0.088  14.294  -0.915  1.00  0.00    -0.237 OA
ATOM     70  O   UNL     1      -1.277  16.173  -0.074  1.00  0.00    -0.237 OA
ATOM     71  O   UNL     1       0.872  15.630   1.005  1.00  0.00    -0.744 OA
ENDBRANCH  67  68
ENDBRANCH  48  62
BRANCH  49  72
ATOM     72  C   UNL     1      -7.067   6.182   9.465  1.00  0.00    -0.014 A 
ATOM     73  C   UNL     1      -8.414   6.321   9.845  1.00  0.00     0.010 A 
ATOM     74  C   UNL     1      -6.291   5.172  10.062  1.00  0.00     0.010 A 
ATOM     75  C   UNL     1      -8.963   5.494  10.829  1.00  0.00     0.020 A 
ATOM     76  C   UNL     1      -6.844   4.324  11.025  1.00  0.00     0.020 A 
ATOM     77  C   UNL     1      -8.172   4.503  11.416  1.00  0.00     0.054 A 
BRANCH  77  78
ATOM     78  S   UNL     1      -8.907   3.424  12.677  1.00  0.00     0.124 S 
ATOM     79  O   UNL     1      -8.925   4.295  13.847  1.00  0.00    -0.237 OA
ATOM     80  O   UNL     1     -10.213   3.107  12.103  1.00  0.00    -0.237 OA
ATOM     81  O   UNL     1      -7.977   2.299  12.745  1.00  0.00    -0.744 OA
ENDBRANCH  77  78
ENDBRANCH  49  72
BRANCH  61  82
ATOM     82  C   UNL     1      -5.518  12.979   9.538  1.00  0.00    -0.014 A 
ATOM     83  C   UNL     1      -4.797  13.045  10.743  1.00  0.00     0.010 A 
ATOM     84  C   UNL     1      -6.459  13.983   9.245  1.00  0.00     0.010 A 
ATOM     85  C   UNL     1      -5.040  14.077  11.654  1.00  0.00     0.020 A 
ATOM     86  C   UNL     1      -6.685  15.030  10.140  1.00  0.00     0.020 A 
ATOM     87  C   UNL     1      -5.985  15.062  11.348  1.00  0.00     0.054 A 
BRANCH  87  88
ATOM     88  S   UNL     1      -6.260  16.411  12.529  1.00  0.00     0.124 S 
ATOM     89  O   UNL     1      -7.058  15.754  13.560  1.00  0.00    -0.237 OA
ATOM     90  O   UNL     1      -4.901  16.776  12.923  1.00  0.00    -0.237 OA
ATOM     91  O   UNL     1      -6.965  17.420  11.742  1.00  0.00    -0.744 OA
ENDBRANCH  87  88
ENDBRANCH  61  82
ENDBRANCH  35  36
ENDBRANCH  27  30
ENDBRANCH  25  26
ENDBRANCH   1  25
TORSDOF 16
