REMARK SMILES O=C(NCCCCNC(=O)[C@@]1([NH2+]C2CC2)CCC[C@@H](n2cncn2)C1)c1ccc(-c2c3nc(c(-c4ccc(S(=O)(=O)[O-])cc4)c4ccc([nH]4)c(-c4ccc(S(=O)(=O)[O-])cc4)c4nc(c(-c5ccc(S(=O)(=O)[O-])cc5)c5ccc2[nH]5)C=C4)C=C3)cc1
REMARK SMILES IDX 5 1 4 2 3 3 1 4 2 5 26 7 27 8 85 9 28 10 84 11 29 12 30 13
REMARK SMILES IDX 31 14 78 15 32 16 83 17 77 18 79 19 33 20 82 21 76 22 75 23
REMARK SMILES IDX 34 25 64 26 45 27 63 28 46 29 49 30 62 31 80 32 47 33 48 34
REMARK SMILES IDX 61 36 81 37 50 38 35 39 36 40 44 41 37 42 43 43 38 44 39 45
REMARK SMILES IDX 40 46 41 47 42 48 65 49 66 50 74 51 67 52 73 53 68 54 69 55
REMARK SMILES IDX 70 56 71 57 72 58 51 59 52 60 60 61 53 62 59 63 54 64 55 65
REMARK SMILES IDX 56 66 57 67 58 68 6 69 7 70 8 71 9 72 10 74 11 75 16 76
REMARK SMILES IDX 25 77 17 78 19 79 18 80 12 81 13 84 14 85 15 86 20 87 21 88
REMARK SMILES IDX 24 89 22 90 23 91
REMARK H PARENT 3 6 79 24 49 35 8 73 12 82 12 83
REMARK Flexibility Score: inf
ROOT
ATOM      1  C   UNL     1       4.842  -0.293  -2.228  1.00  0.00     0.023 C 
ENDROOT
BRANCH   1   2
ATOM      2  C   UNL     1       4.832   0.610  -0.994  1.00  0.00     0.116 C 
BRANCH   2   3
ATOM      3  N   UNL     1       3.518   1.128  -0.663  1.00  0.00    -0.352 N 
ATOM      4  O   UNL     1       1.426   1.329   0.042  1.00  0.00    -0.269 OA
ATOM      5  C   UNL     1       2.413   0.594  -0.058  1.00  0.00     0.251 C 
ATOM      6  H   UNL     1       3.394   2.067  -0.931  1.00  0.00     0.163 HD
BRANCH   5   7
ATOM      7  C   UNL     1       2.321  -0.808   0.421  1.00  0.00     0.039 A 
ATOM      8  C   UNL     1       3.419  -1.626   0.693  1.00  0.00     0.014 A 
ATOM      9  C   UNL     1       1.030  -1.324   0.622  1.00  0.00     0.014 A 
ATOM     10  C   UNL     1       3.247  -2.958   1.030  1.00  0.00     0.010 A 
ATOM     11  C   UNL     1       0.851  -2.645   1.017  1.00  0.00     0.010 A 
ATOM     12  C   UNL     1       1.964  -3.473   1.172  1.00  0.00    -0.014 A 
BRANCH  12  13
ATOM     13  C   UNL     1       1.849  -4.869   1.585  1.00  0.00     0.031 A 
ATOM     14  C   UNL     1       2.389  -5.206   2.940  1.00  0.00     0.074 A 
ATOM     15  C   UNL     1       1.151  -5.761   0.858  1.00  0.00     0.049 A 
ATOM     16  N   UNL     1       3.169  -6.178   3.296  1.00  0.00    -0.248 NA
ATOM     17  C   UNL     1       2.049  -4.283   4.039  1.00  0.00     0.031 C 
ATOM     18  C   UNL     1       0.326  -5.486  -0.323  1.00  0.00     0.029 A 
ATOM     19  N   UNL     1       0.895  -7.072   1.124  1.00  0.00    -0.354 N 
ATOM     20  C   UNL     1       3.283  -6.092   4.685  1.00  0.00     0.074 A 
ATOM     21  C   UNL     1       2.667  -4.849   5.072  1.00  0.00     0.031 C 
ATOM     22  C   UNL     1      -0.541  -6.505  -0.494  1.00  0.00     0.029 A 
ATOM     23  C   UNL     1      -0.241  -7.541   0.480  1.00  0.00     0.049 A 
ATOM     24  H   UNL     1       1.457  -7.628   1.711  1.00  0.00     0.167 HD
ATOM     25  C   UNL     1       3.709  -7.120   5.471  1.00  0.00     0.031 A 
ATOM     26  C   UNL     1      -0.966  -8.635   0.814  1.00  0.00     0.031 A 
ATOM     27  C   UNL     1       4.440  -8.116   4.744  1.00  0.00     0.049 A 
ATOM     28  C   UNL     1      -0.119  -9.505   1.663  1.00  0.00     0.074 A 
ATOM     29  C   UNL     1       5.622  -8.136   4.033  1.00  0.00     0.029 A 
ATOM     30  N   UNL     1       3.794  -9.286   4.431  1.00  0.00    -0.354 N 
ATOM     31  N   UNL     1       0.959 -10.105   1.242  1.00  0.00    -0.248 NA
ATOM     32  C   UNL     1      -0.251  -9.411   3.108  1.00  0.00     0.031 C 
ATOM     33  C   UNL     1       5.407  -9.075   2.982  1.00  0.00     0.029 A 
ATOM     34  C   UNL     1       4.112  -9.578   3.129  1.00  0.00     0.049 A 
ATOM     35  H   UNL     1       3.213  -9.814   5.025  1.00  0.00     0.167 HD
ATOM     36  C   UNL     1       1.820 -10.108   2.329  1.00  0.00     0.074 A 
ATOM     37  C   UNL     1       0.979  -9.778   3.475  1.00  0.00     0.031 C 
ATOM     38  C   UNL     1       3.176 -10.110   2.161  1.00  0.00     0.031 A 
BRANCH  25  39
ATOM     39  C   UNL     1       3.155  -7.378   6.853  1.00  0.00    -0.014 A 
ATOM     40  C   UNL     1       3.727  -8.385   7.657  1.00  0.00     0.010 A 
ATOM     41  C   UNL     1       1.909  -6.859   7.267  1.00  0.00     0.010 A 
ATOM     42  C   UNL     1       3.049  -8.896   8.774  1.00  0.00     0.020 A 
ATOM     43  C   UNL     1       1.247  -7.328   8.403  1.00  0.00     0.020 A 
ATOM     44  C   UNL     1       1.801  -8.376   9.124  1.00  0.00     0.054 A 
BRANCH  44  45
ATOM     45  S   UNL     1       0.858  -9.145  10.465  1.00  0.00     0.124 S 
ATOM     46  O   UNL     1       0.520 -10.441   9.886  1.00  0.00    -0.237 OA
ATOM     47  O   UNL     1       1.829  -9.171  11.556  1.00  0.00    -0.237 OA
ATOM     48  O   UNL     1      -0.265  -8.232  10.660  1.00  0.00    -0.744 OA
ENDBRANCH  44  45
ENDBRANCH  25  39
BRANCH  26  49
ATOM     49  C   UNL     1      -2.444  -8.746   0.744  1.00  0.00    -0.014 A 
ATOM     50  C   UNL     1      -3.088  -9.992   0.799  1.00  0.00     0.010 A 
ATOM     51  C   UNL     1      -3.243  -7.587   0.857  1.00  0.00     0.010 A 
ATOM     52  C   UNL     1      -4.479 -10.073   0.988  1.00  0.00     0.020 A 
ATOM     53  C   UNL     1      -4.627  -7.658   1.030  1.00  0.00     0.020 A 
ATOM     54  C   UNL     1      -5.237  -8.905   1.112  1.00  0.00     0.054 A 
BRANCH  54  55
ATOM     55  S   UNL     1      -7.009  -9.019   1.492  1.00  0.00     0.124 S 
ATOM     56  O   UNL     1      -7.560  -9.541   0.245  1.00  0.00    -0.237 OA
ATOM     57  O   UNL     1      -7.030  -9.937   2.628  1.00  0.00    -0.237 OA
ATOM     58  O   UNL     1      -7.384  -7.641   1.806  1.00  0.00    -0.744 OA
ENDBRANCH  54  55
ENDBRANCH  26  49
BRANCH  38  59
ATOM     59  C   UNL     1       3.727 -10.373   0.778  1.00  0.00    -0.014 A 
ATOM     60  C   UNL     1       3.483  -9.512  -0.310  1.00  0.00     0.010 A 
ATOM     61  C   UNL     1       4.664 -11.408   0.615  1.00  0.00     0.010 A 
ATOM     62  C   UNL     1       4.145  -9.690  -1.532  1.00  0.00     0.020 A 
ATOM     63  C   UNL     1       5.341 -11.582  -0.597  1.00  0.00     0.020 A 
ATOM     64  C   UNL     1       5.076 -10.723  -1.666  1.00  0.00     0.054 A 
BRANCH  64  65
ATOM     65  S   UNL     1       5.993 -10.889  -3.224  1.00  0.00     0.124 S 
ATOM     66  O   UNL     1       4.970 -11.374  -4.145  1.00  0.00    -0.237 OA
ATOM     67  O   UNL     1       6.465  -9.528  -3.470  1.00  0.00    -0.237 OA
ATOM     68  O   UNL     1       7.047 -11.851  -2.906  1.00  0.00    -0.744 OA
ENDBRANCH  64  65
ENDBRANCH  38  59
ENDBRANCH  12  13
ENDBRANCH   5   7
ENDBRANCH   2   3
ENDBRANCH   1   2
BRANCH   1  69
ATOM     69  C   UNL     1       4.300   0.383  -3.496  1.00  0.00     0.023 C 
BRANCH  69  70
ATOM     70  C   UNL     1       4.903   1.760  -3.759  1.00  0.00     0.116 C 
BRANCH  70  71
ATOM     71  N   UNL     1       6.301   1.655  -4.112  1.00  0.00    -0.351 N 
ATOM     72  C   UNL     1       6.969   1.808  -5.284  1.00  0.00     0.281 C 
ATOM     73  H   UNL     1       6.884   1.428  -3.352  1.00  0.00     0.163 HD
ATOM     74  O   UNL     1       8.199   1.875  -5.151  1.00  0.00    -0.268 OA
BRANCH  72  75
ATOM     75  C   UNL     1       6.263   2.106  -6.654  1.00  0.00     0.177 C 
ATOM     76  C   UNL     1       4.923   1.408  -6.985  1.00  0.00     0.079 C 
ATOM     77  C   UNL     1       6.017   3.647  -6.552  1.00  0.00     0.106 C 
ATOM     78  C   UNL     1       4.201   2.009  -8.192  1.00  0.00     0.009 C 
ATOM     79  C   UNL     1       5.231   4.275  -7.710  1.00  0.00     0.116 C 
ATOM     80  C   UNL     1       3.936   3.494  -7.982  1.00  0.00     0.028 C 
BRANCH  75  81
ATOM     81  N   UNL     1       7.226   1.894  -7.776  1.00  0.00    -0.331 N 
ATOM     82  H   UNL     1       8.010   2.517  -7.583  1.00  0.00     0.347 HD
ATOM     83  H   UNL     1       6.614   2.042  -8.578  1.00  0.00     0.347 HD
BRANCH  81  84
ATOM     84  C   UNL     1       7.829   0.595  -8.130  1.00  0.00     0.183 C 
ATOM     85  C   UNL     1       8.517  -0.340  -7.180  1.00  0.00     0.071 C 
ATOM     86  C   UNL     1       7.264  -0.772  -7.880  1.00  0.00     0.071 C 
ENDBRANCH  81  84
ENDBRANCH  75  81
BRANCH  79  87
ATOM     87  N   UNL     1       5.000   5.697  -7.459  1.00  0.00    -0.250 N 
ATOM     88  C   UNL     1       5.941   6.682  -7.370  1.00  0.00     0.220 A 
ATOM     89  N   UNL     1       3.764   6.209  -7.299  1.00  0.00    -0.160 NA
ATOM     90  N   UNL     1       5.354   7.838  -7.163  1.00  0.00    -0.224 NA
ATOM     91  C   UNL     1       4.031   7.505  -7.128  1.00  0.00     0.246 A 
ENDBRANCH  79  87
ENDBRANCH  72  75
ENDBRANCH  70  71
ENDBRANCH  69  70
ENDBRANCH   1  69
TORSDOF 17
