REMARK SMILES O=C(CNC(=O)[C@@H](CC1=c2ccccc2=NC1)N1C(=O)N=C2C=CC=C[C@H]2C1=O)NCCCCNC(=O)c1ccc(-c2c3nc(c(-c4ccc(S(=O)(=O)[O-])cc4)c4ccc([nH]4)c(-c4ccc(S(=O)(=O)[O-])cc4)c4nc(c(-c5ccc(S(=O)(=O)[O-])cc5)c5ccc2[nH]5)C=C4)C=C3)cc1
REMARK SMILES IDX 32 1 31 2 30 3 1 4 2 5 3 7 4 8 5 9 6 11 7 12 8 13 9 14 10 15
REMARK SMILES IDX 17 16 11 17 15 18 16 19 12 20 14 21 13 22 18 23 19 24 28 25
REMARK SMILES IDX 21 26 20 27 27 28 29 29 22 30 26 31 23 32 25 33 24 34 33 35
REMARK SMILES IDX 34 36 35 37 36 38 37 40 38 41 39 42 97 43 40 44 96 45 41 46
REMARK SMILES IDX 42 47 43 48 90 49 44 50 95 51 89 52 91 53 45 54 94 55 88 56
REMARK SMILES IDX 87 57 46 59 76 60 57 61 75 62 58 63 61 64 74 65 92 66 59 67
REMARK SMILES IDX 60 68 73 70 93 71 62 72 47 73 48 74 56 75 49 76 55 77 50 78
REMARK SMILES IDX 51 79 52 80 53 81 54 82 77 83 78 84 86 85 79 86 85 87 80 88
REMARK SMILES IDX 81 89 82 90 83 91 84 92 63 93 64 94 72 95 65 96 71 97 66 98
REMARK SMILES IDX 67 99 68 100 69 101 70 102
REMARK H PARENT 30 6 4 10 35 39 91 58 61 69
REMARK Flexibility Score: inf
ROOT
ATOM      1  C   UNL     1       2.195  -2.658   1.540  1.00  0.00     0.023 C 
ENDROOT
BRANCH   1   2
ATOM      2  C   UNL     1       1.972  -1.248   2.085  1.00  0.00     0.116 C 
BRANCH   2   3
ATOM      3  N   UNL     1       2.556  -0.202   1.265  1.00  0.00    -0.355 N 
ATOM      4  O   UNL     1       0.597   0.944   0.896  1.00  0.00    -0.273 OA
ATOM      5  C   UNL     1       1.814   0.852   0.761  1.00  0.00     0.239 C 
ATOM      6  H   UNL     1       3.518  -0.244   1.060  1.00  0.00     0.163 HD
BRANCH   5   7
ATOM      7  C   UNL     1       2.634   1.972   0.099  1.00  0.00     0.216 C 
BRANCH   7   8
ATOM      8  N   UNL     1       4.044   1.634  -0.050  1.00  0.00    -0.345 N 
ATOM      9  C   UNL     1       4.696   1.977  -1.217  1.00  0.00     0.244 C 
ATOM     10  H   UNL     1       4.525   1.168   0.671  1.00  0.00     0.164 HD
ATOM     11  O   UNL     1       4.709   3.145  -1.600  1.00  0.00    -0.273 OA
BRANCH   9  12
ATOM     12  C   UNL     1       5.595   0.873  -1.804  1.00  0.00     0.188 C 
BRANCH  12  13
ATOM     13  C   UNL     1       5.100  -0.600  -1.820  1.00  0.00     0.069 C 
BRANCH  13  14
ATOM     14  C   UNL     1       3.772  -1.125  -2.296  1.00  0.00    -0.037 C 
ATOM     15  C   UNL     1       3.421  -2.414  -2.226  1.00  0.00     0.001 A 
ATOM     16  C   UNL     1       2.610  -0.331  -2.810  1.00  0.00     0.174 C 
ATOM     17  C   UNL     1       4.094  -3.626  -1.874  1.00  0.00     0.010 A 
ATOM     18  C   UNL     1       1.978  -2.398  -2.511  1.00  0.00     0.065 A 
ATOM     19  N   UNL     1       1.447  -1.259  -2.829  1.00  0.00    -0.280 NA
ATOM     20  C   UNL     1       3.381  -4.761  -1.779  1.00  0.00     0.001 A 
ATOM     21  C   UNL     1       1.253  -3.676  -2.344  1.00  0.00     0.028 A 
ATOM     22  C   UNL     1       1.943  -4.772  -1.986  1.00  0.00     0.002 A 
ENDBRANCH  13  14
ENDBRANCH  12  13
BRANCH  12  23
ATOM     23  N   UNL     1       6.294   1.280  -3.035  1.00  0.00    -0.249 N 
ATOM     24  C   UNL     1       7.686   1.248  -3.002  1.00  0.00     0.351 C 
ATOM     25  C   UNL     1       5.565   1.643  -4.150  1.00  0.00     0.244 C 
ATOM     26  N   UNL     1       8.388   1.397  -4.160  1.00  0.00    -0.197 NA
ATOM     27  O   UNL     1       8.289   1.013  -1.961  1.00  0.00    -0.246 OA
ATOM     28  C   UNL     1       6.357   2.150  -5.340  1.00  0.00     0.151 C 
ATOM     29  O   UNL     1       4.333   1.651  -4.163  1.00  0.00    -0.273 OA
ATOM     30  C   UNL     1       7.806   1.739  -5.258  1.00  0.00     0.062 C 
ATOM     31  C   UNL     1       5.769   1.708  -6.662  1.00  0.00    -0.007 C 
ATOM     32  C   UNL     1       8.617   1.723  -6.499  1.00  0.00     0.025 C 
ATOM     33  C   UNL     1       6.537   1.423  -7.726  1.00  0.00    -0.003 C 
ATOM     34  C   UNL     1       7.972   1.550  -7.659  1.00  0.00     0.002 C 
ENDBRANCH  12  23
ENDBRANCH   9  12
ENDBRANCH   7   8
ENDBRANCH   5   7
ENDBRANCH   2   3
ENDBRANCH   1   2
BRANCH   1  35
ATOM     35  C   UNL     1       3.647  -3.129   1.502  1.00  0.00     0.023 C 
BRANCH  35  36
ATOM     36  C   UNL     1       4.365  -3.212   2.841  1.00  0.00     0.116 C 
BRANCH  36  37
ATOM     37  N   UNL     1       3.858  -4.260   3.713  1.00  0.00    -0.352 N 
ATOM     38  C   UNL     1       4.542  -5.224   4.423  1.00  0.00     0.251 C 
ATOM     39  H   UNL     1       2.878  -4.285   3.810  1.00  0.00     0.163 HD
ATOM     40  O   UNL     1       3.914  -6.088   5.030  1.00  0.00    -0.269 OA
BRANCH  38  41
ATOM     41  C   UNL     1       6.027  -5.257   4.415  1.00  0.00     0.039 A 
ATOM     42  C   UNL     1       6.777  -4.083   4.477  1.00  0.00     0.014 A 
ATOM     43  C   UNL     1       6.683  -6.489   4.312  1.00  0.00     0.014 A 
ATOM     44  C   UNL     1       8.145  -4.121   4.223  1.00  0.00     0.010 A 
ATOM     45  C   UNL     1       8.075  -6.532   4.165  1.00  0.00     0.010 A 
ATOM     46  C   UNL     1       8.814  -5.345   4.056  1.00  0.00    -0.014 A 
BRANCH  46  47
ATOM     47  C   UNL     1      10.275  -5.347   3.762  1.00  0.00     0.031 A 
ATOM     48  C   UNL     1      10.803  -5.917   2.468  1.00  0.00     0.074 A 
ATOM     49  C   UNL     1      11.127  -4.766   4.632  1.00  0.00     0.049 A 
ATOM     50  N   UNL     1      12.041  -5.977   2.044  1.00  0.00    -0.248 NA
ATOM     51  C   UNL     1       9.826  -6.490   1.526  1.00  0.00     0.031 C 
ATOM     52  C   UNL     1      10.739  -4.161   5.909  1.00  0.00     0.029 A 
ATOM     53  N   UNL     1      12.482  -4.555   4.566  1.00  0.00    -0.354 N 
ATOM     54  C   UNL     1      11.993  -6.601   0.802  1.00  0.00     0.074 A 
ATOM     55  C   UNL     1      10.609  -6.932   0.549  1.00  0.00     0.031 C 
ATOM     56  C   UNL     1      11.815  -3.596   6.474  1.00  0.00     0.029 A 
ATOM     57  C   UNL     1      12.986  -3.862   5.644  1.00  0.00     0.049 A 
ATOM     58  H   UNL     1      13.041  -4.869   3.819  1.00  0.00     0.167 HD
ATOM     59  C   UNL     1      13.008  -6.856  -0.057  1.00  0.00     0.031 A 
ATOM     60  C   UNL     1      14.246  -3.493   5.950  1.00  0.00     0.031 A 
ATOM     61  C   UNL     1      14.383  -6.503   0.186  1.00  0.00     0.049 A 
ATOM     62  C   UNL     1      15.360  -3.825   4.998  1.00  0.00     0.074 A 
ATOM     63  C   UNL     1      15.477  -6.720  -0.634  1.00  0.00     0.029 A 
ATOM     64  N   UNL     1      14.853  -5.849   1.315  1.00  0.00    -0.354 N 
ATOM     65  N   UNL     1      15.288  -4.422   3.833  1.00  0.00    -0.248 NA
ATOM     66  C   UNL     1      16.721  -3.439   5.396  1.00  0.00     0.031 C 
ATOM     67  C   UNL     1      16.616  -6.253   0.023  1.00  0.00     0.029 A 
ATOM     68  C   UNL     1      16.224  -5.677   1.221  1.00  0.00     0.049 A 
ATOM     69  H   UNL     1      14.296  -5.552   2.070  1.00  0.00     0.167 HD
ATOM     70  C   UNL     1      16.592  -4.477   3.356  1.00  0.00     0.074 A 
ATOM     71  C   UNL     1      17.429  -3.829   4.344  1.00  0.00     0.031 C 
ATOM     72  C   UNL     1      17.051  -5.027   2.206  1.00  0.00     0.031 A 
BRANCH  59  73
ATOM     73  C   UNL     1      12.698  -7.538  -1.366  1.00  0.00    -0.014 A 
ATOM     74  C   UNL     1      13.186  -8.837  -1.609  1.00  0.00     0.010 A 
ATOM     75  C   UNL     1      12.078  -6.833  -2.412  1.00  0.00     0.010 A 
ATOM     76  C   UNL     1      13.106  -9.398  -2.887  1.00  0.00     0.020 A 
ATOM     77  C   UNL     1      11.972  -7.402  -3.686  1.00  0.00     0.020 A 
ATOM     78  C   UNL     1      12.514  -8.669  -3.921  1.00  0.00     0.054 A 
BRANCH  78  79
ATOM     79  S   UNL     1      12.481  -9.384  -5.589  1.00  0.00     0.124 S 
ATOM     80  O   UNL     1      13.874  -9.257  -6.006  1.00  0.00    -0.237 OA
ATOM     81  O   UNL     1      12.016 -10.746  -5.341  1.00  0.00    -0.237 OA
ATOM     82  O   UNL     1      11.533  -8.534  -6.306  1.00  0.00    -0.744 OA
ENDBRANCH  78  79
ENDBRANCH  59  73
BRANCH  60  83
ATOM     83  C   UNL     1      14.501  -2.771   7.229  1.00  0.00    -0.014 A 
ATOM     84  C   UNL     1      14.280  -3.419   8.460  1.00  0.00     0.010 A 
ATOM     85  C   UNL     1      14.889  -1.420   7.230  1.00  0.00     0.010 A 
ATOM     86  C   UNL     1      14.381  -2.717   9.662  1.00  0.00     0.020 A 
ATOM     87  C   UNL     1      15.027  -0.723   8.436  1.00  0.00     0.020 A 
ATOM     88  C   UNL     1      14.741  -1.368   9.642  1.00  0.00     0.054 A 
BRANCH  88  89
ATOM     89  S   UNL     1      14.827  -0.465  11.213  1.00  0.00     0.124 S 
ATOM     90  O   UNL     1      13.416  -0.207  11.485  1.00  0.00    -0.237 OA
ATOM     91  O   UNL     1      15.474  -1.428  12.101  1.00  0.00    -0.237 OA
ATOM     92  O   UNL     1      15.627   0.712  10.885  1.00  0.00    -0.744 OA
ENDBRANCH  88  89
ENDBRANCH  60  83
BRANCH  72  93
ATOM     93  C   UNL     1      18.529  -4.968   1.925  1.00  0.00    -0.014 A 
ATOM     94  C   UNL     1      19.005  -4.194   0.849  1.00  0.00     0.010 A 
ATOM     95  C   UNL     1      19.427  -5.791   2.627  1.00  0.00     0.010 A 
ATOM     96  C   UNL     1      20.342  -4.276   0.454  1.00  0.00     0.020 A 
ATOM     97  C   UNL     1      20.772  -5.854   2.252  1.00  0.00     0.020 A 
ATOM     98  C   UNL     1      21.214  -5.117   1.150  1.00  0.00     0.054 A 
BRANCH  98  99
ATOM     99  S   UNL     1      22.935  -5.249   0.592  1.00  0.00     0.124 S 
ATOM    100  O   UNL     1      22.809  -6.091  -0.594  1.00  0.00    -0.237 OA
ATOM    101  O   UNL     1      23.298  -3.856   0.340  1.00  0.00    -0.237 OA
ATOM    102  O   UNL     1      23.617  -5.866   1.727  1.00  0.00    -0.744 OA
ENDBRANCH  98  99
ENDBRANCH  72  93
ENDBRANCH  46  47
ENDBRANCH  38  41
ENDBRANCH  36  37
ENDBRANCH  35  36
ENDBRANCH   1  35
TORSDOF 19
