REMARK SMILES COc1ccc(NC2=[NH+]C(=O)/C(=C\c3ccccc3C(=O)NCCCCNC(=O)c3ccc(-c4c5nc(c(-c6ccc(S(=O)(=O)[O-])cc6)c6ccc([nH]6)c(-c6ccc(S(=O)(=O)[O-])cc6)c6nc(c(-c7ccc(S(=O)(=O)[O-])cc7)c7ccc4[nH]7)C=C6)C=C5)cc3)S2)cc1
REMARK SMILES IDX 24 1 23 2 22 3 20 4 21 5 19 7 14 8 15 9 16 10 18 11 17 12
REMARK SMILES IDX 13 13 7 14 8 15 9 17 90 18 10 19 12 21 11 22 6 23 3 24 4 25
REMARK SMILES IDX 92 26 5 27 91 28 2 29 1 30 25 31 26 32 27 33 28 34 29 36
REMARK SMILES IDX 30 37 31 38 89 39 32 40 88 41 33 42 34 43 35 44 82 45 36 46
REMARK SMILES IDX 87 47 81 48 83 49 37 50 86 51 80 52 79 53 38 55 68 56 49 57
REMARK SMILES IDX 67 58 50 59 53 60 66 61 84 62 51 63 52 64 65 66 85 67 54 68
REMARK SMILES IDX 39 69 40 70 48 71 41 72 47 73 42 74 43 75 44 76 45 77 46 78
REMARK SMILES IDX 69 79 70 80 78 81 71 82 77 83 72 84 73 85 74 86 75 87 76 88
REMARK SMILES IDX 55 89 56 90 64 91 57 92 63 93 58 94 59 95 60 96 61 97 62 98
REMARK H PARENT 22 6 7 16 9 20 27 35 83 54 53 65
REMARK Flexibility Score: inf
ROOT
ATOM      1  C   UNL     1      -3.070   1.007   6.895  1.00  0.00     0.023 C 
ENDROOT
BRANCH   1   2
ATOM      2  C   UNL     1      -2.254   1.885   7.836  1.00  0.00     0.116 C 
BRANCH   2   3
ATOM      3  N   UNL     1      -2.394   3.322   7.715  1.00  0.00    -0.352 N 
ATOM      4  C   UNL     1      -2.252   4.312   8.671  1.00  0.00     0.251 C 
ATOM      5  O   UNL     1      -2.236   5.481   8.283  1.00  0.00    -0.269 OA
ATOM      6  H   UNL     1      -2.624   3.644   6.813  1.00  0.00     0.163 HD
BRANCH   4   7
ATOM      7  C   UNL     1      -2.265   4.042  10.146  1.00  0.00     0.047 A 
ATOM      8  C   UNL     1      -1.569   3.029  10.844  1.00  0.00    -0.011 A 
ATOM      9  C   UNL     1      -1.911   2.788  12.190  1.00  0.00     0.009 A 
ATOM     10  C   UNL     1      -2.803   3.619  12.873  1.00  0.00     0.001 A 
ATOM     11  C   UNL     1      -3.091   4.924  10.876  1.00  0.00     0.014 A 
ATOM     12  C   UNL     1      -3.350   4.721  12.231  1.00  0.00     0.001 A 
BRANCH   8  13
ATOM     13  C   UNL     1      -0.498   2.175  10.288  1.00  0.00     0.032 C 
ATOM     14  N   UNL     1       2.183   2.810   6.269  1.00  0.00    -0.235 N 
ATOM     15  C   UNL     1       1.780   3.047   7.554  1.00  0.00     0.322 C 
ATOM     16  H   UNL     1       3.118   2.545   6.113  1.00  0.00     0.313 HD
ATOM     17  N   UNL     1       1.438   4.178   8.076  1.00  0.00    -0.199 N 
ATOM     18  S   UNL     1       1.589   1.641   8.612  1.00  0.00     0.006 SA
ATOM     19  C   UNL     1       0.936   4.041   9.347  1.00  0.00     0.346 C 
ATOM     20  H   UNL     1       1.528   5.043   7.614  1.00  0.00     0.316 HD
ATOM     21  C   UNL     1       0.570   2.622   9.609  1.00  0.00     0.110 C 
ATOM     22  O   UNL     1       0.812   4.932  10.176  1.00  0.00    -0.240 OA
BRANCH  14  23
ATOM     23  C   UNL     1       1.321   2.928   5.153  1.00  0.00     0.125 A 
ATOM     24  C   UNL     1      -0.512   2.530   3.056  1.00  0.00     0.119 A 
ATOM     25  C   UNL     1      -0.906   3.199   4.203  1.00  0.00     0.051 A 
ATOM     26  C   UNL     1       0.843   2.324   2.845  1.00  0.00     0.051 A 
ATOM     27  C   UNL     1       0.013   3.412   5.241  1.00  0.00     0.055 A 
ATOM     28  C   UNL     1       1.759   2.526   3.891  1.00  0.00     0.055 A 
BRANCH  24  29
ATOM     29  O   UNL     1      -1.465   2.139   2.156  1.00  0.00    -0.497 OA
ATOM     30  C   UNL     1      -1.737   0.730   2.208  1.00  0.00     0.278 C 
ENDBRANCH  24  29
ENDBRANCH  14  23
ENDBRANCH   8  13
ENDBRANCH   4   7
ENDBRANCH   2   3
ENDBRANCH   1   2
BRANCH   1  31
ATOM     31  C   UNL     1      -2.417   0.454   5.612  1.00  0.00     0.023 C 
BRANCH  31  32
ATOM     32  C   UNL     1      -0.920   0.071   5.536  1.00  0.00     0.116 C 
BRANCH  32  33
ATOM     33  N   UNL     1      -0.593  -1.327   5.760  1.00  0.00    -0.352 N 
ATOM     34  C   UNL     1       0.306  -2.136   5.076  1.00  0.00     0.251 C 
ATOM     35  H   UNL     1      -1.076  -1.761   6.499  1.00  0.00     0.163 HD
ATOM     36  O   UNL     1       0.557  -3.256   5.516  1.00  0.00    -0.269 OA
BRANCH  34  37
ATOM     37  C   UNL     1       0.952  -1.708   3.797  1.00  0.00     0.039 A 
ATOM     38  C   UNL     1       0.546  -2.276   2.584  1.00  0.00     0.014 A 
ATOM     39  C   UNL     1       2.015  -0.809   3.771  1.00  0.00     0.014 A 
ATOM     40  C   UNL     1       1.082  -1.824   1.351  1.00  0.00     0.010 A 
ATOM     41  C   UNL     1       2.547  -0.364   2.533  1.00  0.00     0.010 A 
ATOM     42  C   UNL     1       2.043  -0.797   1.290  1.00  0.00    -0.014 A 
BRANCH  42  43
ATOM     43  C   UNL     1       2.440  -0.143  -0.035  1.00  0.00     0.031 A 
ATOM     44  C   UNL     1       3.874   0.053  -0.445  1.00  0.00     0.074 A 
ATOM     45  C   UNL     1       1.527   0.447  -0.851  1.00  0.00     0.049 A 
ATOM     46  N   UNL     1       4.335   0.683  -1.498  1.00  0.00    -0.248 NA
ATOM     47  C   UNL     1       4.915  -0.436   0.466  1.00  0.00     0.031 C 
ATOM     48  C   UNL     1       0.139   0.619  -0.490  1.00  0.00     0.029 A 
ATOM     49  N   UNL     1       1.585   1.058  -2.091  1.00  0.00    -0.354 N 
ATOM     50  C   UNL     1       5.711   0.719  -1.351  1.00  0.00     0.074 A 
ATOM     51  C   UNL     1       6.004   0.087  -0.078  1.00  0.00     0.031 C 
ATOM     52  C   UNL     1      -0.552   1.222  -1.463  1.00  0.00     0.029 A 
ATOM     53  C   UNL     1       0.356   1.504  -2.559  1.00  0.00     0.049 A 
ATOM     54  H   UNL     1       2.422   1.166  -2.597  1.00  0.00     0.167 HD
ATOM     55  C   UNL     1       6.649   1.208  -2.198  1.00  0.00     0.031 A 
ATOM     56  C   UNL     1      -0.032   2.085  -3.715  1.00  0.00     0.031 A 
ATOM     57  C   UNL     1       6.382   1.813  -3.478  1.00  0.00     0.049 A 
ATOM     58  C   UNL     1       1.016   2.472  -4.712  1.00  0.00     0.074 A 
ATOM     59  C   UNL     1       7.298   2.221  -4.434  1.00  0.00     0.029 A 
ATOM     60  N   UNL     1       5.125   2.100  -3.987  1.00  0.00    -0.354 N 
ATOM     61  N   UNL     1       2.315   2.369  -4.594  1.00  0.00    -0.248 NA
ATOM     62  C   UNL     1       0.566   3.082  -5.973  1.00  0.00     0.031 C 
ATOM     63  C   UNL     1       6.598   2.775  -5.511  1.00  0.00     0.029 A 
ATOM     64  C   UNL     1       5.244   2.667  -5.249  1.00  0.00     0.049 A 
ATOM     65  H   UNL     1       4.274   1.928  -3.523  1.00  0.00     0.167 HD
ATOM     66  C   UNL     1       2.839   2.903  -5.760  1.00  0.00     0.074 A 
ATOM     67  C   UNL     1       1.721   3.303  -6.588  1.00  0.00     0.031 C 
ATOM     68  C   UNL     1       4.141   3.057  -6.091  1.00  0.00     0.031 A 
BRANCH  55  69
ATOM     69  C   UNL     1       8.082   1.068  -1.763  1.00  0.00    -0.014 A 
ATOM     70  C   UNL     1       8.676  -0.204  -1.674  1.00  0.00     0.010 A 
ATOM     71  C   UNL     1       8.842   2.208  -1.449  1.00  0.00     0.010 A 
ATOM     72  C   UNL     1       9.981  -0.341  -1.204  1.00  0.00     0.020 A 
ATOM     73  C   UNL     1      10.164   2.077  -1.014  1.00  0.00     0.020 A 
ATOM     74  C   UNL     1      10.713   0.800  -0.867  1.00  0.00     0.054 A 
BRANCH  74  75
ATOM     75  S   UNL     1      12.401   0.588  -0.245  1.00  0.00     0.124 S 
ATOM     76  O   UNL     1      12.159   0.123   1.118  1.00  0.00    -0.237 OA
ATOM     77  O   UNL     1      12.957  -0.408  -1.158  1.00  0.00    -0.237 OA
ATOM     78  O   UNL     1      12.982   1.923  -0.356  1.00  0.00    -0.744 OA
ENDBRANCH  74  75
ENDBRANCH  55  69
BRANCH  56  79
ATOM     79  C   UNL     1      -1.478   2.322  -4.022  1.00  0.00    -0.014 A 
ATOM     80  C   UNL     1      -2.125   1.534  -4.995  1.00  0.00     0.010 A 
ATOM     81  C   UNL     1      -2.217   3.322  -3.366  1.00  0.00     0.010 A 
ATOM     82  C   UNL     1      -3.471   1.747  -5.313  1.00  0.00     0.020 A 
ATOM     83  C   UNL     1      -3.574   3.518  -3.660  1.00  0.00     0.020 A 
ATOM     84  C   UNL     1      -4.190   2.736  -4.640  1.00  0.00     0.054 A 
BRANCH  84  85
ATOM     85  S   UNL     1      -5.954   2.951  -5.019  1.00  0.00     0.124 S 
ATOM     86  O   UNL     1      -5.909   3.671  -6.287  1.00  0.00    -0.237 OA
ATOM     87  O   UNL     1      -6.434   1.572  -5.092  1.00  0.00    -0.237 OA
ATOM     88  O   UNL     1      -6.457   3.715  -3.879  1.00  0.00    -0.744 OA
ENDBRANCH  84  85
ENDBRANCH  56  79
BRANCH  68  89
ATOM     89  C   UNL     1       4.450   3.632  -7.443  1.00  0.00    -0.014 A 
ATOM     90  C   UNL     1       4.313   5.006  -7.704  1.00  0.00     0.010 A 
ATOM     91  C   UNL     1       4.961   2.787  -8.444  1.00  0.00     0.010 A 
ATOM     92  C   UNL     1       4.686   5.526  -8.947  1.00  0.00     0.020 A 
ATOM     93  C   UNL     1       5.354   3.305  -9.678  1.00  0.00     0.020 A 
ATOM     94  C   UNL     1       5.213   4.673  -9.923  1.00  0.00     0.054 A 
BRANCH  94  95
ATOM     95  S   UNL     1       5.779   5.383 -11.493  1.00  0.00     0.124 S 
ATOM     96  O   UNL     1       4.519   5.697 -12.159  1.00  0.00    -0.237 OA
ATOM     97  O   UNL     1       6.565   6.535 -11.057  1.00  0.00    -0.237 OA
ATOM     98  O   UNL     1       6.554   4.304 -12.102  1.00  0.00    -0.744 OA
ENDBRANCH  94  95
ENDBRANCH  68  89
ENDBRANCH  42  43
ENDBRANCH  34  37
ENDBRANCH  32  33
ENDBRANCH  31  32
ENDBRANCH   1  31
TORSDOF 17
