REMARK SMILES Cc1sc(-c2ccco2)nc1C(=O)N[C@@H](C(=O)NCCCCNC(=O)c1ccc(-c2c3nc(c(-c4ccc(S(=O)(=O)[O-])cc4)c4ccc([nH]4)c(-c4ccc(S(=O)(=O)[O-])cc4)c4nc(c(-c5ccc(S(=O)(=O)[O-])cc5)c5ccc2[nH]5)C=C4)C=C3)cc1)C(C)C
REMARK SMILES IDX 20 1 19 2 18 3 16 4 17 5 15 7 14 8 12 9 13 10 11 12 1 13
REMARK SMILES IDX 2 14 3 15 4 16 10 17 5 18 6 19 9 20 7 21 8 22 86 23 87 24
REMARK SMILES IDX 88 25 21 26 22 27 23 28 24 29 25 31 26 32 27 33 85 34 28 35
REMARK SMILES IDX 84 36 29 37 30 38 31 39 78 40 32 41 83 42 77 43 79 44 33 45
REMARK SMILES IDX 82 46 76 47 75 48 34 50 64 51 45 52 63 53 46 54 49 55 62 56
REMARK SMILES IDX 80 57 47 58 48 59 61 61 81 62 50 63 35 64 36 65 44 66 37 67
REMARK SMILES IDX 43 68 38 69 39 70 40 71 41 72 42 73 65 74 66 75 74 76 67 77
REMARK SMILES IDX 73 78 68 79 69 80 70 81 71 82 72 83 51 84 52 85 60 86 53 87
REMARK SMILES IDX 59 88 54 89 55 90 56 91 57 92 58 93
REMARK H PARENT 18 6 14 11 23 30 79 49 49 60
REMARK Flexibility Score: inf
ROOT
ATOM      1  C   UNL     1       0.983  -3.232   3.399  1.00  0.00     0.023 C 
ENDROOT
BRANCH   1   2
ATOM      2  C   UNL     1       1.863  -2.167   2.754  1.00  0.00     0.116 C 
BRANCH   2   3
ATOM      3  N   UNL     1       3.146  -2.710   2.351  1.00  0.00    -0.354 N 
ATOM      4  C   UNL     1       3.648  -2.983   1.109  1.00  0.00     0.242 C 
ATOM      5  O   UNL     1       4.767  -3.497   1.059  1.00  0.00    -0.273 OA
ATOM      6  H   UNL     1       3.757  -2.916   3.095  1.00  0.00     0.163 HD
BRANCH   4   7
ATOM      7  C   UNL     1       2.901  -2.506  -0.167  1.00  0.00     0.174 C 
BRANCH   7   8
ATOM      8  N   UNL     1       1.548  -3.021  -0.217  1.00  0.00    -0.339 N 
ATOM      9  C   UNL     1       0.303  -2.447  -0.251  1.00  0.00     0.271 C 
ATOM     10  O   UNL     1      -0.605  -3.287  -0.295  1.00  0.00    -0.267 OA
ATOM     11  H   UNL     1       1.515  -4.005  -0.231  1.00  0.00     0.164 HD
BRANCH   9  12
ATOM     12  C   UNL     1      -0.035  -0.989  -0.223  1.00  0.00     0.142 A 
ATOM     13  C   UNL     1       2.089   0.627   0.192  1.00  0.00     0.059 C 
ATOM     14  C   UNL     1       0.687   0.209  -0.098  1.00  0.00     0.035 A 
ATOM     15  S   UNL     1      -0.372   1.562  -0.358  1.00  0.00    -0.115 S 
ATOM     16  C   UNL     1      -1.713   0.536  -0.270  1.00  0.00     0.160 A 
ATOM     17  N   UNL     1      -1.434  -0.740  -0.231  1.00  0.00    -0.227 NA
BRANCH  16  18
ATOM     18  C   UNL     1      -3.030   1.080  -0.170  1.00  0.00     0.162 A 
ATOM     19  C   UNL     1      -4.000   0.806   0.780  1.00  0.00     0.053 A 
ATOM     20  O   UNL     1      -3.493   2.073  -0.997  1.00  0.00    -0.462 OA
ATOM     21  C   UNL     1      -5.081   1.688   0.538  1.00  0.00     0.043 A 
ATOM     22  C   UNL     1      -4.730   2.422  -0.568  1.00  0.00     0.196 A 
ENDBRANCH  16  18
ENDBRANCH   9  12
ENDBRANCH   7   8
BRANCH   7  23
ATOM     23  C   UNL     1       3.690  -2.765  -1.475  1.00  0.00     0.015 C 
ATOM     24  C   UNL     1       2.823  -2.572  -2.728  1.00  0.00     0.010 C 
ATOM     25  C   UNL     1       4.885  -1.802  -1.570  1.00  0.00     0.010 C 
ENDBRANCH   7  23
ENDBRANCH   4   7
ENDBRANCH   2   3
ENDBRANCH   1   2
BRANCH   1  26
ATOM     26  C   UNL     1       1.405  -3.576   4.828  1.00  0.00     0.023 C 
BRANCH  26  27
ATOM     27  C   UNL     1       1.338  -2.410   5.810  1.00  0.00     0.116 C 
BRANCH  27  28
ATOM     28  N   UNL     1      -0.006  -1.878   5.973  1.00  0.00    -0.352 N 
ATOM     29  C   UNL     1      -0.646  -1.522   7.136  1.00  0.00     0.251 C 
ATOM     30  H   UNL     1      -0.523  -1.757   5.144  1.00  0.00     0.163 HD
ATOM     31  O   UNL     1      -1.835  -1.214   7.121  1.00  0.00    -0.269 OA
BRANCH  29  32
ATOM     32  C   UNL     1       0.103  -1.549   8.409  1.00  0.00     0.039 A 
ATOM     33  C   UNL     1      -0.449  -2.214   9.506  1.00  0.00     0.014 A 
ATOM     34  C   UNL     1       1.369  -0.963   8.502  1.00  0.00     0.014 A 
ATOM     35  C   UNL     1       0.298  -2.348  10.677  1.00  0.00     0.010 A 
ATOM     36  C   UNL     1       2.141  -1.166   9.641  1.00  0.00     0.010 A 
ATOM     37  C   UNL     1       1.615  -1.859  10.742  1.00  0.00    -0.014 A 
BRANCH  37  38
ATOM     38  C   UNL     1       2.456  -2.071  11.948  1.00  0.00     0.031 A 
ATOM     39  C   UNL     1       2.949  -0.891  12.743  1.00  0.00     0.074 A 
ATOM     40  C   UNL     1       2.826  -3.320  12.294  1.00  0.00     0.049 A 
ATOM     41  N   UNL     1       3.729  -0.874  13.793  1.00  0.00    -0.248 NA
ATOM     42  C   UNL     1       2.532   0.444  12.284  1.00  0.00     0.031 C 
ATOM     43  C   UNL     1       2.452  -4.544  11.582  1.00  0.00     0.029 A 
ATOM     44  N   UNL     1       3.606  -3.769  13.332  1.00  0.00    -0.354 N 
ATOM     45  C   UNL     1       3.906   0.468  14.111  1.00  0.00     0.074 A 
ATOM     46  C   UNL     1       3.199   1.236  13.110  1.00  0.00     0.031 C 
ATOM     47  C   UNL     1       2.976  -5.603  12.220  1.00  0.00     0.029 A 
ATOM     48  C   UNL     1       3.759  -5.135  13.358  1.00  0.00     0.049 A 
ATOM     49  H   UNL     1       4.017  -3.168  13.995  1.00  0.00     0.167 HD
ATOM     50  C   UNL     1       4.578   1.012  15.154  1.00  0.00     0.031 A 
ATOM     51  C   UNL     1       4.456  -5.925  14.199  1.00  0.00     0.031 A 
ATOM     52  C   UNL     1       5.276   0.245  16.152  1.00  0.00     0.049 A 
ATOM     53  C   UNL     1       5.209  -5.296  15.340  1.00  0.00     0.074 A 
ATOM     54  C   UNL     1       5.942   0.701  17.276  1.00  0.00     0.029 A 
ATOM     55  N   UNL     1       5.402  -1.136  16.145  1.00  0.00    -0.354 N 
ATOM     56  N   UNL     1       5.307  -4.028  15.663  1.00  0.00    -0.248 NA
ATOM     57  C   UNL     1       5.933  -6.205  16.238  1.00  0.00     0.031 C 
ATOM     58  C   UNL     1       6.521  -0.399  17.917  1.00  0.00     0.029 A 
ATOM     59  C   UNL     1       6.158  -1.547  17.231  1.00  0.00     0.049 A 
ATOM     60  H   UNL     1       5.011  -1.736  15.469  1.00  0.00     0.167 HD
ATOM     61  C   UNL     1       6.080  -3.990  16.819  1.00  0.00     0.074 A 
ATOM     62  C   UNL     1       6.409  -5.363  17.146  1.00  0.00     0.031 C 
ATOM     63  C   UNL     1       6.480  -2.917  17.544  1.00  0.00     0.031 A 
BRANCH  50  64
ATOM     64  C   UNL     1       4.594   2.516  15.263  1.00  0.00    -0.014 A 
ATOM     65  C   UNL     1       3.426   3.236  15.573  1.00  0.00     0.010 A 
ATOM     66  C   UNL     1       5.802   3.216  15.093  1.00  0.00     0.010 A 
ATOM     67  C   UNL     1       3.455   4.630  15.666  1.00  0.00     0.020 A 
ATOM     68  C   UNL     1       5.843   4.608  15.216  1.00  0.00     0.020 A 
ATOM     69  C   UNL     1       4.665   5.307  15.485  1.00  0.00     0.054 A 
BRANCH  69  70
ATOM     70  S   UNL     1       4.676   7.115  15.631  1.00  0.00     0.124 S 
ATOM     71  O   UNL     1       3.977   7.520  14.413  1.00  0.00    -0.237 OA
ATOM     72  O   UNL     1       3.948   7.340  16.877  1.00  0.00    -0.237 OA
ATOM     73  O   UNL     1       6.097   7.451  15.673  1.00  0.00    -0.744 OA
ENDBRANCH  69  70
ENDBRANCH  50  64
BRANCH  51  74
ATOM     74  C   UNL     1       4.466  -7.401  13.998  1.00  0.00    -0.014 A 
ATOM     75  C   UNL     1       3.811  -8.251  14.907  1.00  0.00     0.010 A 
ATOM     76  C   UNL     1       5.122  -7.964  12.889  1.00  0.00     0.010 A 
ATOM     77  C   UNL     1       3.830  -9.637  14.721  1.00  0.00     0.020 A 
ATOM     78  C   UNL     1       5.117  -9.346  12.682  1.00  0.00     0.020 A 
ATOM     79  C   UNL     1       4.481 -10.175  13.607  1.00  0.00     0.054 A 
BRANCH  79  80
ATOM     80  S   UNL     1       4.449 -11.973  13.360  1.00  0.00     0.124 S 
ATOM     81  O   UNL     1       5.357 -12.439  14.403  1.00  0.00    -0.237 OA
ATOM     82  O   UNL     1       3.038 -12.293  13.558  1.00  0.00    -0.237 OA
ATOM     83  O   UNL     1       4.931 -12.137  11.990  1.00  0.00    -0.744 OA
ENDBRANCH  79  80
ENDBRANCH  51  74
BRANCH  63  84
ATOM     84  C   UNL     1       7.288  -3.180  18.788  1.00  0.00    -0.014 A 
ATOM     85  C   UNL     1       8.618  -3.631  18.716  1.00  0.00     0.010 A 
ATOM     86  C   UNL     1       6.722  -2.918  20.049  1.00  0.00     0.010 A 
ATOM     87  C   UNL     1       9.354  -3.849  19.884  1.00  0.00     0.020 A 
ATOM     88  C   UNL     1       7.465  -3.104  21.217  1.00  0.00     0.020 A 
ATOM     89  C   UNL     1       8.773  -3.583  21.127  1.00  0.00     0.054 A 
BRANCH  89  90
ATOM     90  S   UNL     1       9.764  -3.834  22.625  1.00  0.00     0.124 S 
ATOM     91  O   UNL     1       9.823  -5.290  22.710  1.00  0.00    -0.237 OA
ATOM     92  O   UNL     1      11.022  -3.171  22.291  1.00  0.00    -0.237 OA
ATOM     93  O   UNL     1       8.981  -3.181  23.672  1.00  0.00    -0.744 OA
ENDBRANCH  89  90
ENDBRANCH  63  84
ENDBRANCH  37  38
ENDBRANCH  29  32
ENDBRANCH  27  28
ENDBRANCH  26  27
ENDBRANCH   1  26
TORSDOF 18
