REMARK SMILES CC(=O)NCC(=O)N1[C@@H](C(=O)NCCCCNC(=O)c2ccc(-c3c4nc(c(-c5ccc(S(=O)(=O)[O-])cc5)c5ccc([nH]5)c(-c5ccc(S(=O)(=O)[O-])cc5)c5nc(c(-c6ccc(S(=O)(=O)[O-])cc6)c6ccc3[nH]6)C=C5)C=C4)cc2)CC[C@H]2CCCC[C@H]21
REMARK SMILES IDX 14 1 13 2 12 3 10 4 11 5 9 7 8 8 87 9 80 10 82 11 86 12
REMARK SMILES IDX 81 13 83 14 85 15 84 16 6 17 7 18 5 19 4 20 1 21 2 22 3 23
REMARK SMILES IDX 15 25 16 26 17 27 18 28 19 30 20 31 21 32 79 33 22 34 78 35
REMARK SMILES IDX 23 36 24 37 25 38 72 39 26 40 77 41 71 42 73 43 27 44 76 45
REMARK SMILES IDX 70 46 69 47 28 49 58 50 39 51 57 52 40 53 43 54 56 55 74 56
REMARK SMILES IDX 41 57 42 58 55 60 75 61 44 62 29 63 30 64 38 65 31 66 37 67
REMARK SMILES IDX 32 68 33 69 34 70 35 71 36 72 59 73 60 74 68 75 61 76 67 77
REMARK SMILES IDX 62 78 63 79 64 80 65 81 66 82 45 83 46 84 54 85 47 86 53 87
REMARK SMILES IDX 48 88 49 89 50 90 51 91 52 92
REMARK H PARENT 12 6 4 24 17 29 73 48 43 59
REMARK Flexibility Score: inf
ROOT
ATOM      1  C   UNL     1       2.860  -0.705   6.916  1.00  0.00     0.023 C 
ENDROOT
BRANCH   1   2
ATOM      2  C   UNL     1       2.630  -1.275   5.520  1.00  0.00     0.116 C 
BRANCH   2   3
ATOM      3  N   UNL     1       1.700  -0.447   4.778  1.00  0.00    -0.354 N 
ATOM      4  C   UNL     1       1.945   0.349   3.701  1.00  0.00     0.242 C 
ATOM      5  O   UNL     1       1.171   1.288   3.499  1.00  0.00    -0.273 OA
ATOM      6  H   UNL     1       0.768  -0.461   5.096  1.00  0.00     0.163 HD
BRANCH   4   7
ATOM      7  C   UNL     1       3.225   0.196   2.845  1.00  0.00     0.174 C 
ATOM      8  N   UNL     1       3.732  -1.187   2.661  1.00  0.00    -0.326 N 
ATOM      9  C   UNL     1       5.115  -1.298   2.149  1.00  0.00     0.089 C 
ATOM     10  C   UNL     1       4.246   1.127   3.535  1.00  0.00     0.036 C 
ATOM     11  C   UNL     1       6.121  -0.455   2.941  1.00  0.00     0.012 C 
ATOM     12  C   UNL     1       5.730  -2.692   1.964  1.00  0.00     0.025 C 
ATOM     13  C   UNL     1       5.662   1.002   3.001  1.00  0.00     0.008 C 
ATOM     14  C   UNL     1       6.451  -1.035   4.325  1.00  0.00     0.006 C 
ATOM     15  C   UNL     1       6.147  -3.403   3.244  1.00  0.00     0.002 C 
ATOM     16  C   UNL     1       6.285  -2.545   4.495  1.00  0.00     0.000 C 
BRANCH   8  17
ATOM     17  C   UNL     1       2.859  -2.238   2.360  1.00  0.00     0.242 C 
ATOM     18  O   UNL     1       3.082  -3.376   2.784  1.00  0.00    -0.273 OA
BRANCH  17  19
ATOM     19  C   UNL     1       1.755  -2.041   1.306  1.00  0.00     0.216 C 
BRANCH  19  20
ATOM     20  N   UNL     1       0.671  -1.130   1.607  1.00  0.00    -0.347 N 
ATOM     21  C   UNL     1       0.807   0.139  -0.497  1.00  0.00     0.114 C 
ATOM     22  C   UNL     1       0.109  -0.192   0.791  1.00  0.00     0.217 C 
ATOM     23  O   UNL     1      -0.950   0.343   1.107  1.00  0.00    -0.275 OA
ATOM     24  H   UNL     1       0.293  -1.196   2.514  1.00  0.00     0.164 HD
ENDBRANCH  19  20
ENDBRANCH  17  19
ENDBRANCH   8  17
ENDBRANCH   4   7
ENDBRANCH   2   3
ENDBRANCH   1   2
BRANCH   1  25
ATOM     25  C   UNL     1       1.639  -0.788   7.832  1.00  0.00     0.023 C 
BRANCH  25  26
ATOM     26  C   UNL     1       1.089  -2.196   8.026  1.00  0.00     0.116 C 
BRANCH  26  27
ATOM     27  N   UNL     1       2.076  -3.106   8.589  1.00  0.00    -0.352 N 
ATOM     28  C   UNL     1       1.919  -4.005   9.615  1.00  0.00     0.251 C 
ATOM     29  H   UNL     1       2.971  -3.072   8.181  1.00  0.00     0.163 HD
ATOM     30  O   UNL     1       2.892  -4.583  10.088  1.00  0.00    -0.269 OA
BRANCH  28  31
ATOM     31  C   UNL     1       0.566  -4.241  10.157  1.00  0.00     0.039 A 
ATOM     32  C   UNL     1       0.366  -4.171  11.536  1.00  0.00     0.014 A 
ATOM     33  C   UNL     1      -0.506  -4.488   9.294  1.00  0.00     0.014 A 
ATOM     34  C   UNL     1      -0.926  -4.289  12.049  1.00  0.00     0.010 A 
ATOM     35  C   UNL     1      -1.800  -4.534   9.801  1.00  0.00     0.010 A 
ATOM     36  C   UNL     1      -2.023  -4.438  11.183  1.00  0.00    -0.014 A 
BRANCH  36  37
ATOM     37  C   UNL     1      -3.412  -4.494  11.703  1.00  0.00     0.031 A 
ATOM     38  C   UNL     1      -4.231  -5.744  11.527  1.00  0.00     0.074 A 
ATOM     39  C   UNL     1      -3.956  -3.400  12.271  1.00  0.00     0.049 A 
ATOM     40  N   UNL     1      -5.475  -5.967  11.863  1.00  0.00    -0.248 NA
ATOM     41  C   UNL     1      -3.575  -6.883  10.863  1.00  0.00     0.031 C 
ATOM     42  C   UNL     1      -3.279  -2.114  12.460  1.00  0.00     0.029 A 
ATOM     43  N   UNL     1      -5.209  -3.192  12.791  1.00  0.00    -0.354 N 
ATOM     44  C   UNL     1      -5.757  -7.258  11.432  1.00  0.00     0.074 A 
ATOM     45  C   UNL     1      -4.570  -7.754  10.773  1.00  0.00     0.031 C 
ATOM     46  C   UNL     1      -4.113  -1.263  13.080  1.00  0.00     0.029 A 
ATOM     47  C   UNL     1      -5.395  -1.926  13.297  1.00  0.00     0.049 A 
ATOM     48  H   UNL     1      -5.909  -3.884  12.802  1.00  0.00     0.167 HD
ATOM     49  C   UNL     1      -6.897  -7.972  11.586  1.00  0.00     0.031 A 
ATOM     50  C   UNL     1      -6.477  -1.362  13.867  1.00  0.00     0.031 A 
ATOM     51  C   UNL     1      -8.068  -7.484  12.264  1.00  0.00     0.049 A 
ATOM     52  C   UNL     1      -7.731  -2.179  14.027  1.00  0.00     0.074 A 
ATOM     53  C   UNL     1      -9.245  -8.158  12.538  1.00  0.00     0.029 A 
ATOM     54  N   UNL     1      -8.212  -6.202  12.772  1.00  0.00    -0.354 N 
ATOM     55  N   UNL     1      -7.951  -3.425  13.684  1.00  0.00    -0.248 NA
ATOM     56  C   UNL     1      -8.877  -1.515  14.663  1.00  0.00     0.031 C 
ATOM     57  C   UNL     1     -10.121  -7.267  13.168  1.00  0.00     0.029 A 
ATOM     58  C   UNL     1      -9.468  -6.056  13.335  1.00  0.00     0.049 A 
ATOM     59  H   UNL     1      -7.523  -5.500  12.737  1.00  0.00     0.167 HD
ATOM     60  C   UNL     1      -9.252  -3.704  14.089  1.00  0.00     0.074 A 
ATOM     61  C   UNL     1      -9.763  -2.501  14.714  1.00  0.00     0.031 C 
ATOM     62  C   UNL     1      -9.959  -4.853  13.958  1.00  0.00     0.031 A 
BRANCH  49  63
ATOM     63  C   UNL     1      -6.936  -9.361  11.004  1.00  0.00    -0.014 A 
ATOM     64  C   UNL     1      -6.188 -10.409  11.571  1.00  0.00     0.010 A 
ATOM     65  C   UNL     1      -7.770  -9.632   9.904  1.00  0.00     0.010 A 
ATOM     66  C   UNL     1      -6.244 -11.694  11.024  1.00  0.00     0.020 A 
ATOM     67  C   UNL     1      -7.850 -10.922   9.371  1.00  0.00     0.020 A 
ATOM     68  C   UNL     1      -7.073 -11.941   9.926  1.00  0.00     0.054 A 
BRANCH  68  69
ATOM     69  S   UNL     1      -7.150 -13.625   9.257  1.00  0.00     0.124 S 
ATOM     70  O   UNL     1      -5.864 -13.736   8.573  1.00  0.00    -0.237 OA
ATOM     71  O   UNL     1      -7.293 -14.443  10.459  1.00  0.00    -0.237 OA
ATOM     72  O   UNL     1      -8.320 -13.599   8.383  1.00  0.00    -0.744 OA
ENDBRANCH  68  69
ENDBRANCH  49  63
BRANCH  50  73
ATOM     73  C   UNL     1      -6.421   0.045  14.351  1.00  0.00    -0.014 A 
ATOM     74  C   UNL     1      -6.431   0.323  15.729  1.00  0.00     0.010 A 
ATOM     75  C   UNL     1      -6.362   1.114  13.439  1.00  0.00     0.010 A 
ATOM     76  C   UNL     1      -6.410   1.644  16.187  1.00  0.00     0.020 A 
ATOM     77  C   UNL     1      -6.314   2.436  13.893  1.00  0.00     0.020 A 
ATOM     78  C   UNL     1      -6.353   2.692  15.265  1.00  0.00     0.054 A 
BRANCH  78  79
ATOM     79  S   UNL     1      -6.291   4.398  15.882  1.00  0.00     0.124 S 
ATOM     80  O   UNL     1      -7.669   4.614  16.311  1.00  0.00    -0.237 OA
ATOM     81  O   UNL     1      -5.300   4.312  16.951  1.00  0.00    -0.237 OA
ATOM     82  O   UNL     1      -5.870   5.167  14.713  1.00  0.00    -0.744 OA
ENDBRANCH  78  79
ENDBRANCH  50  73
BRANCH  62  83
ATOM     83  C   UNL     1     -11.348  -4.882  14.536  1.00  0.00    -0.014 A 
ATOM     84  C   UNL     1     -12.408  -4.192  13.922  1.00  0.00     0.010 A 
ATOM     85  C   UNL     1     -11.604  -5.659  15.681  1.00  0.00     0.010 A 
ATOM     86  C   UNL     1     -13.695  -4.255  14.462  1.00  0.00     0.020 A 
ATOM     87  C   UNL     1     -12.895  -5.745  16.207  1.00  0.00     0.020 A 
ATOM     88  C   UNL     1     -13.931  -5.031  15.602  1.00  0.00     0.054 A 
BRANCH  88  89
ATOM     89  S   UNL     1     -15.619  -5.133  16.257  1.00  0.00     0.124 S 
ATOM     90  O   UNL     1     -15.775  -3.830  16.898  1.00  0.00    -0.237 OA
ATOM     91  O   UNL     1     -16.419  -5.341  15.053  1.00  0.00    -0.237 OA
ATOM     92  O   UNL     1     -15.568  -6.274  17.168  1.00  0.00    -0.744 OA
ENDBRANCH  88  89
ENDBRANCH  62  83
ENDBRANCH  36  37
ENDBRANCH  28  31
ENDBRANCH  26  27
ENDBRANCH  25  26
ENDBRANCH   1  25
TORSDOF 17
