REMARK SMILES O=C(COc1ccccc1/C=N\N1CC[NH+](Cc2ccc(Cl)cc2)CC1)NCCCCNC(=O)c1ccc(-c2c3nc(c(-c4ccc(S(=O)(=O)[O-])cc4)c4ccc([nH]4)c(-c4ccc(S(=O)(=O)[O-])cc4)c4nc(c(-c5ccc(S(=O)(=O)[O-])cc5)c5ccc2[nH]5)C=C4)C=C3)cc1
REMARK SMILES IDX 28 1 27 2 1 3 2 4 3 6 4 7 5 8 6 9 10 10 7 11 9 12 8 13 11 14
REMARK SMILES IDX 12 15 13 16 14 17 26 18 15 19 25 20 16 21 17 23 18 24 19 25
REMARK SMILES IDX 24 26 20 27 23 28 21 29 22 30 29 31 30 32 31 33 32 34 33 35
REMARK SMILES IDX 34 37 35 38 36 39 94 40 37 41 93 42 38 43 39 44 40 45 87 46
REMARK SMILES IDX 41 47 92 48 86 49 88 50 42 51 91 52 85 53 84 54 43 56 73 57
REMARK SMILES IDX 54 58 72 59 55 60 58 61 71 62 89 63 56 64 57 65 70 67 90 68
REMARK SMILES IDX 59 69 44 70 45 71 53 72 46 73 52 74 47 75 48 76 49 77 50 78
REMARK SMILES IDX 51 79 74 80 75 81 83 82 76 83 82 84 77 85 78 86 79 87 80 88
REMARK SMILES IDX 81 89 60 90 61 91 69 92 62 93 68 94 63 95 64 96 65 97 66 98
REMARK SMILES IDX 67 99
REMARK H PARENT 27 5 16 22 32 36 88 55 58 66
REMARK Flexibility Score: inf
ROOT
ATOM      1  C   UNL     1       2.125   1.910  -1.229  1.00  0.00     0.116 C 
ENDROOT
BRANCH   1   2
ATOM      2  N   UNL     1       2.810   1.114  -0.213  1.00  0.00    -0.353 N 
ATOM      3  O   UNL     1       0.889   0.165   0.636  1.00  0.00    -0.271 OA
ATOM      4  C   UNL     1       2.114   0.159   0.520  1.00  0.00     0.257 C 
ATOM      5  H   UNL     1       3.770   1.255  -0.045  1.00  0.00     0.163 HD
BRANCH   4   6
ATOM      6  C   UNL     1       2.968  -0.928   1.216  1.00  0.00     0.329 C 
BRANCH   6   7
ATOM      7  O   UNL     1       3.953  -1.602   0.432  1.00  0.00    -0.483 OA
BRANCH   7   8
ATOM      8  C   UNL     1       3.521  -2.749  -0.197  1.00  0.00     0.128 A 
ATOM      9  C   UNL     1       3.760  -3.988   0.403  1.00  0.00     0.047 A 
ATOM     10  C   UNL     1       3.049  -2.716  -1.517  1.00  0.00     0.037 A 
ATOM     11  C   UNL     1       3.514  -5.173  -0.307  1.00  0.00     0.004 A 
ATOM     12  C   UNL     1       2.865  -3.895  -2.242  1.00  0.00     0.013 A 
ATOM     13  C   UNL     1       3.077  -5.127  -1.631  1.00  0.00     0.001 A 
BRANCH  10  14
ATOM     14  C   UNL     1       2.794  -1.401  -2.103  1.00  0.00     0.145 C 
ATOM     15  N   UNL     1       1.881  -0.966  -2.915  1.00  0.00    -0.185 NA
BRANCH  15  16
ATOM     16  N   UNL     1       1.087  -1.822  -3.566  1.00  0.00    -0.286 NA
ATOM     17  C   UNL     1       0.607  -1.279  -4.840  1.00  0.00     0.200 C 
ATOM     18  C   UNL     1      -0.032  -2.556  -2.944  1.00  0.00     0.200 C 
ATOM     19  C   UNL     1       0.334  -2.439  -5.797  1.00  0.00     0.286 C 
ATOM     20  C   UNL     1      -0.406  -3.757  -3.866  1.00  0.00     0.286 C 
ATOM     21  N   UNL     1      -0.591  -3.470  -5.304  1.00  0.00    -0.328 N 
ATOM     22  H   UNL     1      -0.322  -4.338  -5.766  1.00  0.00     0.348 HD
BRANCH  21  23
ATOM     23  C   UNL     1      -1.972  -3.314  -5.758  1.00  0.00     0.299 C 
BRANCH  23  24
ATOM     24  C   UNL     1      -2.818  -2.333  -4.983  1.00  0.00     0.006 A 
ATOM     25  C   UNL     1      -3.587  -2.781  -3.898  1.00  0.00     0.011 A 
ATOM     26  C   UNL     1      -2.793  -0.963  -5.279  1.00  0.00     0.011 A 
ATOM     27  C   UNL     1      -4.252  -1.871  -3.078  1.00  0.00     0.021 A 
ATOM     28  C   UNL     1      -3.448  -0.051  -4.451  1.00  0.00     0.021 A 
ATOM     29  C   UNL     1      -4.162  -0.508  -3.346  1.00  0.00     0.041 A 
ATOM     30  Cl  UNL     1      -4.928   0.618  -2.295  1.00  0.00    -0.084 Cl
ENDBRANCH  23  24
ENDBRANCH  21  23
ENDBRANCH  15  16
ENDBRANCH  10  14
ENDBRANCH   7   8
ENDBRANCH   6   7
ENDBRANCH   4   6
ENDBRANCH   1   2
BRANCH   1  31
ATOM     31  C   UNL     1       2.669   3.317  -1.467  1.00  0.00     0.023 C 
BRANCH  31  32
ATOM     32  C   UNL     1       4.118   3.415  -1.955  1.00  0.00     0.023 C 
BRANCH  32  33
ATOM     33  C   UNL     1       4.444   2.725  -3.281  1.00  0.00     0.116 C 
BRANCH  33  34
ATOM     34  N   UNL     1       3.855   3.382  -4.441  1.00  0.00    -0.352 N 
ATOM     35  C   UNL     1       4.452   4.008  -5.512  1.00  0.00     0.251 C 
ATOM     36  H   UNL     1       2.871   3.378  -4.463  1.00  0.00     0.163 HD
ATOM     37  O   UNL     1       3.752   4.610  -6.330  1.00  0.00    -0.269 OA
BRANCH  35  38
ATOM     38  C   UNL     1       5.925   3.997  -5.687  1.00  0.00     0.039 A 
ATOM     39  C   UNL     1       6.574   5.185  -6.041  1.00  0.00     0.014 A 
ATOM     40  C   UNL     1       6.670   2.826  -5.529  1.00  0.00     0.014 A 
ATOM     41  C   UNL     1       7.970   5.217  -6.146  1.00  0.00     0.010 A 
ATOM     42  C   UNL     1       8.065   2.876  -5.561  1.00  0.00     0.010 A 
ATOM     43  C   UNL     1       8.734   4.073  -5.861  1.00  0.00    -0.014 A 
BRANCH  43  44
ATOM     44  C   UNL     1      10.224   4.119  -5.848  1.00  0.00     0.031 A 
ATOM     45  C   UNL     1      11.028   3.276  -6.804  1.00  0.00     0.074 A 
ATOM     46  C   UNL     1      10.862   4.873  -4.928  1.00  0.00     0.049 A 
ATOM     47  N   UNL     1      12.327   3.141  -6.893  1.00  0.00    -0.248 NA
ATOM     48  C   UNL     1      10.274   2.465  -7.772  1.00  0.00     0.031 C 
ATOM     49  C   UNL     1      10.208   5.709  -3.918  1.00  0.00     0.029 A 
ATOM     50  N   UNL     1      12.203   5.054  -4.686  1.00  0.00    -0.354 N 
ATOM     51  C   UNL     1      12.546   2.224  -7.916  1.00  0.00     0.074 A 
ATOM     52  C   UNL     1      11.244   1.796  -8.380  1.00  0.00     0.031 C 
ATOM     53  C   UNL     1      11.146   6.329  -3.183  1.00  0.00     0.029 A 
ATOM     54  C   UNL     1      12.467   5.902  -3.635  1.00  0.00     0.049 A 
ATOM     55  H   UNL     1      12.908   4.618  -5.216  1.00  0.00     0.167 HD
ATOM     56  C   UNL     1      13.721   1.791  -8.436  1.00  0.00     0.031 A 
ATOM     57  C   UNL     1      13.635   6.286  -3.083  1.00  0.00     0.031 A 
ATOM     58  C   UNL     1      15.017   2.216  -7.973  1.00  0.00     0.049 A 
ATOM     59  C   UNL     1      14.927   5.770  -3.659  1.00  0.00     0.074 A 
ATOM     60  C   UNL     1      16.262   1.865  -8.467  1.00  0.00     0.029 A 
ATOM     61  N   UNL     1      15.238   3.078  -6.910  1.00  0.00    -0.354 N 
ATOM     62  N   UNL     1      15.110   4.950  -4.666  1.00  0.00    -0.248 NA
ATOM     63  C   UNL     1      16.169   6.240  -3.030  1.00  0.00     0.031 C 
ATOM     64  C   UNL     1      17.237   2.467  -7.664  1.00  0.00     0.029 A 
ATOM     65  C   UNL     1      16.599   3.249  -6.715  1.00  0.00     0.049 A 
ATOM     66  H   UNL     1      14.532   3.504  -6.372  1.00  0.00     0.167 HD
ATOM     67  C   UNL     1      16.489   4.831  -4.811  1.00  0.00     0.074 A 
ATOM     68  C   UNL     1      17.090   5.674  -3.799  1.00  0.00     0.031 C 
ATOM     69  C   UNL     1      17.191   4.090  -5.704  1.00  0.00     0.031 A 
BRANCH  56  70
ATOM     70  C   UNL     1      13.659   0.796  -9.568  1.00  0.00    -0.014 A 
ATOM     71  C   UNL     1      13.176   1.167 -10.836  1.00  0.00     0.010 A 
ATOM     72  C   UNL     1      14.133  -0.515  -9.376  1.00  0.00     0.010 A 
ATOM     73  C   UNL     1      13.127   0.235 -11.877  1.00  0.00     0.020 A 
ATOM     74  C   UNL     1      14.116  -1.441 -10.424  1.00  0.00     0.020 A 
ATOM     75  C   UNL     1      13.595  -1.064 -11.663  1.00  0.00     0.054 A 
BRANCH  75  76
ATOM     76  S   UNL     1      13.538  -2.244 -13.039  1.00  0.00     0.124 S 
ATOM     77  O   UNL     1      12.104  -2.499 -13.157  1.00  0.00    -0.237 OA
ATOM     78  O   UNL     1      14.133  -1.486 -14.136  1.00  0.00    -0.237 OA
ATOM     79  O   UNL     1      14.333  -3.374 -12.563  1.00  0.00    -0.744 OA
ENDBRANCH  75  76
ENDBRANCH  56  70
BRANCH  57  80
ATOM     80  C   UNL     1      13.638   7.212  -1.915  1.00  0.00    -0.014 A 
ATOM     81  C   UNL     1      14.117   8.528  -2.042  1.00  0.00     0.010 A 
ATOM     82  C   UNL     1      13.151   6.782  -0.667  1.00  0.00     0.010 A 
ATOM     83  C   UNL     1      14.128   9.389  -0.940  1.00  0.00     0.020 A 
ATOM     84  C   UNL     1      13.131   7.649   0.429  1.00  0.00     0.020 A 
ATOM     85  C   UNL     1      13.631   8.944   0.289  1.00  0.00     0.054 A 
BRANCH  85  86
ATOM     86  S   UNL     1      13.610  10.094   1.692  1.00  0.00     0.124 S 
ATOM     87  O   UNL     1      15.026  10.187   2.030  1.00  0.00    -0.237 OA
ATOM     88  O   UNL     1      13.017  11.293   1.107  1.00  0.00    -0.237 OA
ATOM     89  O   UNL     1      12.774   9.413   2.679  1.00  0.00    -0.744 OA
ENDBRANCH  85  86
ENDBRANCH  57  80
BRANCH  69  90
ATOM     90  C   UNL     1      18.695   4.183  -5.657  1.00  0.00    -0.014 A 
ATOM     91  C   UNL     1      19.433   3.621  -4.600  1.00  0.00     0.010 A 
ATOM     92  C   UNL     1      19.383   4.797  -6.721  1.00  0.00     0.010 A 
ATOM     93  C   UNL     1      20.829   3.700  -4.592  1.00  0.00     0.020 A 
ATOM     94  C   UNL     1      20.779   4.849  -6.732  1.00  0.00     0.020 A 
ATOM     95  C   UNL     1      21.493   4.313  -5.659  1.00  0.00     0.054 A 
BRANCH  95  96
ATOM     96  S   UNL     1      23.306   4.361  -5.646  1.00  0.00     0.124 S 
ATOM     97  O   UNL     1      23.577   5.344  -4.600  1.00  0.00    -0.237 OA
ATOM     98  O   UNL     1      23.661   2.982  -5.319  1.00  0.00    -0.237 OA
ATOM     99  O   UNL     1      23.653   4.783  -7.001  1.00  0.00    -0.744 OA
ENDBRANCH  95  96
ENDBRANCH  69  90
ENDBRANCH  43  44
ENDBRANCH  35  38
ENDBRANCH  33  34
ENDBRANCH  32  33
ENDBRANCH  31  32
ENDBRANCH   1  31
TORSDOF 20
