REMARK SMILES C[C@@H]([C@H](C)O)[C@@H](Cc1ccccc1)C(=O)NCCCCNC(=O)c1ccc(-c2c3nc(c(-c4ccc(S(=O)(=O)[O-])cc4)c4ccc([nH]4)c(-c4ccc(S(=O)(=O)[O-])cc4)c4nc(c(-c5ccc(S(=O)(=O)[O-])cc5)c5ccc2[nH]5)C=C4)C=C3)cc1
REMARK SMILES IDX 18 1 17 2 16 3 14 4 15 5 6 7 2 8 1 9 3 10 4 11 5 12 7 14
REMARK SMILES IDX 8 15 9 16 13 17 10 18 12 19 11 20 19 21 20 22 21 23 22 24
REMARK SMILES IDX 23 26 24 27 25 28 83 29 26 30 82 31 27 32 28 33 29 34 76 35
REMARK SMILES IDX 30 36 81 37 75 38 77 39 31 40 80 41 74 42 73 43 32 45 62 46
REMARK SMILES IDX 43 47 61 48 44 49 47 50 60 51 78 52 45 53 46 54 59 56 79 57
REMARK SMILES IDX 48 58 33 59 34 60 42 61 35 62 41 63 36 64 37 65 38 66 39 67
REMARK SMILES IDX 40 68 63 69 64 70 72 71 65 72 71 73 66 74 67 75 68 76 69 77
REMARK SMILES IDX 70 78 49 79 50 80 58 81 51 82 57 83 52 84 53 85 54 86 55 87
REMARK SMILES IDX 56 88
REMARK H PARENT 16 6 5 13 21 25 77 44 47 55
REMARK Flexibility Score: inf
ROOT
ATOM      1  C   UNL     1      -2.638   3.899  -1.356  1.00  0.00     0.023 C 
ENDROOT
BRANCH   1   2
ATOM      2  C   UNL     1      -1.767   3.857  -2.604  1.00  0.00     0.116 C 
BRANCH   2   3
ATOM      3  N   UNL     1      -0.500   4.544  -2.455  1.00  0.00    -0.356 N 
ATOM      4  C   UNL     1       0.749   4.178  -2.866  1.00  0.00     0.223 C 
ATOM      5  O   UNL     1       1.575   5.083  -3.030  1.00  0.00    -0.275 OA
ATOM      6  H   UNL     1      -0.547   5.408  -1.985  1.00  0.00     0.163 HD
BRANCH   4   7
ATOM      7  C   UNL     1       1.149   2.724  -3.153  1.00  0.00     0.088 C 
BRANCH   7   8
ATOM      8  C   UNL     1       0.709   1.661  -2.092  1.00  0.00     0.027 C 
ATOM      9  C   UNL     1       1.130   0.239  -2.497  1.00  0.00     0.011 C 
BRANCH   8  10
ATOM     10  C   UNL     1       1.278   1.969  -0.670  1.00  0.00     0.115 C 
ATOM     11  C   UNL     1       0.668   1.096   0.425  1.00  0.00     0.038 C 
BRANCH  10  12
ATOM     12  O   UNL     1       1.067   3.318  -0.279  1.00  0.00    -0.393 OA
ATOM     13  H   UNL     1       0.115   3.487  -0.198  1.00  0.00     0.210 HD
ENDBRANCH  10  12
ENDBRANCH   8  10
ENDBRANCH   7   8
BRANCH   7  14
ATOM     14  C   UNL     1       0.955   2.401  -4.660  1.00  0.00     0.049 C 
BRANCH  14  15
ATOM     15  C   UNL     1      -0.429   2.511  -5.254  1.00  0.00    -0.047 A 
ATOM     16  C   UNL     1      -1.297   1.412  -5.296  1.00  0.00     0.004 A 
ATOM     17  C   UNL     1      -0.874   3.739  -5.773  1.00  0.00     0.004 A 
ATOM     18  C   UNL     1      -2.596   1.552  -5.795  1.00  0.00     0.000 A 
ATOM     19  C   UNL     1      -2.173   3.878  -6.266  1.00  0.00     0.000 A 
ATOM     20  C   UNL     1      -3.038   2.787  -6.266  1.00  0.00     0.000 A 
ENDBRANCH  14  15
ENDBRANCH   7  14
ENDBRANCH   4   7
ENDBRANCH   2   3
ENDBRANCH   1   2
BRANCH   1  21
ATOM     21  C   UNL     1      -3.337   5.236  -1.109  1.00  0.00     0.023 C 
BRANCH  21  22
ATOM     22  C   UNL     1      -4.102   5.821  -2.296  1.00  0.00     0.116 C 
BRANCH  22  23
ATOM     23  N   UNL     1      -4.999   4.877  -2.949  1.00  0.00    -0.352 N 
ATOM     24  C   UNL     1      -6.223   5.120  -3.526  1.00  0.00     0.251 C 
ATOM     25  H   UNL     1      -4.688   3.943  -2.982  1.00  0.00     0.163 HD
ATOM     26  O   UNL     1      -6.883   4.201  -4.001  1.00  0.00    -0.269 OA
BRANCH  24  27
ATOM     27  C   UNL     1      -6.751   6.499  -3.525  1.00  0.00     0.039 A 
ATOM     28  C   UNL     1      -8.000   6.740  -2.948  1.00  0.00     0.014 A 
ATOM     29  C   UNL     1      -5.979   7.553  -4.021  1.00  0.00     0.014 A 
ATOM     30  C   UNL     1      -8.437   8.055  -2.788  1.00  0.00     0.010 A 
ATOM     31  C   UNL     1      -6.392   8.865  -3.807  1.00  0.00     0.010 A 
ATOM     32  C   UNL     1      -7.616   9.129  -3.172  1.00  0.00    -0.014 A 
BRANCH  32  33
ATOM     33  C   UNL     1      -7.997  10.528  -2.860  1.00  0.00     0.031 A 
ATOM     34  C   UNL     1      -8.299  11.506  -3.959  1.00  0.00     0.074 A 
ATOM     35  C   UNL     1      -7.998  10.937  -1.575  1.00  0.00     0.049 A 
ATOM     36  N   UNL     1      -8.632  12.768  -3.869  1.00  0.00    -0.248 NA
ATOM     37  C   UNL     1      -8.189  11.008  -5.340  1.00  0.00     0.031 C 
ATOM     38  C   UNL     1      -7.658  10.102  -0.419  1.00  0.00     0.029 A 
ATOM     39  N   UNL     1      -8.289  12.160  -1.024  1.00  0.00    -0.354 N 
ATOM     40  C   UNL     1      -8.758  13.220  -5.176  1.00  0.00     0.074 A 
ATOM     41  C   UNL     1      -8.423  12.109  -6.041  1.00  0.00     0.031 C 
ATOM     42  C   UNL     1      -7.784  10.830   0.702  1.00  0.00     0.029 A 
ATOM     43  C   UNL     1      -8.185  12.187   0.346  1.00  0.00     0.049 A 
ATOM     44  H   UNL     1      -8.547  12.944  -1.561  1.00  0.00     0.167 HD
ATOM     45  C   UNL     1      -9.135  14.445  -5.617  1.00  0.00     0.031 A 
ATOM     46  C   UNL     1      -8.392  13.189   1.222  1.00  0.00     0.031 A 
ATOM     47  C   UNL     1      -9.472  15.548  -4.756  1.00  0.00     0.049 A 
ATOM     48  C   UNL     1      -8.833  14.531   0.711  1.00  0.00     0.074 A 
ATOM     49  C   UNL     1      -9.930  16.806  -5.107  1.00  0.00     0.029 A 
ATOM     50  N   UNL     1      -9.381  15.528  -3.373  1.00  0.00    -0.354 N 
ATOM     51  N   UNL     1      -9.032  14.915  -0.527  1.00  0.00    -0.248 NA
ATOM     52  C   UNL     1      -9.095  15.569   1.717  1.00  0.00     0.031 C 
ATOM     53  C   UNL     1     -10.076  17.561  -3.937  1.00  0.00     0.029 A 
ATOM     54  C   UNL     1      -9.754  16.757  -2.855  1.00  0.00     0.049 A 
ATOM     55  H   UNL     1      -9.093  14.754  -2.837  1.00  0.00     0.167 HD
ATOM     56  C   UNL     1      -9.459  16.235  -0.449  1.00  0.00     0.074 A 
ATOM     57  C   UNL     1      -9.508  16.576   0.959  1.00  0.00     0.031 C 
ATOM     58  C   UNL     1      -9.784  17.087  -1.453  1.00  0.00     0.031 A 
BRANCH  45  59
ATOM     59  C   UNL     1      -9.194  14.651  -7.107  1.00  0.00    -0.014 A 
ATOM     60  C   UNL     1     -10.196  14.040  -7.883  1.00  0.00     0.010 A 
ATOM     61  C   UNL     1      -8.250  15.480  -7.738  1.00  0.00     0.010 A 
ATOM     62  C   UNL     1     -10.223  14.214  -9.269  1.00  0.00     0.020 A 
ATOM     63  C   UNL     1      -8.289  15.678  -9.122  1.00  0.00     0.020 A 
ATOM     64  C   UNL     1      -9.263  15.025  -9.881  1.00  0.00     0.054 A 
BRANCH  64  65
ATOM     65  S   UNL     1      -9.321  15.238 -11.681  1.00  0.00     0.124 S 
ATOM     66  O   UNL     1      -8.778  13.966 -12.151  1.00  0.00    -0.237 OA
ATOM     67  O   UNL     1     -10.745  15.444 -11.936  1.00  0.00    -0.237 OA
ATOM     68  O   UNL     1      -8.474  16.404 -11.920  1.00  0.00    -0.744 OA
ENDBRANCH  64  65
ENDBRANCH  45  59
BRANCH  46  69
ATOM     69  C   UNL     1      -8.216  12.943   2.677  1.00  0.00    -0.014 A 
ATOM     70  C   UNL     1      -9.335  12.826   3.519  1.00  0.00     0.010 A 
ATOM     71  C   UNL     1      -6.928  12.790   3.223  1.00  0.00     0.010 A 
ATOM     72  C   UNL     1      -9.172  12.568   4.883  1.00  0.00     0.020 A 
ATOM     73  C   UNL     1      -6.762  12.509   4.582  1.00  0.00     0.020 A 
ATOM     74  C   UNL     1      -7.885  12.407   5.405  1.00  0.00     0.054 A 
BRANCH  74  75
ATOM     75  S   UNL     1      -7.698  11.999   7.163  1.00  0.00     0.124 S 
ATOM     76  O   UNL     1      -7.942  13.288   7.802  1.00  0.00    -0.237 OA
ATOM     77  O   UNL     1      -8.731  10.986   7.365  1.00  0.00    -0.237 OA
ATOM     78  O   UNL     1      -6.326  11.502   7.252  1.00  0.00    -0.744 OA
ENDBRANCH  74  75
ENDBRANCH  46  69
BRANCH  58  79
ATOM     79  C   UNL     1     -10.237  18.467  -1.060  1.00  0.00    -0.014 A 
ATOM     80  C   UNL     1      -9.324  19.421  -0.577  1.00  0.00     0.010 A 
ATOM     81  C   UNL     1     -11.590  18.823  -1.206  1.00  0.00     0.010 A 
ATOM     82  C   UNL     1      -9.764  20.696  -0.208  1.00  0.00     0.020 A 
ATOM     83  C   UNL     1     -12.029  20.104  -0.862  1.00  0.00     0.020 A 
ATOM     84  C   UNL     1     -11.115  21.027  -0.348  1.00  0.00     0.054 A 
BRANCH  84  85
ATOM     85  S   UNL     1     -11.661  22.695   0.112  1.00  0.00     0.124 S 
ATOM     86  O   UNL     1     -11.702  22.609   1.569  1.00  0.00    -0.237 OA
ATOM     87  O   UNL     1     -10.606  23.544  -0.438  1.00  0.00    -0.237 OA
ATOM     88  O   UNL     1     -12.961  22.825  -0.543  1.00  0.00    -0.744 OA
ENDBRANCH  84  85
ENDBRANCH  58  79
ENDBRANCH  32  33
ENDBRANCH  24  27
ENDBRANCH  22  23
ENDBRANCH  21  22
ENDBRANCH   1  21
TORSDOF 19
