REMARK SMILES C[C@@H](C(=O)NCCCCNC(=O)c1ccc(-c2c3nc(c(-c4ccc(S(=O)(=O)[O-])cc4)c4ccc([nH]4)c(-c4ccc(S(=O)(=O)[O-])cc4)c4nc(c(-c5ccc(S(=O)(=O)[O-])cc5)c5ccc2[nH]5)C=C4)C=C3)cc1)c1ccc(-c2ccccc2)c(F)c1
REMARK SMILES IDX 8 1 7 2 6 3 5 4 3 5 4 6 2 8 1 9 73 10 74 11 85 12 75 13
REMARK SMILES IDX 83 14 76 15 84 16 77 17 78 18 82 19 79 20 81 21 80 22 9 23
REMARK SMILES IDX 10 24 11 25 12 27 13 28 14 29 72 30 15 31 71 32 16 33 17 34
REMARK SMILES IDX 18 35 65 36 19 37 70 38 64 39 66 40 20 41 69 42 63 43 62 44
REMARK SMILES IDX 21 46 51 47 32 48 50 49 33 50 36 51 49 52 67 53 34 54 35 55
REMARK SMILES IDX 48 57 68 58 37 59 22 60 23 61 31 62 24 63 30 64 25 65 26 66
REMARK SMILES IDX 27 67 28 68 29 69 52 70 53 71 61 72 54 73 60 74 55 75 56 76
REMARK SMILES IDX 57 77 58 78 59 79 38 80 39 81 47 82 40 83 46 84 41 85 42 86
REMARK SMILES IDX 43 87 44 88 45 89
REMARK H PARENT 5 7 10 26 66 45 36 56
REMARK Flexibility Score: inf
ROOT
ATOM      1  C   UNL     1       4.948   2.360   0.527  1.00  0.00     0.023 C 
ENDROOT
BRANCH   1   2
ATOM      2  C   UNL     1       4.182   1.048   0.341  1.00  0.00     0.023 C 
BRANCH   2   3
ATOM      3  C   UNL     1       3.423   0.565   1.577  1.00  0.00     0.116 C 
BRANCH   3   4
ATOM      4  N   UNL     1       2.430   1.530   1.996  1.00  0.00    -0.356 N 
ATOM      5  C   UNL     1       1.072   1.521   1.876  1.00  0.00     0.227 C 
ATOM      6  O   UNL     1       0.494   2.512   2.327  1.00  0.00    -0.274 OA
ATOM      7  H   UNL     1       2.796   2.326   2.444  1.00  0.00     0.163 HD
BRANCH   5   8
ATOM      8  C   UNL     1       0.352   0.306   1.255  1.00  0.00     0.105 C 
ATOM      9  C   UNL     1       0.654   0.127  -0.234  1.00  0.00     0.023 C 
BRANCH   8  10
ATOM     10  C   UNL     1      -1.170   0.300   1.411  1.00  0.00    -0.033 A 
ATOM     11  C   UNL     1      -1.944   1.458   1.265  1.00  0.00     0.005 A 
ATOM     12  C   UNL     1      -1.841  -0.918   1.597  1.00  0.00     0.044 A 
ATOM     13  C   UNL     1      -3.337   1.411   1.353  1.00  0.00     0.012 A 
ATOM     14  C   UNL     1      -3.237  -0.961   1.656  1.00  0.00     0.131 A 
ATOM     15  C   UNL     1      -4.017   0.198   1.540  1.00  0.00     0.017 A 
ATOM     16  F   UNL     1      -3.822  -2.160   1.803  1.00  0.00    -0.206 F 
BRANCH  15  17
ATOM     17  C   UNL     1      -5.487   0.181   1.605  1.00  0.00    -0.015 A 
ATOM     18  C   UNL     1      -6.256   0.863   0.644  1.00  0.00     0.009 A 
ATOM     19  C   UNL     1      -6.166  -0.468   2.648  1.00  0.00     0.009 A 
ATOM     20  C   UNL     1      -7.648   0.913   0.733  1.00  0.00     0.001 A 
ATOM     21  C   UNL     1      -7.560  -0.420   2.739  1.00  0.00     0.001 A 
ATOM     22  C   UNL     1      -8.299   0.275   1.785  1.00  0.00     0.000 A 
ENDBRANCH  15  17
ENDBRANCH   8  10
ENDBRANCH   5   8
ENDBRANCH   3   4
ENDBRANCH   2   3
ENDBRANCH   1   2
BRANCH   1  23
ATOM     23  C   UNL     1       5.918   2.379   1.699  1.00  0.00     0.116 C 
BRANCH  23  24
ATOM     24  N   UNL     1       6.922   1.331   1.610  1.00  0.00    -0.352 N 
ATOM     25  C   UNL     1       8.276   1.417   1.820  1.00  0.00     0.251 C 
ATOM     26  H   UNL     1       6.585   0.439   1.366  1.00  0.00     0.163 HD
ATOM     27  O   UNL     1       8.998   0.462   1.546  1.00  0.00    -0.269 OA
BRANCH  25  28
ATOM     28  C   UNL     1       8.857   2.669   2.349  1.00  0.00     0.039 A 
ATOM     29  C   UNL     1      10.025   3.171   1.772  1.00  0.00     0.014 A 
ATOM     30  C   UNL     1       8.249   3.347   3.409  1.00  0.00     0.014 A 
ATOM     31  C   UNL     1      10.560   4.376   2.232  1.00  0.00     0.010 A 
ATOM     32  C   UNL     1       8.732   4.589   3.805  1.00  0.00     0.010 A 
ATOM     33  C   UNL     1       9.906   5.106   3.238  1.00  0.00    -0.014 A 
BRANCH  33  34
ATOM     34  C   UNL     1      10.458   6.389   3.742  1.00  0.00     0.031 A 
ATOM     35  C   UNL     1      10.899   6.502   5.178  1.00  0.00     0.074 A 
ATOM     36  C   UNL     1      10.521   7.461   2.929  1.00  0.00     0.049 A 
ATOM     37  N   UNL     1      11.386   7.537   5.814  1.00  0.00    -0.248 NA
ATOM     38  C   UNL     1      10.744   5.303   6.018  1.00  0.00     0.031 C 
ATOM     39  C   UNL     1      10.092   7.490   1.529  1.00  0.00     0.029 A 
ATOM     40  N   UNL     1      10.973   8.735   3.164  1.00  0.00    -0.354 N 
ATOM     41  C   UNL     1      11.572   7.121   7.127  1.00  0.00     0.074 A 
ATOM     42  C   UNL     1      11.089   5.761   7.211  1.00  0.00     0.031 C 
ATOM     43  C   UNL     1      10.343   8.707   1.019  1.00  0.00     0.029 A 
ATOM     44  C   UNL     1      10.908   9.556   2.063  1.00  0.00     0.049 A 
ATOM     45  H   UNL     1      11.313   9.033   4.039  1.00  0.00     0.167 HD
ATOM     46  C   UNL     1      12.116   7.799   8.166  1.00  0.00     0.031 A 
ATOM     47  C   UNL     1      11.269  10.845   1.910  1.00  0.00     0.031 A 
ATOM     48  C   UNL     1      12.602   9.150   8.075  1.00  0.00     0.049 A 
ATOM     49  C   UNL     1      11.864  11.583   3.078  1.00  0.00     0.074 A 
ATOM     50  C   UNL     1      13.224   9.909   9.050  1.00  0.00     0.029 A 
ATOM     51  N   UNL     1      12.516   9.946   6.942  1.00  0.00    -0.354 N 
ATOM     52  N   UNL     1      12.095  11.152   4.296  1.00  0.00    -0.248 NA
ATOM     53  C   UNL     1      12.264  12.977   2.844  1.00  0.00     0.031 C 
ATOM     54  C   UNL     1      13.459  11.184   8.526  1.00  0.00     0.029 A 
ATOM     55  C   UNL     1      13.051  11.197   7.201  1.00  0.00     0.049 A 
ATOM     56  H   UNL     1      12.132   9.663   6.081  1.00  0.00     0.167 HD
ATOM     57  C   UNL     1      12.706  12.210   4.962  1.00  0.00     0.074 A 
ATOM     58  C   UNL     1      12.812  13.296   4.009  1.00  0.00     0.031 C 
ATOM     59  C   UNL     1      13.148  12.271   6.243  1.00  0.00     0.031 A 
BRANCH  46  60
ATOM     60  C   UNL     1      12.186   7.089   9.496  1.00  0.00    -0.014 A 
ATOM     61  C   UNL     1      13.015   5.967   9.686  1.00  0.00     0.010 A 
ATOM     62  C   UNL     1      11.411   7.553  10.574  1.00  0.00     0.010 A 
ATOM     63  C   UNL     1      13.016   5.285  10.906  1.00  0.00     0.020 A 
ATOM     64  C   UNL     1      11.437   6.895  11.807  1.00  0.00     0.020 A 
ATOM     65  C   UNL     1      12.220   5.749  11.957  1.00  0.00     0.054 A 
BRANCH  65  66
ATOM     66  S   UNL     1      12.232   4.838  13.525  1.00  0.00     0.124 S 
ATOM     67  O   UNL     1      11.483   3.633  13.177  1.00  0.00    -0.237 OA
ATOM     68  O   UNL     1      13.658   4.641  13.770  1.00  0.00    -0.237 OA
ATOM     69  O   UNL     1      11.561   5.742  14.456  1.00  0.00    -0.744 OA
ENDBRANCH  65  66
ENDBRANCH  46  60
BRANCH  47  70
ATOM     70  C   UNL     1      11.121  11.501   0.582  1.00  0.00    -0.014 A 
ATOM     71  C   UNL     1      12.258  11.811  -0.187  1.00  0.00     0.010 A 
ATOM     72  C   UNL     1       9.846  11.794   0.064  1.00  0.00     0.010 A 
ATOM     73  C   UNL     1      12.123  12.409  -1.443  1.00  0.00     0.020 A 
ATOM     74  C   UNL     1       9.707  12.366  -1.204  1.00  0.00     0.020 A 
ATOM     75  C   UNL     1      10.847  12.676  -1.947  1.00  0.00     0.054 A 
BRANCH  75  76
ATOM     76  S   UNL     1      10.698  13.389  -3.609  1.00  0.00     0.124 S 
ATOM     77  O   UNL     1      11.177  14.752  -3.401  1.00  0.00    -0.237 OA
ATOM     78  O   UNL     1      11.570  12.525  -4.400  1.00  0.00    -0.237 OA
ATOM     79  O   UNL     1       9.273  13.264  -3.908  1.00  0.00    -0.744 OA
ENDBRANCH  75  76
ENDBRANCH  47  70
BRANCH  59  80
ATOM     80  C   UNL     1      13.841  13.537   6.679  1.00  0.00    -0.014 A 
ATOM     81  C   UNL     1      13.140  14.743   6.848  1.00  0.00     0.010 A 
ATOM     82  C   UNL     1      15.219  13.500   6.965  1.00  0.00     0.010 A 
ATOM     83  C   UNL     1      13.813  15.900   7.253  1.00  0.00     0.020 A 
ATOM     84  C   UNL     1      15.888  14.645   7.403  1.00  0.00     0.020 A 
ATOM     85  C   UNL     1      15.184  15.843   7.526  1.00  0.00     0.054 A 
BRANCH  85  86
ATOM     86  S   UNL     1      16.029  17.350   8.077  1.00  0.00     0.124 S 
ATOM     87  O   UNL     1      16.082  18.135   6.847  1.00  0.00    -0.237 OA
ATOM     88  O   UNL     1      15.133  17.860   9.111  1.00  0.00    -0.237 OA
ATOM     89  O   UNL     1      17.320  16.866   8.563  1.00  0.00    -0.744 OA
ENDBRANCH  85  86
ENDBRANCH  59  80
ENDBRANCH  33  34
ENDBRANCH  25  28
ENDBRANCH  23  24
ENDBRANCH   1  23
TORSDOF 16
