REMARK SMILES Cc1ccc(C)c([C@H]2[NH2+][C@@H](C(=O)NCCCCNC(=O)c3ccc(-c4c5nc(c(-c6ccc(S(=O)(=O)[O-])cc6)c6ccc([nH]6)c(-c6ccc(S(=O)(=O)[O-])cc6)c6nc(c(-c7ccc(S(=O)(=O)[O-])cc7)c7ccc4[nH]7)C=C6)C=C5)cc3)Cc3c2[nH]c2ccccc32)c1
REMARK SMILES IDX 16 1 15 2 14 3 13 4 11 5 12 6 10 8 8 9 9 10 83 11 82 14
REMARK SMILES IDX 84 15 81 16 90 17 85 18 89 20 86 21 88 22 87 23 7 24 1 25
REMARK SMILES IDX 2 26 3 27 91 28 4 29 5 30 6 31 17 32 18 33 19 34 20 36 21 37
REMARK SMILES IDX 22 38 80 39 23 40 79 41 24 42 25 43 26 44 73 45 27 46 78 47
REMARK SMILES IDX 72 48 74 49 28 50 77 51 71 52 70 53 29 55 59 56 40 57 58 58
REMARK SMILES IDX 41 59 44 60 57 61 75 62 42 63 43 64 56 66 76 67 45 68 30 69
REMARK SMILES IDX 31 70 39 71 32 72 38 73 33 74 34 75 35 76 36 77 37 78 60 79
REMARK SMILES IDX 61 80 69 81 62 82 68 83 63 84 64 85 65 86 66 87 67 88 46 89
REMARK SMILES IDX 47 90 55 91 48 92 54 93 49 94 50 95 51 96 52 97 53 98
REMARK H PARENT 13 7 9 12 9 13 84 19 18 35 74 54 44 65
REMARK Flexibility Score: inf
ROOT
ATOM      1  C   UNL     1      -2.524  10.296   0.143  1.00  0.00     0.023 C 
ENDROOT
BRANCH   1   2
ATOM      2  C   UNL     1      -2.470   8.880   0.736  1.00  0.00     0.023 C 
BRANCH   2   3
ATOM      3  C   UNL     1      -3.010   7.789  -0.191  1.00  0.00     0.116 C 
BRANCH   3   4
ATOM      4  N   UNL     1      -2.050   7.334  -1.165  1.00  0.00    -0.351 N 
ATOM      5  C   UNL     1      -1.190   6.294  -1.244  1.00  0.00     0.278 C 
ATOM      6  O   UNL     1      -0.522   6.252  -2.289  1.00  0.00    -0.268 OA
ATOM      7  H   UNL     1      -2.011   7.917  -1.957  1.00  0.00     0.163 HD
BRANCH   5   8
ATOM      8  C   UNL     1      -1.023   5.163  -0.209  1.00  0.00     0.277 C 
ATOM      9  C   UNL     1      -1.325   2.676  -0.080  1.00  0.00     0.262 C 
ATOM     10  N   UNL     1      -1.587   3.937  -0.813  1.00  0.00    -0.325 N 
ATOM     11  C   UNL     1      -1.383   2.931   1.418  1.00  0.00     0.083 A 
ATOM     12  H   UNL     1      -2.598   4.056  -0.878  1.00  0.00     0.347 HD
ATOM     13  H   UNL     1      -1.121   3.833  -1.715  1.00  0.00     0.347 HD
ATOM     14  C   UNL     1      -1.452   4.179   2.004  1.00  0.00    -0.006 A 
ATOM     15  N   UNL     1      -1.325   2.017   2.443  1.00  0.00    -0.353 N 
ATOM     16  C   UNL     1      -1.617   5.390   1.176  1.00  0.00     0.114 C 
ATOM     17  C   UNL     1      -1.455   4.042   3.404  1.00  0.00     0.003 A 
ATOM     18  C   UNL     1      -1.393   2.674   3.667  1.00  0.00     0.046 A 
ATOM     19  H   UNL     1      -1.246   1.042   2.329  1.00  0.00     0.166 HD
ATOM     20  C   UNL     1      -1.545   4.962   4.465  1.00  0.00     0.010 A 
ATOM     21  C   UNL     1      -1.427   2.185   4.981  1.00  0.00     0.026 A 
ATOM     22  C   UNL     1      -1.579   4.488   5.775  1.00  0.00     0.001 A 
ATOM     23  C   UNL     1      -1.524   3.119   6.026  1.00  0.00     0.002 A 
BRANCH   9  24
ATOM     24  C   UNL     1      -2.291   1.638  -0.661  1.00  0.00     0.019 A 
ATOM     25  C   UNL     1      -5.808   0.281   0.055  1.00  0.00     0.044 C 
ATOM     26  C   UNL     1      -4.485   0.520  -0.609  1.00  0.00    -0.051 A 
ATOM     27  C   UNL     1      -4.253   0.006  -1.883  1.00  0.00     0.004 A 
ATOM     28  C   UNL     1      -3.512   1.340  -0.015  1.00  0.00     0.014 A 
ATOM     29  C   UNL     1      -3.059   0.279  -2.541  1.00  0.00     0.004 A 
ATOM     30  C   UNL     1      -2.074   1.092  -1.957  1.00  0.00    -0.042 A 
ATOM     31  C   UNL     1      -0.908   1.461  -2.844  1.00  0.00     0.045 C 
ENDBRANCH   9  24
ENDBRANCH   5   8
ENDBRANCH   3   4
ENDBRANCH   2   3
ENDBRANCH   1   2
BRANCH   1  32
ATOM     32  C   UNL     1      -3.922  10.880  -0.124  1.00  0.00     0.116 C 
BRANCH  32  33
ATOM     33  N   UNL     1      -4.770  11.014   1.074  1.00  0.00    -0.352 N 
ATOM     34  C   UNL     1      -6.157  10.904   1.226  1.00  0.00     0.251 C 
ATOM     35  H   UNL     1      -4.280  11.214   1.904  1.00  0.00     0.163 HD
ATOM     36  O   UNL     1      -6.722  11.464   2.148  1.00  0.00    -0.269 OA
BRANCH  34  37
ATOM     37  C   UNL     1      -6.928  10.042   0.299  1.00  0.00     0.039 A 
ATOM     38  C   UNL     1      -8.295  10.099   0.034  1.00  0.00     0.014 A 
ATOM     39  C   UNL     1      -6.218   9.018  -0.261  1.00  0.00     0.014 A 
ATOM     40  C   UNL     1      -8.859   9.110  -0.794  1.00  0.00     0.010 A 
ATOM     41  C   UNL     1      -6.666   8.469  -1.414  1.00  0.00     0.010 A 
ATOM     42  C   UNL     1      -8.011   8.251  -1.497  1.00  0.00    -0.014 A 
BRANCH  42  43
ATOM     43  C   UNL     1      -8.406   7.239  -2.462  1.00  0.00     0.031 A 
ATOM     44  C   UNL     1      -9.017   7.813  -3.675  1.00  0.00     0.074 A 
ATOM     45  C   UNL     1      -7.962   5.959  -2.434  1.00  0.00     0.049 A 
ATOM     46  N   UNL     1     -10.276   7.927  -3.927  1.00  0.00    -0.248 NA
ATOM     47  C   UNL     1      -8.146   8.552  -4.606  1.00  0.00     0.031 C 
ATOM     48  C   UNL     1      -6.985   5.332  -1.530  1.00  0.00     0.029 A 
ATOM     49  N   UNL     1      -8.223   4.955  -3.314  1.00  0.00    -0.354 N 
ATOM     50  C   UNL     1     -10.335   8.495  -5.190  1.00  0.00     0.074 A 
ATOM     51  C   UNL     1      -9.055   9.120  -5.401  1.00  0.00     0.031 C 
ATOM     52  C   UNL     1      -6.578   4.147  -2.048  1.00  0.00     0.029 A 
ATOM     53  C   UNL     1      -7.375   3.855  -3.228  1.00  0.00     0.049 A 
ATOM     54  H   UNL     1      -8.959   5.003  -3.966  1.00  0.00     0.167 HD
ATOM     55  C   UNL     1     -11.285   8.117  -6.090  1.00  0.00     0.031 A 
ATOM     56  C   UNL     1      -7.305   2.817  -4.105  1.00  0.00     0.031 A 
ATOM     57  C   UNL     1     -12.288   7.277  -5.473  1.00  0.00     0.049 A 
ATOM     58  C   UNL     1      -8.578   2.809  -4.872  1.00  0.00     0.074 A 
ATOM     59  C   UNL     1     -13.120   7.406  -4.377  1.00  0.00     0.029 A 
ATOM     60  N   UNL     1     -12.207   5.924  -5.725  1.00  0.00    -0.354 N 
ATOM     61  N   UNL     1      -9.741   2.579  -4.326  1.00  0.00    -0.248 NA
ATOM     62  C   UNL     1      -8.615   3.544  -6.127  1.00  0.00     0.031 C 
ATOM     63  C   UNL     1     -13.084   6.131  -3.737  1.00  0.00     0.029 A 
ATOM     64  C   UNL     1     -12.318   5.269  -4.525  1.00  0.00     0.049 A 
ATOM     65  H   UNL     1     -12.091   5.504  -6.608  1.00  0.00     0.167 HD
ATOM     66  C   UNL     1     -10.592   3.513  -4.903  1.00  0.00     0.074 A 
ATOM     67  C   UNL     1      -9.864   4.017  -6.069  1.00  0.00     0.031 C 
ATOM     68  C   UNL     1     -11.669   4.008  -4.223  1.00  0.00     0.031 A 
BRANCH  55  69
ATOM     69  C   UNL     1     -11.078   8.136  -7.586  1.00  0.00    -0.014 A 
ATOM     70  C   UNL     1     -12.165   7.800  -8.415  1.00  0.00     0.010 A 
ATOM     71  C   UNL     1      -9.812   8.229  -8.202  1.00  0.00     0.010 A 
ATOM     72  C   UNL     1     -11.982   7.508  -9.772  1.00  0.00     0.020 A 
ATOM     73  C   UNL     1      -9.625   7.988  -9.562  1.00  0.00     0.020 A 
ATOM     74  C   UNL     1     -10.708   7.596 -10.333  1.00  0.00     0.054 A 
BRANCH  74  75
ATOM     75  S   UNL     1     -10.468   7.137 -12.065  1.00  0.00     0.124 S 
ATOM     76  O   UNL     1     -10.750   5.706 -12.036  1.00  0.00    -0.237 OA
ATOM     77  O   UNL     1     -11.460   7.968 -12.742  1.00  0.00    -0.237 OA
ATOM     78  O   UNL     1      -9.077   7.500 -12.325  1.00  0.00    -0.744 OA
ENDBRANCH  74  75
ENDBRANCH  55  69
BRANCH  56  79
ATOM     79  C   UNL     1      -6.078   2.135  -4.596  1.00  0.00    -0.014 A 
ATOM     80  C   UNL     1      -6.137   0.914  -5.298  1.00  0.00     0.010 A 
ATOM     81  C   UNL     1      -4.857   2.839  -4.616  1.00  0.00     0.010 A 
ATOM     82  C   UNL     1      -5.023   0.435  -6.014  1.00  0.00     0.020 A 
ATOM     83  C   UNL     1      -3.751   2.376  -5.336  1.00  0.00     0.020 A 
ATOM     84  C   UNL     1      -3.841   1.181  -6.043  1.00  0.00     0.054 A 
BRANCH  84  85
ATOM     85  S   UNL     1      -2.416   0.577  -6.994  1.00  0.00     0.124 S 
ATOM     86  O   UNL     1      -2.192  -0.745  -6.415  1.00  0.00    -0.237 OA
ATOM     87  O   UNL     1      -2.921   0.592  -8.363  1.00  0.00    -0.237 OA
ATOM     88  O   UNL     1      -1.367   1.555  -6.707  1.00  0.00    -0.744 OA
ENDBRANCH  84  85
ENDBRANCH  56  79
BRANCH  68  89
ATOM     89  C   UNL     1     -12.091   3.329  -2.937  1.00  0.00    -0.014 A 
ATOM     90  C   UNL     1     -11.277   3.225  -1.790  1.00  0.00     0.010 A 
ATOM     91  C   UNL     1     -13.431   2.917  -2.840  1.00  0.00     0.010 A 
ATOM     92  C   UNL     1     -11.788   2.700  -0.590  1.00  0.00     0.020 A 
ATOM     93  C   UNL     1     -13.951   2.410  -1.647  1.00  0.00     0.020 A 
ATOM     94  C   UNL     1     -13.125   2.295  -0.528  1.00  0.00     0.054 A 
BRANCH  94  95
ATOM     95  S   UNL     1     -13.798   1.651   1.030  1.00  0.00     0.124 S 
ATOM     96  O   UNL     1     -13.095   0.381   1.180  1.00  0.00    -0.237 OA
ATOM     97  O   UNL     1     -13.437   2.688   1.995  1.00  0.00    -0.237 OA
ATOM     98  O   UNL     1     -15.233   1.535   0.769  1.00  0.00    -0.744 OA
ENDBRANCH  94  95
ENDBRANCH  68  89
ENDBRANCH  42  43
ENDBRANCH  34  37
ENDBRANCH  32  33
ENDBRANCH   1  32
TORSDOF 15
