REMARK SMILES O=C(COc1ccccc1[C@@H]1[NH2+]CCc2cc(O)c(O)cc21)NCCCCNC(=O)c1ccc(-c2c3nc(c(-c4ccc(S(=O)(=O)[O-])cc4)c4ccc([nH]4)c(-c4ccc(S(=O)(=O)[O-])cc4)c4nc(c(-c5ccc(S(=O)(=O)[O-])cc5)c5ccc2[nH]5)C=C4)C=C3)cc1
REMARK SMILES IDX 25 1 24 2 23 3 1 4 2 5 3 7 4 8 5 9 6 10 10 11 7 12 9 13 8 14
REMARK SMILES IDX 11 15 12 16 22 17 13 18 15 21 21 22 14 23 16 24 19 25 17 26
REMARK SMILES IDX 20 27 18 29 26 31 27 32 28 33 29 34 30 36 31 37 32 38 90 39
REMARK SMILES IDX 33 40 89 41 34 42 35 43 36 44 83 45 37 46 88 47 82 48 84 49
REMARK SMILES IDX 38 50 87 51 81 52 80 53 39 55 69 56 50 57 68 58 51 59 54 60
REMARK SMILES IDX 67 61 85 62 52 63 53 64 66 66 86 67 55 68 40 69 41 70 49 71
REMARK SMILES IDX 42 72 48 73 43 74 44 75 45 76 46 77 47 78 70 79 71 80 79 81
REMARK SMILES IDX 72 82 78 83 73 84 74 85 75 86 76 87 77 88 56 89 57 90 65 91
REMARK SMILES IDX 58 92 64 93 59 94 60 95 61 96 62 97 63 98
REMARK H PARENT 23 6 12 19 12 20 20 28 18 30 28 35 84 54 54 65
REMARK Flexibility Score: inf
ROOT
ATOM      1  C   UNL     1       2.644   1.472  -3.354  1.00  0.00     0.023 C 
ENDROOT
BRANCH   1   2
ATOM      2  C   UNL     1       2.315   0.271  -2.480  1.00  0.00     0.116 C 
BRANCH   2   3
ATOM      3  N   UNL     1       3.183   0.089  -1.336  1.00  0.00    -0.353 N 
ATOM      4  O   UNL     1       2.481   1.957  -0.206  1.00  0.00    -0.271 OA
ATOM      5  C   UNL     1       3.083   0.885  -0.211  1.00  0.00     0.257 C 
ATOM      6  H   UNL     1       3.865  -0.621  -1.361  1.00  0.00     0.163 HD
BRANCH   5   7
ATOM      7  C   UNL     1       3.763   0.303   1.038  1.00  0.00     0.329 C 
BRANCH   7   8
ATOM      8  O   UNL     1       4.120  -1.066   1.028  1.00  0.00    -0.483 OA
BRANCH   8   9
ATOM      9  C   UNL     1       3.297  -2.130   1.284  1.00  0.00     0.129 A 
ATOM     10  C   UNL     1       4.069  -3.196   1.792  1.00  0.00     0.047 A 
ATOM     11  C   UNL     1       1.936  -2.357   0.971  1.00  0.00     0.056 A 
ATOM     12  C   UNL     1       3.574  -4.494   1.879  1.00  0.00     0.004 A 
ATOM     13  C   UNL     1       1.497  -3.707   0.968  1.00  0.00     0.014 A 
ATOM     14  C   UNL     1       2.302  -4.760   1.408  1.00  0.00     0.001 A 
BRANCH  11  15
ATOM     15  C   UNL     1       0.922  -1.280   0.600  1.00  0.00     0.249 C 
ATOM     16  N   UNL     1       0.978  -0.124   1.508  1.00  0.00    -0.336 N 
ATOM     17  C   UNL     1      -0.565  -1.633   0.468  1.00  0.00     0.021 A 
ATOM     18  C   UNL     1       0.448  -0.394   2.850  1.00  0.00     0.266 C 
ATOM     19  H   UNL     1       0.436   0.635   1.095  1.00  0.00     0.347 HD
ATOM     20  H   UNL     1       1.963   0.115   1.622  1.00  0.00     0.347 HD
ATOM     21  C   UNL     1      -1.334  -1.665   1.656  1.00  0.00    -0.029 A 
ATOM     22  C   UNL     1      -1.202  -1.709  -0.780  1.00  0.00     0.060 A 
ATOM     23  C   UNL     1      -0.586  -1.526   2.955  1.00  0.00     0.097 C 
ATOM     24  C   UNL     1      -2.726  -1.730   1.599  1.00  0.00     0.054 A 
ATOM     25  C   UNL     1      -2.592  -1.743  -0.822  1.00  0.00     0.157 A 
ATOM     26  C   UNL     1      -3.340  -1.736   0.356  1.00  0.00     0.157 A 
BRANCH  25  27
ATOM     27  O   UNL     1      -3.280  -1.731  -2.005  1.00  0.00    -0.504 OA
ATOM     28  H   UNL     1      -4.216  -1.755  -2.003  1.00  0.00     0.293 HD
ENDBRANCH  25  27
BRANCH  26  29
ATOM     29  O   UNL     1      -4.704  -1.682   0.292  1.00  0.00    -0.504 OA
ATOM     30  H   UNL     1      -5.210  -1.677   1.081  1.00  0.00     0.293 HD
ENDBRANCH  26  29
ENDBRANCH  11  15
ENDBRANCH   8   9
ENDBRANCH   7   8
ENDBRANCH   5   7
ENDBRANCH   2   3
ENDBRANCH   1   2
BRANCH   1  31
ATOM     31  C   UNL     1       4.093   1.533  -3.818  1.00  0.00     0.023 C 
BRANCH  31  32
ATOM     32  C   UNL     1       4.601   0.263  -4.485  1.00  0.00     0.116 C 
BRANCH  32  33
ATOM     33  N   UNL     1       3.917  -0.028  -5.736  1.00  0.00    -0.352 N 
ATOM     34  C   UNL     1       4.461  -0.252  -6.981  1.00  0.00     0.251 C 
ATOM     35  H   UNL     1       2.934  -0.071  -5.685  1.00  0.00     0.163 HD
ATOM     36  O   UNL     1       3.740  -0.330  -7.965  1.00  0.00    -0.269 OA
BRANCH  34  37
ATOM     37  C   UNL     1       5.930  -0.363  -7.113  1.00  0.00     0.039 A 
ATOM     38  C   UNL     1       6.582   0.391  -8.091  1.00  0.00     0.014 A 
ATOM     39  C   UNL     1       6.663  -1.173  -6.240  1.00  0.00     0.014 A 
ATOM     40  C   UNL     1       7.977   0.388  -8.146  1.00  0.00     0.010 A 
ATOM     41  C   UNL     1       8.053  -1.108  -6.243  1.00  0.00     0.010 A 
ATOM     42  C   UNL     1       8.726  -0.330  -7.197  1.00  0.00    -0.014 A 
BRANCH  42  43
ATOM     43  C   UNL     1      10.211  -0.277  -7.184  1.00  0.00     0.031 A 
ATOM     44  C   UNL     1      11.013  -1.530  -7.413  1.00  0.00     0.074 A 
ATOM     45  C   UNL     1      10.838   0.884  -6.906  1.00  0.00     0.049 A 
ATOM     46  N   UNL     1      12.311  -1.695  -7.386  1.00  0.00    -0.248 NA
ATOM     47  C   UNL     1      10.258  -2.765  -7.681  1.00  0.00     0.031 C 
ATOM     48  C   UNL     1      10.176   2.160  -6.623  1.00  0.00     0.029 A 
ATOM     49  N   UNL     1      12.176   1.179  -6.810  1.00  0.00    -0.354 N 
ATOM     50  C   UNL     1      12.525  -3.048  -7.620  1.00  0.00     0.074 A 
ATOM     51  C   UNL     1      11.224  -3.669  -7.729  1.00  0.00     0.031 C 
ATOM     52  C   UNL     1      11.108   3.104  -6.414  1.00  0.00     0.029 A 
ATOM     53  C   UNL     1      12.431   2.495  -6.503  1.00  0.00     0.049 A 
ATOM     54  H   UNL     1      12.885   0.511  -6.948  1.00  0.00     0.167 HD
ATOM     55  C   UNL     1      13.699  -3.711  -7.755  1.00  0.00     0.031 A 
ATOM     56  C   UNL     1      13.598   3.141  -6.306  1.00  0.00     0.031 A 
ATOM     57  C   UNL     1      14.992  -3.089  -7.652  1.00  0.00     0.049 A 
ATOM     58  C   UNL     1      14.889   2.379  -6.443  1.00  0.00     0.074 A 
ATOM     59  C   UNL     1      16.239  -3.665  -7.822  1.00  0.00     0.029 A 
ATOM     60  N   UNL     1      15.207  -1.753  -7.347  1.00  0.00    -0.354 N 
ATOM     61  N   UNL     1      15.072   1.112  -6.732  1.00  0.00    -0.248 NA
ATOM     62  C   UNL     1      16.132   3.136  -6.240  1.00  0.00     0.031 C 
ATOM     63  C   UNL     1      17.208  -2.691  -7.564  1.00  0.00     0.029 A 
ATOM     64  C   UNL     1      16.566  -1.492  -7.299  1.00  0.00     0.049 A 
ATOM     65  H   UNL     1      14.498  -1.089  -7.188  1.00  0.00     0.167 HD
ATOM     66  C   UNL     1      16.450   0.928  -6.774  1.00  0.00     0.074 A 
ATOM     67  C   UNL     1      17.052   2.216  -6.497  1.00  0.00     0.031 C 
ATOM     68  C   UNL     1      17.152  -0.205  -7.021  1.00  0.00     0.031 A 
BRANCH  55  69
ATOM     69  C   UNL     1      13.634  -5.192  -8.026  1.00  0.00    -0.014 A 
ATOM     70  C   UNL     1      13.154  -5.687  -9.253  1.00  0.00     0.010 A 
ATOM     71  C   UNL     1      14.095  -6.102  -7.057  1.00  0.00     0.010 A 
ATOM     72  C   UNL     1      13.095  -7.063  -9.488  1.00  0.00     0.020 A 
ATOM     73  C   UNL     1      14.068  -7.478  -7.301  1.00  0.00     0.020 A 
ATOM     74  C   UNL     1      13.551  -7.950  -8.509  1.00  0.00     0.054 A 
BRANCH  74  75
ATOM     75  S   UNL     1      13.481  -9.730  -8.851  1.00  0.00     0.124 S 
ATOM     76  O   UNL     1      12.046  -9.994  -8.779  1.00  0.00    -0.237 OA
ATOM     77  O   UNL     1      14.070  -9.822 -10.185  1.00  0.00    -0.237 OA
ATOM     78  O   UNL     1      14.277 -10.322  -7.779  1.00  0.00    -0.744 OA
ENDBRANCH  74  75
ENDBRANCH  55  69
BRANCH  56  79
ATOM     79  C   UNL     1      13.599   4.591  -5.968  1.00  0.00    -0.014 A 
ATOM     80  C   UNL     1      14.069   5.543  -6.890  1.00  0.00     0.010 A 
ATOM     81  C   UNL     1      13.119   5.031  -4.720  1.00  0.00     0.010 A 
ATOM     82  C   UNL     1      14.078   6.902  -6.565  1.00  0.00     0.020 A 
ATOM     83  C   UNL     1      13.098   6.392  -4.402  1.00  0.00     0.020 A 
ATOM     84  C   UNL     1      13.590   7.319  -5.323  1.00  0.00     0.054 A 
BRANCH  84  85
ATOM     85  S   UNL     1      13.567   9.093  -4.942  1.00  0.00     0.124 S 
ATOM     86  O   UNL     1      14.984   9.377  -4.738  1.00  0.00    -0.237 OA
ATOM     87  O   UNL     1      12.972   9.665  -6.147  1.00  0.00    -0.237 OA
ATOM     88  O   UNL     1      12.732   9.174  -3.745  1.00  0.00    -0.744 OA
ENDBRANCH  84  85
ENDBRANCH  56  79
BRANCH  68  89
ATOM     89  C   UNL     1      18.655  -0.101  -7.042  1.00  0.00    -0.014 A 
ATOM     90  C   UNL     1      19.392   0.098  -5.861  1.00  0.00     0.010 A 
ATOM     91  C   UNL     1      19.343  -0.263  -8.259  1.00  0.00     0.010 A 
ATOM     92  C   UNL     1      20.788   0.165  -5.902  1.00  0.00     0.020 A 
ATOM     93  C   UNL     1      20.739  -0.228  -8.300  1.00  0.00     0.020 A 
ATOM     94  C   UNL     1      21.452  -0.000  -7.122  1.00  0.00     0.054 A 
BRANCH  94  95
ATOM     95  S   UNL     1      23.265   0.045  -7.141  1.00  0.00     0.124 S 
ATOM     96  O   UNL     1      23.536   1.464  -6.925  1.00  0.00    -0.237 OA
ATOM     97  O   UNL     1      23.619  -0.838  -6.032  1.00  0.00    -0.237 OA
ATOM     98  O   UNL     1      23.611  -0.460  -8.467  1.00  0.00    -0.744 OA
ENDBRANCH  94  95
ENDBRANCH  68  89
ENDBRANCH  42  43
ENDBRANCH  34  37
ENDBRANCH  32  33
ENDBRANCH  31  32
ENDBRANCH   1  31
TORSDOF 19
