REMARK SMILES O=C(Cc1ccccc1C(=O)NCCCCNC(=O)c1ccc(-c2c3nc(c(-c4ccc(S(=O)(=O)[O-])cc4)c4ccc([nH]4)c(-c4ccc(S(=O)(=O)[O-])cc4)c4nc(c(-c5ccc(S(=O)(=O)[O-])cc5)c5ccc2[nH]5)C=C4)C=C3)cc1)Nc1cccc(OC[C@@H]2CCCO2)c1
REMARK SMILES IDX 13 1 12 2 10 3 11 4 9 6 4 7 5 8 6 9 8 10 7 11 3 12 2 13 1 14
REMARK SMILES IDX 80 15 81 17 82 18 93 19 83 20 85 21 84 22 86 23 87 24 88 25
REMARK SMILES IDX 89 26 92 27 90 28 91 29 14 30 15 31 16 32 17 33 18 34 19 36
REMARK SMILES IDX 20 37 21 38 79 39 22 40 78 41 23 42 24 43 25 44 72 45 26 46
REMARK SMILES IDX 77 47 71 48 73 49 27 50 76 51 70 52 69 53 28 55 58 56 39 57
REMARK SMILES IDX 57 58 40 59 43 60 56 61 74 62 41 63 42 64 55 66 75 67 44 68
REMARK SMILES IDX 29 69 30 70 38 71 31 72 37 73 32 74 33 75 34 76 35 77 36 78
REMARK SMILES IDX 59 79 60 80 68 81 61 82 67 83 62 84 63 85 64 86 65 87 66 88
REMARK SMILES IDX 45 89 46 90 54 91 47 92 53 93 48 94 49 95 50 96 51 97 52 98
REMARK H PARENT 12 5 80 16 17 35 73 54 43 65
REMARK Flexibility Score: inf
ROOT
ATOM      1  C   UNL     1       4.251   1.887   1.206  1.00  0.00     0.116 C 
ENDROOT
BRANCH   1   2
ATOM      2  N   UNL     1       5.254   1.270   2.045  1.00  0.00    -0.352 N 
ATOM      3  C   UNL     1       5.627  -0.004   2.363  1.00  0.00     0.251 C 
ATOM      4  O   UNL     1       6.514  -0.078   3.222  1.00  0.00    -0.269 OA
ATOM      5  H   UNL     1       5.809   1.939   2.506  1.00  0.00     0.163 HD
BRANCH   3   6
ATOM      6  C   UNL     1       5.156  -1.299   1.757  1.00  0.00     0.043 A 
ATOM      7  C   UNL     1       3.863  -1.732   1.393  1.00  0.00    -0.026 A 
ATOM      8  C   UNL     1       3.662  -3.088   1.017  1.00  0.00     0.005 A 
ATOM      9  C   UNL     1       4.697  -4.016   1.018  1.00  0.00     0.000 A 
ATOM     10  C   UNL     1       6.189  -2.270   1.723  1.00  0.00     0.014 A 
ATOM     11  C   UNL     1       5.967  -3.604   1.371  1.00  0.00     0.001 A 
BRANCH   7  12
ATOM     12  C   UNL     1       2.601  -0.919   1.436  1.00  0.00     0.136 C 
BRANCH  12  13
ATOM     13  C   UNL     1       2.063  -0.362   0.118  1.00  0.00     0.228 C 
ATOM     14  O   UNL     1       1.026   0.302   0.152  1.00  0.00    -0.274 OA
ATOM     15  N   UNL     1       2.768  -0.668  -1.038  1.00  0.00    -0.326 N 
ATOM     16  H   UNL     1       3.586  -1.206  -0.933  1.00  0.00     0.169 HD
BRANCH  15  17
ATOM     17  C   UNL     1       2.420  -0.276  -2.353  1.00  0.00     0.044 A 
ATOM     18  C   UNL     1       2.981  -0.984  -3.422  1.00  0.00     0.026 A 
ATOM     19  C   UNL     1       1.486   0.726  -2.624  1.00  0.00     0.072 A 
ATOM     20  C   UNL     1       2.534  -0.758  -4.727  1.00  0.00     0.006 A 
ATOM     21  C   UNL     1       0.964   0.887  -3.908  1.00  0.00     0.121 A 
ATOM     22  C   UNL     1       1.508   0.157  -4.963  1.00  0.00     0.046 A 
BRANCH  21  23
ATOM     23  O   UNL     1      -0.136   1.637  -4.225  1.00  0.00    -0.491 OA
BRANCH  23  24
ATOM     24  C   UNL     1      -0.831   2.321  -3.171  1.00  0.00     0.261 C 
BRANCH  24  25
ATOM     25  C   UNL     1      -1.631   1.439  -2.187  1.00  0.00     0.156 C 
ATOM     26  C   UNL     1      -1.599  -0.073  -2.354  1.00  0.00     0.038 C 
ATOM     27  O   UNL     1      -3.043   1.767  -2.238  1.00  0.00    -0.375 OA
ATOM     28  C   UNL     1      -2.793  -0.488  -1.534  1.00  0.00     0.031 C 
ATOM     29  C   UNL     1      -3.791   0.599  -1.865  1.00  0.00     0.161 C 
ENDBRANCH  24  25
ENDBRANCH  23  24
ENDBRANCH  21  23
ENDBRANCH  15  17
ENDBRANCH  12  13
ENDBRANCH   7  12
ENDBRANCH   3   6
ENDBRANCH   1   2
BRANCH   1  30
ATOM     30  C   UNL     1       3.056   2.319   2.065  1.00  0.00     0.023 C 
BRANCH  30  31
ATOM     31  C   UNL     1       3.017   3.796   2.442  1.00  0.00     0.023 C 
BRANCH  31  32
ATOM     32  C   UNL     1       2.745   4.732   1.274  1.00  0.00     0.116 C 
BRANCH  32  33
ATOM     33  N   UNL     1       1.485   4.479   0.587  1.00  0.00    -0.352 N 
ATOM     34  C   UNL     1       0.694   5.389  -0.077  1.00  0.00     0.251 C 
ATOM     35  H   UNL     1       1.162   3.548   0.599  1.00  0.00     0.163 HD
ATOM     36  O   UNL     1      -0.371   5.048  -0.581  1.00  0.00    -0.269 OA
BRANCH  34  37
ATOM     37  C   UNL     1       1.134   6.798  -0.124  1.00  0.00     0.039 A 
ATOM     38  C   UNL     1       0.283   7.791   0.366  1.00  0.00     0.014 A 
ATOM     39  C   UNL     1       2.425   7.114  -0.553  1.00  0.00     0.014 A 
ATOM     40  C   UNL     1       0.761   9.096   0.503  1.00  0.00     0.010 A 
ATOM     41  C   UNL     1       2.921   8.396  -0.345  1.00  0.00     0.010 A 
ATOM     42  C   UNL     1       2.097   9.398   0.190  1.00  0.00    -0.014 A 
BRANCH  42  43
ATOM     43  C   UNL     1       2.660  10.753   0.410  1.00  0.00     0.031 A 
ATOM     44  C   UNL     1       3.144  11.560  -0.763  1.00  0.00     0.074 A 
ATOM     45  C   UNL     1       2.817  11.220   1.665  1.00  0.00     0.049 A 
ATOM     46  N   UNL     1       3.756  12.715  -0.773  1.00  0.00    -0.248 NA
ATOM     47  C   UNL     1       2.942  10.974  -2.099  1.00  0.00     0.031 C 
ATOM     48  C   UNL     1       2.440  10.513   2.892  1.00  0.00     0.029 A 
ATOM     49  N   UNL     1       3.350  12.402   2.117  1.00  0.00    -0.354 N 
ATOM     50  C   UNL     1       4.040  12.979  -2.107  1.00  0.00     0.074 A 
ATOM     51  C   UNL     1       3.571  11.845  -2.873  1.00  0.00     0.031 C 
ATOM     52  C   UNL     1       2.731  11.284   3.952  1.00  0.00     0.029 A 
ATOM     53  C   UNL     1       3.343  12.524   3.486  1.00  0.00     0.049 A 
ATOM     54  H   UNL     1       3.704  13.097   1.516  1.00  0.00     0.167 HD
ATOM     55  C   UNL     1       4.621  14.075  -2.650  1.00  0.00     0.031 A 
ATOM     56  C   UNL     1       3.781  13.522   4.278  1.00  0.00     0.031 A 
ATOM     57  C   UNL     1       5.055  15.217  -1.893  1.00  0.00     0.049 A 
ATOM     58  C   UNL     1       4.385  14.748   3.649  1.00  0.00     0.074 A 
ATOM     59  C   UNL     1       5.596  16.403  -2.357  1.00  0.00     0.029 A 
ATOM     60  N   UNL     1       4.985  15.320  -0.513  1.00  0.00    -0.354 N 
ATOM     61  N   UNL     1       4.594  15.002   2.379  1.00  0.00    -0.248 NA
ATOM     62  C   UNL     1       4.801  15.824   4.559  1.00  0.00     0.031 C 
ATOM     63  C   UNL     1       5.879  17.214  -1.253  1.00  0.00     0.029 A 
ATOM     64  C   UNL     1       5.480  16.547  -0.106  1.00  0.00     0.049 A 
ATOM     65  H   UNL     1       4.636  14.624   0.089  1.00  0.00     0.167 HD
ATOM     66  C   UNL     1       5.145  16.278   2.337  1.00  0.00     0.074 A 
ATOM     67  C   UNL     1       5.226  16.747   3.705  1.00  0.00     0.031 C 
ATOM     68  C   UNL     1       5.546  16.997   1.260  1.00  0.00     0.031 A 
BRANCH  55  69
ATOM     69  C   UNL     1       4.814  14.083  -4.142  1.00  0.00    -0.014 A 
ATOM     70  C   UNL     1       3.718  14.231  -5.011  1.00  0.00     0.010 A 
ATOM     71  C   UNL     1       6.106  13.957  -4.682  1.00  0.00     0.010 A 
ATOM     72  C   UNL     1       3.905  14.204  -6.395  1.00  0.00     0.020 A 
ATOM     73  C   UNL     1       6.300  13.955  -6.066  1.00  0.00     0.020 A 
ATOM     74  C   UNL     1       5.195  14.058  -6.914  1.00  0.00     0.054 A 
BRANCH  74  75
ATOM     75  S   UNL     1       5.415  14.037  -8.714  1.00  0.00     0.124 S 
ATOM     76  O   UNL     1       4.995  12.679  -9.051  1.00  0.00    -0.237 OA
ATOM     77  O   UNL     1       4.518  15.099  -9.163  1.00  0.00    -0.237 OA
ATOM     78  O   UNL     1       6.838  14.312  -8.891  1.00  0.00    -0.744 OA
ENDBRANCH  74  75
ENDBRANCH  55  69
BRANCH  56  79
ATOM     79  C   UNL     1       3.638  13.419   5.754  1.00  0.00    -0.014 A 
ATOM     80  C   UNL     1       2.658  14.171   6.424  1.00  0.00     0.010 A 
ATOM     81  C   UNL     1       4.472  12.563   6.496  1.00  0.00     0.010 A 
ATOM     82  C   UNL     1       2.525  14.085   7.813  1.00  0.00     0.020 A 
ATOM     83  C   UNL     1       4.328  12.459   7.883  1.00  0.00     0.020 A 
ATOM     84  C   UNL     1       3.362  13.230   8.534  1.00  0.00     0.054 A 
BRANCH  84  85
ATOM     85  S   UNL     1       3.141  13.092  10.330  1.00  0.00     0.124 S 
ATOM     86  O   UNL     1       3.802  14.302  10.810  1.00  0.00    -0.237 OA
ATOM     87  O   UNL     1       1.688  13.066  10.472  1.00  0.00    -0.237 OA
ATOM     88  O   UNL     1       3.813  11.837  10.659  1.00  0.00    -0.744 OA
ENDBRANCH  84  85
ENDBRANCH  56  79
BRANCH  68  89
ATOM     89  C   UNL     1       6.080  18.379   1.514  1.00  0.00    -0.014 A 
ATOM     90  C   UNL     1       7.375  18.572   2.026  1.00  0.00     0.010 A 
ATOM     91  C   UNL     1       5.297  19.497   1.177  1.00  0.00     0.010 A 
ATOM     92  C   UNL     1       7.869  19.864   2.220  1.00  0.00     0.020 A 
ATOM     93  C   UNL     1       5.795  20.790   1.351  1.00  0.00     0.020 A 
ATOM     94  C   UNL     1       7.075  20.966   1.883  1.00  0.00     0.054 A 
BRANCH  94  95
ATOM     95  S   UNL     1       7.755  22.634   2.094  1.00  0.00     0.124 S 
ATOM     96  O   UNL     1       7.609  22.842   3.532  1.00  0.00    -0.237 OA
ATOM     97  O   UNL     1       9.128  22.488   1.616  1.00  0.00    -0.237 OA
ATOM     98  O   UNL     1       6.896  23.465   1.253  1.00  0.00    -0.744 OA
ENDBRANCH  94  95
ENDBRANCH  68  89
ENDBRANCH  42  43
ENDBRANCH  34  37
ENDBRANCH  32  33
ENDBRANCH  31  32
ENDBRANCH  30  31
ENDBRANCH   1  30
TORSDOF 20
