REMARK SMILES CC(C)(C)OC(=O)N[C@@H](Cc1c[nH]c2cccc(Cl)c12)C(=O)NCCCCNC(=O)c1ccc(-c2c3nc(c(-c4ccc(S(=O)(=O)[O-])cc4)c4ccc([nH]4)c(-c4ccc(S(=O)(=O)[O-])cc4)c4nc(c(-c5ccc(S(=O)(=O)[O-])cc5)c5ccc2[nH]5)C=C4)C=C3)cc1
REMARK SMILES IDX 25 1 24 2 23 3 21 4 22 5 9 7 8 8 6 9 7 10 5 12 2 13 1 14
REMARK SMILES IDX 3 15 4 16 10 17 11 18 12 19 20 20 13 21 14 22 18 23 15 25
REMARK SMILES IDX 17 26 19 27 16 28 26 29 27 30 28 31 29 32 30 34 31 35 32 36
REMARK SMILES IDX 90 37 33 38 89 39 34 40 35 41 36 42 83 43 37 44 88 45 82 46
REMARK SMILES IDX 84 47 38 48 87 49 81 50 80 51 39 53 69 54 50 55 68 56 51 57
REMARK SMILES IDX 54 58 67 59 85 60 52 61 53 62 66 64 86 65 55 66 40 67 41 68
REMARK SMILES IDX 49 69 42 70 48 71 43 72 44 73 45 74 46 75 47 76 70 77 71 78
REMARK SMILES IDX 79 79 72 80 78 81 73 82 74 83 75 84 76 85 77 86 56 87 57 88
REMARK SMILES IDX 65 89 58 90 64 91 59 92 60 93 61 94 62 95 63 96
REMARK H PARENT 23 6 8 11 13 24 28 33 84 52 54 63
REMARK Flexibility Score: inf
ROOT
ATOM      1  C   UNL     1      -0.765  -3.661   7.338  1.00  0.00     0.023 C 
ENDROOT
BRANCH   1   2
ATOM      2  C   UNL     1       0.580  -3.933   6.678  1.00  0.00     0.116 C 
BRANCH   2   3
ATOM      3  N   UNL     1       0.519  -4.486   5.341  1.00  0.00    -0.354 N 
ATOM      4  C   UNL     1       1.273  -4.174   4.239  1.00  0.00     0.243 C 
ATOM      5  O   UNL     1       1.352  -5.042   3.361  1.00  0.00    -0.273 OA
ATOM      6  H   UNL     1      -0.160  -5.185   5.204  1.00  0.00     0.163 HD
BRANCH   4   7
ATOM      7  C   UNL     1       2.072  -2.851   4.093  1.00  0.00     0.179 C 
BRANCH   7   8
ATOM      8  N   UNL     1       1.277  -1.698   4.511  1.00  0.00    -0.309 N 
ATOM      9  C   UNL     1       0.652  -0.772   3.742  1.00  0.00     0.408 C 
ATOM     10  O   UNL     1      -0.085   0.057   4.264  1.00  0.00    -0.225 OA
ATOM     11  H   UNL     1       1.183  -1.577   5.483  1.00  0.00     0.167 HD
BRANCH   9  12
ATOM     12  O   UNL     1       0.963  -0.840   2.428  1.00  0.00    -0.444 OA
BRANCH  12  13
ATOM     13  C   UNL     1       0.495   0.200   1.528  1.00  0.00     0.106 C 
ATOM     14  C   UNL     1       1.083  -0.152   0.152  1.00  0.00     0.056 C 
ATOM     15  C   UNL     1       1.039   1.576   1.940  1.00  0.00     0.056 C 
ATOM     16  C   UNL     1      -1.034   0.198   1.415  1.00  0.00     0.056 C 
ENDBRANCH  12  13
ENDBRANCH   9  12
ENDBRANCH   7   8
BRANCH   7  17
ATOM     17  C   UNL     1       3.510  -2.887   4.668  1.00  0.00     0.073 C 
BRANCH  17  18
ATOM     18  C   UNL     1       3.654  -3.016   6.162  1.00  0.00    -0.019 A 
ATOM     19  C   UNL     1       3.980  -4.197   6.809  1.00  0.00     0.087 A 
ATOM     20  C   UNL     1       3.451  -2.023   7.196  1.00  0.00     0.021 A 
ATOM     21  N   UNL     1       3.885  -3.999   8.158  1.00  0.00    -0.361 N 
ATOM     22  C   UNL     1       3.453  -2.720   8.414  1.00  0.00     0.047 A 
ATOM     23  C   UNL     1       3.173  -0.638   7.272  1.00  0.00     0.050 A 
ATOM     24  H   UNL     1       4.095  -4.673   8.844  1.00  0.00     0.166 HD
ATOM     25  C   UNL     1       3.075  -2.137   9.633  1.00  0.00     0.027 A 
ATOM     26  C   UNL     1       2.793  -0.032   8.472  1.00  0.00     0.021 A 
ATOM     27  Cl  UNL     1       3.356   0.303   5.857  1.00  0.00    -0.084 Cl
ATOM     28  C   UNL     1       2.718  -0.787   9.636  1.00  0.00     0.004 A 
ENDBRANCH  17  18
ENDBRANCH   7  17
ENDBRANCH   4   7
ENDBRANCH   2   3
ENDBRANCH   1   2
BRANCH   1  29
ATOM     29  C   UNL     1      -1.460  -4.877   7.960  1.00  0.00     0.023 C 
BRANCH  29  30
ATOM     30  C   UNL     1      -0.637  -5.622   9.008  1.00  0.00     0.116 C 
BRANCH  30  31
ATOM     31  N   UNL     1      -0.268  -4.792  10.148  1.00  0.00    -0.352 N 
ATOM     32  C   UNL     1       0.371  -5.184  11.305  1.00  0.00     0.251 C 
ATOM     33  H   UNL     1      -0.503  -3.838  10.084  1.00  0.00     0.163 HD
ATOM     34  O   UNL     1       0.325  -4.482  12.309  1.00  0.00    -0.269 OA
BRANCH  32  35
ATOM     35  C   UNL     1       1.138  -6.444  11.313  1.00  0.00     0.039 A 
ATOM     36  C   UNL     1       1.082  -7.306  12.413  1.00  0.00     0.014 A 
ATOM     37  C   UNL     1       1.957  -6.735  10.219  1.00  0.00     0.014 A 
ATOM     38  C   UNL     1       1.815  -8.489  12.381  1.00  0.00     0.010 A 
ATOM     39  C   UNL     1       2.623  -7.937  10.154  1.00  0.00     0.010 A 
ATOM     40  C   UNL     1       2.579  -8.798  11.247  1.00  0.00    -0.014 A 
BRANCH  40  41
ATOM     41  C   UNL     1       3.273 -10.073  11.153  1.00  0.00     0.031 A 
ATOM     42  C   UNL     1       2.394 -11.270  11.092  1.00  0.00     0.074 A 
ATOM     43  C   UNL     1       4.595 -10.174  10.913  1.00  0.00     0.049 A 
ATOM     44  N   UNL     1       2.213 -12.166  12.003  1.00  0.00    -0.248 NA
ATOM     45  C   UNL     1       1.525 -11.428   9.915  1.00  0.00     0.031 C 
ATOM     46  C   UNL     1       5.553  -9.106  10.608  1.00  0.00     0.029 A 
ATOM     47  N   UNL     1       5.346 -11.299  10.792  1.00  0.00    -0.354 N 
ATOM     48  C   UNL     1       1.365 -13.117  11.442  1.00  0.00     0.074 A 
ATOM     49  C   UNL     1       0.839 -12.525  10.237  1.00  0.00     0.031 C 
ATOM     50  C   UNL     1       6.698  -9.651  10.134  1.00  0.00     0.029 A 
ATOM     51  C   UNL     1       6.613 -11.095  10.262  1.00  0.00     0.049 A 
ATOM     52  H   UNL     1       5.018 -12.188  11.059  1.00  0.00     0.167 HD
ATOM     53  C   UNL     1       1.337 -14.409  11.878  1.00  0.00     0.031 A 
ATOM     54  C   UNL     1       7.509 -12.058   9.932  1.00  0.00     0.031 A 
ATOM     55  C   UNL     1       2.027 -14.569  13.131  1.00  0.00     0.049 A 
ATOM     56  C   UNL     1       7.138 -13.264  10.716  1.00  0.00     0.074 A 
ATOM     57  C   UNL     1       1.875 -14.046  14.400  1.00  0.00     0.029 A 
ATOM     58  N   UNL     1       3.311 -15.061  13.076  1.00  0.00    -0.354 N 
ATOM     59  N   UNL     1       7.180 -13.315  12.019  1.00  0.00    -0.248 NA
ATOM     60  C   UNL     1       6.307 -14.274  10.080  1.00  0.00     0.031 C 
ATOM     61  C   UNL     1       3.204 -13.811  14.860  1.00  0.00     0.029 A 
ATOM     62  C   UNL     1       4.088 -14.261  13.876  1.00  0.00     0.049 A 
ATOM     63  H   UNL     1       3.616 -15.841  12.560  1.00  0.00     0.167 HD
ATOM     64  C   UNL     1       6.079 -14.077  12.383  1.00  0.00     0.074 A 
ATOM     65  C   UNL     1       5.642 -14.723  11.148  1.00  0.00     0.031 C 
ATOM     66  C   UNL     1       5.464 -13.904  13.590  1.00  0.00     0.031 A 
BRANCH  53  67
ATOM     67  C   UNL     1       1.024 -15.585  10.986  1.00  0.00    -0.014 A 
ATOM     68  C   UNL     1       0.883 -16.866  11.556  1.00  0.00     0.010 A 
ATOM     69  C   UNL     1       1.127 -15.517   9.581  1.00  0.00     0.010 A 
ATOM     70  C   UNL     1       0.898 -18.021  10.759  1.00  0.00     0.020 A 
ATOM     71  C   UNL     1       1.096 -16.656   8.776  1.00  0.00     0.020 A 
ATOM     72  C   UNL     1       1.012 -17.906   9.373  1.00  0.00     0.054 A 
BRANCH  72  73
ATOM     73  S   UNL     1       1.153 -19.402   8.365  1.00  0.00     0.124 S 
ATOM     74  O   UNL     1       2.333 -20.044   8.936  1.00  0.00    -0.237 OA
ATOM     75  O   UNL     1      -0.120 -20.067   8.626  1.00  0.00    -0.237 OA
ATOM     76  O   UNL     1       1.317 -18.887   7.008  1.00  0.00    -0.744 OA
ENDBRANCH  72  73
ENDBRANCH  53  67
BRANCH  54  77
ATOM     77  C   UNL     1       8.433 -12.102   8.769  1.00  0.00    -0.014 A 
ATOM     78  C   UNL     1       9.385 -13.133   8.650  1.00  0.00     0.010 A 
ATOM     79  C   UNL     1       8.185 -11.309   7.630  1.00  0.00     0.010 A 
ATOM     80  C   UNL     1       9.997 -13.418   7.418  1.00  0.00     0.020 A 
ATOM     81  C   UNL     1       8.799 -11.580   6.400  1.00  0.00     0.020 A 
ATOM     82  C   UNL     1       9.674 -12.658   6.292  1.00  0.00     0.054 A 
BRANCH  82  83
ATOM     83  S   UNL     1      10.325 -13.152   4.668  1.00  0.00     0.124 S 
ATOM     84  O   UNL     1      11.769 -13.090   4.876  1.00  0.00    -0.237 OA
ATOM     85  O   UNL     1       9.767 -14.491   4.506  1.00  0.00    -0.237 OA
ATOM     86  O   UNL     1       9.787 -12.143   3.759  1.00  0.00    -0.744 OA
ENDBRANCH  82  83
ENDBRANCH  54  77
BRANCH  66  87
ATOM     87  C   UNL     1       6.154 -13.062  14.640  1.00  0.00    -0.014 A 
ATOM     88  C   UNL     1       6.320 -11.667  14.528  1.00  0.00     0.010 A 
ATOM     89  C   UNL     1       6.452 -13.677  15.868  1.00  0.00     0.010 A 
ATOM     90  C   UNL     1       6.760 -10.908  15.625  1.00  0.00     0.020 A 
ATOM     91  C   UNL     1       6.877 -12.925  16.967  1.00  0.00     0.020 A 
ATOM     92  C   UNL     1       7.019 -11.543  16.844  1.00  0.00     0.054 A 
BRANCH  92  93
ATOM     93  S   UNL     1       7.491 -10.546  18.288  1.00  0.00     0.124 S 
ATOM     94  O   UNL     1       8.713  -9.885  17.839  1.00  0.00    -0.237 OA
ATOM     95  O   UNL     1       6.333  -9.672  18.463  1.00  0.00    -0.237 OA
ATOM     96  O   UNL     1       7.679 -11.534  19.349  1.00  0.00    -0.744 OA
ENDBRANCH  92  93
ENDBRANCH  66  87
ENDBRANCH  40  41
ENDBRANCH  32  35
ENDBRANCH  30  31
ENDBRANCH  29  30
ENDBRANCH   1  29
TORSDOF 19
