REMARK SMILES O=C(CSCc1nnnn1-c1ccc([N+](=O)[O-])cc1)NCCCCNC(=O)c1ccc(-c2c3nc(c(-c4ccc(S(=O)(=O)[O-])cc4)c4ccc([nH]4)c(-c4ccc(S(=O)(=O)[O-])cc4)c4nc(c(-c5ccc(S(=O)(=O)[O-])cc5)c5ccc2[nH]5)C=C4)C=C3)cc1
REMARK SMILES IDX 21 1 20 2 1 3 2 4 3 6 4 7 5 8 6 9 7 10 10 11 8 12 9 13 11 14
REMARK SMILES IDX 12 15 19 16 13 17 18 18 14 19 15 20 16 21 17 22 22 23 23 24
REMARK SMILES IDX 24 25 25 26 26 27 27 29 28 30 29 31 87 32 30 33 86 34 31 35
REMARK SMILES IDX 32 36 33 37 80 38 34 39 85 40 79 41 81 42 35 43 84 44 78 45
REMARK SMILES IDX 77 46 36 48 66 49 47 50 65 51 48 52 51 53 64 54 82 55 49 56
REMARK SMILES IDX 50 57 63 59 83 60 52 61 37 62 38 63 46 64 39 65 45 66 40 67
REMARK SMILES IDX 41 68 42 69 43 70 44 71 67 72 68 73 76 74 69 75 75 76 70 77
REMARK SMILES IDX 71 78 72 79 73 80 74 81 53 82 54 83 62 84 55 85 61 86 56 87
REMARK SMILES IDX 57 88 58 89 59 90 60 91
REMARK H PARENT 20 5 25 28 81 47 51 58
REMARK Flexibility Score: inf
ROOT
ATOM      1  C   UNL     1       2.499   1.556  -1.925  1.00  0.00     0.116 C 
ENDROOT
BRANCH   1   2
ATOM      2  N   UNL     1       3.293   0.614  -1.155  1.00  0.00    -0.355 N 
ATOM      3  O   UNL     1       2.303   1.042   0.851  1.00  0.00    -0.274 OA
ATOM      4  C   UNL     1       3.049   0.341   0.169  1.00  0.00     0.230 C 
ATOM      5  H   UNL     1       4.038   0.151  -1.602  1.00  0.00     0.163 HD
BRANCH   4   6
ATOM      6  C   UNL     1       3.786  -0.838   0.792  1.00  0.00     0.169 C 
BRANCH   6   7
ATOM      7  S   UNL     1       4.349  -2.124  -0.368  1.00  0.00    -0.144 SA
BRANCH   7   8
ATOM      8  C   UNL     1       2.791  -2.905  -0.929  1.00  0.00     0.149 C 
BRANCH   8   9
ATOM      9  C   UNL     1       2.084  -3.728   0.087  1.00  0.00     0.166 A 
ATOM     10  N   UNL     1       2.363  -4.981   0.400  1.00  0.00    -0.113 NA
ATOM     11  N   UNL     1       1.060  -3.314   0.920  1.00  0.00    -0.196 N 
ATOM     12  N   UNL     1       1.581  -5.302   1.476  1.00  0.00    -0.023 NA
ATOM     13  N   UNL     1       0.843  -4.270   1.848  1.00  0.00    -0.040 NA
BRANCH  11  14
ATOM     14  C   UNL     1       0.384  -2.079   0.979  1.00  0.00     0.069 A 
ATOM     15  C   UNL     1       0.214  -1.472   2.233  1.00  0.00     0.035 A 
ATOM     16  C   UNL     1      -0.037  -1.436  -0.190  1.00  0.00     0.035 A 
ATOM     17  C   UNL     1      -0.247  -0.157   2.303  1.00  0.00     0.088 A 
ATOM     18  C   UNL     1      -0.538  -0.135  -0.117  1.00  0.00     0.088 A 
ATOM     19  C   UNL     1      -0.588   0.519   1.123  1.00  0.00     0.269 A 
BRANCH  19  20
ATOM     20  N   UNL     1      -0.913   1.950   1.172  1.00  0.00     0.062 N 
ATOM     21  O   UNL     1      -0.955   2.498   2.284  1.00  0.00    -0.258 OA
ATOM     22  O   UNL     1      -1.145   2.526   0.098  1.00  0.00    -0.258 OA
ENDBRANCH  19  20
ENDBRANCH  11  14
ENDBRANCH   8   9
ENDBRANCH   7   8
ENDBRANCH   6   7
ENDBRANCH   4   6
ENDBRANCH   1   2
BRANCH   1  23
ATOM     23  C   UNL     1       2.641   3.038  -1.551  1.00  0.00     0.023 C 
BRANCH  23  24
ATOM     24  C   UNL     1       4.052   3.634  -1.602  1.00  0.00     0.023 C 
BRANCH  24  25
ATOM     25  C   UNL     1       4.745   3.538  -2.953  1.00  0.00     0.116 C 
BRANCH  25  26
ATOM     26  N   UNL     1       4.123   4.359  -3.998  1.00  0.00    -0.352 N 
ATOM     27  C   UNL     1       4.490   4.433  -5.333  1.00  0.00     0.251 C 
ATOM     28  H   UNL     1       3.362   4.918  -3.721  1.00  0.00     0.163 HD
ATOM     29  O   UNL     1       4.207   5.417  -6.015  1.00  0.00    -0.269 OA
BRANCH  27  30
ATOM     30  C   UNL     1       5.209   3.292  -5.925  1.00  0.00     0.039 A 
ATOM     31  C   UNL     1       6.286   3.440  -6.804  1.00  0.00     0.014 A 
ATOM     32  C   UNL     1       4.794   2.028  -5.519  1.00  0.00     0.014 A 
ATOM     33  C   UNL     1       6.996   2.301  -7.194  1.00  0.00     0.010 A 
ATOM     34  C   UNL     1       5.601   0.948  -5.743  1.00  0.00     0.010 A 
ATOM     35  C   UNL     1       6.657   1.058  -6.639  1.00  0.00    -0.014 A 
BRANCH  35  36
ATOM     36  C   UNL     1       7.438  -0.153  -6.876  1.00  0.00     0.031 A 
ATOM     37  C   UNL     1       8.862  -0.056  -6.463  1.00  0.00     0.074 A 
ATOM     38  C   UNL     1       6.852  -1.335  -7.177  1.00  0.00     0.049 A 
ATOM     39  N   UNL     1       9.898   0.021  -7.230  1.00  0.00    -0.248 NA
ATOM     40  C   UNL     1       9.169   0.140  -5.035  1.00  0.00     0.031 C 
ATOM     41  C   UNL     1       5.413  -1.625  -7.302  1.00  0.00     0.029 A 
ATOM     42  N   UNL     1       7.408  -2.569  -7.316  1.00  0.00    -0.354 N 
ATOM     43  C   UNL     1      11.002   0.013  -6.381  1.00  0.00     0.074 A 
ATOM     44  C   UNL     1      10.494   0.307  -5.067  1.00  0.00     0.031 C 
ATOM     45  C   UNL     1       5.206  -2.960  -7.261  1.00  0.00     0.029 A 
ATOM     46  C   UNL     1       6.495  -3.623  -7.307  1.00  0.00     0.049 A 
ATOM     47  H   UNL     1       8.378  -2.707  -7.415  1.00  0.00     0.167 HD
ATOM     48  C   UNL     1      12.191  -0.522  -6.780  1.00  0.00     0.031 A 
ATOM     49  C   UNL     1       6.777  -4.948  -7.358  1.00  0.00     0.031 A 
ATOM     50  C   UNL     1      12.162  -0.841  -8.186  1.00  0.00     0.049 A 
ATOM     51  C   UNL     1       8.130  -5.068  -7.939  1.00  0.00     0.074 A 
ATOM     52  C   UNL     1      12.127  -0.137  -9.368  1.00  0.00     0.029 A 
ATOM     53  N   UNL     1      11.755  -2.124  -8.462  1.00  0.00    -0.354 N 
ATOM     54  N   UNL     1       8.407  -4.718  -9.163  1.00  0.00    -0.248 NA
ATOM     55  C   UNL     1       9.277  -5.202  -7.054  1.00  0.00     0.031 C 
ATOM     56  C   UNL     1      11.381  -0.951 -10.272  1.00  0.00     0.029 A 
ATOM     57  C   UNL     1      11.043  -2.145  -9.630  1.00  0.00     0.049 A 
ATOM     58  H   UNL     1      11.947  -2.912  -7.903  1.00  0.00     0.167 HD
ATOM     59  C   UNL     1       9.673  -4.164  -9.088  1.00  0.00     0.074 A 
ATOM     60  C   UNL     1      10.217  -4.638  -7.819  1.00  0.00     0.031 C 
ATOM     61  C   UNL     1      10.034  -3.144  -9.920  1.00  0.00     0.031 A 
BRANCH  48  62
ATOM     62  C   UNL     1      13.183  -1.214  -5.866  1.00  0.00    -0.014 A 
ATOM     63  C   UNL     1      14.356  -1.753  -6.442  1.00  0.00     0.010 A 
ATOM     64  C   UNL     1      12.884  -1.613  -4.549  1.00  0.00     0.010 A 
ATOM     65  C   UNL     1      15.133  -2.706  -5.769  1.00  0.00     0.020 A 
ATOM     66  C   UNL     1      13.674  -2.534  -3.854  1.00  0.00     0.020 A 
ATOM     67  C   UNL     1      14.774  -3.103  -4.483  1.00  0.00     0.054 A 
BRANCH  67  68
ATOM     68  S   UNL     1      15.712  -4.417  -3.667  1.00  0.00     0.124 S 
ATOM     69  O   UNL     1      15.416  -5.569  -4.514  1.00  0.00    -0.237 OA
ATOM     70  O   UNL     1      17.080  -3.910  -3.738  1.00  0.00    -0.237 OA
ATOM     71  O   UNL     1      15.138  -4.462  -2.324  1.00  0.00    -0.744 OA
ENDBRANCH  67  68
ENDBRANCH  48  62
BRANCH  49  72
ATOM     72  C   UNL     1       6.060  -6.116  -6.795  1.00  0.00    -0.014 A 
ATOM     73  C   UNL     1       6.251  -7.409  -7.321  1.00  0.00     0.010 A 
ATOM     74  C   UNL     1       5.435  -6.003  -5.537  1.00  0.00     0.010 A 
ATOM     75  C   UNL     1       5.894  -8.551  -6.583  1.00  0.00     0.020 A 
ATOM     76  C   UNL     1       5.080  -7.139  -4.795  1.00  0.00     0.020 A 
ATOM     77  C   UNL     1       5.333  -8.409  -5.312  1.00  0.00     0.054 A 
BRANCH  77  78
ATOM     78  S   UNL     1       5.054  -9.891  -4.291  1.00  0.00     0.124 S 
ATOM     79  O   UNL     1       3.945 -10.540  -4.985  1.00  0.00    -0.237 OA
ATOM     80  O   UNL     1       6.339 -10.579  -4.370  1.00  0.00    -0.237 OA
ATOM     81  O   UNL     1       4.727  -9.343  -2.976  1.00  0.00    -0.744 OA
ENDBRANCH  77  78
ENDBRANCH  49  72
BRANCH  61  82
ATOM     82  C   UNL     1       9.207  -2.936 -11.165  1.00  0.00    -0.014 A 
ATOM     83  C   UNL     1       7.862  -2.517 -11.168  1.00  0.00     0.010 A 
ATOM     84  C   UNL     1       9.870  -3.080 -12.395  1.00  0.00     0.010 A 
ATOM     85  C   UNL     1       7.194  -2.272 -12.377  1.00  0.00     0.020 A 
ATOM     86  C   UNL     1       9.217  -2.821 -13.600  1.00  0.00     0.020 A 
ATOM     87  C   UNL     1       7.878  -2.429 -13.587  1.00  0.00     0.054 A 
BRANCH  87  88
ATOM     88  S   UNL     1       7.026  -2.085 -15.152  1.00  0.00     0.124 S 
ATOM     89  O   UNL     1       6.066  -3.182 -15.238  1.00  0.00    -0.237 OA
ATOM     90  O   UNL     1       6.449  -0.762 -14.924  1.00  0.00    -0.237 OA
ATOM     91  O   UNL     1       8.097  -2.120 -16.147  1.00  0.00    -0.744 OA
ENDBRANCH  87  88
ENDBRANCH  61  82
ENDBRANCH  35  36
ENDBRANCH  27  30
ENDBRANCH  25  26
ENDBRANCH  24  25
ENDBRANCH  23  24
ENDBRANCH   1  23
TORSDOF 19
