REMARK SMILES CCN(CCC(=O)NCCCCNC(=O)c1ccc(-c2c3nc(c(-c4ccc(S(=O)(=O)[O-])cc4)c4ccc([nH]4)c(-c4ccc(S(=O)(=O)[O-])cc4)c4nc(c(-c5ccc(S(=O)(=O)[O-])cc5)c5ccc2[nH]5)C=C4)C=C3)cc1)C(=O)N(C)CCc1cccs1
REMARK SMILES IDX 6 1 7 2 8 3 5 5 4 6 3 7 2 8 1 9 76 10 77 11 78 12 79 13
REMARK SMILES IDX 80 14 81 15 82 16 83 17 86 18 84 19 85 20 9 21 10 22 11 23
REMARK SMILES IDX 12 24 13 25 14 26 15 28 16 29 17 30 75 31 18 32 74 33 19 34
REMARK SMILES IDX 20 35 21 36 68 37 22 38 73 39 67 40 69 41 23 42 72 43 66 44
REMARK SMILES IDX 65 45 24 47 54 48 35 49 53 50 36 51 39 52 52 53 70 54 37 55
REMARK SMILES IDX 38 56 51 58 71 59 40 60 25 61 26 62 34 63 27 64 33 65 28 66
REMARK SMILES IDX 29 67 30 68 31 69 32 70 55 71 56 72 64 73 57 74 63 75 58 76
REMARK SMILES IDX 59 77 60 78 61 79 62 80 41 81 42 82 50 83 43 84 49 85 44 86
REMARK SMILES IDX 45 87 46 88 47 89 48 90
REMARK H PARENT 8 4 13 27 69 46 39 57
REMARK Flexibility Score: inf
ROOT
ATOM      1  C   UNL     1       0.751   3.427   3.474  1.00  0.00     0.221 C 
ATOM      2  O   UNL     1       0.952   4.456   4.125  1.00  0.00    -0.275 OA
ATOM      3  N   UNL     1       1.730   2.482   3.369  1.00  0.00    -0.356 N 
ATOM      4  H   UNL     1       2.623   2.823   3.607  1.00  0.00     0.163 HD
ENDROOT
BRANCH   1   5
ATOM      5  C   UNL     1      -0.525   3.246   2.728  1.00  0.00     0.121 C 
BRANCH   5   6
ATOM      6  C   UNL     1      -0.325   3.714   1.300  1.00  0.00     0.131 C 
BRANCH   6   7
ATOM      7  N   UNL     1       0.673   2.954   0.529  1.00  0.00    -0.324 N 
BRANCH   7   8
ATOM      8  C   UNL     1       0.111   1.675   0.012  1.00  0.00     0.118 C 
ATOM      9  C   UNL     1       0.799   0.828  -1.040  1.00  0.00     0.027 C 
ENDBRANCH   7   8
BRANCH   7  10
ATOM     10  C   UNL     1       2.059   3.272   0.463  1.00  0.00     0.319 C 
ATOM     11  O   UNL     1       2.802   2.730  -0.353  1.00  0.00    -0.248 OA
BRANCH  10  12
ATOM     12  N   UNL     1       2.571   4.276   1.341  1.00  0.00    -0.327 N 
ATOM     13  C   UNL     1       2.228   5.611   0.867  1.00  0.00     0.148 C 
BRANCH  12  14
ATOM     14  C   UNL     1       4.009   4.228   1.909  1.00  0.00     0.126 C 
BRANCH  14  15
ATOM     15  C   UNL     1       4.458   4.020   3.446  1.00  0.00     0.068 C 
BRANCH  15  16
ATOM     16  C   UNL     1       4.581   2.683   4.222  1.00  0.00     0.006 A 
ATOM     17  C   UNL     1       5.579   1.722   4.284  1.00  0.00     0.015 A 
ATOM     18  S   UNL     1       3.586   2.372   5.640  1.00  0.00    -0.149 S 
ATOM     19  C   UNL     1       5.143   0.513   4.934  1.00  0.00     0.012 A 
ATOM     20  C   UNL     1       3.965   0.700   5.612  1.00  0.00     0.065 A 
ENDBRANCH  15  16
ENDBRANCH  14  15
ENDBRANCH  12  14
ENDBRANCH  10  12
ENDBRANCH   7  10
ENDBRANCH   6   7
ENDBRANCH   5   6
ENDBRANCH   1   5
BRANCH   3  21
ATOM     21  C   UNL     1       1.740   1.082   2.982  1.00  0.00     0.116 C 
BRANCH  21  22
ATOM     22  C   UNL     1       2.871   0.321   2.172  1.00  0.00     0.023 C 
BRANCH  22  23
ATOM     23  C   UNL     1       4.040   0.863   1.315  1.00  0.00     0.023 C 
BRANCH  23  24
ATOM     24  C   UNL     1       5.466   0.261   1.376  1.00  0.00     0.116 C 
BRANCH  24  25
ATOM     25  N   UNL     1       5.531  -1.154   1.662  1.00  0.00    -0.352 N 
ATOM     26  C   UNL     1       6.630  -1.937   1.930  1.00  0.00     0.251 C 
ATOM     27  H   UNL     1       4.667  -1.624   1.666  1.00  0.00     0.163 HD
ATOM     28  O   UNL     1       6.501  -3.163   1.975  1.00  0.00    -0.269 OA
BRANCH  26  29
ATOM     29  C   UNL     1       7.974  -1.346   2.139  1.00  0.00     0.039 A 
ATOM     30  C   UNL     1       9.046  -1.766   1.354  1.00  0.00     0.014 A 
ATOM     31  C   UNL     1       8.211  -0.436   3.167  1.00  0.00     0.014 A 
ATOM     32  C   UNL     1      10.319  -1.215   1.559  1.00  0.00     0.010 A 
ATOM     33  C   UNL     1       9.451   0.184   3.315  1.00  0.00     0.010 A 
ATOM     34  C   UNL     1      10.526  -0.198   2.511  1.00  0.00    -0.014 A 
BRANCH  34  35
ATOM     35  C   UNL     1      11.836   0.504   2.617  1.00  0.00     0.031 A 
ATOM     36  C   UNL     1      12.640   0.494   3.893  1.00  0.00     0.074 A 
ATOM     37  C   UNL     1      12.270   1.212   1.554  1.00  0.00     0.049 A 
ATOM     38  N   UNL     1      13.829   0.997   4.120  1.00  0.00    -0.248 NA
ATOM     39  C   UNL     1      12.023  -0.125   5.076  1.00  0.00     0.031 C 
ATOM     40  C   UNL     1      11.529   1.387   0.301  1.00  0.00     0.029 A 
ATOM     41  N   UNL     1      13.438   1.900   1.342  1.00  0.00    -0.354 N 
ATOM     42  C   UNL     1      14.093   0.766   5.467  1.00  0.00     0.074 A 
ATOM     43  C   UNL     1      12.915   0.137   6.021  1.00  0.00     0.031 C 
ATOM     44  C   UNL     1      12.288   2.066  -0.571  1.00  0.00     0.029 A 
ATOM     45  C   UNL     1      13.553   2.408   0.068  1.00  0.00     0.049 A 
ATOM     46  H   UNL     1      14.128   2.018   2.035  1.00  0.00     0.167 HD
ATOM     47  C   UNL     1      15.222   1.028   6.171  1.00  0.00     0.031 A 
ATOM     48  C   UNL     1      14.570   3.057  -0.530  1.00  0.00     0.031 A 
ATOM     49  C   UNL     1      16.391   1.648   5.602  1.00  0.00     0.049 A 
ATOM     50  C   UNL     1      15.833   3.291   0.250  1.00  0.00     0.074 A 
ATOM     51  C   UNL     1      17.618   1.889   6.195  1.00  0.00     0.029 A 
ATOM     52  N   UNL     1      16.473   2.130   4.303  1.00  0.00    -0.354 N 
ATOM     53  N   UNL     1      16.105   2.961   1.490  1.00  0.00    -0.248 NA
ATOM     54  C   UNL     1      16.930   3.967  -0.453  1.00  0.00     0.031 C 
ATOM     55  C   UNL     1      18.424   2.564   5.271  1.00  0.00     0.029 A 
ATOM     56  C   UNL     1      17.720   2.690   4.082  1.00  0.00     0.049 A 
ATOM     57  H   UNL     1      15.751   2.082   3.636  1.00  0.00     0.167 HD
ATOM     58  C   UNL     1      17.413   3.373   1.712  1.00  0.00     0.074 A 
ATOM     59  C   UNL     1      17.882   3.957   0.470  1.00  0.00     0.031 C 
ATOM     60  C   UNL     1      18.160   3.276   2.840  1.00  0.00     0.031 A 
BRANCH  47  61
ATOM     61  C   UNL     1      15.242   0.644   7.632  1.00  0.00    -0.014 A 
ATOM     62  C   UNL     1      15.207  -0.706   8.032  1.00  0.00     0.010 A 
ATOM     63  C   UNL     1      15.316   1.641   8.623  1.00  0.00     0.010 A 
ATOM     64  C   UNL     1      15.178  -1.048   9.388  1.00  0.00     0.020 A 
ATOM     65  C   UNL     1      15.319   1.302   9.982  1.00  0.00     0.020 A 
ATOM     66  C   UNL     1      15.224  -0.040  10.355  1.00  0.00     0.054 A 
BRANCH  66  67
ATOM     67  S   UNL     1      15.173  -0.512  12.106  1.00  0.00     0.124 S 
ATOM     68  O   UNL     1      13.777  -0.911  12.269  1.00  0.00    -0.237 OA
ATOM     69  O   UNL     1      16.147  -1.598  12.175  1.00  0.00    -0.237 OA
ATOM     70  O   UNL     1      15.556   0.710  12.807  1.00  0.00    -0.744 OA
ENDBRANCH  66  67
ENDBRANCH  47  61
BRANCH  48  71
ATOM     71  C   UNL     1      14.448   3.463  -1.957  1.00  0.00    -0.014 A 
ATOM     72  C   UNL     1      15.173   2.786  -2.955  1.00  0.00     0.010 A 
ATOM     73  C   UNL     1      13.564   4.490  -2.336  1.00  0.00     0.010 A 
ATOM     74  C   UNL     1      15.021   3.132  -4.301  1.00  0.00     0.020 A 
ATOM     75  C   UNL     1      13.389   4.820  -3.684  1.00  0.00     0.020 A 
ATOM     76  C   UNL     1      14.125   4.143  -4.658  1.00  0.00     0.054 A 
BRANCH  76  77
ATOM     77  S   UNL     1      13.891   4.524  -6.417  1.00  0.00     0.124 S 
ATOM     78  O   UNL     1      15.138   5.205  -6.749  1.00  0.00    -0.237 OA
ATOM     79  O   UNL     1      13.717   3.198  -7.006  1.00  0.00    -0.237 OA
ATOM     80  O   UNL     1      12.695   5.364  -6.429  1.00  0.00    -0.744 OA
ENDBRANCH  76  77
ENDBRANCH  48  71
BRANCH  60  81
ATOM     81  C   UNL     1      19.568   3.801   2.777  1.00  0.00    -0.014 A 
ATOM     82  C   UNL     1      19.828   5.182   2.730  1.00  0.00     0.010 A 
ATOM     83  C   UNL     1      20.647   2.899   2.819  1.00  0.00     0.010 A 
ATOM     84  C   UNL     1      21.143   5.651   2.696  1.00  0.00     0.020 A 
ATOM     85  C   UNL     1      21.963   3.366   2.814  1.00  0.00     0.020 A 
ATOM     86  C   UNL     1      22.203   4.739   2.738  1.00  0.00     0.054 A 
BRANCH  86  87
ATOM     87  S   UNL     1      23.900   5.376   2.738  1.00  0.00     0.124 S 
ATOM     88  O   UNL     1      24.063   5.808   1.353  1.00  0.00    -0.237 OA
ATOM     89  O   UNL     1      23.840   6.448   3.729  1.00  0.00    -0.237 OA
ATOM     90  O   UNL     1      24.704   4.219   3.129  1.00  0.00    -0.744 OA
ENDBRANCH  86  87
ENDBRANCH  60  81
ENDBRANCH  34  35
ENDBRANCH  26  29
ENDBRANCH  24  25
ENDBRANCH  23  24
ENDBRANCH  22  23
ENDBRANCH  21  22
ENDBRANCH   3  21
TORSDOF 22
