REMARK SMILES Cc1ccc(S(=O)(=O)n2cc(C(=O)C(=O)N[C@H](Cc3c[nH]c4ccccc34)C(=O)NCC(=O)NCCCCNC(=O)c3ccc(-c4c5nc(c(-c6ccc(S(=O)(=O)[O-])cc6)c6ccc([nH]6)c(-c6ccc(S(=O)(=O)[O-])cc6)c6nc(c(-c7ccc(S(=O)(=O)[O-])cc7)c7ccc4[nH]7)C=C6)C=C5)cc3)c3ccccc32)cc1
REMARK SMILES IDX 32 1 33 2 34 3 31 5 30 6 28 7 29 8 17 10 16 11 14 12 15 13
REMARK SMILES IDX 12 15 13 16 11 17 9 18 10 19 107 20 102 21 106 22 103 23
REMARK SMILES IDX 105 24 104 25 6 26 7 27 8 28 5 29 1 30 2 31 3 32 109 33 4 34
REMARK SMILES IDX 108 35 18 36 19 37 20 38 27 39 21 40 22 41 26 42 23 44 25 45
REMARK SMILES IDX 24 46 35 47 36 48 37 49 38 50 39 51 40 52 41 54 42 55 43 56
REMARK SMILES IDX 101 57 44 58 100 59 45 60 46 61 47 62 94 63 48 64 99 65
REMARK SMILES IDX 93 66 95 67 49 68 98 69 92 70 91 71 50 73 80 74 61 75 79 76
REMARK SMILES IDX 62 77 65 78 78 79 96 80 63 81 64 82 77 84 97 85 66 86 51 87
REMARK SMILES IDX 52 88 60 89 53 90 59 91 54 92 55 93 56 94 57 95 58 96 81 97
REMARK SMILES IDX 82 98 90 99 83 100 89 101 84 102 85 103 86 104 87 105 88 106
REMARK SMILES IDX 67 107 68 108 76 109 69 110 75 111 70 112 71 113 72 114
REMARK SMILES IDX 73 115 74 116
REMARK H PARENT 34 4 30 9 16 14 21 43 39 53 95 72 65 83
REMARK Flexibility Score: inf
ROOT
ATOM      1  C   UNL     1     -13.115   4.799  -2.557  1.00  0.00     0.239 C 
ATOM      2  O   UNL     1     -14.007   5.641  -2.713  1.00  0.00    -0.273 OA
ATOM      3  N   UNL     1     -11.931   5.019  -3.196  1.00  0.00    -0.355 N 
ATOM      4  H   UNL     1     -11.949   5.748  -3.857  1.00  0.00     0.163 HD
ENDROOT
BRANCH   1   5
ATOM      5  C   UNL     1     -13.331   3.644  -1.567  1.00  0.00     0.216 C 
BRANCH   5   6
ATOM      6  N   UNL     1     -12.705   2.386  -1.895  1.00  0.00    -0.345 N 
ATOM      7  C   UNL     1     -11.983   1.485  -1.200  1.00  0.00     0.243 C 
ATOM      8  O   UNL     1     -11.870   0.398  -1.786  1.00  0.00    -0.273 OA
ATOM      9  H   UNL     1     -12.835   2.129  -2.837  1.00  0.00     0.164 HD
BRANCH   7  10
ATOM     10  C   UNL     1     -11.292   1.678   0.189  1.00  0.00     0.176 C 
BRANCH  10  11
ATOM     11  N   UNL     1     -12.045   2.323   1.320  1.00  0.00    -0.337 N 
ATOM     12  C   UNL     1     -12.134   3.612   1.834  1.00  0.00     0.293 C 
ATOM     13  O   UNL     1     -12.788   3.809   2.854  1.00  0.00    -0.265 OA
ATOM     14  H   UNL     1     -12.607   1.682   1.813  1.00  0.00     0.164 HD
BRANCH  12  15
ATOM     15  C   UNL     1     -11.466   4.784   1.113  1.00  0.00     0.252 C 
ATOM     16  O   UNL     1     -10.955   4.488   0.032  1.00  0.00    -0.283 OA
BRANCH  15  17
ATOM     17  C   UNL     1     -11.389   6.179   1.577  1.00  0.00     0.054 A 
ATOM     18  N   UNL     1     -11.496   8.212   2.553  1.00  0.00    -0.240 N 
ATOM     19  C   UNL     1     -11.887   6.863   2.687  1.00  0.00     0.117 A 
ATOM     20  C   UNL     1     -10.409   8.220   1.684  1.00  0.00     0.065 A 
ATOM     21  C   UNL     1     -10.700   7.177   0.814  1.00  0.00     0.012 A 
ATOM     22  C   UNL     1      -9.426   9.176   1.398  1.00  0.00     0.028 A 
ATOM     23  C   UNL     1     -10.244   7.265  -0.511  1.00  0.00     0.011 A 
ATOM     24  C   UNL     1      -8.922   9.187   0.090  1.00  0.00     0.002 A 
ATOM     25  C   UNL     1      -9.389   8.297  -0.875  1.00  0.00     0.001 A 
BRANCH  18  26
ATOM     26  S   UNL     1     -12.745   9.435   2.157  1.00  0.00     0.268 S 
ATOM     27  O   UNL     1     -13.930   8.665   1.821  1.00  0.00    -0.201 OA
ATOM     28  O   UNL     1     -12.128  10.322   1.185  1.00  0.00    -0.201 OA
BRANCH  26  29
ATOM     29  C   UNL     1     -13.169  10.453   3.549  1.00  0.00     0.088 A 
ATOM     30  C   UNL     1     -15.123  13.103   6.342  1.00  0.00     0.044 C 
ATOM     31  C   UNL     1     -14.429  12.167   5.394  1.00  0.00    -0.051 A 
ATOM     32  C   UNL     1     -13.848  12.688   4.237  1.00  0.00     0.005 A 
ATOM     33  C   UNL     1     -14.339  10.785   5.637  1.00  0.00     0.005 A 
ATOM     34  C   UNL     1     -13.225  11.840   3.323  1.00  0.00     0.022 A 
ATOM     35  C   UNL     1     -13.722   9.921   4.713  1.00  0.00     0.022 A 
ENDBRANCH  26  29
ENDBRANCH  18  26
ENDBRANCH  15  17
ENDBRANCH  12  15
ENDBRANCH  10  11
BRANCH  10  36
ATOM     36  C   UNL     1      -9.743   1.861   0.234  1.00  0.00     0.072 C 
BRANCH  36  37
ATOM     37  C   UNL     1      -8.888   1.613  -0.987  1.00  0.00    -0.020 A 
ATOM     38  C   UNL     1      -7.987   2.530  -1.515  1.00  0.00     0.087 A 
ATOM     39  C   UNL     1      -8.705   0.403  -1.748  1.00  0.00     0.003 A 
ATOM     40  N   UNL     1      -7.284   1.935  -2.531  1.00  0.00    -0.361 N 
ATOM     41  C   UNL     1      -7.776   0.671  -2.754  1.00  0.00     0.046 A 
ATOM     42  C   UNL     1      -9.228  -0.908  -1.688  1.00  0.00     0.010 A 
ATOM     43  H   UNL     1      -6.540   2.350  -3.026  1.00  0.00     0.166 HD
ATOM     44  C   UNL     1      -7.412  -0.252  -3.741  1.00  0.00     0.026 A 
ATOM     45  C   UNL     1      -8.875  -1.850  -2.666  1.00  0.00     0.001 A 
ATOM     46  C   UNL     1      -7.994  -1.518  -3.691  1.00  0.00     0.002 A 
ENDBRANCH  36  37
ENDBRANCH  10  36
ENDBRANCH   7  10
ENDBRANCH   5   6
ENDBRANCH   1   5
BRANCH   3  47
ATOM     47  C   UNL     1     -10.644   4.351  -3.061  1.00  0.00     0.116 C 
BRANCH  47  48
ATOM     48  C   UNL     1     -10.163   3.721  -4.371  1.00  0.00     0.023 C 
BRANCH  48  49
ATOM     49  C   UNL     1      -9.643   4.720  -5.410  1.00  0.00     0.023 C 
BRANCH  49  50
ATOM     50  C   UNL     1      -8.360   5.440  -5.024  1.00  0.00     0.116 C 
BRANCH  50  51
ATOM     51  N   UNL     1      -7.123   4.722  -5.287  1.00  0.00    -0.352 N 
ATOM     52  C   UNL     1      -6.040   5.479  -5.756  1.00  0.00     0.251 C 
ATOM     53  H   UNL     1      -7.049   3.751  -5.142  1.00  0.00     0.163 HD
ATOM     54  O   UNL     1      -5.928   5.927  -6.865  1.00  0.00    -0.269 OA
BRANCH  52  55
ATOM     55  C   UNL     1      -5.249   6.021  -4.623  1.00  0.00     0.039 A 
ATOM     56  C   UNL     1      -4.080   5.433  -4.144  1.00  0.00     0.014 A 
ATOM     57  C   UNL     1      -5.907   7.021  -3.908  1.00  0.00     0.014 A 
ATOM     58  C   UNL     1      -3.626   5.781  -2.866  1.00  0.00     0.010 A 
ATOM     59  C   UNL     1      -5.519   7.282  -2.620  1.00  0.00     0.010 A 
ATOM     60  C   UNL     1      -4.385   6.656  -2.089  1.00  0.00    -0.014 A 
BRANCH  60  61
ATOM     61  C   UNL     1      -4.163   6.992  -0.689  1.00  0.00     0.031 A 
ATOM     62  C   UNL     1      -3.794   8.380  -0.321  1.00  0.00     0.074 A 
ATOM     63  C   UNL     1      -4.648   6.147   0.245  1.00  0.00     0.049 A 
ATOM     64  N   UNL     1      -3.529   8.783   0.875  1.00  0.00    -0.248 NA
ATOM     65  C   UNL     1      -3.665   9.442  -1.317  1.00  0.00     0.031 C 
ATOM     66  C   UNL     1      -5.089   6.469   1.598  1.00  0.00     0.029 A 
ATOM     67  N   UNL     1      -4.663   4.764   0.214  1.00  0.00    -0.354 N 
ATOM     68  C   UNL     1      -3.546  10.161   0.859  1.00  0.00     0.074 A 
ATOM     69  C   UNL     1      -3.522  10.517  -0.539  1.00  0.00     0.031 C 
ATOM     70  C   UNL     1      -5.114   5.342   2.329  1.00  0.00     0.029 A 
ATOM     71  C   UNL     1      -4.509   4.294   1.523  1.00  0.00     0.049 A 
ATOM     72  H   UNL     1      -4.764   4.206  -0.591  1.00  0.00     0.167 HD
ATOM     73  C   UNL     1      -3.740  10.836   2.029  1.00  0.00     0.031 A 
ATOM     74  C   UNL     1      -3.371   3.619   1.881  1.00  0.00     0.031 A 
ATOM     75  C   UNL     1      -3.679   9.930   3.178  1.00  0.00     0.049 A 
ATOM     76  C   UNL     1      -2.517   4.356   2.898  1.00  0.00     0.074 A 
ATOM     77  C   UNL     1      -4.639   9.378   4.011  1.00  0.00     0.029 A 
ATOM     78  N   UNL     1      -2.502   9.227   3.417  1.00  0.00    -0.354 N 
ATOM     79  N   UNL     1      -2.658   5.619   3.200  1.00  0.00    -0.248 NA
ATOM     80  C   UNL     1      -1.431   3.732   3.651  1.00  0.00     0.031 C 
ATOM     81  C   UNL     1      -4.054   8.260   4.669  1.00  0.00     0.029 A 
ATOM     82  C   UNL     1      -2.734   8.161   4.265  1.00  0.00     0.049 A 
ATOM     83  H   UNL     1      -1.625   9.458   3.034  1.00  0.00     0.167 HD
ATOM     84  C   UNL     1      -1.729   5.985   4.137  1.00  0.00     0.074 A 
ATOM     85  C   UNL     1      -0.993   4.761   4.401  1.00  0.00     0.031 C 
ATOM     86  C   UNL     1      -1.640   7.262   4.614  1.00  0.00     0.031 A 
BRANCH  73  87
ATOM     87  C   UNL     1      -4.255  12.263   2.114  1.00  0.00    -0.014 A 
ATOM     88  C   UNL     1      -4.849  12.719   3.311  1.00  0.00     0.010 A 
ATOM     89  C   UNL     1      -4.265  13.179   1.045  1.00  0.00     0.010 A 
ATOM     90  C   UNL     1      -5.485  13.970   3.405  1.00  0.00     0.020 A 
ATOM     91  C   UNL     1      -4.910  14.424   1.115  1.00  0.00     0.020 A 
ATOM     92  C   UNL     1      -5.531  14.808   2.294  1.00  0.00     0.054 A 
BRANCH  92  93
ATOM     93  S   UNL     1      -6.408  16.389   2.402  1.00  0.00     0.124 S 
ATOM     94  O   UNL     1      -7.766  15.972   2.744  1.00  0.00    -0.237 OA
ATOM     95  O   UNL     1      -5.676  17.083   3.457  1.00  0.00    -0.237 OA
ATOM     96  O   UNL     1      -6.258  16.962   1.065  1.00  0.00    -0.744 OA
ENDBRANCH  92  93
ENDBRANCH  73  87
BRANCH  74  97
ATOM     97  C   UNL     1      -2.860   2.733   0.787  1.00  0.00    -0.014 A 
ATOM     98  C   UNL     1      -3.679   1.638   0.427  1.00  0.00     0.010 A 
ATOM     99  C   UNL     1      -1.939   3.228  -0.154  1.00  0.00     0.010 A 
ATOM    100  C   UNL     1      -3.747   1.210  -0.901  1.00  0.00     0.020 A 
ATOM    101  C   UNL     1      -1.989   2.781  -1.484  1.00  0.00     0.020 A 
ATOM    102  C   UNL     1      -2.960   1.847  -1.860  1.00  0.00     0.054 A 
BRANCH 102 103
ATOM    103  S   UNL     1      -3.417   1.633  -3.608  1.00  0.00     0.124 S 
ATOM    104  O   UNL     1      -3.402   0.184  -3.773  1.00  0.00    -0.237 OA
ATOM    105  O   UNL     1      -4.746   2.256  -3.648  1.00  0.00    -0.237 OA
ATOM    106  O   UNL     1      -2.377   2.359  -4.329  1.00  0.00    -0.744 OA
ENDBRANCH 102 103
ENDBRANCH  74  97
BRANCH  86 107
ATOM    107  C   UNL     1      -0.546   7.800   5.508  1.00  0.00    -0.014 A 
ATOM    108  C   UNL     1       0.750   7.268   5.579  1.00  0.00     0.010 A 
ATOM    109  C   UNL     1      -0.787   9.000   6.223  1.00  0.00     0.010 A 
ATOM    110  C   UNL     1       1.740   7.869   6.371  1.00  0.00     0.020 A 
ATOM    111  C   UNL     1       0.204   9.632   6.978  1.00  0.00     0.020 A 
ATOM    112  C   UNL     1       1.460   9.046   7.067  1.00  0.00     0.054 A 
BRANCH 112 113
ATOM    113  S   UNL     1       2.762   9.857   8.030  1.00  0.00     0.124 S 
ATOM    114  O   UNL     1       2.611   9.219   9.335  1.00  0.00    -0.237 OA
ATOM    115  O   UNL     1       3.978   9.508   7.300  1.00  0.00    -0.237 OA
ATOM    116  O   UNL     1       2.395  11.270   7.975  1.00  0.00    -0.744 OA
ENDBRANCH 112 113
ENDBRANCH  86 107
ENDBRANCH  60  61
ENDBRANCH  52  55
ENDBRANCH  50  51
ENDBRANCH  49  50
ENDBRANCH  48  49
ENDBRANCH  47  48
ENDBRANCH   3  47
TORSDOF 23
