REMARK SMILES COc1ccc2c(CC(=O)NCCCCNC(=O)c3ccc(-c4c5nc(c(-c6ccc(S(=O)(=O)[O-])cc6)c6ccc([nH]6)c(-c6ccc(S(=O)(=O)[O-])cc6)c6nc(c(-c7ccc(S(=O)(=O)[O-])cc7)c7ccc4[nH]7)C=C6)C=C5)cc3)c(C(=O)c3cc(C)ccn3)[nH]c2c1
REMARK SMILES IDX 13 1 12 2 11 3 9 4 10 5 8 7 7 8 3 9 4 10 91 11 5 12 90 13
REMARK SMILES IDX 6 14 89 15 79 16 2 18 1 19 80 20 81 21 82 22 83 23 88 24
REMARK SMILES IDX 84 25 87 26 85 27 86 28 14 29 15 30 16 31 17 32 18 34 19 35
REMARK SMILES IDX 20 36 78 37 21 38 77 39 22 40 23 41 24 42 71 43 25 44 76 45
REMARK SMILES IDX 70 46 72 47 26 48 75 49 69 50 68 51 27 53 57 54 38 55 56 56
REMARK SMILES IDX 39 57 42 58 55 59 73 60 40 61 41 62 54 64 74 65 43 66 28 67
REMARK SMILES IDX 29 68 37 69 30 70 36 71 31 72 32 73 33 74 34 75 35 76 58 77
REMARK SMILES IDX 59 78 67 79 60 80 66 81 61 82 62 83 63 84 64 85 65 86 44 87
REMARK SMILES IDX 45 88 53 89 46 90 52 91 47 92 48 93 49 94 50 95 51 96
REMARK H PARENT 11 6 89 17 16 33 72 52 42 63
REMARK Flexibility Score: inf
ROOT
ATOM      1  C   UNL     1       2.592   6.441  -2.245  1.00  0.00     0.023 C 
ENDROOT
BRANCH   1   2
ATOM      2  C   UNL     1       3.838   6.531  -1.365  1.00  0.00     0.116 C 
BRANCH   2   3
ATOM      3  N   UNL     1       3.913   7.769  -0.620  1.00  0.00    -0.356 N 
ATOM      4  C   UNL     1       3.671   8.008   0.704  1.00  0.00     0.224 C 
ATOM      5  O   UNL     1       4.006   9.111   1.144  1.00  0.00    -0.275 OA
ATOM      6  H   UNL     1       4.178   8.558  -1.145  1.00  0.00     0.163 HD
BRANCH   4   7
ATOM      7  C   UNL     1       3.142   6.915   1.628  1.00  0.00     0.138 C 
BRANCH   7   8
ATOM      8  C   UNL     1       1.841   6.289   1.200  1.00  0.00    -0.002 A 
ATOM      9  C   UNL     1       0.686   2.423  -0.040  1.00  0.00     0.120 A 
ATOM     10  C   UNL     1       2.003   2.542   0.399  1.00  0.00     0.047 A 
ATOM     11  C   UNL     1      -0.156   3.541  -0.061  1.00  0.00     0.073 A 
ATOM     12  C   UNL     1       2.497   3.775   0.847  1.00  0.00     0.014 A 
ATOM     13  C   UNL     1       0.349   4.760   0.407  1.00  0.00     0.050 A 
ATOM     14  C   UNL     1       1.657   4.908   0.856  1.00  0.00     0.004 A 
ATOM     15  N   UNL     1      -0.253   5.990   0.512  1.00  0.00    -0.351 N 
ATOM     16  C   UNL     1       0.593   6.909   1.098  1.00  0.00     0.093 A 
ATOM     17  H   UNL     1      -1.168   6.190   0.208  1.00  0.00     0.167 HD
BRANCH   9  18
ATOM     18  O   UNL     1       0.111   1.266  -0.499  1.00  0.00    -0.497 OA
ATOM     19  C   UNL     1       0.726   0.055  -0.072  1.00  0.00     0.278 C 
ENDBRANCH   9  18
BRANCH  16  20
ATOM     20  C   UNL     1       0.224   8.266   1.493  1.00  0.00     0.227 C 
ATOM     21  O   UNL     1       0.981   9.021   2.096  1.00  0.00    -0.285 OA
BRANCH  20  22
ATOM     22  C   UNL     1      -1.165   8.736   1.248  1.00  0.00     0.113 A 
ATOM     23  C   UNL     1      -2.218   8.174   1.965  1.00  0.00     0.036 A 
ATOM     24  N   UNL     1      -1.314   9.728   0.337  1.00  0.00    -0.253 NA
ATOM     25  C   UNL     1      -3.507   8.657   1.736  1.00  0.00    -0.047 A 
ATOM     26  C   UNL     1      -2.564  10.200   0.159  1.00  0.00     0.112 A 
ATOM     27  C   UNL     1      -4.688   8.101   2.474  1.00  0.00     0.044 C 
ATOM     28  C   UNL     1      -3.676   9.701   0.822  1.00  0.00     0.023 A 
ENDBRANCH  20  22
ENDBRANCH  16  20
ENDBRANCH   7   8
ENDBRANCH   4   7
ENDBRANCH   2   3
ENDBRANCH   1   2
BRANCH   1  29
ATOM     29  C   UNL     1       2.557   7.416  -3.423  1.00  0.00     0.023 C 
BRANCH  29  30
ATOM     30  C   UNL     1       3.726   7.314  -4.393  1.00  0.00     0.116 C 
BRANCH  30  31
ATOM     31  N   UNL     1       3.852   6.004  -5.016  1.00  0.00    -0.352 N 
ATOM     32  C   UNL     1       4.295   5.712  -6.285  1.00  0.00     0.251 C 
ATOM     33  H   UNL     1       3.588   5.234  -4.462  1.00  0.00     0.163 HD
ATOM     34  O   UNL     1       4.259   4.561  -6.712  1.00  0.00    -0.269 OA
BRANCH  32  35
ATOM     35  C   UNL     1       4.774   6.814  -7.145  1.00  0.00     0.039 A 
ATOM     36  C   UNL     1       4.204   6.986  -8.410  1.00  0.00     0.014 A 
ATOM     37  C   UNL     1       5.733   7.712  -6.671  1.00  0.00     0.014 A 
ATOM     38  C   UNL     1       4.538   8.110  -9.170  1.00  0.00     0.010 A 
ATOM     39  C   UNL     1       6.021   8.859  -7.404  1.00  0.00     0.010 A 
ATOM     40  C   UNL     1       5.417   9.075  -8.654  1.00  0.00    -0.014 A 
BRANCH  40  41
ATOM     41  C   UNL     1       5.725  10.331  -9.383  1.00  0.00     0.031 A 
ATOM     42  C   UNL     1       7.130  10.594  -9.848  1.00  0.00     0.074 A 
ATOM     43  C   UNL     1       4.776  11.276  -9.527  1.00  0.00     0.049 A 
ATOM     44  N   UNL     1       7.647  11.694 -10.330  1.00  0.00    -0.248 NA
ATOM     45  C   UNL     1       8.085   9.481  -9.723  1.00  0.00     0.031 C 
ATOM     46  C   UNL     1       3.381  11.153  -9.098  1.00  0.00     0.029 A 
ATOM     47  N   UNL     1       4.850  12.543 -10.052  1.00  0.00    -0.354 N 
ATOM     48  C   UNL     1       8.995  11.418 -10.532  1.00  0.00     0.074 A 
ATOM     49  C   UNL     1       9.219  10.056 -10.097  1.00  0.00     0.031 C 
ATOM     50  C   UNL     1       2.730  12.293  -9.383  1.00  0.00     0.029 A 
ATOM     51  C   UNL     1       3.669  13.244  -9.971  1.00  0.00     0.049 A 
ATOM     52  H   UNL     1       5.670  12.914 -10.450  1.00  0.00     0.167 HD
ATOM     53  C   UNL     1       9.957  12.225 -11.039  1.00  0.00     0.031 A 
ATOM     54  C   UNL     1       3.380  14.515 -10.311  1.00  0.00     0.031 A 
ATOM     55  C   UNL     1       9.726  13.570 -11.491  1.00  0.00     0.049 A 
ATOM     56  C   UNL     1       4.461  15.388 -10.885  1.00  0.00     0.074 A 
ATOM     57  C   UNL     1      10.628  14.454 -12.058  1.00  0.00     0.029 A 
ATOM     58  N   UNL     1       8.504  14.222 -11.437  1.00  0.00    -0.354 N 
ATOM     59  N   UNL     1       5.724  15.102 -11.095  1.00  0.00    -0.248 NA
ATOM     60  C   UNL     1       4.079  16.753 -11.276  1.00  0.00     0.031 C 
ATOM     61  C   UNL     1       9.956  15.652 -12.323  1.00  0.00     0.029 A 
ATOM     62  C   UNL     1       8.628  15.498 -11.958  1.00  0.00     0.049 A 
ATOM     63  H   UNL     1       7.672  13.835 -11.081  1.00  0.00     0.167 HD
ATOM     64  C   UNL     1       6.279  16.239 -11.671  1.00  0.00     0.074 A 
ATOM     65  C   UNL     1       5.216  17.217 -11.778  1.00  0.00     0.031 C 
ATOM     66  C   UNL     1       7.553  16.450 -12.079  1.00  0.00     0.031 A 
BRANCH  53  67
ATOM     67  C   UNL     1      11.352  11.669 -11.118  1.00  0.00    -0.014 A 
ATOM     68  C   UNL     1      11.688  10.686 -12.065  1.00  0.00     0.010 A 
ATOM     69  C   UNL     1      12.346  12.152 -10.248  1.00  0.00     0.010 A 
ATOM     70  C   UNL     1      12.981  10.160 -12.110  1.00  0.00     0.020 A 
ATOM     71  C   UNL     1      13.648  11.646 -10.306  1.00  0.00     0.020 A 
ATOM     72  C   UNL     1      13.951  10.638 -11.224  1.00  0.00     0.054 A 
BRANCH  72  73
ATOM     73  S   UNL     1      15.625   9.945 -11.305  1.00  0.00     0.124 S 
ATOM     74  O   UNL     1      15.451   8.662 -10.629  1.00  0.00    -0.237 OA
ATOM     75  O   UNL     1      15.875   9.867 -12.742  1.00  0.00    -0.237 OA
ATOM     76  O   UNL     1      16.440  10.923 -10.587  1.00  0.00    -0.744 OA
ENDBRANCH  72  73
ENDBRANCH  53  67
BRANCH  54  77
ATOM     77  C   UNL     1       1.998  15.035 -10.127  1.00  0.00    -0.014 A 
ATOM     78  C   UNL     1       1.161  15.228 -11.240  1.00  0.00     0.010 A 
ATOM     79  C   UNL     1       1.506  15.321  -8.841  1.00  0.00     0.010 A 
ATOM     80  C   UNL     1      -0.140  15.710 -11.072  1.00  0.00     0.020 A 
ATOM     81  C   UNL     1       0.197  15.782  -8.667  1.00  0.00     0.020 A 
ATOM     82  C   UNL     1      -0.615  15.983  -9.786  1.00  0.00     0.054 A 
BRANCH  82  83
ATOM     83  S   UNL     1      -2.327  16.550  -9.584  1.00  0.00     0.124 S 
ATOM     84  O   UNL     1      -2.229  17.954  -9.970  1.00  0.00    -0.237 OA
ATOM     85  O   UNL     1      -3.059  15.689 -10.510  1.00  0.00    -0.237 OA
ATOM     86  O   UNL     1      -2.602  16.305  -8.170  1.00  0.00    -0.744 OA
ENDBRANCH  82  83
ENDBRANCH  54  77
BRANCH  66  87
ATOM     87  C   UNL     1       7.868  17.765 -12.735  1.00  0.00    -0.014 A 
ATOM     88  C   UNL     1       8.040  18.936 -11.976  1.00  0.00     0.010 A 
ATOM     89  C   UNL     1       8.086  17.805 -14.124  1.00  0.00     0.010 A 
ATOM     90  C   UNL     1       8.416  20.129 -12.600  1.00  0.00     0.020 A 
ATOM     91  C   UNL     1       8.480  18.991 -14.747  1.00  0.00     0.020 A 
ATOM     92  C   UNL     1       8.636  20.148 -13.982  1.00  0.00     0.054 A 
BRANCH  92  93
ATOM     93  S   UNL     1       9.200  21.687 -14.759  1.00  0.00     0.124 S 
ATOM     94  O   UNL     1       7.967  22.466 -14.821  1.00  0.00    -0.237 OA
ATOM     95  O   UNL     1      10.205  22.176 -13.817  1.00  0.00    -0.237 OA
ATOM     96  O   UNL     1       9.728  21.250 -16.049  1.00  0.00    -0.744 OA
ENDBRANCH  92  93
ENDBRANCH  66  87
ENDBRANCH  40  41
ENDBRANCH  32  35
ENDBRANCH  30  31
ENDBRANCH  29  30
ENDBRANCH   1  29
TORSDOF 18
