REMARK SMILES COc1c(C)cc(Br)cc1C(=O)Nc1ccc(O)c(C(=O)NCCCCNC(=O)c2ccc(-c3c4nc(c(-c5ccc(S(=O)(=O)[O-])cc5)c5ccc([nH]5)c(-c5ccc(S(=O)(=O)[O-])cc5)c5nc(c(-c6ccc(S(=O)(=O)[O-])cc6)c6ccc3[nH]6)C=C5)C=C4)cc2)c1
REMARK SMILES IDX 24 1 23 2 22 3 20 4 21 5 19 7 14 8 15 9 90 10 16 11 17 12
REMARK SMILES IDX 13 13 11 14 12 15 10 17 3 18 4 19 5 20 6 21 9 22 7 23 8 24
REMARK SMILES IDX 2 25 1 26 18 27 25 29 26 30 27 31 28 32 29 34 30 35 31 36
REMARK SMILES IDX 89 37 32 38 88 39 33 40 34 41 35 42 82 43 36 44 87 45 81 46
REMARK SMILES IDX 83 47 37 48 86 49 80 50 79 51 38 53 68 54 49 55 67 56 50 57
REMARK SMILES IDX 53 58 66 59 84 60 51 61 52 62 65 64 85 65 54 66 39 67 40 68
REMARK SMILES IDX 48 69 41 70 47 71 42 72 43 73 44 74 45 75 46 76 69 77 70 78
REMARK SMILES IDX 78 79 71 80 77 81 72 82 73 83 74 84 75 85 76 86 55 87 56 88
REMARK SMILES IDX 64 89 57 90 63 91 58 92 59 93 60 94 61 95 62 96
REMARK H PARENT 22 6 13 16 18 28 27 33 83 52 53 63
REMARK Flexibility Score: inf
ROOT
ATOM      1  C   UNL     1       2.299  -1.111  -5.228  1.00  0.00     0.023 C 
ENDROOT
BRANCH   1   2
ATOM      2  C   UNL     1       2.413   0.273  -4.584  1.00  0.00     0.116 C 
BRANCH   2   3
ATOM      3  N   UNL     1       1.263   1.105  -4.868  1.00  0.00    -0.352 N 
ATOM      4  C   UNL     1       0.163   1.428  -4.114  1.00  0.00     0.255 C 
ATOM      5  O   UNL     1      -0.597   2.288  -4.571  1.00  0.00    -0.269 OA
ATOM      6  H   UNL     1       1.272   1.513  -5.764  1.00  0.00     0.163 HD
BRANCH   4   7
ATOM      7  C   UNL     1      -0.159   0.871  -2.768  1.00  0.00     0.083 A 
ATOM      8  C   UNL     1      -1.113   1.371  -0.581  1.00  0.00     0.042 A 
ATOM      9  C   UNL     1      -1.130   0.018  -0.264  1.00  0.00     0.030 A 
ATOM     10  C   UNL     1      -0.725   1.786  -1.857  1.00  0.00     0.043 A 
ATOM     11  C   UNL     1      -0.579  -0.897  -1.146  1.00  0.00     0.049 A 
ATOM     12  C   UNL     1      -0.043  -0.461  -2.359  1.00  0.00     0.128 A 
BRANCH   8  13
ATOM     13  N   UNL     1      -1.477   2.328   0.373  1.00  0.00    -0.322 N 
ATOM     14  C   UNL     1      -1.385   2.168   1.741  1.00  0.00     0.259 C 
ATOM     15  O   UNL     1      -2.384   2.268   2.452  1.00  0.00    -0.269 OA
ATOM     16  H   UNL     1      -1.828   3.186   0.041  1.00  0.00     0.170 HD
BRANCH  14  17
ATOM     17  C   UNL     1      -0.019   2.271   2.372  1.00  0.00     0.083 A 
ATOM     18  C   UNL     1       1.184   1.698   1.920  1.00  0.00     0.134 A 
ATOM     19  C   UNL     1       2.431   2.138   2.413  1.00  0.00    -0.007 A 
ATOM     20  C   UNL     1       3.727   1.695   1.789  1.00  0.00     0.048 C 
ATOM     21  C   UNL     1       2.457   2.983   3.524  1.00  0.00     0.023 A 
ATOM     22  C   UNL     1       0.041   3.115   3.494  1.00  0.00     0.033 A 
ATOM     23  C   UNL     1       1.265   3.434   4.081  1.00  0.00     0.019 A 
ATOM     24  Br  UNL     1       1.309   4.522   5.626  1.00  0.00    -0.051 Br
BRANCH  18  25
ATOM     25  O   UNL     1       1.199   0.643   1.048  1.00  0.00    -0.496 OA
ATOM     26  C   UNL     1       1.401  -0.584   1.766  1.00  0.00     0.278 C 
ENDBRANCH  18  25
ENDBRANCH  14  17
ENDBRANCH   8  13
BRANCH  12  27
ATOM     27  O   UNL     1       0.568  -1.422  -3.095  1.00  0.00    -0.507 OA
ATOM     28  H   UNL     1       0.616  -2.300  -2.772  1.00  0.00     0.293 HD
ENDBRANCH  12  27
ENDBRANCH   4   7
ENDBRANCH   2   3
ENDBRANCH   1   2
BRANCH   1  29
ATOM     29  C   UNL     1       2.623  -1.207  -6.711  1.00  0.00     0.023 C 
BRANCH  29  30
ATOM     30  C   UNL     1       4.049  -0.863  -7.093  1.00  0.00     0.116 C 
BRANCH  30  31
ATOM     31  N   UNL     1       5.061  -1.658  -6.407  1.00  0.00    -0.352 N 
ATOM     32  C   UNL     1       6.268  -2.094  -6.908  1.00  0.00     0.251 C 
ATOM     33  H   UNL     1       4.857  -1.913  -5.479  1.00  0.00     0.163 HD
ATOM     34  O   UNL     1       7.006  -2.809  -6.239  1.00  0.00    -0.269 OA
BRANCH  32  35
ATOM     35  C   UNL     1       6.622  -1.724  -8.293  1.00  0.00     0.039 A 
ATOM     36  C   UNL     1       6.907  -2.736  -9.212  1.00  0.00     0.014 A 
ATOM     37  C   UNL     1       6.535  -0.391  -8.703  1.00  0.00     0.014 A 
ATOM     38  C   UNL     1       7.009  -2.419 -10.568  1.00  0.00     0.010 A 
ATOM     39  C   UNL     1       6.552  -0.093 -10.059  1.00  0.00     0.010 A 
ATOM     40  C   UNL     1       6.780  -1.104 -11.006  1.00  0.00    -0.014 A 
BRANCH  40  41
ATOM     41  C   UNL     1       6.761  -0.756 -12.448  1.00  0.00     0.031 A 
ATOM     42  C   UNL     1       7.769   0.217 -12.993  1.00  0.00     0.074 A 
ATOM     43  C   UNL     1       5.785  -1.238 -13.243  1.00  0.00     0.049 A 
ATOM     44  N   UNL     1       7.857   0.728 -14.193  1.00  0.00    -0.248 NA
ATOM     45  C   UNL     1       8.793   0.706 -12.054  1.00  0.00     0.031 C 
ATOM     46  C   UNL     1       4.714  -2.146 -12.822  1.00  0.00     0.029 A 
ATOM     47  N   UNL     1       5.527  -1.020 -14.574  1.00  0.00    -0.354 N 
ATOM     48  C   UNL     1       8.923   1.618 -14.146  1.00  0.00     0.074 A 
ATOM     49  C   UNL     1       9.421   1.612 -12.788  1.00  0.00     0.031 C 
ATOM     50  C   UNL     1       3.932  -2.425 -13.878  1.00  0.00     0.029 A 
ATOM     51  C   UNL     1       4.421  -1.690 -15.040  1.00  0.00     0.049 A 
ATOM     52  H   UNL     1       6.083  -0.439 -15.141  1.00  0.00     0.167 HD
ATOM     53  C   UNL     1       9.454   2.359 -15.146  1.00  0.00     0.031 A 
ATOM     54  C   UNL     1       3.860  -1.708 -16.265  1.00  0.00     0.031 A 
ATOM     55  C   UNL     1       8.975   2.342 -16.501  1.00  0.00     0.049 A 
ATOM     56  C   UNL     1       4.485  -0.899 -17.369  1.00  0.00     0.074 A 
ATOM     57  C   UNL     1       9.485   3.006 -17.602  1.00  0.00     0.029 A 
ATOM     58  N   UNL     1       7.879   1.616 -16.942  1.00  0.00    -0.354 N 
ATOM     59  N   UNL     1       5.533  -0.112 -17.319  1.00  0.00    -0.248 NA
ATOM     60  C   UNL     1       3.859  -0.991 -18.696  1.00  0.00     0.031 C 
ATOM     61  C   UNL     1       8.675   2.709 -18.704  1.00  0.00     0.029 A 
ATOM     62  C   UNL     1       7.689   1.825 -18.296  1.00  0.00     0.049 A 
ATOM     63  H   UNL     1       7.319   1.038 -16.375  1.00  0.00     0.167 HD
ATOM     64  C   UNL     1       5.708   0.365 -18.613  1.00  0.00     0.074 A 
ATOM     65  C   UNL     1       4.665  -0.230 -19.424  1.00  0.00     0.031 C 
ATOM     66  C   UNL     1       6.649   1.218 -19.087  1.00  0.00     0.031 A 
BRANCH  53  67
ATOM     67  C   UNL     1      10.618   3.248 -14.803  1.00  0.00    -0.014 A 
ATOM     68  C   UNL     1      11.881   2.704 -14.506  1.00  0.00     0.010 A 
ATOM     69  C   UNL     1      10.452   4.644 -14.789  1.00  0.00     0.010 A 
ATOM     70  C   UNL     1      12.945   3.537 -14.154  1.00  0.00     0.020 A 
ATOM     71  C   UNL     1      11.522   5.483 -14.464  1.00  0.00     0.020 A 
ATOM     72  C   UNL     1      12.756   4.922 -14.129  1.00  0.00     0.054 A 
BRANCH  72  73
ATOM     73  S   UNL     1      14.156   5.983 -13.677  1.00  0.00     0.124 S 
ATOM     74  O   UNL     1      14.209   5.808 -12.227  1.00  0.00    -0.237 OA
ATOM     75  O   UNL     1      15.264   5.389 -14.421  1.00  0.00    -0.237 OA
ATOM     76  O   UNL     1      13.745   7.309 -14.130  1.00  0.00    -0.744 OA
ENDBRANCH  72  73
ENDBRANCH  53  67
BRANCH  54  77
ATOM     77  C   UNL     1       2.655  -2.543 -16.520  1.00  0.00    -0.014 A 
ATOM     78  C   UNL     1       2.761  -3.730 -17.266  1.00  0.00     0.010 A 
ATOM     79  C   UNL     1       1.401  -2.167 -16.006  1.00  0.00     0.010 A 
ATOM     80  C   UNL     1       1.633  -4.519 -17.508  1.00  0.00     0.020 A 
ATOM     81  C   UNL     1       0.275  -2.965 -16.227  1.00  0.00     0.020 A 
ATOM     82  C   UNL     1       0.396  -4.131 -16.986  1.00  0.00     0.054 A 
BRANCH  82  83
ATOM     83  S   UNL     1      -1.046  -5.198 -17.264  1.00  0.00     0.124 S 
ATOM     84  O   UNL     1      -1.383  -4.897 -18.651  1.00  0.00    -0.237 OA
ATOM     85  O   UNL     1      -0.505  -6.533 -17.018  1.00  0.00    -0.237 OA
ATOM     86  O   UNL     1      -2.010  -4.733 -16.269  1.00  0.00    -0.744 OA
ENDBRANCH  82  83
ENDBRANCH  54  77
BRANCH  66  87
ATOM     87  C   UNL     1       6.622   1.532 -20.558  1.00  0.00    -0.014 A 
ATOM     88  C   UNL     1       5.658   2.401 -21.097  1.00  0.00     0.010 A 
ATOM     89  C   UNL     1       7.617   1.000 -21.397  1.00  0.00     0.010 A 
ATOM     90  C   UNL     1       5.678   2.716 -22.458  1.00  0.00     0.020 A 
ATOM     91  C   UNL     1       7.653   1.330 -22.753  1.00  0.00     0.020 A 
ATOM     92  C   UNL     1       6.675   2.178 -23.278  1.00  0.00     0.054 A 
BRANCH  92  93
ATOM     93  S   UNL     1       6.715   2.644 -25.030  1.00  0.00     0.124 S 
ATOM     94  O   UNL     1       5.634   1.834 -25.584  1.00  0.00    -0.237 OA
ATOM     95  O   UNL     1       6.464   4.083 -24.987  1.00  0.00    -0.237 OA
ATOM     96  O   UNL     1       8.060   2.266 -25.458  1.00  0.00    -0.744 OA
ENDBRANCH  92  93
ENDBRANCH  66  87
ENDBRANCH  40  41
ENDBRANCH  32  35
ENDBRANCH  30  31
ENDBRANCH  29  30
ENDBRANCH   1  29
TORSDOF 18
