REMARK SMILES COCC[C@@]1(C(=O)NCCCCNC(=O)c2ccc(-c3c4nc(c(-c5ccc(S(=O)(=O)[O-])cc5)c5ccc([nH]5)c(-c5ccc(S(=O)(=O)[O-])cc5)c5nc(c(-c6ccc(S(=O)(=O)[O-])cc6)c6ccc3[nH]6)C=C5)C=C4)cc2)CCCN(C(=O)c2scc3c2OCCO3)C1
REMARK SMILES IDX 10 1 9 2 8 3 6 4 7 5 5 7 76 8 91 9 77 10 79 11 78 12 4 13
REMARK SMILES IDX 3 14 2 15 1 16 80 17 81 18 82 19 83 20 86 21 84 22 85 23
REMARK SMILES IDX 87 24 90 25 88 26 89 27 11 28 12 29 13 30 14 31 15 33 16 34
REMARK SMILES IDX 17 35 75 36 18 37 74 38 19 39 20 40 21 41 68 42 22 43 73 44
REMARK SMILES IDX 67 45 69 46 23 47 72 48 66 49 65 50 24 52 54 53 35 54 53 55
REMARK SMILES IDX 36 56 39 57 52 58 70 59 37 60 38 61 51 63 71 64 40 65 25 66
REMARK SMILES IDX 26 67 34 68 27 69 33 70 28 71 29 72 30 73 31 74 32 75 55 76
REMARK SMILES IDX 56 77 64 78 57 79 63 80 58 81 59 82 60 83 61 84 62 85 41 86
REMARK SMILES IDX 42 87 50 88 43 89 49 90 44 91 45 92 46 93 47 94 48 95
REMARK H PARENT 8 6 13 32 69 51 39 62
REMARK Flexibility Score: inf
ROOT
ATOM      1  C   UNL     1      -0.660  -4.677   3.563  1.00  0.00     0.023 C 
ENDROOT
BRANCH   1   2
ATOM      2  C   UNL     1      -1.195  -3.639   2.579  1.00  0.00     0.116 C 
BRANCH   2   3
ATOM      3  N   UNL     1      -0.586  -2.346   2.788  1.00  0.00    -0.356 N 
ATOM      4  C   UNL     1       0.496  -1.724   2.266  1.00  0.00     0.228 C 
ATOM      5  O   UNL     1       0.658  -0.573   2.683  1.00  0.00    -0.274 OA
ATOM      6  H   UNL     1      -1.061  -1.799   3.454  1.00  0.00     0.163 HD
BRANCH   4   7
ATOM      7  C   UNL     1       1.365  -2.278   1.113  1.00  0.00     0.069 C 
ATOM      8  C   UNL     1       1.753  -3.781   1.175  1.00  0.00     0.021 C 
ATOM      9  C   UNL     1       2.699  -1.482   1.085  1.00  0.00     0.136 C 
ATOM     10  C   UNL     1       2.778  -4.117   2.265  1.00  0.00     0.023 C 
ATOM     11  N   UNL     1       3.678  -1.882   2.103  1.00  0.00    -0.337 N 
ATOM     12  C   UNL     1       4.048  -3.286   2.112  1.00  0.00     0.120 C 
BRANCH   7  13
ATOM     13  C   UNL     1       0.560  -2.041  -0.210  1.00  0.00     0.047 C 
BRANCH  13  14
ATOM     14  C   UNL     1       0.238  -0.581  -0.571  1.00  0.00     0.161 C 
BRANCH  14  15
ATOM     15  O   UNL     1       0.801  -0.210  -1.834  1.00  0.00    -0.385 OA
ATOM     16  C   UNL     1       2.152   0.221  -1.756  1.00  0.00     0.194 C 
ENDBRANCH  14  15
ENDBRANCH  13  14
ENDBRANCH   7  13
BRANCH  11  17
ATOM     17  C   UNL     1       4.150  -0.920   3.003  1.00  0.00     0.267 C 
ATOM     18  O   UNL     1       3.520   0.117   3.201  1.00  0.00    -0.268 OA
BRANCH  17  19
ATOM     19  C   UNL     1       5.494  -1.045   3.532  1.00  0.00     0.138 A 
ATOM     20  S   UNL     1       6.750  -0.376   2.549  1.00  0.00    -0.131 S 
ATOM     21  C   UNL     1       5.983  -1.384   4.775  1.00  0.00     0.185 A 
ATOM     22  C   UNL     1       7.824  -0.271   3.877  1.00  0.00     0.116 A 
ATOM     23  C   UNL     1       7.291  -0.863   4.992  1.00  0.00     0.172 A 
ATOM     24  O   UNL     1       5.294  -2.058   5.729  1.00  0.00    -0.484 OA
ATOM     25  O   UNL     1       7.980  -0.930   6.157  1.00  0.00    -0.485 OA
ATOM     26  C   UNL     1       6.225  -2.581   6.704  1.00  0.00     0.271 C 
ATOM     27  C   UNL     1       7.183  -1.497   7.213  1.00  0.00     0.271 C 
ENDBRANCH  17  19
ENDBRANCH  11  17
ENDBRANCH   4   7
ENDBRANCH   2   3
ENDBRANCH   1   2
BRANCH   1  28
ATOM     28  C   UNL     1      -0.995  -4.395   5.029  1.00  0.00     0.023 C 
BRANCH  28  29
ATOM     29  C   UNL     1      -2.484  -4.330   5.331  1.00  0.00     0.116 C 
BRANCH  29  30
ATOM     30  N   UNL     1      -3.190  -5.529   4.901  1.00  0.00    -0.352 N 
ATOM     31  C   UNL     1      -4.176  -6.223   5.554  1.00  0.00     0.251 C 
ATOM     32  H   UNL     1      -2.923  -5.890   4.024  1.00  0.00     0.163 HD
ATOM     33  O   UNL     1      -4.554  -7.310   5.128  1.00  0.00    -0.269 OA
BRANCH  31  34
ATOM     34  C   UNL     1      -4.750  -5.655   6.788  1.00  0.00     0.039 A 
ATOM     35  C   UNL     1      -4.861  -6.466   7.918  1.00  0.00     0.014 A 
ATOM     36  C   UNL     1      -5.133  -4.312   6.833  1.00  0.00     0.014 A 
ATOM     37  C   UNL     1      -5.305  -5.910   9.117  1.00  0.00     0.010 A 
ATOM     38  C   UNL     1      -5.498  -3.743   8.046  1.00  0.00     0.010 A 
ATOM     39  C   UNL     1      -5.594  -4.537   9.198  1.00  0.00    -0.014 A 
BRANCH  39  40
ATOM     40  C   UNL     1      -6.000  -3.913  10.480  1.00  0.00     0.031 A 
ATOM     41  C   UNL     1      -7.362  -3.287  10.611  1.00  0.00     0.074 A 
ATOM     42  C   UNL     1      -5.118  -3.850  11.498  1.00  0.00     0.049 A 
ATOM     43  N   UNL     1      -7.878  -2.647  11.628  1.00  0.00    -0.248 NA
ATOM     44  C   UNL     1      -8.251  -3.364   9.439  1.00  0.00     0.031 C 
ATOM     45  C   UNL     1      -3.749  -4.371  11.467  1.00  0.00     0.029 A 
ATOM     46  N   UNL     1      -5.237  -3.308  12.753  1.00  0.00    -0.354 N 
ATOM     47  C   UNL     1      -9.134  -2.224  11.211  1.00  0.00     0.074 A 
ATOM     48  C   UNL     1      -9.289  -2.642   9.836  1.00  0.00     0.031 C 
ATOM     49  C   UNL     1      -3.163  -4.142  12.653  1.00  0.00     0.029 A 
ATOM     50  C   UNL     1      -4.096  -3.422  13.514  1.00  0.00     0.049 A 
ATOM     51  H   UNL     1      -6.060  -2.878  13.078  1.00  0.00     0.167 HD
ATOM     52  C   UNL     1     -10.080  -1.561  11.917  1.00  0.00     0.031 A 
ATOM     53  C   UNL     1      -3.827  -2.984  14.759  1.00  0.00     0.031 A 
ATOM     54  C   UNL     1      -9.927  -1.171  13.293  1.00  0.00     0.049 A 
ATOM     55  C   UNL     1      -4.904  -2.264  15.527  1.00  0.00     0.074 A 
ATOM     56  C   UNL     1     -10.859  -0.572  14.122  1.00  0.00     0.029 A 
ATOM     57  N   UNL     1      -8.771  -1.334  14.039  1.00  0.00    -0.354 N 
ATOM     58  N   UNL     1      -6.122  -1.961  15.147  1.00  0.00    -0.248 NA
ATOM     59  C   UNL     1      -4.575  -1.841  16.895  1.00  0.00     0.031 C 
ATOM     60  C   UNL     1     -10.245  -0.315  15.351  1.00  0.00     0.029 A 
ATOM     61  C   UNL     1      -8.954  -0.817  15.310  1.00  0.00     0.049 A 
ATOM     62  H   UNL     1      -7.942  -1.755  13.714  1.00  0.00     0.167 HD
ATOM     63  C   UNL     1      -6.714  -1.335  16.239  1.00  0.00     0.074 A 
ATOM     64  C   UNL     1      -5.726  -1.322  17.298  1.00  0.00     0.031 C 
ATOM     65  C   UNL     1      -7.961  -0.817  16.354  1.00  0.00     0.031 A 
BRANCH  52  66
ATOM     66  C   UNL     1     -11.365  -1.207  11.216  1.00  0.00    -0.014 A 
ATOM     67  C   UNL     1     -12.302  -2.195  10.863  1.00  0.00     0.010 A 
ATOM     68  C   UNL     1     -11.672   0.145  10.973  1.00  0.00     0.010 A 
ATOM     69  C   UNL     1     -13.509  -1.839  10.256  1.00  0.00     0.020 A 
ATOM     70  C   UNL     1     -12.891   0.506  10.393  1.00  0.00     0.020 A 
ATOM     71  C   UNL     1     -13.798  -0.490  10.029  1.00  0.00     0.054 A 
BRANCH  71  72
ATOM     72  S   UNL     1     -15.397  -0.057   9.291  1.00  0.00     0.124 S 
ATOM     73  O   UNL     1     -15.226  -0.512   7.913  1.00  0.00    -0.237 OA
ATOM     74  O   UNL     1     -16.339  -0.830  10.095  1.00  0.00    -0.237 OA
ATOM     75  O   UNL     1     -15.478   1.392   9.461  1.00  0.00    -0.744 OA
ENDBRANCH  71  72
ENDBRANCH  52  66
BRANCH  53  76
ATOM     76  C   UNL     1      -2.481  -3.209  15.357  1.00  0.00    -0.014 A 
ATOM     77  C   UNL     1      -2.310  -4.088  16.440  1.00  0.00     0.010 A 
ATOM     78  C   UNL     1      -1.358  -2.533  14.843  1.00  0.00     0.010 A 
ATOM     79  C   UNL     1      -1.049  -4.264  17.019  1.00  0.00     0.020 A 
ATOM     80  C   UNL     1      -0.091  -2.731  15.398  1.00  0.00     0.020 A 
ATOM     81  C   UNL     1       0.053  -3.583  16.494  1.00  0.00     0.054 A 
BRANCH  81  82
ATOM     82  S   UNL     1       1.685  -3.851  17.239  1.00  0.00     0.124 S 
ATOM     83  O   UNL     1       1.568  -3.121  18.497  1.00  0.00    -0.237 OA
ATOM     84  O   UNL     1       1.746  -5.306  17.353  1.00  0.00    -0.237 OA
ATOM     85  O   UNL     1       2.606  -3.272  16.262  1.00  0.00    -0.744 OA
ENDBRANCH  81  82
ENDBRANCH  53  76
BRANCH  65  86
ATOM     86  C   UNL     1      -8.349  -0.226  17.684  1.00  0.00    -0.014 A 
ATOM     87  C   UNL     1      -7.805   0.991  18.130  1.00  0.00     0.010 A 
ATOM     88  C   UNL     1      -9.322  -0.872  18.469  1.00  0.00     0.010 A 
ATOM     89  C   UNL     1      -8.203   1.534  19.354  1.00  0.00     0.020 A 
ATOM     90  C   UNL     1      -9.746  -0.316  19.677  1.00  0.00     0.020 A 
ATOM     91  C   UNL     1      -9.173   0.878  20.119  1.00  0.00     0.054 A 
BRANCH  91  92
ATOM     92  S   UNL     1      -9.706   1.627  21.682  1.00  0.00     0.124 S 
ATOM     93  O   UNL     1      -8.549   1.392  22.542  1.00  0.00    -0.237 OA
ATOM     94  O   UNL     1      -9.938   3.019  21.307  1.00  0.00    -0.237 OA
ATOM     95  O   UNL     1     -10.907   0.874  22.036  1.00  0.00    -0.744 OA
ENDBRANCH  91  92
ENDBRANCH  65  86
ENDBRANCH  39  40
ENDBRANCH  31  34
ENDBRANCH  29  30
ENDBRANCH  28  29
ENDBRANCH   1  28
TORSDOF 19
