REMARK SMILES COc1ccc(-c2cnc(N)c(C(=O)NCCCCNC(=O)c3ccc(-c4c5nc(c(-c6ccc(S(=O)(=O)[O-])cc6)c6ccc([nH]6)c(-c6ccc(S(=O)(=O)[O-])cc6)c6nc(c(-c7ccc(S(=O)(=O)[O-])cc7)c7ccc4[nH]7)C=C6)C=C5)cc3)c2)c(C)c1
REMARK SMILES IDX 18 1 17 2 16 3 15 4 13 5 14 6 12 8 7 9 8 10 83 11 9 12 10 13
REMARK SMILES IDX 6 14 3 15 4 16 86 17 5 18 84 19 85 20 2 21 1 22 11 23 19 26
REMARK SMILES IDX 20 27 21 28 22 30 23 31 24 32 82 33 25 34 81 35 26 36 27 37
REMARK SMILES IDX 28 38 75 39 29 40 80 41 74 42 76 43 30 44 79 45 73 46 72 47
REMARK SMILES IDX 31 49 61 50 42 51 60 52 43 53 46 54 59 55 77 56 44 57 45 58
REMARK SMILES IDX 58 60 78 61 47 62 32 63 33 64 41 65 34 66 40 67 35 68 36 69
REMARK SMILES IDX 37 70 38 71 39 72 62 73 63 74 71 75 64 76 70 77 65 78 66 79
REMARK SMILES IDX 67 80 68 81 69 82 48 83 49 84 57 85 50 86 56 87 51 88 52 89
REMARK SMILES IDX 53 90 54 91 55 92
REMARK H PARENT 15 7 11 24 11 25 20 29 76 48 46 59
REMARK Flexibility Score: inf
ROOT
ATOM      1  C   UNL     1       0.956 -14.293   0.594  1.00  0.00     0.023 C 
ENDROOT
BRANCH   1   2
ATOM      2  C   UNL     1       0.794 -12.690   0.924  1.00  0.00     0.023 C 
BRANCH   2   3
ATOM      3  C   UNL     1       1.499 -11.475   0.226  1.00  0.00     0.116 C 
BRANCH   3   4
ATOM      4  N   UNL     1       0.862 -10.757  -0.897  1.00  0.00    -0.352 N 
ATOM      5  C   UNL     1       1.098  -9.466  -1.369  1.00  0.00     0.255 C 
ATOM      6  O   UNL     1       0.604  -9.075  -2.429  1.00  0.00    -0.269 OA
ATOM      7  H   UNL     1       0.171 -11.263  -1.382  1.00  0.00     0.163 HD
BRANCH   5   8
ATOM      8  C   UNL     1       1.847  -8.457  -0.569  1.00  0.00     0.082 A 
ATOM      9  C   UNL     1       1.849  -6.240   0.456  1.00  0.00     0.001 A 
ATOM     10  C   UNL     1       2.975  -6.678   1.150  1.00  0.00     0.122 A 
ATOM     11  C   UNL     1       1.278  -7.176  -0.416  1.00  0.00     0.028 A 
ATOM     12  N   UNL     1       3.627  -7.835   0.916  1.00  0.00    -0.238 NA
ATOM     13  C   UNL     1       3.101  -8.670  -0.004  1.00  0.00     0.136 A 
BRANCH   9  14
ATOM     14  C   UNL     1       1.382  -4.848   0.610  1.00  0.00    -0.014 A 
ATOM     15  C   UNL     1       0.710  -2.101   0.859  1.00  0.00     0.119 A 
ATOM     16  C   UNL     1       2.015  -2.467   0.565  1.00  0.00     0.047 A 
ATOM     17  C   UNL     1      -0.248  -3.094   1.066  1.00  0.00     0.050 A 
ATOM     18  C   UNL     1       2.337  -3.819   0.433  1.00  0.00     0.013 A 
ATOM     19  C   UNL     1       0.066  -4.467   0.946  1.00  0.00    -0.040 A 
ATOM     20  C   UNL     1      -1.055  -5.445   1.172  1.00  0.00     0.045 C 
BRANCH  15  21
ATOM     21  O   UNL     1       0.294  -0.806   1.014  1.00  0.00    -0.497 OA
ATOM     22  C   UNL     1       0.863   0.100   0.070  1.00  0.00     0.278 C 
ENDBRANCH  15  21
ENDBRANCH   9  14
BRANCH  13  23
ATOM     23  N   UNL     1       3.930  -9.720  -0.321  1.00  0.00    -0.383 N 
ATOM     24  H   UNL     1       4.806  -9.806   0.120  1.00  0.00     0.158 HD
ATOM     25  H   UNL     1       3.648 -10.386  -0.989  1.00  0.00     0.158 HD
ENDBRANCH  13  23
ENDBRANCH   5   8
ENDBRANCH   3   4
ENDBRANCH   2   3
ENDBRANCH   1   2
BRANCH   1  26
ATOM     26  C   UNL     1       2.396 -15.007   0.545  1.00  0.00     0.116 C 
BRANCH  26  27
ATOM     27  N   UNL     1       2.737 -16.564   0.140  1.00  0.00    -0.352 N 
ATOM     28  C   UNL     1       3.314 -17.532  -0.801  1.00  0.00     0.251 C 
ATOM     29  H   UNL     1       2.386 -17.106   0.883  1.00  0.00     0.163 HD
ATOM     30  O   UNL     1       3.763 -18.534  -0.204  1.00  0.00    -0.269 OA
BRANCH  28  31
ATOM     31  C   UNL     1       3.633 -17.602  -2.366  1.00  0.00     0.039 A 
ATOM     32  C   UNL     1       4.945 -17.868  -2.868  1.00  0.00     0.014 A 
ATOM     33  C   UNL     1       2.734 -17.369  -3.388  1.00  0.00     0.014 A 
ATOM     34  C   UNL     1       5.411 -17.210  -4.059  1.00  0.00     0.010 A 
ATOM     35  C   UNL     1       3.177 -16.736  -4.578  1.00  0.00     0.010 A 
ATOM     36  C   UNL     1       4.524 -16.437  -4.806  1.00  0.00    -0.014 A 
BRANCH  36  37
ATOM     37  C   UNL     1       4.904 -15.287  -5.702  1.00  0.00     0.031 A 
ATOM     38  C   UNL     1       4.867 -15.432  -7.150  1.00  0.00     0.074 A 
ATOM     39  C   UNL     1       5.192 -14.008  -5.330  1.00  0.00     0.049 A 
ATOM     40  N   UNL     1       5.867 -15.216  -7.938  1.00  0.00    -0.248 NA
ATOM     41  C   UNL     1       3.622 -15.769  -7.822  1.00  0.00     0.031 C 
ATOM     42  C   UNL     1       5.489 -12.773  -6.078  1.00  0.00     0.029 A 
ATOM     43  N   UNL     1       5.275 -13.530  -4.044  1.00  0.00    -0.354 N 
ATOM     44  C   UNL     1       5.306 -15.055  -9.186  1.00  0.00     0.074 A 
ATOM     45  C   UNL     1       3.980 -15.629  -9.100  1.00  0.00     0.031 C 
ATOM     46  C   UNL     1       6.083 -11.878  -5.254  1.00  0.00     0.029 A 
ATOM     47  C   UNL     1       6.204 -12.497  -3.951  1.00  0.00     0.049 A 
ATOM     48  H   UNL     1       4.747 -13.874  -3.288  1.00  0.00     0.167 HD
ATOM     49  C   UNL     1       5.827 -14.178 -10.092  1.00  0.00     0.031 A 
ATOM     50  C   UNL     1       7.317 -12.707  -3.182  1.00  0.00     0.031 A 
ATOM     51  C   UNL     1       6.845 -13.309  -9.489  1.00  0.00     0.049 A 
ATOM     52  C   UNL     1       8.517 -12.920  -4.062  1.00  0.00     0.074 A 
ATOM     53  C   UNL     1       6.835 -11.960  -9.160  1.00  0.00     0.029 A 
ATOM     54  N   UNL     1       7.941 -13.855  -8.833  1.00  0.00    -0.354 N 
ATOM     55  N   UNL     1       8.417 -13.045  -5.354  1.00  0.00    -0.248 NA
ATOM     56  C   UNL     1       9.903 -12.980  -3.617  1.00  0.00     0.031 C 
ATOM     57  C   UNL     1       7.901 -11.714  -8.256  1.00  0.00     0.029 A 
ATOM     58  C   UNL     1       8.575 -12.905  -8.052  1.00  0.00     0.049 A 
ATOM     59  H   UNL     1       8.229 -14.793  -8.913  1.00  0.00     0.167 HD
ATOM     60  C   UNL     1       9.644 -13.157  -5.926  1.00  0.00     0.074 A 
ATOM     61  C   UNL     1      10.552 -13.117  -4.792  1.00  0.00     0.031 C 
ATOM     62  C   UNL     1       9.769 -13.250  -7.283  1.00  0.00     0.031 A 
BRANCH  49  63
ATOM     63  C   UNL     1       5.155 -13.878 -11.418  1.00  0.00    -0.014 A 
ATOM     64  C   UNL     1       5.389 -12.654 -12.075  1.00  0.00     0.010 A 
ATOM     65  C   UNL     1       4.318 -14.793 -12.091  1.00  0.00     0.010 A 
ATOM     66  C   UNL     1       4.770 -12.329 -13.290  1.00  0.00     0.020 A 
ATOM     67  C   UNL     1       3.658 -14.467 -13.287  1.00  0.00     0.020 A 
ATOM     68  C   UNL     1       3.895 -13.234 -13.884  1.00  0.00     0.054 A 
BRANCH  68  69
ATOM     69  S   UNL     1       3.134 -12.803 -15.469  1.00  0.00     0.124 S 
ATOM     70  O   UNL     1       2.422 -11.567 -15.155  1.00  0.00    -0.237 OA
ATOM     71  O   UNL     1       4.295 -12.654 -16.342  1.00  0.00    -0.237 OA
ATOM     72  O   UNL     1       2.277 -13.949 -15.769  1.00  0.00    -0.744 OA
ENDBRANCH  68  69
ENDBRANCH  49  63
BRANCH  50  73
ATOM     73  C   UNL     1       6.998 -13.372  -1.845  1.00  0.00    -0.014 A 
ATOM     74  C   UNL     1       6.111 -12.602  -1.074  1.00  0.00     0.010 A 
ATOM     75  C   UNL     1       6.705 -14.729  -1.857  1.00  0.00     0.010 A 
ATOM     76  C   UNL     1       4.751 -12.938  -1.110  1.00  0.00     0.020 A 
ATOM     77  C   UNL     1       5.350 -15.099  -1.688  1.00  0.00     0.020 A 
ATOM     78  C   UNL     1       4.338 -14.153  -1.613  1.00  0.00     0.054 A 
BRANCH  78  79
ATOM     79  S   UNL     1       2.531 -14.182  -2.455  1.00  0.00     0.124 S 
ATOM     80  O   UNL     1       1.905 -13.004  -1.889  1.00  0.00    -0.237 OA
ATOM     81  O   UNL     1       2.764 -14.028  -3.866  1.00  0.00    -0.237 OA
ATOM     82  O   UNL     1       1.841 -15.401  -2.046  1.00  0.00    -0.744 OA
ENDBRANCH  78  79
ENDBRANCH  50  73
BRANCH  62  83
ATOM     83  C   UNL     1      11.024 -13.563  -8.056  1.00  0.00    -0.014 A 
ATOM     84  C   UNL     1      12.211 -14.042  -7.491  1.00  0.00     0.010 A 
ATOM     85  C   UNL     1      10.989 -13.453  -9.471  1.00  0.00     0.010 A 
ATOM     86  C   UNL     1      13.325 -14.332  -8.288  1.00  0.00     0.020 A 
ATOM     87  C   UNL     1      12.071 -13.795 -10.279  1.00  0.00     0.020 A 
ATOM     88  C   UNL     1      13.248 -14.204  -9.676  1.00  0.00     0.054 A 
BRANCH  88  89
ATOM     89  S   UNL     1      14.691 -14.611 -10.681  1.00  0.00     0.124 S 
ATOM     90  O   UNL     1      15.544 -13.445 -10.466  1.00  0.00    -0.237 OA
ATOM     91  O   UNL     1      15.164 -15.853 -10.073  1.00  0.00    -0.237 OA
ATOM     92  O   UNL     1      14.151 -14.751 -12.030  1.00  0.00    -0.744 OA
ENDBRANCH  88  89
ENDBRANCH  62  83
ENDBRANCH  36  37
ENDBRANCH  28  31
ENDBRANCH  26  27
ENDBRANCH   1  26
TORSDOF 17
