REMARK SMILES CC(C)[C@H](Sc1ccncc1)C(=O)NCCCCNC(=O)c1ccc(-c2c3nc(c(-c4ccc(S(=O)(=O)[O-])cc4)c4ccc([nH]4)c(-c4ccc(S(=O)(=O)[O-])cc4)c4nc(c(-c5ccc(S(=O)(=O)[O-])cc5)c5ccc2[nH]5)C=C4)C=C3)cc1
REMARK SMILES IDX 17 1 16 2 15 3 14 4 12 5 13 6 4 8 2 9 1 10 3 11 5 12 6 13
REMARK SMILES IDX 7 14 11 15 8 16 10 17 9 18 18 19 19 20 20 21 21 23 22 24
REMARK SMILES IDX 23 25 81 26 24 27 80 28 25 29 26 30 27 31 74 32 28 33 79 34
REMARK SMILES IDX 73 35 75 36 29 37 78 38 72 39 71 40 30 42 60 43 41 44 59 45
REMARK SMILES IDX 42 46 45 47 58 48 76 49 43 50 44 51 57 53 77 54 46 55 31 56
REMARK SMILES IDX 32 57 40 58 33 59 39 60 34 61 35 62 36 63 37 64 38 65 61 66
REMARK SMILES IDX 62 67 70 68 63 69 69 70 64 71 65 72 66 73 67 74 68 75 47 76
REMARK SMILES IDX 48 77 56 78 49 79 55 80 50 81 51 82 52 83 53 84 54 85
REMARK H PARENT 14 7 19 22 75 41 45 52
REMARK Flexibility Score: inf
ROOT
ATOM      1  C   UNL     1       0.712   6.215  -1.423  1.00  0.00     0.023 C 
ENDROOT
BRANCH   1   2
ATOM      2  C   UNL     1       1.102   4.856  -0.846  1.00  0.00     0.023 C 
BRANCH   2   3
ATOM      3  C   UNL     1      -0.047   4.056  -0.245  1.00  0.00     0.116 C 
BRANCH   3   4
ATOM      4  N   UNL     1      -0.994   3.577  -1.233  1.00  0.00    -0.355 N 
ATOM      5  C   UNL     1      -1.499   2.329  -1.454  1.00  0.00     0.233 C 
ATOM      6  O   UNL     1      -2.348   2.221  -2.348  1.00  0.00    -0.274 OA
ATOM      7  H   UNL     1      -1.329   4.269  -1.847  1.00  0.00     0.163 HD
BRANCH   5   8
ATOM      8  C   UNL     1      -1.105   1.090  -0.619  1.00  0.00     0.143 C 
BRANCH   8   9
ATOM      9  C   UNL     1      -1.764   1.042   0.789  1.00  0.00     0.006 C 
ATOM     10  C   UNL     1      -1.133   1.869   1.904  1.00  0.00     0.009 C 
ATOM     11  C   UNL     1      -3.268   1.355   0.713  1.00  0.00     0.009 C 
ENDBRANCH   8   9
BRANCH   8  12
ATOM     12  S   UNL     1       0.722   0.838  -0.823  1.00  0.00    -0.112 SA
BRANCH  12  13
ATOM     13  C   UNL     1       1.156  -0.640   0.060  1.00  0.00     0.011 A 
ATOM     14  C   UNL     1       0.290  -1.674   0.392  1.00  0.00     0.035 A 
ATOM     15  C   UNL     1       2.506  -0.772   0.399  1.00  0.00     0.035 A 
ATOM     16  C   UNL     1       0.794  -2.756   1.101  1.00  0.00     0.112 A 
ATOM     17  C   UNL     1       2.921  -1.899   1.087  1.00  0.00     0.112 A 
ATOM     18  N   UNL     1       2.088  -2.890   1.460  1.00  0.00    -0.265 NA
ENDBRANCH  12  13
ENDBRANCH   8  12
ENDBRANCH   5   8
ENDBRANCH   3   4
ENDBRANCH   2   3
ENDBRANCH   1   2
BRANCH   1  19
ATOM     19  C   UNL     1      -0.122   7.106  -0.507  1.00  0.00     0.116 C 
BRANCH  19  20
ATOM     20  N   UNL     1       0.493   7.345   0.793  1.00  0.00    -0.352 N 
ATOM     21  C   UNL     1       0.753   8.538   1.427  1.00  0.00     0.251 C 
ATOM     22  H   UNL     1       0.761   6.537   1.288  1.00  0.00     0.163 HD
ATOM     23  O   UNL     1       1.362   8.556   2.491  1.00  0.00    -0.269 OA
BRANCH  21  24
ATOM     24  C   UNL     1       0.332   9.799   0.785  1.00  0.00     0.039 A 
ATOM     25  C   UNL     1       1.290  10.788   0.551  1.00  0.00     0.014 A 
ATOM     26  C   UNL     1      -0.982   9.961   0.340  1.00  0.00     0.014 A 
ATOM     27  C   UNL     1       0.957  11.893  -0.234  1.00  0.00     0.010 A 
ATOM     28  C   UNL     1      -1.292  11.028  -0.497  1.00  0.00     0.010 A 
ATOM     29  C   UNL     1      -0.318  11.987  -0.815  1.00  0.00    -0.014 A 
BRANCH  29  30
ATOM     30  C   UNL     1      -0.639  13.036  -1.815  1.00  0.00     0.031 A 
ATOM     31  C   UNL     1      -1.703  14.056  -1.529  1.00  0.00     0.074 A 
ATOM     32  C   UNL     1      -0.041  13.003  -3.023  1.00  0.00     0.049 A 
ATOM     33  N   UNL     1      -2.202  14.968  -2.322  1.00  0.00    -0.248 NA
ATOM     34  C   UNL     1      -2.299  14.031  -0.184  1.00  0.00     0.031 C 
ATOM     35  C   UNL     1       0.984  12.041  -3.438  1.00  0.00     0.029 A 
ATOM     36  N   UNL     1      -0.221  13.791  -4.133  1.00  0.00    -0.354 N 
ATOM     37  C   UNL     1      -3.183  15.615  -1.581  1.00  0.00     0.074 A 
ATOM     38  C   UNL     1      -3.235  14.964  -0.289  1.00  0.00     0.031 C 
ATOM     39  C   UNL     1       1.356  12.309  -4.700  1.00  0.00     0.029 A 
ATOM     40  C   UNL     1       0.564  13.427  -5.202  1.00  0.00     0.049 A 
ATOM     41  H   UNL     1      -0.853  14.545  -4.161  1.00  0.00     0.167 HD
ATOM     42  C   UNL     1      -3.961  16.664  -1.939  1.00  0.00     0.031 A 
ATOM     43  C   UNL     1       0.628  13.922  -6.453  1.00  0.00     0.031 A 
ATOM     44  C   UNL     1      -3.904  17.312  -3.222  1.00  0.00     0.049 A 
ATOM     45  C   UNL     1      -0.275  15.057  -6.841  1.00  0.00     0.074 A 
ATOM     46  C   UNL     1      -4.605  18.424  -3.656  1.00  0.00     0.029 A 
ATOM     47  N   UNL     1      -3.109  16.902  -4.281  1.00  0.00    -0.354 N 
ATOM     48  N   UNL     1      -1.155  15.695  -6.107  1.00  0.00    -0.248 NA
ATOM     49  C   UNL     1      -0.184  15.534  -8.228  1.00  0.00     0.031 C 
ATOM     50  C   UNL     1      -4.268  18.657  -4.994  1.00  0.00     0.029 A 
ATOM     51  C   UNL     1      -3.326  17.716  -5.379  1.00  0.00     0.049 A 
ATOM     52  H   UNL     1      -2.482  16.143  -4.255  1.00  0.00     0.167 HD
ATOM     53  C   UNL     1      -1.716  16.656  -6.939  1.00  0.00     0.074 A 
ATOM     54  C   UNL     1      -1.066  16.526  -8.228  1.00  0.00     0.031 C 
ATOM     55  C   UNL     1      -2.683  17.563  -6.660  1.00  0.00     0.031 A 
BRANCH  42  56
ATOM     56  C   UNL     1      -4.949  17.164  -0.921  1.00  0.00    -0.014 A 
ATOM     57  C   UNL     1      -4.519  17.859   0.223  1.00  0.00     0.010 A 
ATOM     58  C   UNL     1      -6.325  16.944  -1.114  1.00  0.00     0.010 A 
ATOM     59  C   UNL     1      -5.442  18.278   1.184  1.00  0.00     0.020 A 
ATOM     60  C   UNL     1      -7.254  17.384  -0.167  1.00  0.00     0.020 A 
ATOM     61  C   UNL     1      -6.804  18.028   0.988  1.00  0.00     0.054 A 
BRANCH  61  62
ATOM     62  S   UNL     1      -7.982  18.573   2.254  1.00  0.00     0.124 S 
ATOM     63  O   UNL     1      -7.791  17.565   3.294  1.00  0.00    -0.237 OA
ATOM     64  O   UNL     1      -7.504  19.913   2.585  1.00  0.00    -0.237 OA
ATOM     65  O   UNL     1      -9.271  18.527   1.570  1.00  0.00    -0.744 OA
ENDBRANCH  61  62
ENDBRANCH  42  56
BRANCH  43  66
ATOM     66  C   UNL     1       1.588  13.340  -7.428  1.00  0.00    -0.014 A 
ATOM     67  C   UNL     1       2.754  14.043  -7.776  1.00  0.00     0.010 A 
ATOM     68  C   UNL     1       1.361  12.067  -7.983  1.00  0.00     0.010 A 
ATOM     69  C   UNL     1       3.677  13.484  -8.664  1.00  0.00     0.020 A 
ATOM     70  C   UNL     1       2.293  11.496  -8.855  1.00  0.00     0.020 A 
ATOM     71  C   UNL     1       3.443  12.212  -9.195  1.00  0.00     0.054 A 
BRANCH  71  72
ATOM     72  S   UNL     1       4.693  11.474 -10.284  1.00  0.00     0.124 S 
ATOM     73  O   UNL     1       4.468  12.192 -11.534  1.00  0.00    -0.237 OA
ATOM     74  O   UNL     1       5.941  11.785  -9.591  1.00  0.00    -0.237 OA
ATOM     75  O   UNL     1       4.336  10.057 -10.300  1.00  0.00    -0.744 OA
ENDBRANCH  71  72
ENDBRANCH  43  66
BRANCH  55  76
ATOM     76  C   UNL     1      -3.102  18.490  -7.767  1.00  0.00    -0.014 A 
ATOM     77  C   UNL     1      -3.937  18.038  -8.804  1.00  0.00     0.010 A 
ATOM     78  C   UNL     1      -2.718  19.842  -7.732  1.00  0.00     0.010 A 
ATOM     79  C   UNL     1      -4.372  18.922  -9.794  1.00  0.00     0.020 A 
ATOM     80  C   UNL     1      -3.168  20.733  -8.709  1.00  0.00     0.020 A 
ATOM     81  C   UNL     1      -3.987  20.265  -9.739  1.00  0.00     0.054 A 
BRANCH  81  82
ATOM     82  S   UNL     1      -4.623  21.408 -10.996  1.00  0.00     0.124 S 
ATOM     83  O   UNL     1      -3.813  21.060 -12.160  1.00  0.00    -0.237 OA
ATOM     84  O   UNL     1      -6.035  21.042 -11.081  1.00  0.00    -0.237 OA
ATOM     85  O   UNL     1      -4.362  22.728 -10.427  1.00  0.00    -0.744 OA
ENDBRANCH  81  82
ENDBRANCH  55  76
ENDBRANCH  29  30
ENDBRANCH  21  24
ENDBRANCH  19  20
ENDBRANCH   1  19
TORSDOF 17
