REMARK SMILES CC(C)Oc1ccc([C@H](O)[C@H](F)C(=O)NCCCCNC(=O)c2ccc(-c3c4nc(c(-c5ccc(S(=O)(=O)[O-])cc5)c5ccc([nH]5)c(-c5ccc(S(=O)(=O)[O-])cc5)c5nc(c(-c6ccc(S(=O)(=O)[O-])cc6)c6ccc3[nH]6)C=C5)C=C4)cc2)cc1
REMARK SMILES IDX 17 1 16 2 15 3 13 4 14 5 11 7 12 8 9 9 8 10 5 11 6 12 84 13
REMARK SMILES IDX 7 14 83 15 4 16 2 17 1 18 3 19 10 20 18 22 19 23 20 24 21 25
REMARK SMILES IDX 22 27 23 28 24 29 82 30 25 31 81 32 26 33 27 34 28 35 75 36
REMARK SMILES IDX 29 37 80 38 74 39 76 40 30 41 79 42 73 43 72 44 31 46 61 47
REMARK SMILES IDX 42 48 60 49 43 50 46 51 59 52 77 53 44 54 45 55 58 57 78 58
REMARK SMILES IDX 47 59 32 60 33 61 41 62 34 63 40 64 35 65 36 66 37 67 38 68
REMARK SMILES IDX 39 69 62 70 63 71 71 72 64 73 70 74 65 75 66 76 67 77 68 78
REMARK SMILES IDX 69 79 48 80 49 81 57 82 50 83 56 84 51 85 52 86 53 87 54 88
REMARK SMILES IDX 55 89
REMARK H PARENT 15 6 10 21 20 26 76 45 46 56
REMARK Flexibility Score: inf
ROOT
ATOM      1  C   UNL     1      -4.339   3.087   6.318  1.00  0.00     0.023 C 
ENDROOT
BRANCH   1   2
ATOM      2  C   UNL     1      -3.721   1.696   6.275  1.00  0.00     0.116 C 
BRANCH   2   3
ATOM      3  N   UNL     1      -4.658   0.629   6.580  1.00  0.00    -0.353 N 
ATOM      4  C   UNL     1      -4.662  -0.661   6.130  1.00  0.00     0.257 C 
ATOM      5  O   UNL     1      -5.399  -1.466   6.711  1.00  0.00    -0.272 OA
ATOM      6  H   UNL     1      -5.390   0.868   7.194  1.00  0.00     0.163 HD
BRANCH   4   7
ATOM      7  C   UNL     1      -3.779  -1.134   4.980  1.00  0.00     0.288 C 
ATOM      8  F   UNL     1      -3.439  -0.163   4.084  1.00  0.00    -0.234 F 
BRANCH   7   9
ATOM      9  C   UNL     1      -2.533  -1.899   5.473  1.00  0.00     0.188 C 
BRANCH   9  10
ATOM     10  C   UNL     1      -1.417  -1.005   5.980  1.00  0.00    -0.016 A 
ATOM     11  C   UNL     1       0.564   0.791   6.926  1.00  0.00     0.119 A 
ATOM     12  C   UNL     1       0.634   0.256   5.638  1.00  0.00     0.047 A 
ATOM     13  C   UNL     1      -0.493   0.412   7.743  1.00  0.00     0.047 A 
ATOM     14  C   UNL     1      -0.345  -0.623   5.164  1.00  0.00     0.010 A 
ATOM     15  C   UNL     1      -1.456  -0.501   7.287  1.00  0.00     0.010 A 
BRANCH  11  16
ATOM     16  O   UNL     1       1.577   1.650   7.222  1.00  0.00    -0.491 OA
BRANCH  16  17
ATOM     17  C   UNL     1       1.771   2.251   8.505  1.00  0.00     0.167 C 
ATOM     18  C   UNL     1       0.728   3.305   8.842  1.00  0.00     0.052 C 
ATOM     19  C   UNL     1       2.035   1.255   9.628  1.00  0.00     0.052 C 
ENDBRANCH  16  17
ENDBRANCH  11  16
ENDBRANCH   9  10
BRANCH   9  20
ATOM     20  O   UNL     1      -2.016  -2.743   4.425  1.00  0.00    -0.385 OA
ATOM     21  H   UNL     1      -1.719  -2.192   3.684  1.00  0.00     0.211 HD
ENDBRANCH   9  20
ENDBRANCH   7   9
ENDBRANCH   4   7
ENDBRANCH   2   3
ENDBRANCH   1   2
BRANCH   1  22
ATOM     22  C   UNL     1      -4.798   3.560   7.701  1.00  0.00     0.023 C 
BRANCH  22  23
ATOM     23  C   UNL     1      -3.749   3.534   8.813  1.00  0.00     0.116 C 
BRANCH  23  24
ATOM     24  N   UNL     1      -2.577   4.343   8.523  1.00  0.00    -0.352 N 
ATOM     25  C   UNL     1      -1.905   5.251   9.308  1.00  0.00     0.251 C 
ATOM     26  H   UNL     1      -2.204   4.222   7.620  1.00  0.00     0.163 HD
ATOM     27  O   UNL     1      -1.009   5.929   8.806  1.00  0.00    -0.269 OA
BRANCH  25  28
ATOM     28  C   UNL     1      -2.260   5.455  10.731  1.00  0.00     0.039 A 
ATOM     29  C   UNL     1      -2.217   6.760  11.231  1.00  0.00     0.014 A 
ATOM     30  C   UNL     1      -2.655   4.406  11.567  1.00  0.00     0.014 A 
ATOM     31  C   UNL     1      -2.694   7.029  12.513  1.00  0.00     0.010 A 
ATOM     32  C   UNL     1      -3.210   4.685  12.815  1.00  0.00     0.010 A 
ATOM     33  C   UNL     1      -3.269   6.005  13.283  1.00  0.00    -0.014 A 
BRANCH  33  34
ATOM     34  C   UNL     1      -4.030   6.342  14.512  1.00  0.00     0.031 A 
ATOM     35  C   UNL     1      -3.579   5.874  15.864  1.00  0.00     0.074 A 
ATOM     36  C   UNL     1      -5.164   7.061  14.385  1.00  0.00     0.049 A 
ATOM     37  N   UNL     1      -4.096   6.138  17.037  1.00  0.00    -0.248 NA
ATOM     38  C   UNL     1      -2.411   4.982  15.907  1.00  0.00     0.031 C 
ATOM     39  C   UNL     1      -5.731   7.525  13.113  1.00  0.00     0.029 A 
ATOM     40  N   UNL     1      -6.034   7.547  15.327  1.00  0.00    -0.354 N 
ATOM     41  C   UNL     1      -3.314   5.453  17.958  1.00  0.00     0.074 A 
ATOM     42  C   UNL     1      -2.328   4.711  17.202  1.00  0.00     0.031 C 
ATOM     43  C   UNL     1      -6.812   8.279  13.360  1.00  0.00     0.029 A 
ATOM     44  C   UNL     1      -7.046   8.315  14.799  1.00  0.00     0.049 A 
ATOM     45  H   UNL     1      -5.943   7.364  16.290  1.00  0.00     0.167 HD
ATOM     46  C   UNL     1      -3.398   5.458  19.311  1.00  0.00     0.031 A 
ATOM     47  C   UNL     1      -8.046   8.985  15.403  1.00  0.00     0.031 A 
ATOM     48  C   UNL     1      -4.402   6.179  20.052  1.00  0.00     0.049 A 
ATOM     49  C   UNL     1      -8.134   8.953  16.902  1.00  0.00     0.074 A 
ATOM     50  C   UNL     1      -4.560   6.275  21.423  1.00  0.00     0.029 A 
ATOM     51  N   UNL     1      -5.429   6.920  19.481  1.00  0.00    -0.354 N 
ATOM     52  N   UNL     1      -7.343   8.356  17.761  1.00  0.00    -0.248 NA
ATOM     53  C   UNL     1      -9.243   9.696  17.513  1.00  0.00     0.031 C 
ATOM     54  C   UNL     1      -5.715   7.023  21.680  1.00  0.00     0.029 A 
ATOM     55  C   UNL     1      -6.239   7.452  20.470  1.00  0.00     0.049 A 
ATOM     56  H   UNL     1      -5.561   7.047  18.514  1.00  0.00     0.167 HD
ATOM     57  C   UNL     1      -7.843   8.672  19.018  1.00  0.00     0.074 A 
ATOM     58  C   UNL     1      -8.992   9.530  18.804  1.00  0.00     0.031 C 
ATOM     59  C   UNL     1      -7.391   8.290  20.239  1.00  0.00     0.031 A 
BRANCH  46  60
ATOM     60  C   UNL     1      -2.381   4.641  20.068  1.00  0.00    -0.014 A 
ATOM     61  C   UNL     1      -1.019   4.999  20.070  1.00  0.00     0.010 A 
ATOM     62  C   UNL     1      -2.786   3.506  20.792  1.00  0.00     0.010 A 
ATOM     63  C   UNL     1      -0.076   4.204  20.727  1.00  0.00     0.020 A 
ATOM     64  C   UNL     1      -1.851   2.726  21.479  1.00  0.00     0.020 A 
ATOM     65  C   UNL     1      -0.498   3.067  21.421  1.00  0.00     0.054 A 
BRANCH  65  66
ATOM     66  S   UNL     1       0.749   2.045  22.253  1.00  0.00     0.124 S 
ATOM     67  O   UNL     1       1.419   1.409  21.122  1.00  0.00    -0.237 OA
ATOM     68  O   UNL     1       1.543   3.035  22.977  1.00  0.00    -0.237 OA
ATOM     69  O   UNL     1      -0.041   1.149  23.094  1.00  0.00    -0.744 OA
ENDBRANCH  65  66
ENDBRANCH  46  60
BRANCH  47  70
ATOM     70  C   UNL     1      -9.014   9.770  14.587  1.00  0.00    -0.014 A 
ATOM     71  C   UNL     1      -9.009  11.175  14.630  1.00  0.00     0.010 A 
ATOM     72  C   UNL     1      -9.927   9.117  13.739  1.00  0.00     0.010 A 
ATOM     73  C   UNL     1      -9.906  11.912  13.850  1.00  0.00     0.020 A 
ATOM     74  C   UNL     1     -10.805   9.850  12.935  1.00  0.00     0.020 A 
ATOM     75  C   UNL     1     -10.795  11.245  13.004  1.00  0.00     0.054 A 
BRANCH  75  76
ATOM     76  S   UNL     1     -11.908  12.224  11.957  1.00  0.00     0.124 S 
ATOM     77  O   UNL     1     -12.853  12.756  12.933  1.00  0.00    -0.237 OA
ATOM     78  O   UNL     1     -10.999  13.198  11.358  1.00  0.00    -0.237 OA
ATOM     79  O   UNL     1     -12.455  11.240  11.026  1.00  0.00    -0.744 OA
ENDBRANCH  75  76
ENDBRANCH  47  70
BRANCH  59  80
ATOM     80  C   UNL     1      -8.132   8.821  21.439  1.00  0.00    -0.014 A 
ATOM     81  C   UNL     1      -9.435   8.387  21.746  1.00  0.00     0.010 A 
ATOM     82  C   UNL     1      -7.503   9.752  22.286  1.00  0.00     0.010 A 
ATOM     83  C   UNL     1     -10.111   8.911  22.851  1.00  0.00     0.020 A 
ATOM     84  C   UNL     1      -8.163  10.252  23.410  1.00  0.00     0.020 A 
ATOM     85  C   UNL     1      -9.471   9.842  23.675  1.00  0.00     0.054 A 
BRANCH  85  86
ATOM     86  S   UNL     1     -10.362  10.490  25.115  1.00  0.00     0.124 S 
ATOM     87  O   UNL     1     -11.336  11.383  24.493  1.00  0.00    -0.237 OA
ATOM     88  O   UNL     1     -10.915   9.281  25.721  1.00  0.00    -0.237 OA
ATOM     89  O   UNL     1      -9.321  11.152  25.898  1.00  0.00    -0.744 OA
ENDBRANCH  85  86
ENDBRANCH  59  80
ENDBRANCH  33  34
ENDBRANCH  25  28
ENDBRANCH  23  24
ENDBRANCH  22  23
ENDBRANCH   1  22
TORSDOF 19
