REMARK SMILES C[C@]12C[C@@H](O)[C@H]3[C@@H](CCC4=CC(=O)C=C[C@]43C)[C@H]1CC[C@]2(O)C(=O)COC(=O)CCC(=O)NCCCCNC(=O)c1ccc(-c2c3nc(c(-c4ccc(S(=O)(=O)[O-])cc4)c4ccc([nH]4)c(-c4ccc(S(=O)(=O)[O-])cc4)c4nc(c(-c5ccc(S(=O)(=O)[O-])cc5)c5ccc2[nH]5)C=C4)C=C3)cc1
REMARK SMILES IDX 31 1 32 2 33 3 30 5 29 6 27 7 28 8 26 9 25 10 23 11 24 12
REMARK SMILES IDX 21 13 17 14 16 15 15 16 10 17 6 18 14 19 11 20 9 21 7 22
REMARK SMILES IDX 4 23 12 24 8 25 18 26 3 27 13 28 2 29 19 30 1 31 20 32 5 33
REMARK SMILES IDX 22 35 34 37 35 38 36 39 37 40 38 41 39 42 40 44 41 45 42 46
REMARK SMILES IDX 100 47 43 48 99 49 44 50 45 51 46 52 93 53 47 54 98 55 92 56
REMARK SMILES IDX 94 57 48 58 97 59 91 60 90 61 49 63 79 64 60 65 78 66 61 67
REMARK SMILES IDX 64 68 77 69 95 70 62 71 63 72 76 74 96 75 65 76 50 77 51 78
REMARK SMILES IDX 59 79 52 80 58 81 53 82 54 83 55 84 56 85 57 86 80 87 81 88
REMARK SMILES IDX 89 89 82 90 88 91 83 92 84 93 85 94 86 95 87 96 66 97 67 98
REMARK SMILES IDX 75 99 68 100 74 101 69 102 70 103 71 104 72 105 73 106
REMARK H PARENT 33 4 5 34 22 36 38 43 94 62 64 73
REMARK Flexibility Score: inf
ROOT
ATOM      1  C   UNL     1       4.721  -6.312  -2.052  1.00  0.00     0.220 C 
ATOM      2  O   UNL     1       5.173  -6.432  -0.909  1.00  0.00    -0.275 OA
ATOM      3  N   UNL     1       3.411  -6.605  -2.239  1.00  0.00    -0.356 N 
ATOM      4  H   UNL     1       3.009  -7.144  -1.520  1.00  0.00     0.163 HD
ENDROOT
BRANCH   1   5
ATOM      5  C   UNL     1       5.616  -5.797  -3.161  1.00  0.00     0.111 C 
BRANCH   5   6
ATOM      6  C   UNL     1       5.601  -6.589  -4.462  1.00  0.00     0.132 C 
BRANCH   6   7
ATOM      7  C   UNL     1       5.240  -5.693  -5.622  1.00  0.00     0.306 C 
ATOM      8  O   UNL     1       5.972  -4.803  -6.053  1.00  0.00    -0.252 OA
BRANCH   7   9
ATOM      9  O   UNL     1       3.967  -5.897  -6.044  1.00  0.00    -0.458 OA
BRANCH   9  10
ATOM     10  C   UNL     1       3.488  -5.062  -7.093  1.00  0.00     0.311 C 
BRANCH  10  11
ATOM     11  C   UNL     1       2.739  -3.720  -6.866  1.00  0.00     0.202 C 
ATOM     12  O   UNL     1       1.967  -3.323  -7.749  1.00  0.00    -0.293 OA
BRANCH  11  13
ATOM     13  C   UNL     1       3.049  -2.810  -5.644  1.00  0.00     0.132 C 
ATOM     14  C   UNL     1       1.208   0.183   0.115  1.00  0.00     0.021 C 
ATOM     15  C   UNL     1       0.348   0.163  -1.194  1.00  0.00     0.013 C 
ATOM     16  C   UNL     1      -0.972  -0.515  -0.797  1.00  0.00    -0.012 C 
ATOM     17  C   UNL     1      -0.009   1.621  -1.552  1.00  0.00    -0.056 C 
ATOM     18  C   UNL     1       1.225  -0.590  -2.294  1.00  0.00     0.035 C 
ATOM     19  C   UNL     1      -1.901   0.128  -0.067  1.00  0.00     0.048 C 
ATOM     20  C   UNL     1      -0.906   2.296  -0.797  1.00  0.00     0.052 C 
ATOM     21  C   UNL     1       0.394   2.249  -2.857  1.00  0.00     0.032 C 
ATOM     22  C   UNL     1       1.043  -0.037  -3.718  1.00  0.00    -0.000 C 
ATOM     23  C   UNL     1       1.059  -2.116  -2.278  1.00  0.00     0.119 C 
ATOM     24  C   UNL     1      -1.696   1.566   0.226  1.00  0.00     0.178 C 
ATOM     25  C   UNL     1       1.367   1.458  -3.715  1.00  0.00     0.009 C 
ATOM     26  C   UNL     1       1.852  -0.766  -4.820  1.00  0.00     0.002 C 
ATOM     27  C   UNL     1       1.891  -2.826  -3.330  1.00  0.00     0.042 C 
ATOM     28  O   UNL     1      -2.203   2.124   1.187  1.00  0.00    -0.290 OA
ATOM     29  C   UNL     1       1.783  -2.315  -4.783  1.00  0.00     0.009 C 
ATOM     30  C   UNL     1       3.345  -0.500  -4.983  1.00  0.00     0.008 C 
ATOM     31  C   UNL     1       0.413  -2.701  -5.359  1.00  0.00     0.015 C 
ATOM     32  C   UNL     1       3.696  -1.489  -6.103  1.00  0.00     0.044 C 
BRANCH  23  33
ATOM     33  O   UNL     1       1.442  -2.656  -1.012  1.00  0.00    -0.393 OA
ATOM     34  H   UNL     1       2.385  -2.486  -0.861  1.00  0.00     0.210 HD
ENDBRANCH  23  33
BRANCH  13  35
ATOM     35  O   UNL     1       4.009  -3.407  -4.781  1.00  0.00    -0.381 OA
ATOM     36  H   UNL     1       4.181  -2.816  -4.030  1.00  0.00     0.212 HD
ENDBRANCH  13  35
ENDBRANCH  11  13
ENDBRANCH  10  11
ENDBRANCH   9  10
ENDBRANCH   7   9
ENDBRANCH   6   7
ENDBRANCH   5   6
ENDBRANCH   1   5
BRANCH   3  37
ATOM     37  C   UNL     1       2.499  -6.265  -3.310  1.00  0.00     0.116 C 
BRANCH  37  38
ATOM     38  C   UNL     1       1.942  -7.470  -4.071  1.00  0.00     0.023 C 
BRANCH  38  39
ATOM     39  C   UNL     1       0.409  -7.538  -4.055  1.00  0.00     0.023 C 
BRANCH  39  40
ATOM     40  C   UNL     1      -0.341  -6.357  -4.669  1.00  0.00     0.116 C 
BRANCH  40  41
ATOM     41  N   UNL     1      -0.176  -6.203  -6.106  1.00  0.00    -0.352 N 
ATOM     42  C   UNL     1      -1.064  -5.696  -7.037  1.00  0.00     0.251 C 
ATOM     43  H   UNL     1       0.690  -6.503  -6.467  1.00  0.00     0.163 HD
ATOM     44  O   UNL     1      -0.736  -5.652  -8.220  1.00  0.00    -0.269 OA
BRANCH  42  45
ATOM     45  C   UNL     1      -2.437  -5.290  -6.633  1.00  0.00     0.039 A 
ATOM     46  C   UNL     1      -3.508  -5.723  -7.421  1.00  0.00     0.014 A 
ATOM     47  C   UNL     1      -2.691  -4.585  -5.455  1.00  0.00     0.014 A 
ATOM     48  C   UNL     1      -4.817  -5.588  -6.950  1.00  0.00     0.010 A 
ATOM     49  C   UNL     1      -3.986  -4.502  -4.955  1.00  0.00     0.010 A 
ATOM     50  C   UNL     1      -5.052  -5.052  -5.674  1.00  0.00    -0.014 A 
BRANCH  50  51
ATOM     51  C   UNL     1      -6.367  -5.205  -5.006  1.00  0.00     0.031 A 
ATOM     52  C   UNL     1      -7.190  -4.008  -4.633  1.00  0.00     0.074 A 
ATOM     53  C   UNL     1      -6.744  -6.444  -4.628  1.00  0.00     0.049 A 
ATOM     54  N   UNL     1      -8.342  -3.965  -4.017  1.00  0.00    -0.248 NA
ATOM     55  C   UNL     1      -6.634  -2.687  -4.965  1.00  0.00     0.031 C 
ATOM     56  C   UNL     1      -5.966  -7.668  -4.852  1.00  0.00     0.029 A 
ATOM     57  N   UNL     1      -7.862  -6.885  -3.968  1.00  0.00    -0.354 N 
ATOM     58  C   UNL     1      -8.651  -2.616  -3.885  1.00  0.00     0.074 A 
ATOM     59  C   UNL     1      -7.536  -1.873  -4.433  1.00  0.00     0.031 C 
ATOM     60  C   UNL     1      -6.646  -8.720  -4.371  1.00  0.00     0.029 A 
ATOM     61  C   UNL     1      -7.888  -8.247  -3.773  1.00  0.00     0.049 A 
ATOM     62  H   UNL     1      -8.579  -6.283  -3.662  1.00  0.00     0.167 HD
ATOM     63  C   UNL     1      -9.772  -2.054  -3.372  1.00  0.00     0.031 A 
ATOM     64  C   UNL     1      -8.811  -9.029  -3.183  1.00  0.00     0.031 A 
ATOM     65  C   UNL     1     -10.864  -2.813  -2.821  1.00  0.00     0.049 A 
ATOM     66  C   UNL     1     -10.055  -8.384  -2.643  1.00  0.00     0.074 A 
ATOM     67  C   UNL     1     -12.076  -2.354  -2.335  1.00  0.00     0.029 A 
ATOM     68  N   UNL     1     -10.873  -4.194  -2.674  1.00  0.00    -0.354 N 
ATOM     69  N   UNL     1     -10.379  -7.112  -2.624  1.00  0.00    -0.248 NA
ATOM     70  C   UNL     1     -11.067  -9.276  -2.064  1.00  0.00     0.031 C 
ATOM     71  C   UNL     1     -12.793  -3.451  -1.846  1.00  0.00     0.029 A 
ATOM     72  C   UNL     1     -12.058  -4.601  -2.085  1.00  0.00     0.049 A 
ATOM     73  H   UNL     1     -10.143  -4.795  -2.949  1.00  0.00     0.167 HD
ATOM     74  C   UNL     1     -11.645  -7.053  -2.055  1.00  0.00     0.074 A 
ATOM     75  C   UNL     1     -12.033  -8.419  -1.763  1.00  0.00     0.031 C 
ATOM     76  C   UNL     1     -12.417  -5.968  -1.797  1.00  0.00     0.031 A 
BRANCH  63  77
ATOM     77  C   UNL     1      -9.871  -0.549  -3.391  1.00  0.00    -0.014 A 
ATOM     78  C   UNL     1      -9.986   0.153  -4.606  1.00  0.00     0.010 A 
ATOM     79  C   UNL     1      -9.892   0.174  -2.184  1.00  0.00     0.010 A 
ATOM     80  C   UNL     1     -10.073   1.547  -4.616  1.00  0.00     0.020 A 
ATOM     81  C   UNL     1     -10.010   1.568  -2.188  1.00  0.00     0.020 A 
ATOM     82  C   UNL     1     -10.083   2.247  -3.406  1.00  0.00     0.054 A 
BRANCH  82  83
ATOM     83  S   UNL     1     -10.223   4.055  -3.454  1.00  0.00     0.124 S 
ATOM     84  O   UNL     1      -8.908   4.445  -3.958  1.00  0.00    -0.237 OA
ATOM     85  O   UNL     1     -11.335   4.265  -4.376  1.00  0.00    -0.237 OA
ATOM     86  O   UNL     1     -10.491   4.420  -2.065  1.00  0.00    -0.744 OA
ENDBRANCH  82  83
ENDBRANCH  63  77
BRANCH  64  87
ATOM     87  C   UNL     1      -8.607 -10.503  -3.116  1.00  0.00    -0.014 A 
ATOM     88  C   UNL     1      -9.392 -11.368  -3.900  1.00  0.00     0.010 A 
ATOM     89  C   UNL     1      -7.606 -11.050  -2.293  1.00  0.00     0.010 A 
ATOM     90  C   UNL     1      -9.193 -12.751  -3.847  1.00  0.00     0.020 A 
ATOM     91  C   UNL     1      -7.385 -12.431  -2.259  1.00  0.00     0.020 A 
ATOM     92  C   UNL     1      -8.188 -13.274  -3.029  1.00  0.00     0.054 A 
BRANCH  92  93
ATOM     93  S   UNL     1      -7.915 -15.068  -3.017  1.00  0.00     0.124 S 
ATOM     94  O   UNL     1      -9.080 -15.549  -2.283  1.00  0.00    -0.237 OA
ATOM     95  O   UNL     1      -7.885 -15.391  -4.442  1.00  0.00    -0.237 OA
ATOM     96  O   UNL     1      -6.635 -15.214  -2.327  1.00  0.00    -0.744 OA
ENDBRANCH  92  93
ENDBRANCH  64  87
BRANCH  76  97
ATOM     97  C   UNL     1     -13.773  -6.223  -1.194  1.00  0.00    -0.014 A 
ATOM     98  C   UNL     1     -13.911  -6.654   0.137  1.00  0.00     0.010 A 
ATOM     99  C   UNL     1     -14.927  -5.986  -1.964  1.00  0.00     0.010 A 
ATOM    100  C   UNL     1     -15.179  -6.883   0.675  1.00  0.00     0.020 A 
ATOM    101  C   UNL     1     -16.197  -6.181  -1.418  1.00  0.00     0.020 A 
ATOM    102  C   UNL     1     -16.314  -6.646  -0.107  1.00  0.00     0.054 A 
BRANCH 102 103
ATOM    103  S   UNL     1     -17.950  -6.917   0.626  1.00  0.00     0.124 S 
ATOM    104  O   UNL     1     -18.023  -8.375   0.673  1.00  0.00    -0.237 OA
ATOM    105  O   UNL     1     -17.835  -6.251   1.922  1.00  0.00    -0.237 OA
ATOM    106  O   UNL     1     -18.864  -6.278  -0.317  1.00  0.00    -0.744 OA
ENDBRANCH 102 103
ENDBRANCH  76  97
ENDBRANCH  50  51
ENDBRANCH  42  45
ENDBRANCH  40  41
ENDBRANCH  39  40
ENDBRANCH  38  39
ENDBRANCH  37  38
ENDBRANCH   3  37
TORSDOF 22
