REMARK SMILES CC(C)[C@H]1CC[C@@H](C)C/C1=C(\F)C(=O)NCCCCNC(=O)c1ccc(-c2c3nc(c(-c4ccc(S(=O)(=O)[O-])cc4)c4ccc([nH]4)c(-c4ccc(S(=O)(=O)[O-])cc4)c4nc(c(-c5ccc(S(=O)(=O)[O-])cc5)c5ccc2[nH]5)C=C4)C=C3)cc1
REMARK SMILES IDX 18 1 17 2 16 3 15 4 13 5 14 6 11 8 4 9 5 10 10 11 6 12 9 13
REMARK SMILES IDX 7 14 12 15 8 16 2 17 1 18 3 19 19 20 20 21 21 22 22 24 23 25
REMARK SMILES IDX 24 26 82 27 25 28 81 29 26 30 27 31 28 32 75 33 29 34 80 35
REMARK SMILES IDX 74 36 76 37 30 38 79 39 73 40 72 41 31 43 61 44 42 45 60 46
REMARK SMILES IDX 43 47 46 48 59 49 77 50 44 51 45 52 58 54 78 55 47 56 32 57
REMARK SMILES IDX 33 58 41 59 34 60 40 61 35 62 36 63 37 64 38 65 39 66 62 67
REMARK SMILES IDX 63 68 71 69 64 70 70 71 65 72 66 73 67 74 68 75 69 76 48 77
REMARK SMILES IDX 49 78 57 79 50 80 56 81 51 82 52 83 53 84 54 85 55 86
REMARK H PARENT 15 7 20 23 76 42 46 53
REMARK Flexibility Score: inf
ROOT
ATOM      1  C   UNL     1      -6.261   1.148   4.918  1.00  0.00     0.023 C 
ENDROOT
BRANCH   1   2
ATOM      2  C   UNL     1      -5.660   1.907   3.730  1.00  0.00     0.023 C 
BRANCH   2   3
ATOM      3  C   UNL     1      -4.140   2.067   3.748  1.00  0.00     0.116 C 
BRANCH   3   4
ATOM      4  N   UNL     1      -3.472   0.789   3.901  1.00  0.00    -0.350 N 
ATOM      5  C   UNL     1      -2.678   0.025   3.103  1.00  0.00     0.279 C 
ATOM      6  O   UNL     1      -2.392  -1.070   3.576  1.00  0.00    -0.267 OA
ATOM      7  H   UNL     1      -3.630   0.380   4.783  1.00  0.00     0.163 HD
BRANCH   5   8
ATOM      8  C   UNL     1      -2.163   0.534   1.785  1.00  0.00     0.187 C 
ATOM      9  C   UNL     1      -1.044  -1.501   0.448  1.00  0.00     0.021 C 
ATOM     10  C   UNL     1      -1.619  -1.948  -0.922  1.00  0.00     0.009 C 
ATOM     11  C   UNL     1      -1.512  -0.051   0.748  1.00  0.00    -0.025 C 
ATOM     12  C   UNL     1      -1.290  -0.981  -2.061  1.00  0.00     0.004 C 
ATOM     13  C   UNL     1      -1.113   0.883  -0.404  1.00  0.00     0.038 C 
ATOM     14  C   UNL     1      -1.706   0.455  -1.753  1.00  0.00    -0.010 C 
ATOM     15  F   UNL     1      -2.354   1.871   1.667  1.00  0.00    -0.201 F 
ATOM     16  C   UNL     1      -3.227   0.625  -1.805  1.00  0.00     0.008 C 
BRANCH   9  17
ATOM     17  C   UNL     1      -1.223  -2.604   1.531  1.00  0.00    -0.010 C 
ATOM     18  C   UNL     1      -1.130  -4.053   1.028  1.00  0.00     0.008 C 
ATOM     19  C   UNL     1      -0.161  -2.441   2.633  1.00  0.00     0.008 C 
ENDBRANCH   9  17
ENDBRANCH   5   8
ENDBRANCH   3   4
ENDBRANCH   2   3
ENDBRANCH   1   2
BRANCH   1  20
ATOM     20  C   UNL     1      -5.816   1.608   6.304  1.00  0.00     0.116 C 
BRANCH  20  21
ATOM     21  N   UNL     1      -6.074   3.016   6.542  1.00  0.00    -0.352 N 
ATOM     22  C   UNL     1      -6.612   3.637   7.641  1.00  0.00     0.251 C 
ATOM     23  H   UNL     1      -5.825   3.617   5.802  1.00  0.00     0.163 HD
ATOM     24  O   UNL     1      -6.858   4.839   7.587  1.00  0.00    -0.269 OA
BRANCH  22  25
ATOM     25  C   UNL     1      -6.921   2.874   8.873  1.00  0.00     0.039 A 
ATOM     26  C   UNL     1      -8.106   3.170   9.553  1.00  0.00     0.014 A 
ATOM     27  C   UNL     1      -6.048   1.911   9.388  1.00  0.00     0.014 A 
ATOM     28  C   UNL     1      -8.430   2.481  10.725  1.00  0.00     0.010 A 
ATOM     29  C   UNL     1      -6.406   1.174  10.517  1.00  0.00     0.010 A 
ATOM     30  C   UNL     1      -7.591   1.464  11.210  1.00  0.00    -0.014 A 
BRANCH  30  31
ATOM     31  C   UNL     1      -7.939   0.726  12.452  1.00  0.00     0.031 A 
ATOM     32  C   UNL     1      -7.074   0.850  13.680  1.00  0.00     0.074 A 
ATOM     33  C   UNL     1      -9.024  -0.073  12.473  1.00  0.00     0.049 A 
ATOM     34  N   UNL     1      -7.236   0.307  14.861  1.00  0.00    -0.248 NA
ATOM     35  C   UNL     1      -5.858   1.670  13.560  1.00  0.00     0.031 C 
ATOM     36  C   UNL     1      -9.916  -0.319  11.338  1.00  0.00     0.029 A 
ATOM     37  N   UNL     1      -9.566  -0.822  13.488  1.00  0.00    -0.354 N 
ATOM     38  C   UNL     1      -6.139   0.707  15.616  1.00  0.00     0.074 A 
ATOM     39  C   UNL     1      -5.293   1.494  14.745  1.00  0.00     0.031 C 
ATOM     40  C   UNL     1     -10.911  -1.133  11.729  1.00  0.00     0.029 A 
ATOM     41  C   UNL     1     -10.714  -1.488  13.130  1.00  0.00     0.049 A 
ATOM     42  H   UNL     1      -9.169  -0.876  14.388  1.00  0.00     0.167 HD
ATOM     43  C   UNL     1      -5.868   0.463  16.921  1.00  0.00     0.031 A 
ATOM     44  C   UNL     1     -11.524  -2.288  13.851  1.00  0.00     0.031 A 
ATOM     45  C   UNL     1      -6.716  -0.311  17.790  1.00  0.00     0.049 A 
ATOM     46  C   UNL     1     -11.218  -2.526  15.304  1.00  0.00     0.074 A 
ATOM     47  C   UNL     1      -6.560  -0.568  19.141  1.00  0.00     0.029 A 
ATOM     48  N   UNL     1      -7.880  -0.953  17.393  1.00  0.00    -0.354 N 
ATOM     49  N   UNL     1     -10.214  -2.077  16.019  1.00  0.00    -0.248 NA
ATOM     50  C   UNL     1     -12.170  -3.357  16.052  1.00  0.00     0.031 C 
ATOM     51  C   UNL     1      -7.604  -1.405  19.551  1.00  0.00     0.029 A 
ATOM     52  C   UNL     1      -8.443  -1.620  18.469  1.00  0.00     0.049 A 
ATOM     53  H   UNL     1      -8.251  -0.936  16.482  1.00  0.00     0.167 HD
ATOM     54  C   UNL     1     -10.428  -2.550  17.310  1.00  0.00     0.074 A 
ATOM     55  C   UNL     1     -11.666  -3.303  17.278  1.00  0.00     0.031 C 
ATOM     56  C   UNL     1      -9.671  -2.374  18.421  1.00  0.00     0.031 A 
BRANCH  43  57
ATOM     57  C   UNL     1      -4.592   1.036  17.485  1.00  0.00    -0.014 A 
ATOM     58  C   UNL     1      -4.435   2.422  17.667  1.00  0.00     0.010 A 
ATOM     59  C   UNL     1      -3.545   0.175  17.861  1.00  0.00     0.010 A 
ATOM     60  C   UNL     1      -3.236   2.941  18.165  1.00  0.00     0.020 A 
ATOM     61  C   UNL     1      -2.355   0.688  18.388  1.00  0.00     0.020 A 
ATOM     62  C   UNL     1      -2.202   2.070  18.518  1.00  0.00     0.054 A 
BRANCH  62  63
ATOM     63  S   UNL     1      -0.661   2.768  19.172  1.00  0.00     0.124 S 
ATOM     64  O   UNL     1      -0.052   3.332  17.969  1.00  0.00    -0.237 OA
ATOM     65  O   UNL     1      -1.139   3.743  20.149  1.00  0.00    -0.237 OA
ATOM     66  O   UNL     1       0.032   1.613  19.736  1.00  0.00    -0.744 OA
ENDBRANCH  62  63
ENDBRANCH  43  57
BRANCH  44  67
ATOM     67  C   UNL     1     -12.724  -2.894  13.211  1.00  0.00    -0.014 A 
ATOM     68  C   UNL     1     -14.015  -2.441  13.539  1.00  0.00     0.010 A 
ATOM     69  C   UNL     1     -12.580  -3.914  12.253  1.00  0.00     0.010 A 
ATOM     70  C   UNL     1     -15.140  -3.008  12.933  1.00  0.00     0.020 A 
ATOM     71  C   UNL     1     -13.701  -4.464  11.625  1.00  0.00     0.020 A 
ATOM     72  C   UNL     1     -14.975  -4.015  11.977  1.00  0.00     0.054 A 
BRANCH  72  73
ATOM     73  S   UNL     1     -16.446  -4.694  11.159  1.00  0.00     0.124 S 
ATOM     74  O   UNL     1     -17.021  -5.527  12.210  1.00  0.00    -0.237 OA
ATOM     75  O   UNL     1     -17.203  -3.491  10.819  1.00  0.00    -0.237 OA
ATOM     76  O   UNL     1     -15.896  -5.417  10.015  1.00  0.00    -0.744 OA
ENDBRANCH  72  73
ENDBRANCH  44  67
BRANCH  56  77
ATOM     77  C   UNL     1     -10.181  -2.978  19.703  1.00  0.00    -0.014 A 
ATOM     78  C   UNL     1     -10.185  -4.369  19.908  1.00  0.00     0.010 A 
ATOM     79  C   UNL     1     -10.646  -2.133  20.728  1.00  0.00     0.010 A 
ATOM     80  C   UNL     1     -10.694  -4.907  21.093  1.00  0.00     0.020 A 
ATOM     81  C   UNL     1     -11.128  -2.666  21.927  1.00  0.00     0.020 A 
ATOM     82  C   UNL     1     -11.169  -4.051  22.092  1.00  0.00     0.054 A 
BRANCH  82  83
ATOM     83  S   UNL     1     -11.820  -4.771  23.625  1.00  0.00     0.124 S 
ATOM     84  O   UNL     1     -13.126  -5.265  23.197  1.00  0.00    -0.237 OA
ATOM     85  O   UNL     1     -10.832  -5.798  23.944  1.00  0.00    -0.237 OA
ATOM     86  O   UNL     1     -11.854  -3.640  24.550  1.00  0.00    -0.744 OA
ENDBRANCH  82  83
ENDBRANCH  56  77
ENDBRANCH  30  31
ENDBRANCH  22  25
ENDBRANCH  20  21
ENDBRANCH   1  20
TORSDOF 15
