REMARK SMILES Nc1nonc1C(=O)N1[C@@H]2CC[C@H]1C[C@H](CC(=O)NCCCCNC(=O)c1ccc(-c3c4nc(c(-c5ccc(S(=O)(=O)[O-])cc5)c5ccc([nH]5)c(-c5ccc(S(=O)(=O)[O-])cc5)c5nc(c(-c6ccc(S(=O)(=O)[O-])cc6)c6ccc3[nH]6)C=C5)C=C4)cc1)C2
REMARK SMILES IDX 21 1 20 2 19 3 17 4 18 5 16 7 15 8 9 9 10 10 13 11 11 12
REMARK SMILES IDX 87 13 12 14 14 15 7 16 8 17 6 18 2 19 3 20 4 21 5 22 1 23
REMARK SMILES IDX 22 26 23 27 24 28 25 29 26 31 27 32 28 33 86 34 29 35 85 36
REMARK SMILES IDX 30 37 31 38 32 39 79 40 33 41 84 42 78 43 80 44 34 45 83 46
REMARK SMILES IDX 77 47 76 48 35 50 65 51 46 52 64 53 47 54 50 55 63 56 81 57
REMARK SMILES IDX 48 58 49 59 62 61 82 62 51 63 36 64 37 65 45 66 38 67 44 68
REMARK SMILES IDX 39 69 40 70 41 71 42 72 43 73 66 74 67 75 75 76 68 77 74 78
REMARK SMILES IDX 69 79 70 80 71 81 72 82 73 83 52 84 53 85 61 86 54 87 60 88
REMARK SMILES IDX 55 89 56 90 57 91 58 92 59 93
REMARK H PARENT 19 6 1 24 1 25 24 30 80 49 50 60
REMARK Flexibility Score: inf
ROOT
ATOM      1  C   UNL     1       5.210  -0.428   1.712  1.00  0.00     0.023 C 
ENDROOT
BRANCH   1   2
ATOM      2  C   UNL     1       5.462   0.361   0.420  1.00  0.00     0.116 C 
BRANCH   2   3
ATOM      3  N   UNL     1       6.402  -0.335  -0.446  1.00  0.00    -0.356 N 
ATOM      4  C   UNL     1       6.208  -1.153  -1.520  1.00  0.00     0.220 C 
ATOM      5  O   UNL     1       7.196  -1.684  -2.033  1.00  0.00    -0.275 OA
ATOM      6  H   UNL     1       7.348  -0.189  -0.216  1.00  0.00     0.163 HD
BRANCH   4   7
ATOM      7  C   UNL     1       4.820  -1.418  -2.085  1.00  0.00     0.103 C 
BRANCH   7   8
ATOM      8  C   UNL     1       4.177  -2.739  -1.592  1.00  0.00     0.002 C 
ATOM      9  N   UNL     1       1.539  -3.019  -0.504  1.00  0.00    -0.331 N 
ATOM     10  C   UNL     1       1.849  -3.841  -1.666  1.00  0.00     0.086 C 
ATOM     11  C   UNL     1       2.600  -3.325   0.431  1.00  0.00     0.086 C 
ATOM     12  C   UNL     1       2.378  -5.168  -1.082  1.00  0.00     0.027 C 
ATOM     13  C   UNL     1       2.933  -3.085  -2.449  1.00  0.00     0.029 C 
ATOM     14  C   UNL     1       2.741  -4.840   0.367  1.00  0.00     0.027 C 
ATOM     15  C   UNL     1       3.865  -2.643  -0.086  1.00  0.00     0.029 C 
BRANCH   9  16
ATOM     16  C   UNL     1       0.217  -2.968  -0.065  1.00  0.00     0.280 C 
ATOM     17  O   UNL     1      -0.405  -4.001   0.178  1.00  0.00    -0.267 OA
BRANCH  16  18
ATOM     18  C   UNL     1      -0.400  -1.639  -0.042  1.00  0.00     0.216 A 
ATOM     19  C   UNL     1       0.137  -0.329   0.095  1.00  0.00     0.201 A 
ATOM     20  N   UNL     1      -0.840   0.568  -0.020  1.00  0.00    -0.032 NA
ATOM     21  O   UNL     1      -1.998  -0.169  -0.181  1.00  0.00    -0.242 OA
ATOM     22  N   UNL     1      -1.731  -1.526  -0.188  1.00  0.00    -0.042 NA
BRANCH  19  23
ATOM     23  N   UNL     1       1.408   0.031   0.337  1.00  0.00    -0.379 N 
ATOM     24  H   UNL     1       1.645   0.984   0.408  1.00  0.00     0.158 HD
ATOM     25  H   UNL     1       2.103  -0.658   0.443  1.00  0.00     0.158 HD
ENDBRANCH  19  23
ENDBRANCH  16  18
ENDBRANCH   9  16
ENDBRANCH   7   8
ENDBRANCH   4   7
ENDBRANCH   2   3
ENDBRANCH   1   2
BRANCH   1  26
ATOM     26  C   UNL     1       6.051  -0.039   2.912  1.00  0.00     0.023 C 
BRANCH  26  27
ATOM     27  C   UNL     1       5.667   1.290   3.526  1.00  0.00     0.116 C 
BRANCH  27  28
ATOM     28  N   UNL     1       4.323   1.315   4.093  1.00  0.00    -0.352 N 
ATOM     29  C   UNL     1       3.909   1.904   5.271  1.00  0.00     0.251 C 
ATOM     30  H   UNL     1       3.626   0.856   3.572  1.00  0.00     0.163 HD
ATOM     31  O   UNL     1       2.759   1.780   5.660  1.00  0.00    -0.269 OA
BRANCH  29  32
ATOM     32  C   UNL     1       4.911   2.639   6.074  1.00  0.00     0.039 A 
ATOM     33  C   UNL     1       5.059   2.327   7.427  1.00  0.00     0.014 A 
ATOM     34  C   UNL     1       5.781   3.535   5.451  1.00  0.00     0.014 A 
ATOM     35  C   UNL     1       6.146   2.849   8.132  1.00  0.00     0.010 A 
ATOM     36  C   UNL     1       6.921   3.953   6.120  1.00  0.00     0.010 A 
ATOM     37  C   UNL     1       7.112   3.625   7.470  1.00  0.00    -0.014 A 
BRANCH  37  38
ATOM     38  C   UNL     1       8.314   4.143   8.168  1.00  0.00     0.031 A 
ATOM     39  C   UNL     1       8.538   5.630   8.243  1.00  0.00     0.074 A 
ATOM     40  C   UNL     1       9.236   3.290   8.658  1.00  0.00     0.049 A 
ATOM     41  N   UNL     1       9.567   6.288   8.709  1.00  0.00    -0.248 NA
ATOM     42  C   UNL     1       7.482   6.491   7.679  1.00  0.00     0.031 C 
ATOM     43  C   UNL     1       9.164   1.827   8.597  1.00  0.00     0.029 A 
ATOM     44  N   UNL     1      10.422   3.534   9.303  1.00  0.00    -0.354 N 
ATOM     45  C   UNL     1       9.295   7.630   8.467  1.00  0.00     0.074 A 
ATOM     46  C   UNL     1       8.039   7.688   7.753  1.00  0.00     0.031 C 
ATOM     47  C   UNL     1      10.238   1.306   9.215  1.00  0.00     0.029 A 
ATOM     48  C   UNL     1      11.092   2.393   9.682  1.00  0.00     0.049 A 
ATOM     49  H   UNL     1      10.763   4.441   9.478  1.00  0.00     0.167 HD
ATOM     50  C   UNL     1      10.006   8.721   8.835  1.00  0.00     0.031 A 
ATOM     51  C   UNL     1      12.259   2.244  10.337  1.00  0.00     0.031 A 
ATOM     52  C   UNL     1      11.230   8.662   9.582  1.00  0.00     0.049 A 
ATOM     53  C   UNL     1      13.016   3.472  10.767  1.00  0.00     0.074 A 
ATOM     54  C   UNL     1      12.004   9.707  10.052  1.00  0.00     0.029 A 
ATOM     55  N   UNL     1      11.850   7.489   9.984  1.00  0.00    -0.354 N 
ATOM     56  N   UNL     1      12.717   4.734  10.570  1.00  0.00    -0.248 NA
ATOM     57  C   UNL     1      14.258   3.255  11.521  1.00  0.00     0.031 C 
ATOM     58  C   UNL     1      13.109   9.165  10.717  1.00  0.00     0.029 A 
ATOM     59  C   UNL     1      12.998   7.783  10.697  1.00  0.00     0.049 A 
ATOM     60  H   UNL     1      11.522   6.581   9.791  1.00  0.00     0.167 HD
ATOM     61  C   UNL     1      13.718   5.462  11.205  1.00  0.00     0.074 A 
ATOM     62  C   UNL     1      14.623   4.500  11.800  1.00  0.00     0.031 C 
ATOM     63  C   UNL     1      13.874   6.806  11.290  1.00  0.00     0.031 A 
BRANCH  50  64
ATOM     64  C   UNL     1       9.454  10.066   8.444  1.00  0.00    -0.014 A 
ATOM     65  C   UNL     1       8.283  10.567   9.042  1.00  0.00     0.010 A 
ATOM     66  C   UNL     1      10.113  10.840   7.473  1.00  0.00     0.010 A 
ATOM     67  C   UNL     1       7.751  11.793   8.638  1.00  0.00     0.020 A 
ATOM     68  C   UNL     1       9.600  12.083   7.088  1.00  0.00     0.020 A 
ATOM     69  C   UNL     1       8.410  12.540   7.659  1.00  0.00     0.054 A 
BRANCH  69  70
ATOM     70  S   UNL     1       7.703  14.134   7.159  1.00  0.00     0.124 S 
ATOM     71  O   UNL     1       6.583  13.714   6.320  1.00  0.00    -0.237 OA
ATOM     72  O   UNL     1       7.337  14.739   8.437  1.00  0.00    -0.237 OA
ATOM     73  O   UNL     1       8.799  14.792   6.452  1.00  0.00    -0.744 OA
ENDBRANCH  69  70
ENDBRANCH  50  64
BRANCH  51  74
ATOM     74  C   UNL     1      12.768   0.884  10.665  1.00  0.00    -0.014 A 
ATOM     75  C   UNL     1      12.746   0.419  11.992  1.00  0.00     0.010 A 
ATOM     76  C   UNL     1      13.280   0.047   9.657  1.00  0.00     0.010 A 
ATOM     77  C   UNL     1      13.250  -0.845  12.310  1.00  0.00     0.020 A 
ATOM     78  C   UNL     1      13.762  -1.228   9.967  1.00  0.00     0.020 A 
ATOM     79  C   UNL     1      13.757  -1.660  11.296  1.00  0.00     0.054 A 
BRANCH  79  80
ATOM     80  S   UNL     1      14.373  -3.313  11.724  1.00  0.00     0.124 S 
ATOM     81  O   UNL     1      15.667  -3.008  12.324  1.00  0.00    -0.237 OA
ATOM     82  O   UNL     1      13.349  -3.805  12.642  1.00  0.00    -0.237 OA
ATOM     83  O   UNL     1      14.424  -4.000  10.435  1.00  0.00    -0.744 OA
ENDBRANCH  79  80
ENDBRANCH  51  74
BRANCH  63  84
ATOM     84  C   UNL     1      15.038   7.315  12.094  1.00  0.00    -0.014 A 
ATOM     85  C   UNL     1      16.352   7.243  11.600  1.00  0.00     0.010 A 
ATOM     86  C   UNL     1      14.802   7.926  13.339  1.00  0.00     0.010 A 
ATOM     87  C   UNL     1      17.415   7.745  12.353  1.00  0.00     0.020 A 
ATOM     88  C   UNL     1      15.859   8.452  14.083  1.00  0.00     0.020 A 
ATOM     89  C   UNL     1      17.162   8.345  13.591  1.00  0.00     0.054 A 
BRANCH  89  90
ATOM     90  S   UNL     1      18.553   9.030  14.532  1.00  0.00     0.124 S 
ATOM     91  O   UNL     1      19.168   7.825  15.082  1.00  0.00    -0.237 OA
ATOM     92  O   UNL     1      19.329   9.720  13.505  1.00  0.00    -0.237 OA
ATOM     93  O   UNL     1      17.910   9.905  15.510  1.00  0.00    -0.744 OA
ENDBRANCH  89  90
ENDBRANCH  63  84
ENDBRANCH  37  38
ENDBRANCH  29  32
ENDBRANCH  27  28
ENDBRANCH  26  27
ENDBRANCH   1  26
TORSDOF 18
