REMARK SMILES C[C@@]1(O)CC(NCCCCNC(=O)c2ccc(-c3c4nc(c(-c5ccc(S(=O)(=O)[O-])cc5)c5ccc([nH]5)c(-c5ccc(S(=O)(=O)[O-])cc5)c5nc(c(-c6ccc(S(=O)(=O)[O-])cc6)c6ccc3[nH]6)C=C5)C=C4)cc2)=C(C(=O)Nc2ccccc2)[C@H](c2ccccc2C(=O)[O-])[C@@H]1C(=O)Nc1ccccc1
REMARK SMILES IDX 9 1 8 2 7 3 6 4 5 6 1 7 2 8 4 9 94 10 84 11 74 12 3 13 95 15
REMARK SMILES IDX 96 16 97 17 98 19 99 20 103 21 100 22 102 23 101 24 85 25
REMARK SMILES IDX 86 26 90 27 87 28 89 29 88 30 91 31 92 32 93 33 75 34 76 35
REMARK SMILES IDX 77 36 78 38 79 39 83 40 80 41 82 42 81 43 10 44 11 45 12 46
REMARK SMILES IDX 13 48 14 49 15 50 73 51 16 52 72 53 17 54 18 55 19 56 66 57
REMARK SMILES IDX 20 58 71 59 65 60 67 61 21 62 70 63 64 64 63 65 22 67 52 68
REMARK SMILES IDX 33 69 51 70 34 71 37 72 50 73 68 74 35 75 36 76 49 78 69 79
REMARK SMILES IDX 38 80 23 81 24 82 32 83 25 84 31 85 26 86 27 87 28 88 29 89
REMARK SMILES IDX 30 90 53 91 54 92 62 93 55 94 61 95 56 96 57 97 58 98 59 99
REMARK SMILES IDX 60 100 39 101 40 102 48 103 41 104 47 105 42 106 43 107
REMARK SMILES IDX 44 108 45 109 46 110
REMARK H PARENT 6 5 3 14 97 18 77 37 11 47 67 66 37 77
REMARK Flexibility Score: inf
ROOT
ATOM      1  C   UNL     1       3.832   5.488  -3.228  1.00  0.00     0.023 C 
ENDROOT
BRANCH   1   2
ATOM      2  C   UNL     1       2.785   4.866  -2.305  1.00  0.00     0.023 C 
BRANCH   2   3
ATOM      3  C   UNL     1       1.733   4.029  -3.026  1.00  0.00     0.112 C 
BRANCH   3   4
ATOM      4  N   UNL     1       2.196   2.660  -3.188  1.00  0.00    -0.388 N 
ATOM      5  H   UNL     1       3.111   2.552  -3.537  1.00  0.00     0.160 HD
BRANCH   4   6
ATOM      6  C   UNL     1       1.506   1.486  -2.911  1.00  0.00     0.023 C 
ATOM      7  C   UNL     1       1.168   0.636   0.223  1.00  0.00     0.043 C 
ATOM      8  C   UNL     1       0.185   0.456  -0.961  1.00  0.00     0.080 C 
ATOM      9  C   UNL     1       0.343   1.617  -1.945  1.00  0.00     0.089 C 
ATOM     10  C   UNL     1       0.455  -0.916  -1.633  1.00  0.00     0.123 C 
ATOM     11  C   UNL     1       0.782  -0.868  -3.178  1.00  0.00     0.073 C 
ATOM     12  C   UNL     1       1.782   0.258  -3.439  1.00  0.00     0.045 C 
BRANCH   8  13
ATOM     13  O   UNL     1      -1.111   0.607  -0.373  1.00  0.00    -0.389 OA
ATOM     14  H   UNL     1      -1.187   1.490   0.020  1.00  0.00     0.211 HD
ENDBRANCH   8  13
BRANCH  10  15
ATOM     15  C   UNL     1      -0.435  -2.057  -1.143  1.00  0.00     0.231 C 
ATOM     16  O   UNL     1      -1.544  -1.907  -0.630  1.00  0.00    -0.274 OA
ATOM     17  N   UNL     1       0.006  -3.326  -1.405  1.00  0.00    -0.326 N 
ATOM     18  H   UNL     1      -0.347  -3.787  -2.200  1.00  0.00     0.169 HD
BRANCH  17  19
ATOM     19  C   UNL     1       0.938  -4.008  -0.599  1.00  0.00     0.041 A 
ATOM     20  C   UNL     1       1.170  -5.356  -0.882  1.00  0.00     0.026 A 
ATOM     21  C   UNL     1       1.555  -3.420   0.508  1.00  0.00     0.026 A 
ATOM     22  C   UNL     1       2.021  -6.106  -0.070  1.00  0.00     0.002 A 
ATOM     23  C   UNL     1       2.403  -4.172   1.322  1.00  0.00     0.002 A 
ATOM     24  C   UNL     1       2.636  -5.514   1.032  1.00  0.00     0.000 A 
ENDBRANCH  17  19
ENDBRANCH  10  15
BRANCH  11  25
ATOM     25  C   UNL     1      -0.213  -1.036  -4.388  1.00  0.00    -0.030 A 
ATOM     26  C   UNL     1       0.247  -0.682  -5.687  1.00  0.00     0.005 A 
ATOM     27  C   UNL     1      -1.357  -1.855  -4.391  1.00  0.00     0.001 A 
ATOM     28  C   UNL     1      -0.222  -1.295  -6.857  1.00  0.00     0.000 A 
ATOM     29  C   UNL     1      -1.813  -2.503  -5.560  1.00  0.00     0.010 A 
ATOM     30  C   UNL     1      -1.207  -2.262  -6.785  1.00  0.00     0.001 A 
BRANCH  27  31
ATOM     31  C   UNL     1      -2.322  -1.836  -3.296  1.00  0.00     0.072 C 
ATOM     32  O   UNL     1      -2.761  -0.822  -2.777  1.00  0.00    -0.545 OA
ATOM     33  O   UNL     1      -2.627  -3.076  -2.879  1.00  0.00    -0.545 OA
ENDBRANCH  27  31
ENDBRANCH  11  25
BRANCH  12  34
ATOM     34  C   UNL     1       2.992   0.112  -4.347  1.00  0.00     0.253 C 
ATOM     35  O   UNL     1       3.490   1.144  -4.832  1.00  0.00    -0.269 OA
ATOM     36  N   UNL     1       3.697  -0.999  -4.684  1.00  0.00    -0.322 N 
ATOM     37  H   UNL     1       4.558  -0.714  -5.066  1.00  0.00     0.170 HD
BRANCH  36  38
ATOM     38  C   UNL     1       3.655  -2.403  -4.691  1.00  0.00     0.041 A 
ATOM     39  C   UNL     1       4.902  -3.046  -4.764  1.00  0.00     0.026 A 
ATOM     40  C   UNL     1       2.527  -3.211  -4.757  1.00  0.00     0.026 A 
ATOM     41  C   UNL     1       5.009  -4.442  -4.793  1.00  0.00     0.002 A 
ATOM     42  C   UNL     1       2.620  -4.609  -4.759  1.00  0.00     0.002 A 
ATOM     43  C   UNL     1       3.864  -5.227  -4.763  1.00  0.00     0.000 A 
ENDBRANCH  36  38
ENDBRANCH  12  34
ENDBRANCH   4   6
ENDBRANCH   3   4
ENDBRANCH   2   3
ENDBRANCH   1   2
BRANCH   1  44
ATOM     44  C   UNL     1       3.273   6.394  -4.322  1.00  0.00     0.116 C 
BRANCH  44  45
ATOM     45  N   UNL     1       2.435   7.475  -3.818  1.00  0.00    -0.352 N 
ATOM     46  C   UNL     1       2.287   8.739  -4.342  1.00  0.00     0.251 C 
ATOM     47  H   UNL     1       1.914   7.278  -3.007  1.00  0.00     0.163 HD
ATOM     48  O   UNL     1       1.616   9.587  -3.766  1.00  0.00    -0.269 OA
BRANCH  46  49
ATOM     49  C   UNL     1       2.994   9.063  -5.596  1.00  0.00     0.039 A 
ATOM     50  C   UNL     1       3.883  10.139  -5.613  1.00  0.00     0.014 A 
ATOM     51  C   UNL     1       2.842   8.242  -6.717  1.00  0.00     0.014 A 
ATOM     52  C   UNL     1       4.681  10.349  -6.738  1.00  0.00     0.010 A 
ATOM     53  C   UNL     1       3.683   8.414  -7.809  1.00  0.00     0.010 A 
ATOM     54  C   UNL     1       4.614   9.464  -7.828  1.00  0.00    -0.014 A 
BRANCH  54  55
ATOM     55  C   UNL     1       5.517   9.612  -8.996  1.00  0.00     0.031 A 
ATOM     56  C   UNL     1       4.945   9.936 -10.347  1.00  0.00     0.074 A 
ATOM     57  C   UNL     1       6.837   9.380  -8.853  1.00  0.00     0.049 A 
ATOM     58  N   UNL     1       5.557  10.033 -11.499  1.00  0.00    -0.248 NA
ATOM     59  C   UNL     1       3.490  10.153 -10.418  1.00  0.00     0.031 C 
ATOM     60  C   UNL     1       7.505   9.010  -7.602  1.00  0.00     0.029 A 
ATOM     61  N   UNL     1       7.854   9.412  -9.774  1.00  0.00    -0.354 N 
ATOM     62  C   UNL     1       4.563  10.301 -12.432  1.00  0.00     0.074 A 
ATOM     63  C   UNL     1       3.304  10.307 -11.720  1.00  0.00     0.031 C 
ATOM     64  C   UNL     1       8.822   8.873  -7.830  1.00  0.00     0.029 A 
ATOM     65  C   UNL     1       9.087   9.110  -9.245  1.00  0.00     0.049 A 
ATOM     66  H   UNL     1       7.714   9.630 -10.723  1.00  0.00     0.167 HD
ATOM     67  C   UNL     1       4.689  10.540 -13.758  1.00  0.00     0.031 A 
ATOM     68  C   UNL     1      10.296   9.028  -9.835  1.00  0.00     0.031 A 
ATOM     69  C   UNL     1       5.944  10.552 -14.459  1.00  0.00     0.049 A 
ATOM     70  C   UNL     1      10.412   9.309 -11.308  1.00  0.00     0.074 A 
ATOM     71  C   UNL     1       6.184  10.840 -15.791  1.00  0.00     0.029 A 
ATOM     72  N   UNL     1       7.173  10.268 -13.883  1.00  0.00    -0.354 N 
ATOM     73  N   UNL     1       9.467   9.621 -12.163  1.00  0.00    -0.248 NA
ATOM     74  C   UNL     1      11.758   9.238 -11.894  1.00  0.00     0.031 C 
ATOM     75  C   UNL     1       7.554  10.692 -16.029  1.00  0.00     0.029 A 
ATOM     76  C   UNL     1       8.173  10.358 -14.835  1.00  0.00     0.049 A 
ATOM     77  H   UNL     1       7.313  10.036 -12.936  1.00  0.00     0.167 HD
ATOM     78  C   UNL     1      10.108   9.809 -13.382  1.00  0.00     0.074 A 
ATOM     79  C   UNL     1      11.521   9.587 -13.151  1.00  0.00     0.031 C 
ATOM     80  C   UNL     1       9.575  10.137 -14.585  1.00  0.00     0.031 A 
BRANCH  67  81
ATOM     81  C   UNL     1       3.428  10.811 -14.535  1.00  0.00    -0.014 A 
ATOM     82  C   UNL     1       2.721  12.015 -14.369  1.00  0.00     0.010 A 
ATOM     83  C   UNL     1       2.958   9.862 -15.460  1.00  0.00     0.010 A 
ATOM     84  C   UNL     1       1.544  12.249 -15.083  1.00  0.00     0.020 A 
ATOM     85  C   UNL     1       1.794  10.103 -16.196  1.00  0.00     0.020 A 
ATOM     86  C   UNL     1       1.085  11.288 -15.989  1.00  0.00     0.054 A 
BRANCH  86  87
ATOM     87  S   UNL     1      -0.436  11.624 -16.918  1.00  0.00     0.124 S 
ATOM     88  O   UNL     1      -1.463  11.404 -15.902  1.00  0.00    -0.237 OA
ATOM     89  O   UNL     1      -0.258  13.011 -17.338  1.00  0.00    -0.237 OA
ATOM     90  O   UNL     1      -0.407  10.641 -17.997  1.00  0.00    -0.744 OA
ENDBRANCH  86  87
ENDBRANCH  67  81
BRANCH  68  91
ATOM     91  C   UNL     1      11.497   8.685  -9.027  1.00  0.00    -0.014 A 
ATOM     92  C   UNL     1      12.456   9.668  -8.727  1.00  0.00     0.010 A 
ATOM     93  C   UNL     1      11.684   7.377  -8.546  1.00  0.00     0.010 A 
ATOM     94  C   UNL     1      13.590   9.346  -7.975  1.00  0.00     0.020 A 
ATOM     95  C   UNL     1      12.805   7.057  -7.774  1.00  0.00     0.020 A 
ATOM     96  C   UNL     1      13.757   8.041  -7.503  1.00  0.00     0.054 A 
BRANCH  96  97
ATOM     97  S   UNL     1      15.211   7.655  -6.489  1.00  0.00     0.124 S 
ATOM     98  O   UNL     1      16.270   7.582  -7.491  1.00  0.00    -0.237 OA
ATOM     99  O   UNL     1      15.277   8.798  -5.580  1.00  0.00    -0.237 OA
ATOM    100  O   UNL     1      14.857   6.387  -5.856  1.00  0.00    -0.744 OA
ENDBRANCH  96  97
ENDBRANCH  68  91
BRANCH  80 101
ATOM    101  C   UNL     1      10.524  10.308 -15.738  1.00  0.00    -0.014 A 
ATOM    102  C   UNL     1      11.115   9.197 -16.364  1.00  0.00     0.010 A 
ATOM    103  C   UNL     1      10.780  11.597 -16.240  1.00  0.00     0.010 A 
ATOM    104  C   UNL     1      11.967   9.374 -17.457  1.00  0.00     0.020 A 
ATOM    105  C   UNL     1      11.612  11.777 -17.347  1.00  0.00     0.020 A 
ATOM    106  C   UNL     1      12.211  10.664 -17.941  1.00  0.00     0.054 A 
BRANCH 106 107
ATOM    107  S   UNL     1      13.280  10.866 -19.392  1.00  0.00     0.124 S 
ATOM    108  O   UNL     1      14.609  10.674 -18.819  1.00  0.00    -0.237 OA
ATOM    109  O   UNL     1      12.820   9.803 -20.282  1.00  0.00    -0.237 OA
ATOM    110  O   UNL     1      12.988  12.222 -19.850  1.00  0.00    -0.744 OA
ENDBRANCH 106 107
ENDBRANCH  80 101
ENDBRANCH  54  55
ENDBRANCH  46  49
ENDBRANCH  44  45
ENDBRANCH   1  44
TORSDOF 21
