REMARK SMILES O=C(NCCCCNC(=O)c1ccc(-c2c3nc(c(-c4ccc(S(=O)(=O)[O-])cc4)c4ccc([nH]4)c(-c4ccc(S(=O)(=O)[O-])cc4)c4nc(c(-c5ccc(S(=O)(=O)[O-])cc5)c5ccc2[nH]5)C=C4)C=C3)cc1)C1=Cc2c(Cl)ccc(Cl)c2O[C@@H]1C(F)(F)F
REMARK SMILES IDX 6 1 5 2 4 3 3 4 1 5 2 6 71 8 72 9 82 10 73 11 81 12 74 13
REMARK SMILES IDX 80 14 75 15 76 16 78 17 77 18 79 19 83 20 84 21 85 22 86 23
REMARK SMILES IDX 7 24 8 25 9 26 10 28 11 29 12 30 70 31 13 32 69 33 14 34
REMARK SMILES IDX 15 35 16 36 63 37 17 38 68 39 62 40 64 41 18 42 67 43 61 44
REMARK SMILES IDX 60 45 19 47 49 48 30 49 48 50 31 51 34 52 47 53 65 54 32 55
REMARK SMILES IDX 33 56 46 58 66 59 35 60 20 61 21 62 29 63 22 64 28 65 23 66
REMARK SMILES IDX 24 67 25 68 26 69 27 70 50 71 51 72 59 73 52 74 58 75 53 76
REMARK SMILES IDX 54 77 55 78 56 79 57 80 36 81 37 82 45 83 38 84 44 85 39 86
REMARK SMILES IDX 40 87 41 88 42 89 43 90
REMARK H PARENT 3 7 8 27 64 46 34 57
REMARK Flexibility Score: inf
ROOT
ATOM      1  C   UNL     1       3.841  -3.436  -2.887  1.00  0.00     0.023 C 
ENDROOT
BRANCH   1   2
ATOM      2  C   UNL     1       4.101  -2.989  -1.450  1.00  0.00     0.023 C 
BRANCH   2   3
ATOM      3  C   UNL     1       3.631  -1.572  -1.124  1.00  0.00     0.116 C 
BRANCH   3   4
ATOM      4  N   UNL     1       2.472  -1.505  -0.232  1.00  0.00    -0.352 N 
ATOM      5  O   UNL     1       1.062  -0.507   1.250  1.00  0.00    -0.270 OA
ATOM      6  C   UNL     1       2.173  -0.576   0.742  1.00  0.00     0.251 C 
ATOM      7  H   UNL     1       1.812  -2.227  -0.343  1.00  0.00     0.163 HD
BRANCH   6   8
ATOM      8  C   UNL     1       3.219   0.409   1.085  1.00  0.00     0.067 C 
ATOM      9  C   UNL     1       4.370  -0.038   1.605  1.00  0.00     0.027 C 
ATOM     10  C   UNL     1       3.085   1.781   0.515  1.00  0.00     0.314 C 
ATOM     11  C   UNL     1       5.567   0.481   0.903  1.00  0.00     0.037 A 
ATOM     12  O   UNL     1       4.202   2.110  -0.337  1.00  0.00    -0.474 OA
ATOM     13  C   UNL     1       6.775  -0.247   0.944  1.00  0.00     0.052 A 
ATOM     14  C   UNL     1       5.386   1.435  -0.130  1.00  0.00     0.148 A 
ATOM     15  Cl  UNL     1       7.075  -1.488   2.114  1.00  0.00    -0.084 Cl
ATOM     16  C   UNL     1       7.734  -0.085  -0.060  1.00  0.00     0.023 A 
ATOM     17  C   UNL     1       6.372   1.604  -1.115  1.00  0.00     0.083 A 
ATOM     18  C   UNL     1       7.527   0.826  -1.095  1.00  0.00     0.026 A 
ATOM     19  Cl  UNL     1       6.128   2.665  -2.457  1.00  0.00    -0.080 Cl
BRANCH  10  20
ATOM     20  C   UNL     1       2.916   2.836   1.622  1.00  0.00     0.429 C 
ATOM     21  F   UNL     1       2.666   4.061   1.101  1.00  0.00    -0.167 F 
ATOM     22  F   UNL     1       1.885   2.545   2.450  1.00  0.00    -0.167 F 
ATOM     23  F   UNL     1       4.026   2.952   2.392  1.00  0.00    -0.167 F 
ENDBRANCH  10  20
ENDBRANCH   6   8
ENDBRANCH   3   4
ENDBRANCH   2   3
ENDBRANCH   1   2
BRANCH   1  24
ATOM     24  C   UNL     1       4.396  -2.539  -3.994  1.00  0.00     0.116 C 
BRANCH  24  25
ATOM     25  N   UNL     1       5.834  -2.312  -3.930  1.00  0.00    -0.352 N 
ATOM     26  C   UNL     1       6.763  -2.388  -4.953  1.00  0.00     0.251 C 
ATOM     27  H   UNL     1       6.191  -2.075  -3.044  1.00  0.00     0.163 HD
ATOM     28  O   UNL     1       7.947  -2.200  -4.738  1.00  0.00    -0.269 OA
BRANCH  26  29
ATOM     29  C   UNL     1       6.285  -2.755  -6.306  1.00  0.00     0.039 A 
ATOM     30  C   UNL     1       6.774  -3.918  -6.905  1.00  0.00     0.014 A 
ATOM     31  C   UNL     1       5.259  -2.022  -6.905  1.00  0.00     0.014 A 
ATOM     32  C   UNL     1       6.148  -4.416  -8.052  1.00  0.00     0.010 A 
ATOM     33  C   UNL     1       4.593  -2.558  -8.003  1.00  0.00     0.010 A 
ATOM     34  C   UNL     1       5.011  -3.775  -8.570  1.00  0.00    -0.014 A 
BRANCH  34  35
ATOM     35  C   UNL     1       4.201  -4.369  -9.668  1.00  0.00     0.031 A 
ATOM     36  C   UNL     1       4.020  -3.614 -10.957  1.00  0.00     0.074 A 
ATOM     37  C   UNL     1       3.522  -5.517  -9.458  1.00  0.00     0.049 A 
ATOM     38  N   UNL     1       3.214  -3.868 -11.955  1.00  0.00    -0.248 NA
ATOM     39  C   UNL     1       4.824  -2.392 -11.128  1.00  0.00     0.031 C 
ATOM     40  C   UNL     1       3.566  -6.324  -8.234  1.00  0.00     0.029 A 
ATOM     41  N   UNL     1       2.637  -6.194 -10.262  1.00  0.00    -0.354 N 
ATOM     42  C   UNL     1       3.376  -2.815 -12.848  1.00  0.00     0.074 A 
ATOM     43  C   UNL     1       4.341  -1.908 -12.264  1.00  0.00     0.031 C 
ATOM     44  C   UNL     1       2.756  -7.386  -8.374  1.00  0.00     0.029 A 
ATOM     45  C   UNL     1       2.100  -7.318  -9.675  1.00  0.00     0.049 A 
ATOM     46  H   UNL     1       2.409  -5.903 -11.175  1.00  0.00     0.167 HD
ATOM     47  C   UNL     1       2.781  -2.624 -14.048  1.00  0.00     0.031 A 
ATOM     48  C   UNL     1       1.170  -8.185 -10.124  1.00  0.00     0.031 A 
ATOM     49  C   UNL     1       1.865  -3.553 -14.652  1.00  0.00     0.049 A 
ATOM     50  C   UNL     1       0.559  -7.971 -11.482  1.00  0.00     0.074 A 
ATOM     51  C   UNL     1       1.288  -3.494 -15.909  1.00  0.00     0.029 A 
ATOM     52  N   UNL     1       1.401  -4.711 -14.051  1.00  0.00    -0.354 N 
ATOM     53  N   UNL     1       0.784  -7.007 -12.342  1.00  0.00    -0.248 NA
ATOM     54  C   UNL     1      -0.427  -8.964 -11.934  1.00  0.00     0.031 C 
ATOM     55  C   UNL     1       0.445  -4.599 -16.054  1.00  0.00     0.029 A 
ATOM     56  C   UNL     1       0.531  -5.367 -14.904  1.00  0.00     0.049 A 
ATOM     57  H   UNL     1       1.651  -5.021 -13.151  1.00  0.00     0.167 HD
ATOM     58  C   UNL     1      -0.008  -7.297 -13.448  1.00  0.00     0.074 A 
ATOM     59  C   UNL     1      -0.711  -8.527 -13.153  1.00  0.00     0.031 C 
ATOM     60  C   UNL     1      -0.140  -6.605 -14.605  1.00  0.00     0.031 A 
BRANCH  47  61
ATOM     61  C   UNL     1       3.101  -1.361 -14.799  1.00  0.00    -0.014 A 
ATOM     62  C   UNL     1       4.347  -1.185 -15.426  1.00  0.00     0.010 A 
ATOM     63  C   UNL     1       2.115  -0.367 -14.938  1.00  0.00     0.010 A 
ATOM     64  C   UNL     1       4.611  -0.023 -16.156  1.00  0.00     0.020 A 
ATOM     65  C   UNL     1       2.367   0.785 -15.687  1.00  0.00     0.020 A 
ATOM     66  C   UNL     1       3.619   0.955 -16.281  1.00  0.00     0.054 A 
BRANCH  66  67
ATOM     67  S   UNL     1       3.972   2.430 -17.276  1.00  0.00     0.124 S 
ATOM     68  O   UNL     1       4.842   3.192 -16.384  1.00  0.00    -0.237 OA
ATOM     69  O   UNL     1       4.621   1.872 -18.460  1.00  0.00    -0.237 OA
ATOM     70  O   UNL     1       2.653   3.014 -17.509  1.00  0.00    -0.744 OA
ENDBRANCH  66  67
ENDBRANCH  47  61
BRANCH  48  71
ATOM     71  C   UNL     1       0.749  -9.342  -9.286  1.00  0.00    -0.014 A 
ATOM     72  C   UNL     1       1.123 -10.650  -9.643  1.00  0.00     0.010 A 
ATOM     73  C   UNL     1      -0.054  -9.146  -8.148  1.00  0.00     0.010 A 
ATOM     74  C   UNL     1       0.673 -11.744  -8.898  1.00  0.00     0.020 A 
ATOM     75  C   UNL     1      -0.485 -10.237  -7.386  1.00  0.00     0.020 A 
ATOM     76  C   UNL     1      -0.134 -11.531  -7.778  1.00  0.00     0.054 A 
BRANCH  76  77
ATOM     77  S   UNL     1      -0.694 -12.961  -6.812  1.00  0.00     0.124 S 
ATOM     78  O   UNL     1      -1.792 -13.466  -7.630  1.00  0.00    -0.237 OA
ATOM     79  O   UNL     1       0.500 -13.802  -6.764  1.00  0.00    -0.237 OA
ATOM     80  O   UNL     1      -1.083 -12.373  -5.532  1.00  0.00    -0.744 OA
ENDBRANCH  76  77
ENDBRANCH  48  71
BRANCH  60  81
ATOM     81  C   UNL     1      -1.035  -7.182 -15.665  1.00  0.00    -0.014 A 
ATOM     82  C   UNL     1      -2.434  -7.101 -15.560  1.00  0.00     0.010 A 
ATOM     83  C   UNL     1      -0.462  -7.742 -16.822  1.00  0.00     0.010 A 
ATOM     84  C   UNL     1      -3.246  -7.586 -16.588  1.00  0.00     0.020 A 
ATOM     85  C   UNL     1      -1.270  -8.207 -17.861  1.00  0.00     0.020 A 
ATOM     86  C   UNL     1      -2.659  -8.134 -17.734  1.00  0.00     0.054 A 
BRANCH  86  87
ATOM     87  S   UNL     1      -3.730  -8.693 -19.086  1.00  0.00     0.124 S 
ATOM     88  O   UNL     1      -4.224  -9.968 -18.574  1.00  0.00    -0.237 OA
ATOM     89  O   UNL     1      -4.723  -7.624 -19.175  1.00  0.00    -0.237 OA
ATOM     90  O   UNL     1      -2.824  -8.788 -20.228  1.00  0.00    -0.744 OA
ENDBRANCH  86  87
ENDBRANCH  60  81
ENDBRANCH  34  35
ENDBRANCH  26  29
ENDBRANCH  24  25
ENDBRANCH   1  24
TORSDOF 15
