REMARK SMILES O=C(NCCCCNC(=O)[C@H](CO)NC(=O)[C@H]1CC(=O)N(CC(F)(F)F)C1)c1ccc(-c2c3nc(c(-c4ccc(S(=O)(=O)[O-])cc4)c4ccc([nH]4)c(-c4ccc(S(=O)(=O)[O-])cc4)c4nc(c(-c5ccc(S(=O)(=O)[O-])cc5)c5ccc2[nH]5)C=C4)C=C3)cc1
REMARK SMILES IDX 6 1 5 2 4 3 3 4 1 5 2 6 28 8 29 9 87 10 30 11 86 12 31 13
REMARK SMILES IDX 32 14 33 15 80 16 34 17 85 18 79 19 81 20 35 21 84 22 78 23
REMARK SMILES IDX 77 24 36 26 66 27 47 28 65 29 48 30 51 31 64 32 82 33 49 34
REMARK SMILES IDX 50 35 63 37 83 38 52 39 37 40 38 41 46 42 39 43 45 44 40 45
REMARK SMILES IDX 41 46 42 47 43 48 44 49 67 50 68 51 76 52 69 53 75 54 70 55
REMARK SMILES IDX 71 56 72 57 73 58 74 59 53 60 54 61 62 62 55 63 61 64 56 65
REMARK SMILES IDX 57 66 58 67 59 68 60 69 7 70 8 71 9 72 10 74 11 75 14 76
REMARK SMILES IDX 15 77 16 79 17 80 18 81 27 82 19 83 21 84 20 85 22 86 23 87
REMARK SMILES IDX 24 88 25 89 26 90 12 91 13 92
REMARK H PARENT 3 7 81 25 51 36 8 73 14 78 13 93
REMARK Flexibility Score: inf
ROOT
ATOM      1  C   UNL     1       7.710   9.107 -11.384  1.00  0.00     0.023 C 
ENDROOT
BRANCH   1   2
ATOM      2  C   UNL     1       7.431   8.693 -12.821  1.00  0.00     0.023 C 
BRANCH   2   3
ATOM      3  C   UNL     1       5.958   8.639 -13.193  1.00  0.00     0.116 C 
BRANCH   3   4
ATOM      4  N   UNL     1       5.294   9.937 -13.171  1.00  0.00    -0.352 N 
ATOM      5  O   UNL     1       4.126  11.674 -14.045  1.00  0.00    -0.269 OA
ATOM      6  C   UNL     1       4.542  10.527 -14.167  1.00  0.00     0.251 C 
ATOM      7  H   UNL     1       5.395  10.458 -12.342  1.00  0.00     0.163 HD
BRANCH   6   8
ATOM      8  C   UNL     1       4.280   9.756 -15.402  1.00  0.00     0.039 A 
ATOM      9  C   UNL     1       3.875   8.426 -15.303  1.00  0.00     0.014 A 
ATOM     10  C   UNL     1       4.540  10.325 -16.651  1.00  0.00     0.014 A 
ATOM     11  C   UNL     1       3.953   7.611 -16.419  1.00  0.00     0.010 A 
ATOM     12  C   UNL     1       4.474   9.527 -17.799  1.00  0.00     0.010 A 
ATOM     13  C   UNL     1       4.221   8.151 -17.689  1.00  0.00    -0.014 A 
BRANCH  13  14
ATOM     14  C   UNL     1       4.140   7.245 -18.866  1.00  0.00     0.031 A 
ATOM     15  C   UNL     1       5.319   6.988 -19.766  1.00  0.00     0.074 A 
ATOM     16  C   UNL     1       2.981   6.583 -19.064  1.00  0.00     0.049 A 
ATOM     17  N   UNL     1       5.409   6.158 -20.776  1.00  0.00    -0.248 NA
ATOM     18  C   UNL     1       6.549   7.757 -19.516  1.00  0.00     0.031 C 
ATOM     19  C   UNL     1       1.762   6.765 -18.266  1.00  0.00     0.029 A 
ATOM     20  N   UNL     1       2.644   5.598 -19.955  1.00  0.00    -0.354 N 
ATOM     21  C   UNL     1       6.694   6.309 -21.287  1.00  0.00     0.074 A 
ATOM     22  C   UNL     1       7.339   7.335 -20.496  1.00  0.00     0.031 C 
ATOM     23  C   UNL     1       0.846   5.867 -18.646  1.00  0.00     0.029 A 
ATOM     24  C   UNL     1       1.370   5.112 -19.776  1.00  0.00     0.049 A 
ATOM     25  H   UNL     1       3.254   5.270 -20.654  1.00  0.00     0.167 HD
ATOM     26  C   UNL     1       7.281   5.646 -22.315  1.00  0.00     0.031 A 
ATOM     27  C   UNL     1       0.678   4.181 -20.457  1.00  0.00     0.031 A 
ATOM     28  C   UNL     1       6.625   4.632 -23.104  1.00  0.00     0.049 A 
ATOM     29  C   UNL     1       1.345   3.489 -21.607  1.00  0.00     0.074 A 
ATOM     30  C   UNL     1       7.137   3.900 -24.163  1.00  0.00     0.029 A 
ATOM     31  N   UNL     1       5.317   4.204 -22.924  1.00  0.00    -0.354 N 
ATOM     32  N   UNL     1       2.568   3.636 -22.058  1.00  0.00    -0.248 NA
ATOM     33  C   UNL     1       0.540   2.505 -22.339  1.00  0.00     0.031 C 
ATOM     34  C   UNL     1       6.124   3.071 -24.656  1.00  0.00     0.029 A 
ATOM     35  C   UNL     1       5.000   3.234 -23.863  1.00  0.00     0.049 A 
ATOM     36  H   UNL     1       4.705   4.539 -22.230  1.00  0.00     0.167 HD
ATOM     37  C   UNL     1       2.682   2.755 -23.125  1.00  0.00     0.074 A 
ATOM     38  C   UNL     1       1.418   2.052 -23.222  1.00  0.00     0.031 C 
ATOM     39  C   UNL     1       3.733   2.554 -23.957  1.00  0.00     0.031 A 
BRANCH  26  40
ATOM     40  C   UNL     1       8.706   6.000 -22.663  1.00  0.00    -0.014 A 
ATOM     41  C   UNL     1       9.771   5.636 -21.819  1.00  0.00     0.010 A 
ATOM     42  C   UNL     1       8.994   6.632 -23.887  1.00  0.00     0.010 A 
ATOM     43  C   UNL     1      11.092   5.919 -22.181  1.00  0.00     0.020 A 
ATOM     44  C   UNL     1      10.316   6.892 -24.266  1.00  0.00     0.020 A 
ATOM     45  C   UNL     1      11.357   6.543 -23.403  1.00  0.00     0.054 A 
BRANCH  45  46
ATOM     46  S   UNL     1      13.084   6.857 -23.862  1.00  0.00     0.124 S 
ATOM     47  O   UNL     1      13.458   7.913 -22.924  1.00  0.00    -0.237 OA
ATOM     48  O   UNL     1      13.716   5.561 -23.631  1.00  0.00    -0.237 OA
ATOM     49  O   UNL     1      13.004   7.269 -25.262  1.00  0.00    -0.744 OA
ENDBRANCH  45  46
ENDBRANCH  26  40
BRANCH  27  50
ATOM     50  C   UNL     1      -0.737   3.900 -20.094  1.00  0.00    -0.014 A 
ATOM     51  C   UNL     1      -1.123   2.649 -19.584  1.00  0.00     0.010 A 
ATOM     52  C   UNL     1      -1.711   4.904 -20.254  1.00  0.00     0.010 A 
ATOM     53  C   UNL     1      -2.462   2.399 -19.270  1.00  0.00     0.020 A 
ATOM     54  C   UNL     1      -3.041   4.672 -19.903  1.00  0.00     0.020 A 
ATOM     55  C   UNL     1      -3.412   3.413 -19.432  1.00  0.00     0.054 A 
BRANCH  55  56
ATOM     56  S   UNL     1      -5.139   3.077 -18.994  1.00  0.00     0.124 S 
ATOM     57  O   UNL     1      -5.567   2.216 -20.091  1.00  0.00    -0.237 OA
ATOM     58  O   UNL     1      -5.013   2.429 -17.691  1.00  0.00    -0.237 OA
ATOM     59  O   UNL     1      -5.748   4.405 -18.963  1.00  0.00    -0.744 OA
ENDBRANCH  55  56
ENDBRANCH  27  50
BRANCH  39  60
ATOM     60  C   UNL     1       3.557   1.512 -25.030  1.00  0.00    -0.014 A 
ATOM     61  C   UNL     1       2.675   1.714 -26.107  1.00  0.00     0.010 A 
ATOM     62  C   UNL     1       4.286   0.311 -24.958  1.00  0.00     0.010 A 
ATOM     63  C   UNL     1       2.481   0.711 -27.060  1.00  0.00     0.020 A 
ATOM     64  C   UNL     1       4.122  -0.680 -25.928  1.00  0.00     0.020 A 
ATOM     65  C   UNL     1       3.203  -0.482 -26.961  1.00  0.00     0.054 A 
BRANCH  65  66
ATOM     66  S   UNL     1       2.938  -1.766 -28.213  1.00  0.00     0.124 S 
ATOM     67  O   UNL     1       1.618  -2.275 -27.852  1.00  0.00    -0.237 OA
ATOM     68  O   UNL     1       3.002  -1.012 -29.463  1.00  0.00    -0.237 OA
ATOM     69  O   UNL     1       4.045  -2.696 -27.996  1.00  0.00    -0.744 OA
ENDBRANCH  65  66
ENDBRANCH  39  60
ENDBRANCH  13  14
ENDBRANCH   6   8
ENDBRANCH   3   4
ENDBRANCH   2   3
ENDBRANCH   1   2
BRANCH   1  70
ATOM     70  C   UNL     1       7.041   8.220 -10.343  1.00  0.00     0.116 C 
BRANCH  70  71
ATOM     71  N   UNL     1       7.645   6.912 -10.228  1.00  0.00    -0.354 N 
ATOM     72  C   UNL     1       8.290   6.374  -9.153  1.00  0.00     0.244 C 
ATOM     73  H   UNL     1       7.583   6.337 -11.025  1.00  0.00     0.163 HD
ATOM     74  O   UNL     1       8.651   5.197  -9.210  1.00  0.00    -0.273 OA
BRANCH  72  75
ATOM     75  C   UNL     1       8.620   7.255  -7.934  1.00  0.00     0.197 C 
BRANCH  75  76
ATOM     76  N   UNL     1       8.538   6.381  -6.763  1.00  0.00    -0.342 N 
ATOM     77  C   UNL     1       7.665   6.349  -5.727  1.00  0.00     0.226 C 
ATOM     78  H   UNL     1       9.243   5.696  -6.719  1.00  0.00     0.164 HD
ATOM     79  O   UNL     1       7.668   5.334  -5.023  1.00  0.00    -0.275 OA
BRANCH  77  80
ATOM     80  C   UNL     1       6.777   7.516  -5.327  1.00  0.00     0.107 C 
ATOM     81  C   UNL     1       7.600   8.718  -4.868  1.00  0.00     0.115 C 
ATOM     82  C   UNL     1       5.761   8.038  -6.337  1.00  0.00     0.133 C 
ATOM     83  C   UNL     1       6.858   9.913  -5.393  1.00  0.00     0.223 C 
ATOM     84  N   UNL     1       5.830   9.477  -6.208  1.00  0.00    -0.333 N 
ATOM     85  O   UNL     1       7.120  11.072  -5.138  1.00  0.00    -0.275 OA
BRANCH  84  86
ATOM     86  C   UNL     1       4.944  10.415  -6.910  1.00  0.00     0.234 C 
BRANCH  86  87
ATOM     87  C   UNL     1       5.302  10.697  -8.366  1.00  0.00     0.406 C 
ATOM     88  F   UNL     1       4.912   9.667  -9.155  1.00  0.00    -0.169 F 
ATOM     89  F   UNL     1       4.684  11.805  -8.826  1.00  0.00    -0.169 F 
ATOM     90  F   UNL     1       6.631  10.861  -8.552  1.00  0.00    -0.169 F 
ENDBRANCH  86  87
ENDBRANCH  84  86
ENDBRANCH  77  80
ENDBRANCH  75  76
BRANCH  75  91
ATOM     91  C   UNL     1      10.004   7.879  -8.151  1.00  0.00     0.191 C 
BRANCH  91  92
ATOM     92  O   UNL     1       9.905   9.306  -8.133  1.00  0.00    -0.394 OA
ATOM     93  H   UNL     1       9.311   9.599  -8.842  1.00  0.00     0.210 HD
ENDBRANCH  91  92
ENDBRANCH  75  91
ENDBRANCH  72  75
ENDBRANCH  70  71
ENDBRANCH   1  70
TORSDOF 20
