REMARK SMILES CS(=O)(=O)c1ccc(/C=C(/C(=O)NCCCCNC(=O)c2ccc(-c3c4nc(c(-c5ccc(S(=O)(=O)[O-])cc5)c5ccc([nH]5)c(-c5ccc(S(=O)(=O)[O-])cc5)c5nc(c(-c6ccc(S(=O)(=O)[O-])cc6)c6ccc3[nH]6)C=C5)C=C4)cc2)c2ccccc2)cc1
REMARK SMILES IDX 16 1 15 2 14 3 13 4 11 5 12 6 10 8 9 9 8 10 5 11 6 12 88 13
REMARK SMILES IDX 7 14 87 15 2 16 1 17 3 18 4 19 81 20 82 21 86 22 83 23 85 24
REMARK SMILES IDX 84 25 17 26 18 27 19 28 20 30 21 31 22 32 80 33 23 34 79 35
REMARK SMILES IDX 24 36 25 37 26 38 73 39 27 40 78 41 72 42 74 43 28 44 77 45
REMARK SMILES IDX 71 46 70 47 29 49 59 50 40 51 58 52 41 53 44 54 57 55 75 56
REMARK SMILES IDX 42 57 43 58 56 60 76 61 45 62 30 63 31 64 39 65 32 66 38 67
REMARK SMILES IDX 33 68 34 69 35 70 36 71 37 72 60 73 61 74 69 75 62 76 68 77
REMARK SMILES IDX 63 78 64 79 65 80 66 81 67 82 46 83 47 84 55 85 48 86 54 87
REMARK SMILES IDX 49 88 50 89 51 90 52 91 53 92
REMARK H PARENT 13 7 18 29 74 48 44 59
REMARK Flexibility Score: inf
ROOT
ATOM      1  C   UNL     1       4.180  -9.036   6.369  1.00  0.00     0.023 C 
ENDROOT
BRANCH   1   2
ATOM      2  C   UNL     1       3.772  -7.776   5.592  1.00  0.00     0.023 C 
BRANCH   2   3
ATOM      3  C   UNL     1       4.083  -7.829   4.094  1.00  0.00     0.116 C 
BRANCH   3   4
ATOM      4  N   UNL     1       3.167  -8.728   3.422  1.00  0.00    -0.352 N 
ATOM      5  C   UNL     1       2.028  -8.554   2.700  1.00  0.00     0.251 C 
ATOM      6  O   UNL     1       1.478  -9.587   2.310  1.00  0.00    -0.269 OA
ATOM      7  H   UNL     1       3.425  -9.674   3.507  1.00  0.00     0.163 HD
BRANCH   5   8
ATOM      8  C   UNL     1       1.476  -7.201   2.297  1.00  0.00     0.047 C 
ATOM      9  C   UNL     1       1.618  -6.096   3.064  1.00  0.00     0.022 C 
BRANCH   9  10
ATOM     10  C   UNL     1       1.247  -4.688   2.786  1.00  0.00    -0.025 A 
ATOM     11  C   UNL     1       0.749  -1.983   2.213  1.00  0.00     0.067 A 
ATOM     12  C   UNL     1      -0.207  -2.947   1.898  1.00  0.00     0.021 A 
ATOM     13  C   UNL     1       1.926  -2.342   2.869  1.00  0.00     0.021 A 
ATOM     14  C   UNL     1       0.037  -4.290   2.205  1.00  0.00     0.009 A 
ATOM     15  C   UNL     1       2.171  -3.691   3.146  1.00  0.00     0.009 A 
BRANCH  11  16
ATOM     16  S   UNL     1       0.445  -0.278   1.819  1.00  0.00     0.175 S 
ATOM     17  C   UNL     1       1.134  -0.103   0.193  1.00  0.00     0.163 C 
ATOM     18  O   UNL     1       1.225   0.534   2.727  1.00  0.00    -0.224 OA
ATOM     19  O   UNL     1      -0.995  -0.102   1.713  1.00  0.00    -0.224 OA
ENDBRANCH  11  16
ENDBRANCH   9  10
BRANCH   8  20
ATOM     20  C   UNL     1       0.609  -7.175   1.091  1.00  0.00    -0.013 A 
ATOM     21  C   UNL     1      -0.639  -7.820   1.148  1.00  0.00     0.009 A 
ATOM     22  C   UNL     1       0.951  -6.467  -0.068  1.00  0.00     0.009 A 
ATOM     23  C   UNL     1      -1.539  -7.735   0.087  1.00  0.00     0.001 A 
ATOM     24  C   UNL     1       0.041  -6.372  -1.126  1.00  0.00     0.001 A 
ATOM     25  C   UNL     1      -1.203  -6.999  -1.045  1.00  0.00     0.000 A 
ENDBRANCH   8  20
ENDBRANCH   5   8
ENDBRANCH   3   4
ENDBRANCH   2   3
ENDBRANCH   1   2
BRANCH   1  26
ATOM     26  C   UNL     1       5.670  -9.368   6.339  1.00  0.00     0.116 C 
BRANCH  26  27
ATOM     27  N   UNL     1       6.507  -8.274   6.808  1.00  0.00    -0.352 N 
ATOM     28  C   UNL     1       7.686  -8.330   7.511  1.00  0.00     0.251 C 
ATOM     29  H   UNL     1       6.185  -7.370   6.591  1.00  0.00     0.163 HD
ATOM     30  O   UNL     1       8.201  -7.295   7.922  1.00  0.00    -0.269 OA
BRANCH  28  31
ATOM     31  C   UNL     1       8.306  -9.640   7.803  1.00  0.00     0.039 A 
ATOM     32  C   UNL     1       8.721  -9.908   9.109  1.00  0.00     0.014 A 
ATOM     33  C   UNL     1       8.459 -10.603   6.802  1.00  0.00     0.014 A 
ATOM     34  C   UNL     1       9.228 -11.169   9.427  1.00  0.00     0.010 A 
ATOM     35  C   UNL     1       8.906 -11.880   7.133  1.00  0.00     0.010 A 
ATOM     36  C   UNL     1       9.289 -12.178   8.450  1.00  0.00    -0.014 A 
BRANCH  36  37
ATOM     37  C   UNL     1       9.719 -13.555   8.801  1.00  0.00     0.031 A 
ATOM     38  C   UNL     1      10.978 -14.134   8.217  1.00  0.00     0.074 A 
ATOM     39  C   UNL     1       8.939 -14.305   9.604  1.00  0.00     0.049 A 
ATOM     40  N   UNL     1      11.493 -15.325   8.391  1.00  0.00    -0.248 NA
ATOM     41  C   UNL     1      11.746 -13.275   7.302  1.00  0.00     0.031 C 
ATOM     42  C   UNL     1       7.667 -13.874  10.193  1.00  0.00     0.029 A 
ATOM     43  N   UNL     1       9.097 -15.588  10.063  1.00  0.00    -0.354 N 
ATOM     44  C   UNL     1      12.635 -15.363   7.601  1.00  0.00     0.074 A 
ATOM     45  C   UNL     1      12.712 -14.094   6.909  1.00  0.00     0.031 C 
ATOM     46  C   UNL     1       7.177 -14.864  10.956  1.00  0.00     0.029 A 
ATOM     47  C   UNL     1       8.078 -16.011  10.884  1.00  0.00     0.049 A 
ATOM     48  H   UNL     1       9.867 -16.154   9.826  1.00  0.00     0.167 HD
ATOM     49  C   UNL     1      13.548 -16.356   7.475  1.00  0.00     0.031 A 
ATOM     50  C   UNL     1       7.887 -17.188  11.510  1.00  0.00     0.031 A 
ATOM     51  C   UNL     1      13.473 -17.615   8.169  1.00  0.00     0.049 A 
ATOM     52  C   UNL     1       8.916 -18.273  11.358  1.00  0.00     0.074 A 
ATOM     53  C   UNL     1      14.378 -18.662   8.154  1.00  0.00     0.029 A 
ATOM     54  N   UNL     1      12.431 -18.000   9.001  1.00  0.00    -0.354 N 
ATOM     55  N   UNL     1      10.028 -18.262  10.662  1.00  0.00    -0.248 NA
ATOM     56  C   UNL     1       8.670 -19.525  12.087  1.00  0.00     0.031 C 
ATOM     57  C   UNL     1      13.860 -19.700   8.938  1.00  0.00     0.029 A 
ATOM     58  C   UNL     1      12.660 -19.277   9.485  1.00  0.00     0.049 A 
ATOM     59  H   UNL     1      11.645 -17.447   9.214  1.00  0.00     0.167 HD
ATOM     60  C   UNL     1      10.626 -19.497  10.887  1.00  0.00     0.074 A 
ATOM     61  C   UNL     1       9.762 -20.220  11.799  1.00  0.00     0.031 C 
ATOM     62  C   UNL     1      11.786 -19.988  10.384  1.00  0.00     0.031 A 
BRANCH  49  63
ATOM     63  C   UNL     1      14.710 -16.119   6.546  1.00  0.00    -0.014 A 
ATOM     64  C   UNL     1      15.720 -15.194   6.869  1.00  0.00     0.010 A 
ATOM     65  C   UNL     1      14.814 -16.856   5.352  1.00  0.00     0.010 A 
ATOM     66  C   UNL     1      16.789 -14.979   5.996  1.00  0.00     0.020 A 
ATOM     67  C   UNL     1      15.898 -16.664   4.489  1.00  0.00     0.020 A 
ATOM     68  C   UNL     1      16.869 -15.713   4.809  1.00  0.00     0.054 A 
BRANCH  68  69
ATOM     69  S   UNL     1      18.279 -15.427   3.703  1.00  0.00     0.124 S 
ATOM     70  O   UNL     1      17.946 -14.128   3.123  1.00  0.00    -0.237 OA
ATOM     71  O   UNL     1      19.414 -15.431   4.622  1.00  0.00    -0.237 OA
ATOM     72  O   UNL     1      18.227 -16.555   2.776  1.00  0.00    -0.744 OA
ENDBRANCH  68  69
ENDBRANCH  49  63
BRANCH  50  73
ATOM     73  C   UNL     1       6.680 -17.392  12.356  1.00  0.00    -0.014 A 
ATOM     74  C   UNL     1       6.793 -17.454  13.756  1.00  0.00     0.010 A 
ATOM     75  C   UNL     1       5.408 -17.510  11.766  1.00  0.00     0.010 A 
ATOM     76  C   UNL     1       5.659 -17.649  14.550  1.00  0.00     0.020 A 
ATOM     77  C   UNL     1       4.269 -17.677  12.559  1.00  0.00     0.020 A 
ATOM     78  C   UNL     1       4.404 -17.758  13.946  1.00  0.00     0.054 A 
BRANCH  78  79
ATOM     79  S   UNL     1       2.939 -17.956  14.999  1.00  0.00     0.124 S 
ATOM     80  O   UNL     1       3.053 -19.349  15.417  1.00  0.00    -0.237 OA
ATOM     81  O   UNL     1       3.164 -16.960  16.045  1.00  0.00    -0.237 OA
ATOM     82  O   UNL     1       1.829 -17.659  14.097  1.00  0.00    -0.744 OA
ENDBRANCH  78  79
ENDBRANCH  50  73
BRANCH  62  83
ATOM     83  C   UNL     1      12.199 -21.366  10.829  1.00  0.00    -0.014 A 
ATOM     84  C   UNL     1      11.521 -22.511  10.374  1.00  0.00     0.010 A 
ATOM     85  C   UNL     1      13.302 -21.517  11.688  1.00  0.00     0.010 A 
ATOM     86  C   UNL     1      11.915 -23.781  10.804  1.00  0.00     0.020 A 
ATOM     87  C   UNL     1      13.716 -22.787  12.097  1.00  0.00     0.020 A 
ATOM     88  C   UNL     1      13.008 -23.910  11.666  1.00  0.00     0.054 A 
BRANCH  88  89
ATOM     89  S   UNL     1      13.518 -25.571  12.189  1.00  0.00     0.124 S 
ATOM     90  O   UNL     1      12.488 -25.909  13.168  1.00  0.00    -0.237 OA
ATOM     91  O   UNL     1      13.472 -26.330  10.941  1.00  0.00    -0.237 OA
ATOM     92  O   UNL     1      14.856 -25.366  12.737  1.00  0.00    -0.744 OA
ENDBRANCH  88  89
ENDBRANCH  62  83
ENDBRANCH  36  37
ENDBRANCH  28  31
ENDBRANCH  26  27
ENDBRANCH   1  26
TORSDOF 17
