REMARK SMILES COc1ccc(/C=C(/Sc2nc(C)n[nH]2)C(=O)NCCCCNC(=O)c2ccc(-c3c4nc(c(-c5ccc(S(=O)(=O)[O-])cc5)c5ccc([nH]5)c(-c5ccc(S(=O)(=O)[O-])cc5)c5nc(c(-c6ccc(S(=O)(=O)[O-])cc6)c6ccc3[nH]6)C=C5)C=C4)cc2)cc1OC
REMARK SMILES IDX 21 1 20 2 19 3 18 4 16 5 17 6 8 8 7 9 6 10 3 11 4 12 87 13
REMARK SMILES IDX 5 14 86 15 2 16 1 17 88 18 89 19 9 20 10 21 11 22 15 23
REMARK SMILES IDX 12 24 14 25 13 27 22 28 23 29 24 30 25 32 26 33 27 34 85 35
REMARK SMILES IDX 28 36 84 37 29 38 30 39 31 40 78 41 32 42 83 43 77 44 79 45
REMARK SMILES IDX 33 46 82 47 76 48 75 49 34 51 64 52 45 53 63 54 46 55 49 56
REMARK SMILES IDX 62 57 80 58 47 59 48 60 61 62 81 63 50 64 35 65 36 66 44 67
REMARK SMILES IDX 37 68 43 69 38 70 39 71 40 72 41 73 42 74 65 75 66 76 74 77
REMARK SMILES IDX 67 78 73 79 68 80 69 81 70 82 71 83 72 84 51 85 52 86 60 87
REMARK SMILES IDX 53 88 59 89 54 90 55 91 56 92 57 93 58 94
REMARK H PARENT 18 7 15 26 23 31 79 50 49 61
REMARK Flexibility Score: inf
ROOT
ATOM      1  C   UNL     1      -3.247 -10.165  -1.857  1.00  0.00     0.023 C 
ENDROOT
BRANCH   1   2
ATOM      2  C   UNL     1      -1.903 -10.037  -2.593  1.00  0.00     0.023 C 
BRANCH   2   3
ATOM      3  C   UNL     1      -1.777  -8.902  -3.612  1.00  0.00     0.116 C 
BRANCH   3   4
ATOM      4  N   UNL     1      -1.769  -7.566  -3.042  1.00  0.00    -0.352 N 
ATOM      5  C   UNL     1      -0.812  -6.591  -2.961  1.00  0.00     0.258 C 
ATOM      6  O   UNL     1      -1.265  -5.444  -3.020  1.00  0.00    -0.269 OA
ATOM      7  H   UNL     1      -2.626  -7.310  -2.631  1.00  0.00     0.163 HD
BRANCH   5   8
ATOM      8  C   UNL     1       0.671  -6.829  -2.741  1.00  0.00     0.081 C 
ATOM      9  C   UNL     1       1.459  -5.913  -2.124  1.00  0.00     0.029 C 
BRANCH   9  10
ATOM     10  C   UNL     1       1.223  -4.590  -1.492  1.00  0.00    -0.020 A 
ATOM     11  C   UNL     1       1.049  -2.155  -0.048  1.00  0.00     0.160 A 
ATOM     12  C   UNL     1      -0.031  -3.042  -0.091  1.00  0.00     0.051 A 
ATOM     13  C   UNL     1       2.244  -2.488  -0.692  1.00  0.00     0.161 A 
ATOM     14  C   UNL     1       0.067  -4.257  -0.782  1.00  0.00     0.012 A 
ATOM     15  C   UNL     1       2.301  -3.687  -1.430  1.00  0.00     0.058 A 
BRANCH  11  16
ATOM     16  O   UNL     1       0.916  -1.046   0.743  1.00  0.00    -0.493 OA
ATOM     17  C   UNL     1       0.286   0.028   0.038  1.00  0.00     0.278 C 
ENDBRANCH  11  16
BRANCH  13  18
ATOM     18  O   UNL     1       3.438  -1.817  -0.684  1.00  0.00    -0.493 OA
ATOM     19  C   UNL     1       3.533  -0.589   0.019  1.00  0.00     0.278 C 
ENDBRANCH  13  18
ENDBRANCH   9  10
BRANCH   8  20
ATOM     20  S   UNL     1       1.329  -8.411  -3.079  1.00  0.00    -0.045 SA
BRANCH  20  21
ATOM     21  C   UNL     1       2.713  -8.107  -4.057  1.00  0.00     0.188 A 
ATOM     22  N   UNL     1       3.416  -7.021  -4.265  1.00  0.00    -0.206 NA
ATOM     23  N   UNL     1       3.323  -9.163  -4.664  1.00  0.00    -0.254 N 
ATOM     24  C   UNL     1       4.480  -7.479  -5.009  1.00  0.00     0.148 A 
ATOM     25  N   UNL     1       4.465  -8.794  -5.267  1.00  0.00    -0.158 NA
ATOM     26  H   UNL     1       2.971 -10.082  -4.661  1.00  0.00     0.192 HD
ATOM     27  C   UNL     1       5.588  -6.604  -5.444  1.00  0.00     0.092 C 
ENDBRANCH  20  21
ENDBRANCH   8  20
ENDBRANCH   5   8
ENDBRANCH   3   4
ENDBRANCH   2   3
ENDBRANCH   1   2
BRANCH   1  28
ATOM     28  C   UNL     1      -4.480 -10.290  -2.744  1.00  0.00     0.116 C 
BRANCH  28  29
ATOM     29  N   UNL     1      -4.441 -11.439  -3.651  1.00  0.00    -0.352 N 
ATOM     30  C   UNL     1      -5.349 -11.771  -4.649  1.00  0.00     0.251 C 
ATOM     31  H   UNL     1      -3.678 -12.051  -3.541  1.00  0.00     0.163 HD
ATOM     32  O   UNL     1      -5.436 -12.915  -5.062  1.00  0.00    -0.269 OA
BRANCH  30  33
ATOM     33  C   UNL     1      -6.189 -10.697  -5.215  1.00  0.00     0.039 A 
ATOM     34  C   UNL     1      -7.537 -10.877  -5.536  1.00  0.00     0.014 A 
ATOM     35  C   UNL     1      -5.579  -9.461  -5.391  1.00  0.00     0.014 A 
ATOM     36  C   UNL     1      -8.278  -9.772  -5.958  1.00  0.00     0.010 A 
ATOM     37  C   UNL     1      -6.342  -8.350  -5.606  1.00  0.00     0.010 A 
ATOM     38  C   UNL     1      -7.670  -8.507  -5.975  1.00  0.00    -0.014 A 
BRANCH  38  39
ATOM     39  C   UNL     1      -8.407  -7.287  -6.272  1.00  0.00     0.031 A 
ATOM     40  C   UNL     1      -9.539  -7.025  -5.346  1.00  0.00     0.074 A 
ATOM     41  C   UNL     1      -7.931  -6.355  -7.130  1.00  0.00     0.049 A 
ATOM     42  N   UNL     1     -10.798  -7.142  -5.602  1.00  0.00    -0.248 NA
ATOM     43  C   UNL     1      -9.245  -6.784  -3.922  1.00  0.00     0.031 C 
ATOM     44  C   UNL     1      -6.651  -6.355  -7.855  1.00  0.00     0.029 A 
ATOM     45  N   UNL     1      -8.435  -5.132  -7.438  1.00  0.00    -0.354 N 
ATOM     46  C   UNL     1     -11.459  -6.724  -4.452  1.00  0.00     0.074 A 
ATOM     47  C   UNL     1     -10.475  -6.749  -3.401  1.00  0.00     0.031 C 
ATOM     48  C   UNL     1      -6.376  -5.107  -8.296  1.00  0.00     0.029 A 
ATOM     49  C   UNL     1      -7.532  -4.266  -8.050  1.00  0.00     0.049 A 
ATOM     50  H   UNL     1      -9.366  -4.878  -7.245  1.00  0.00     0.167 HD
ATOM     51  C   UNL     1     -12.675  -6.111  -4.524  1.00  0.00     0.031 A 
ATOM     52  C   UNL     1      -7.713  -2.945  -8.315  1.00  0.00     0.031 A 
ATOM     53  C   UNL     1     -13.224  -6.209  -5.856  1.00  0.00     0.049 A 
ATOM     54  C   UNL     1      -9.178  -2.711  -8.306  1.00  0.00     0.074 A 
ATOM     55  C   UNL     1     -13.583  -7.245  -6.694  1.00  0.00     0.029 A 
ATOM     56  N   UNL     1     -13.070  -5.099  -6.657  1.00  0.00    -0.354 N 
ATOM     57  N   UNL     1      -9.990  -3.257  -9.171  1.00  0.00    -0.248 NA
ATOM     58  C   UNL     1      -9.793  -2.291  -7.056  1.00  0.00     0.031 C 
ATOM     59  C   UNL     1     -13.173  -6.821  -7.992  1.00  0.00     0.029 A 
ATOM     60  C   UNL     1     -12.672  -5.520  -7.896  1.00  0.00     0.049 A 
ATOM     61  H   UNL     1     -13.221  -4.165  -6.384  1.00  0.00     0.167 HD
ATOM     62  C   UNL     1     -11.088  -3.659  -8.421  1.00  0.00     0.074 A 
ATOM     63  C   UNL     1     -10.953  -2.950  -7.147  1.00  0.00     0.031 C 
ATOM     64  C   UNL     1     -11.835  -4.742  -8.789  1.00  0.00     0.031 A 
BRANCH  51  65
ATOM     65  C   UNL     1     -13.158  -5.043  -3.569  1.00  0.00    -0.014 A 
ATOM     66  C   UNL     1     -14.426  -4.468  -3.806  1.00  0.00     0.010 A 
ATOM     67  C   UNL     1     -12.320  -4.379  -2.651  1.00  0.00     0.010 A 
ATOM     68  C   UNL     1     -14.784  -3.236  -3.248  1.00  0.00     0.020 A 
ATOM     69  C   UNL     1     -12.687  -3.170  -2.054  1.00  0.00     0.020 A 
ATOM     70  C   UNL     1     -13.900  -2.585  -2.391  1.00  0.00     0.054 A 
BRANCH  70  71
ATOM     71  S   UNL     1     -14.319  -0.937  -1.778  1.00  0.00     0.124 S 
ATOM     72  O   UNL     1     -14.296  -0.147  -3.005  1.00  0.00    -0.237 OA
ATOM     73  O   UNL     1     -15.636  -1.155  -1.187  1.00  0.00    -0.237 OA
ATOM     74  O   UNL     1     -13.252  -0.647  -0.823  1.00  0.00    -0.744 OA
ENDBRANCH  70  71
ENDBRANCH  51  65
BRANCH  52  75
ATOM     75  C   UNL     1      -6.710  -1.847  -8.250  1.00  0.00    -0.014 A 
ATOM     76  C   UNL     1      -6.955  -0.580  -8.815  1.00  0.00     0.010 A 
ATOM     77  C   UNL     1      -5.603  -1.963  -7.382  1.00  0.00     0.010 A 
ATOM     78  C   UNL     1      -6.155   0.533  -8.488  1.00  0.00     0.020 A 
ATOM     79  C   UNL     1      -4.802  -0.861  -7.051  1.00  0.00     0.020 A 
ATOM     80  C   UNL     1      -5.092   0.389  -7.591  1.00  0.00     0.054 A 
BRANCH  80  81
ATOM     81  S   UNL     1      -4.160   1.857  -7.049  1.00  0.00     0.124 S 
ATOM     82  O   UNL     1      -3.424   2.224  -8.255  1.00  0.00    -0.237 OA
ATOM     83  O   UNL     1      -5.219   2.781  -6.652  1.00  0.00    -0.237 OA
ATOM     84  O   UNL     1      -3.337   1.358  -5.949  1.00  0.00    -0.744 OA
ENDBRANCH  80  81
ENDBRANCH  52  75
BRANCH  64  85
ATOM     85  C   UNL     1     -11.643  -5.323 -10.171  1.00  0.00    -0.014 A 
ATOM     86  C   UNL     1     -10.461  -5.952 -10.609  1.00  0.00     0.010 A 
ATOM     87  C   UNL     1     -12.787  -5.404 -10.985  1.00  0.00     0.010 A 
ATOM     88  C   UNL     1     -10.428  -6.638 -11.835  1.00  0.00     0.020 A 
ATOM     89  C   UNL     1     -12.766  -6.098 -12.194  1.00  0.00     0.020 A 
ATOM     90  C   UNL     1     -11.586  -6.709 -12.618  1.00  0.00     0.054 A 
BRANCH  90  91
ATOM     91  S   UNL     1     -11.568  -7.653 -14.169  1.00  0.00     0.124 S 
ATOM     92  O   UNL     1     -10.711  -6.839 -15.026  1.00  0.00    -0.237 OA
ATOM     93  O   UNL     1     -11.011  -8.941 -13.762  1.00  0.00    -0.237 OA
ATOM     94  O   UNL     1     -12.976  -7.696 -14.567  1.00  0.00    -0.744 OA
ENDBRANCH  90  91
ENDBRANCH  64  85
ENDBRANCH  38  39
ENDBRANCH  30  33
ENDBRANCH  28  29
ENDBRANCH   1  28
TORSDOF 19
