REMARK SMILES C[C@@H](C(=O)NCCCCNC(=O)c1ccc(-c2c3nc(c(-c4ccc(S(=O)(=O)[O-])cc4)c4ccc([nH]4)c(-c4ccc(S(=O)(=O)[O-])cc4)c4nc(c(-c5ccc(S(=O)(=O)[O-])cc5)c5ccc2[nH]5)C=C4)C=C3)cc1)[C@H](C)[N@@H+](C)[C@@H](C)C1CC1
REMARK SMILES IDX 7 1 6 2 5 3 3 4 4 5 2 7 1 8 73 9 74 10 75 11 76 12 77 14
REMARK SMILES IDX 78 15 79 16 80 17 81 18 8 19 9 20 10 21 11 22 12 24 13 25
REMARK SMILES IDX 14 26 72 27 15 28 71 29 16 30 17 31 18 32 65 33 19 34 70 35
REMARK SMILES IDX 64 36 66 37 20 38 69 39 63 40 62 41 21 43 51 44 32 45 50 46
REMARK SMILES IDX 33 47 36 48 49 49 67 50 34 51 35 52 48 54 68 55 37 56 22 57
REMARK SMILES IDX 23 58 31 59 24 60 30 61 25 62 26 63 27 64 28 65 29 66 52 67
REMARK SMILES IDX 53 68 61 69 54 70 60 71 55 72 56 73 57 74 58 75 59 76 38 77
REMARK SMILES IDX 39 78 47 79 40 80 46 81 41 82 42 83 43 84 44 85 45 86
REMARK H PARENT 5 6 75 13 10 23 66 42 36 53
REMARK Flexibility Score: inf
ROOT
ATOM      1  C   UNL     1      -3.405   3.533  -2.478  1.00  0.00     0.023 C 
ENDROOT
BRANCH   1   2
ATOM      2  C   UNL     1      -1.976   3.000  -2.360  1.00  0.00     0.116 C 
BRANCH   2   3
ATOM      3  N   UNL     1      -1.671   2.563  -1.009  1.00  0.00    -0.356 N 
ATOM      4  C   UNL     1      -1.598   1.293  -0.504  1.00  0.00     0.228 C 
ATOM      5  O   UNL     1      -1.429   1.161   0.708  1.00  0.00    -0.275 OA
ATOM      6  H   UNL     1      -1.490   3.284  -0.364  1.00  0.00     0.163 HD
BRANCH   4   7
ATOM      7  C   UNL     1      -1.769   0.105  -1.457  1.00  0.00     0.133 C 
ATOM      8  C   UNL     1      -3.269  -0.048  -1.708  1.00  0.00     0.024 C 
BRANCH   7   9
ATOM      9  C   UNL     1      -1.120  -1.197  -0.906  1.00  0.00     0.193 C 
ATOM     10  C   UNL     1       0.379  -0.988  -0.614  1.00  0.00     0.076 C 
BRANCH   9  11
ATOM     11  N   UNL     1      -1.315  -2.461  -1.665  1.00  0.00    -0.332 N 
ATOM     12  C   UNL     1      -2.588  -3.126  -1.398  1.00  0.00     0.333 C 
ATOM     13  H   UNL     1      -0.534  -2.937  -1.213  1.00  0.00     0.348 HD
BRANCH  11  14
ATOM     14  C   UNL     1      -0.848  -2.661  -3.050  1.00  0.00     0.184 C 
ATOM     15  C   UNL     1      -1.428  -1.746  -4.133  1.00  0.00     0.075 C 
BRANCH  14  16
ATOM     16  C   UNL     1       0.661  -2.795  -3.091  1.00  0.00     0.047 C 
ATOM     17  C   UNL     1       1.335  -3.387  -4.309  1.00  0.00     0.010 C 
ATOM     18  C   UNL     1       1.575  -1.949  -3.953  1.00  0.00     0.010 C 
ENDBRANCH  14  16
ENDBRANCH  11  14
ENDBRANCH   9  11
ENDBRANCH   7   9
ENDBRANCH   4   7
ENDBRANCH   2   3
ENDBRANCH   1   2
BRANCH   1  19
ATOM     19  C   UNL     1      -3.665   4.839  -1.734  1.00  0.00     0.023 C 
BRANCH  19  20
ATOM     20  C   UNL     1      -2.758   5.988  -2.141  1.00  0.00     0.116 C 
BRANCH  20  21
ATOM     21  N   UNL     1      -2.794   6.250  -3.571  1.00  0.00    -0.352 N 
ATOM     22  C   UNL     1      -2.874   7.455  -4.227  1.00  0.00     0.251 C 
ATOM     23  H   UNL     1      -2.754   5.454  -4.150  1.00  0.00     0.163 HD
ATOM     24  O   UNL     1      -3.051   7.483  -5.436  1.00  0.00    -0.269 OA
BRANCH  22  25
ATOM     25  C   UNL     1      -2.780   8.707  -3.448  1.00  0.00     0.039 A 
ATOM     26  C   UNL     1      -3.693   9.729  -3.711  1.00  0.00     0.014 A 
ATOM     27  C   UNL     1      -1.821   8.856  -2.442  1.00  0.00     0.014 A 
ATOM     28  C   UNL     1      -3.680  10.877  -2.920  1.00  0.00     0.010 A 
ATOM     29  C   UNL     1      -1.870   9.959  -1.597  1.00  0.00     0.010 A 
ATOM     30  C   UNL     1      -2.796  10.985  -1.832  1.00  0.00    -0.014 A 
BRANCH  30  31
ATOM     31  C   UNL     1      -2.848  12.163  -0.932  1.00  0.00     0.031 A 
ATOM     32  C   UNL     1      -1.668  13.091  -0.821  1.00  0.00     0.074 A 
ATOM     33  C   UNL     1      -3.956  12.380  -0.196  1.00  0.00     0.049 A 
ATOM     34  N   UNL     1      -1.546  14.181  -0.108  1.00  0.00    -0.248 NA
ATOM     35  C   UNL     1      -0.462  12.741  -1.591  1.00  0.00     0.031 C 
ATOM     36  C   UNL     1      -5.140  11.515  -0.170  1.00  0.00     0.029 A 
ATOM     37  N   UNL     1      -4.274  13.399   0.666  1.00  0.00    -0.354 N 
ATOM     38  C   UNL     1      -0.259  14.648  -0.347  1.00  0.00     0.074 A 
ATOM     39  C   UNL     1       0.385  13.689  -1.216  1.00  0.00     0.031 C 
ATOM     40  C   UNL     1      -6.068  12.061   0.632  1.00  0.00     0.029 A 
ATOM     41  C   UNL     1      -5.535  13.292   1.206  1.00  0.00     0.049 A 
ATOM     42  H   UNL     1      -3.659  14.137   0.878  1.00  0.00     0.167 HD
ATOM     43  C   UNL     1       0.325  15.788   0.093  1.00  0.00     0.031 A 
ATOM     44  C   UNL     1      -6.189  14.095   2.067  1.00  0.00     0.031 A 
ATOM     45  C   UNL     1      -0.320  16.741   0.957  1.00  0.00     0.049 A 
ATOM     46  C   UNL     1      -5.514  15.352   2.543  1.00  0.00     0.074 A 
ATOM     47  C   UNL     1       0.171  17.946   1.427  1.00  0.00     0.029 A 
ATOM     48  N   UNL     1      -1.597  16.599   1.479  1.00  0.00    -0.354 N 
ATOM     49  N   UNL     1      -4.322  15.811   2.246  1.00  0.00    -0.248 NA
ATOM     50  C   UNL     1      -6.282  16.208   3.457  1.00  0.00     0.031 C 
ATOM     51  C   UNL     1      -0.787  18.508   2.277  1.00  0.00     0.029 A 
ATOM     52  C   UNL     1      -1.901  17.684   2.284  1.00  0.00     0.049 A 
ATOM     53  H   UNL     1      -2.198  15.839   1.304  1.00  0.00     0.167 HD
ATOM     54  C   UNL     1      -4.204  17.021   2.922  1.00  0.00     0.074 A 
ATOM     55  C   UNL     1      -5.460  17.236   3.613  1.00  0.00     0.031 C 
ATOM     56  C   UNL     1      -3.152  17.875   2.974  1.00  0.00     0.031 A 
BRANCH  43  57
ATOM     57  C   UNL     1       1.730  16.077  -0.368  1.00  0.00    -0.014 A 
ATOM     58  C   UNL     1       1.993  16.419  -1.707  1.00  0.00     0.010 A 
ATOM     59  C   UNL     1       2.789  16.075   0.557  1.00  0.00     0.010 A 
ATOM     60  C   UNL     1       3.292  16.731  -2.118  1.00  0.00     0.020 A 
ATOM     61  C   UNL     1       4.085  16.414   0.157  1.00  0.00     0.020 A 
ATOM     62  C   UNL     1       4.329  16.731  -1.181  1.00  0.00     0.054 A 
BRANCH  62  63
ATOM     63  S   UNL     1       5.993  17.195  -1.734  1.00  0.00     0.124 S 
ATOM     64  O   UNL     1       6.372  16.045  -2.552  1.00  0.00    -0.237 OA
ATOM     65  O   UNL     1       5.751  18.434  -2.468  1.00  0.00    -0.237 OA
ATOM     66  O   UNL     1       6.743  17.347  -0.490  1.00  0.00    -0.744 OA
ENDBRANCH  62  63
ENDBRANCH  43  57
BRANCH  44  67
ATOM     67  C   UNL     1      -7.558  13.737   2.534  1.00  0.00    -0.014 A 
ATOM     68  C   UNL     1      -8.672  14.514   2.169  1.00  0.00     0.010 A 
ATOM     69  C   UNL     1      -7.750  12.619   3.366  1.00  0.00     0.010 A 
ATOM     70  C   UNL     1      -9.944  14.202   2.659  1.00  0.00     0.020 A 
ATOM     71  C   UNL     1      -9.024  12.284   3.830  1.00  0.00     0.020 A 
ATOM     72  C   UNL     1     -10.111  13.090   3.489  1.00  0.00     0.054 A 
BRANCH  72  73
ATOM     73  S   UNL     1     -11.773  12.692   4.098  1.00  0.00     0.124 S 
ATOM     74  O   UNL     1     -11.986  13.731   5.100  1.00  0.00    -0.237 OA
ATOM     75  O   UNL     1     -12.587  12.800   2.889  1.00  0.00    -0.237 OA
ATOM     76  O   UNL     1     -11.628  11.335   4.622  1.00  0.00    -0.744 OA
ENDBRANCH  72  73
ENDBRANCH  44  67
BRANCH  56  77
ATOM     77  C   UNL     1      -3.329  19.129   3.790  1.00  0.00    -0.014 A 
ATOM     78  C   UNL     1      -3.421  19.079   5.193  1.00  0.00     0.010 A 
ATOM     79  C   UNL     1      -3.393  20.376   3.144  1.00  0.00     0.010 A 
ATOM     80  C   UNL     1      -3.633  20.247   5.929  1.00  0.00     0.020 A 
ATOM     81  C   UNL     1      -3.571  21.551   3.879  1.00  0.00     0.020 A 
ATOM     82  C   UNL     1      -3.713  21.475   5.266  1.00  0.00     0.054 A 
BRANCH  82  83
ATOM     83  S   UNL     1      -3.988  22.977   6.244  1.00  0.00     0.124 S 
ATOM     84  O   UNL     1      -5.395  22.846   6.612  1.00  0.00    -0.237 OA
ATOM     85  O   UNL     1      -3.034  22.826   7.339  1.00  0.00    -0.237 OA
ATOM     86  O   UNL     1      -3.688  24.059   5.309  1.00  0.00    -0.744 OA
ENDBRANCH  82  83
ENDBRANCH  56  77
ENDBRANCH  30  31
ENDBRANCH  22  25
ENDBRANCH  20  21
ENDBRANCH  19  20
ENDBRANCH   1  19
TORSDOF 18
