REMARK SMILES CC1(C)[C@@]2(C(=O)NCCCCNC(=O)c3ccc(-c4c5nc(c(-c6ccc(S(=O)(=O)[O-])cc6)c6ccc([nH]6)c(-c6ccc(S(=O)(=O)[O-])cc6)c6nc(c(-c7ccc(S(=O)(=O)[O-])cc7)c7ccc4[nH]7)C=C6)C=C5)cc3)CC[C@]1(C)/C(=N/NC(=O)c1ccc(Cl)cc1)C2
REMARK SMILES IDX 10 1 9 2 8 3 7 4 5 5 6 6 4 8 1 9 2 10 3 11 77 12 75 13 91 14
REMARK SMILES IDX 76 15 78 16 79 17 80 18 81 19 82 20 83 22 84 23 85 24 90 25
REMARK SMILES IDX 86 26 89 27 87 28 88 29 11 30 12 31 13 32 14 34 15 35 16 36
REMARK SMILES IDX 74 37 17 38 73 39 18 40 19 41 20 42 67 43 21 44 72 45 66 46
REMARK SMILES IDX 68 47 22 48 71 49 65 50 64 51 23 53 53 54 34 55 52 56 35 57
REMARK SMILES IDX 38 58 51 59 69 60 36 61 37 62 50 64 70 65 39 66 24 67 25 68
REMARK SMILES IDX 33 69 26 70 32 71 27 72 28 73 29 74 30 75 31 76 54 77 55 78
REMARK SMILES IDX 63 79 56 80 62 81 57 82 58 83 59 84 60 85 61 86 40 87 41 88
REMARK SMILES IDX 49 89 42 90 48 91 43 92 44 93 45 94 46 95 47 96
REMARK H PARENT 7 7 81 21 12 33 68 52 38 63
REMARK Flexibility Score: inf
ROOT
ATOM      1  C   UNL     1      -4.852   3.278  -1.868  1.00  0.00     0.023 C 
ENDROOT
BRANCH   1   2
ATOM      2  C   UNL     1      -4.620   2.168  -0.831  1.00  0.00     0.023 C 
BRANCH   2   3
ATOM      3  C   UNL     1      -3.532   1.149  -1.179  1.00  0.00     0.116 C 
BRANCH   3   4
ATOM      4  N   UNL     1      -2.229   1.712  -1.504  1.00  0.00    -0.356 N 
ATOM      5  C   UNL     1      -0.974   1.470  -1.028  1.00  0.00     0.227 C 
ATOM      6  O   UNL     1      -0.057   1.631  -1.838  1.00  0.00    -0.274 OA
ATOM      7  H   UNL     1      -2.260   2.403  -2.205  1.00  0.00     0.163 HD
BRANCH   5   8
ATOM      8  C   UNL     1      -0.671   1.200   0.448  1.00  0.00     0.060 C 
ATOM      9  C   UNL     1       1.103  -0.686   0.192  1.00  0.00     0.013 C 
ATOM     10  C   UNL     1       0.780   0.703   0.794  1.00  0.00    -0.010 C 
ATOM     11  C   UNL     1       1.968   1.623   0.434  1.00  0.00     0.013 C 
ATOM     12  C   UNL     1       0.490   0.709   2.327  1.00  0.00     0.014 C 
ATOM     13  C   UNL     1      -1.560   0.159   1.191  1.00  0.00     0.019 C 
ATOM     14  C   UNL     1      -0.780   2.524   1.244  1.00  0.00     0.071 C 
ATOM     15  C   UNL     1      -0.746  -0.204   2.452  1.00  0.00     0.014 C 
ATOM     16  C   UNL     1       1.624   0.345   3.261  1.00  0.00     0.018 C 
ATOM     17  C   UNL     1      -0.121   2.125   2.524  1.00  0.00     0.046 C 
ATOM     18  N   UNL     1      -0.130   2.655   3.701  1.00  0.00    -0.181 NA
BRANCH  18  19
ATOM     19  N   UNL     1      -0.706   3.771   4.217  1.00  0.00    -0.243 N 
ATOM     20  C   UNL     1      -1.344   4.932   3.842  1.00  0.00     0.271 C 
ATOM     21  H   UNL     1      -0.646   3.739   5.199  1.00  0.00     0.194 HD
ATOM     22  O   UNL     1      -1.719   5.711   4.723  1.00  0.00    -0.267 OA
BRANCH  20  23
ATOM     23  C   UNL     1      -1.583   5.356   2.469  1.00  0.00     0.041 A 
ATOM     24  C   UNL     1      -0.836   6.410   1.929  1.00  0.00     0.015 A 
ATOM     25  C   UNL     1      -2.650   4.829   1.754  1.00  0.00     0.015 A 
ATOM     26  C   UNL     1      -1.019   6.784   0.594  1.00  0.00     0.021 A 
ATOM     27  C   UNL     1      -2.777   5.157   0.406  1.00  0.00     0.021 A 
ATOM     28  C   UNL     1      -1.945   6.102  -0.183  1.00  0.00     0.041 A 
ATOM     29  Cl  UNL     1      -2.058   6.392  -1.872  1.00  0.00    -0.084 Cl
ENDBRANCH  20  23
ENDBRANCH  18  19
ENDBRANCH   5   8
ENDBRANCH   3   4
ENDBRANCH   2   3
ENDBRANCH   1   2
BRANCH   1  30
ATOM     30  C   UNL     1      -5.981   3.018  -2.853  1.00  0.00     0.116 C 
BRANCH  30  31
ATOM     31  N   UNL     1      -7.285   3.023  -2.204  1.00  0.00    -0.352 N 
ATOM     32  C   UNL     1      -8.487   3.530  -2.651  1.00  0.00     0.251 C 
ATOM     33  H   UNL     1      -7.313   2.602  -1.314  1.00  0.00     0.163 HD
ATOM     34  O   UNL     1      -9.450   3.553  -1.905  1.00  0.00    -0.269 OA
BRANCH  32  35
ATOM     35  C   UNL     1      -8.589   4.078  -4.026  1.00  0.00     0.039 A 
ATOM     36  C   UNL     1      -9.323   5.250  -4.234  1.00  0.00     0.014 A 
ATOM     37  C   UNL     1      -7.964   3.444  -5.101  1.00  0.00     0.014 A 
ATOM     38  C   UNL     1      -9.378   5.816  -5.510  1.00  0.00     0.010 A 
ATOM     39  C   UNL     1      -7.943   4.055  -6.348  1.00  0.00     0.010 A 
ATOM     40  C   UNL     1      -8.663   5.238  -6.569  1.00  0.00    -0.014 A 
BRANCH  40  41
ATOM     41  C   UNL     1      -8.675   5.819  -7.934  1.00  0.00     0.031 A 
ATOM     42  C   UNL     1      -9.237   5.010  -9.074  1.00  0.00     0.074 A 
ATOM     43  C   UNL     1      -8.094   7.013  -8.159  1.00  0.00     0.049 A 
ATOM     44  N   UNL     1      -9.222   5.268 -10.355  1.00  0.00    -0.248 NA
ATOM     45  C   UNL     1      -9.858   3.719  -8.730  1.00  0.00     0.031 C 
ATOM     46  C   UNL     1      -7.460   7.855  -7.140  1.00  0.00     0.029 A 
ATOM     47  N   UNL     1      -7.924   7.719  -9.322  1.00  0.00    -0.354 N 
ATOM     48  C   UNL     1      -9.784   4.154 -10.970  1.00  0.00     0.074 A 
ATOM     49  C   UNL     1     -10.093   3.202  -9.927  1.00  0.00     0.031 C 
ATOM     50  C   UNL     1      -6.986   8.969  -7.721  1.00  0.00     0.029 A 
ATOM     51  C   UNL     1      -7.248   8.906  -9.155  1.00  0.00     0.049 A 
ATOM     52  H   UNL     1      -8.254   7.406 -10.195  1.00  0.00     0.167 HD
ATOM     53  C   UNL     1     -10.038   3.951 -12.284  1.00  0.00     0.031 A 
ATOM     54  C   UNL     1      -6.876   9.832 -10.059  1.00  0.00     0.031 A 
ATOM     55  C   UNL     1      -9.777   4.930 -13.303  1.00  0.00     0.049 A 
ATOM     56  C   UNL     1      -7.232   9.615 -11.504  1.00  0.00     0.074 A 
ATOM     57  C   UNL     1     -10.084   4.873 -14.651  1.00  0.00     0.029 A 
ATOM     58  N   UNL     1      -9.157   6.151 -13.082  1.00  0.00    -0.354 N 
ATOM     59  N   UNL     1      -7.837   8.590 -12.057  1.00  0.00    -0.248 NA
ATOM     60  C   UNL     1      -6.871  10.684 -12.445  1.00  0.00     0.031 C 
ATOM     61  C   UNL     1      -9.616   6.046 -15.252  1.00  0.00     0.029 A 
ATOM     62  C   UNL     1      -9.059   6.852 -14.271  1.00  0.00     0.049 A 
ATOM     63  H   UNL     1      -8.835   6.472 -12.209  1.00  0.00     0.167 HD
ATOM     64  C   UNL     1      -7.947   8.899 -13.407  1.00  0.00     0.074 A 
ATOM     65  C   UNL     1      -7.364  10.214 -13.583  1.00  0.00     0.031 C 
ATOM     66  C   UNL     1      -8.478   8.162 -14.413  1.00  0.00     0.031 A 
BRANCH  53  67
ATOM     67  C   UNL     1     -10.631   2.628 -12.688  1.00  0.00    -0.014 A 
ATOM     68  C   UNL     1     -11.955   2.290 -12.354  1.00  0.00     0.010 A 
ATOM     69  C   UNL     1      -9.864   1.720 -13.441  1.00  0.00     0.010 A 
ATOM     70  C   UNL     1     -12.487   1.053 -12.729  1.00  0.00     0.020 A 
ATOM     71  C   UNL     1     -10.401   0.493 -13.842  1.00  0.00     0.020 A 
ATOM     72  C   UNL     1     -11.704   0.160 -13.468  1.00  0.00     0.054 A 
BRANCH  72  73
ATOM     73  S   UNL     1     -12.429  -1.427 -13.964  1.00  0.00     0.124 S 
ATOM     74  O   UNL     1     -12.412  -2.171 -12.707  1.00  0.00    -0.237 OA
ATOM     75  O   UNL     1     -13.752  -1.040 -14.446  1.00  0.00    -0.237 OA
ATOM     76  O   UNL     1     -11.515  -1.919 -14.992  1.00  0.00    -0.744 OA
ENDBRANCH  72  73
ENDBRANCH  53  67
BRANCH  54  77
ATOM     77  C   UNL     1      -6.145  11.052  -9.621  1.00  0.00    -0.014 A 
ATOM     78  C   UNL     1      -6.787  12.303  -9.611  1.00  0.00     0.010 A 
ATOM     79  C   UNL     1      -4.806  10.969  -9.197  1.00  0.00     0.010 A 
ATOM     80  C   UNL     1      -6.097  13.451  -9.208  1.00  0.00     0.020 A 
ATOM     81  C   UNL     1      -4.121  12.110  -8.769  1.00  0.00     0.020 A 
ATOM     82  C   UNL     1      -4.768  13.348  -8.791  1.00  0.00     0.054 A 
BRANCH  82  83
ATOM     83  S   UNL     1      -3.905  14.843  -8.229  1.00  0.00     0.124 S 
ATOM     84  O   UNL     1      -3.612  15.515  -9.491  1.00  0.00    -0.237 OA
ATOM     85  O   UNL     1      -4.907  15.490  -7.386  1.00  0.00    -0.237 OA
ATOM     86  O   UNL     1      -2.745  14.318  -7.513  1.00  0.00    -0.744 OA
ENDBRANCH  82  83
ENDBRANCH  54  77
BRANCH  66  87
ATOM     87  C   UNL     1      -8.480   8.773 -15.786  1.00  0.00    -0.014 A 
ATOM     88  C   UNL     1      -7.297   8.860 -16.540  1.00  0.00     0.010 A 
ATOM     89  C   UNL     1      -9.693   9.206 -16.350  1.00  0.00     0.010 A 
ATOM     90  C   UNL     1      -7.324   9.396 -17.829  1.00  0.00     0.020 A 
ATOM     91  C   UNL     1      -9.727   9.719 -17.648  1.00  0.00     0.020 A 
ATOM     92  C   UNL     1      -8.539   9.823 -18.375  1.00  0.00     0.054 A 
BRANCH  92  93
ATOM     93  S   UNL     1      -8.557  10.468 -20.069  1.00  0.00     0.124 S 
ATOM     94  O   UNL     1      -7.998  11.805 -19.890  1.00  0.00    -0.237 OA
ATOM     95  O   UNL     1      -7.706   9.521 -20.784  1.00  0.00    -0.237 OA
ATOM     96  O   UNL     1      -9.970  10.428 -20.439  1.00  0.00    -0.744 OA
ENDBRANCH  92  93
ENDBRANCH  66  87
ENDBRANCH  40  41
ENDBRANCH  32  35
ENDBRANCH  30  31
ENDBRANCH   1  30
TORSDOF 16
