REMARK SMILES CC(=O)Nc1cnc(N2CC=C(c3ccccc3C)CC2)c(C(=O)NCCCCNC(=O)c2ccc(-c3c4nc(c(-c5ccc(S(=O)(=O)[O-])cc5)c5ccc([nH]5)c(-c5ccc(S(=O)(=O)[O-])cc5)c5nc(c(-c6ccc(S(=O)(=O)[O-])cc6)c6ccc3[nH]6)C=C5)C=C4)cc2)c1
REMARK SMILES IDX 28 1 27 2 26 3 25 4 23 5 24 6 22 8 5 9 6 10 93 11 7 12 8 13
REMARK SMILES IDX 4 14 1 15 2 16 3 17 9 19 10 20 21 21 11 22 20 23 12 24 13 25
REMARK SMILES IDX 14 26 18 27 15 28 17 29 19 30 16 31 29 32 30 33 31 34 32 36
REMARK SMILES IDX 33 37 34 38 92 39 35 40 91 41 36 42 37 43 38 44 85 45 39 46
REMARK SMILES IDX 90 47 84 48 86 49 40 50 89 51 83 52 82 53 41 55 71 56 52 57
REMARK SMILES IDX 70 58 53 59 56 60 69 61 87 62 54 63 55 64 68 66 88 67 57 68
REMARK SMILES IDX 42 69 43 70 51 71 44 72 50 73 45 74 46 75 47 76 48 77 49 78
REMARK SMILES IDX 72 79 73 80 81 81 74 82 80 83 75 84 76 85 77 86 78 87 79 88
REMARK SMILES IDX 58 89 59 90 67 91 60 92 66 93 61 94 62 95 63 96 64 97 65 98
REMARK H PARENT 25 7 4 18 30 35 86 54 56 65
REMARK Flexibility Score: inf
ROOT
ATOM      1  C   UNL     1       6.727   1.156   0.166  1.00  0.00     0.023 C 
ENDROOT
BRANCH   1   2
ATOM      2  C   UNL     1       5.222   0.928   0.375  1.00  0.00     0.023 C 
BRANCH   2   3
ATOM      3  C   UNL     1       4.607  -0.115  -0.565  1.00  0.00     0.116 C 
BRANCH   3   4
ATOM      4  N   UNL     1       5.061  -1.474  -0.294  1.00  0.00    -0.352 N 
ATOM      5  C   UNL     1       4.678  -2.547   0.474  1.00  0.00     0.255 C 
ATOM      6  O   UNL     1       5.325  -3.570   0.231  1.00  0.00    -0.269 OA
ATOM      7  H   UNL     1       5.874  -1.683  -0.808  1.00  0.00     0.163 HD
BRANCH   5   8
ATOM      8  C   UNL     1       3.570  -2.579   1.491  1.00  0.00     0.084 A 
ATOM      9  C   UNL     1       1.505  -1.646   2.408  1.00  0.00     0.060 A 
ATOM     10  C   UNL     1       1.390  -2.791   3.170  1.00  0.00     0.139 A 
ATOM     11  C   UNL     1       2.632  -1.538   1.597  1.00  0.00     0.045 A 
ATOM     12  N   UNL     1       2.273  -3.804   3.136  1.00  0.00    -0.236 NA
ATOM     13  C   UNL     1       3.361  -3.711   2.320  1.00  0.00     0.141 A 
BRANCH   9  14
ATOM     14  N   UNL     1       0.507  -0.665   2.523  1.00  0.00    -0.325 N 
ATOM     15  C   UNL     1       0.528   0.295   0.220  1.00  0.00     0.114 C 
ATOM     16  C   UNL     1       0.076   0.296   1.655  1.00  0.00     0.221 C 
ATOM     17  O   UNL     1      -0.753   1.114   2.058  1.00  0.00    -0.275 OA
ATOM     18  H   UNL     1       0.031  -0.673   3.385  1.00  0.00     0.169 HD
ENDBRANCH   9  14
BRANCH  13  19
ATOM     19  N   UNL     1       4.211  -4.776   2.471  1.00  0.00    -0.352 N 
ATOM     20  C   UNL     1       3.776  -6.078   1.995  1.00  0.00     0.146 C 
ATOM     21  C   UNL     1       5.592  -4.601   2.886  1.00  0.00     0.123 C 
ATOM     22  C   UNL     1       4.503  -7.187   2.718  1.00  0.00    -0.002 C 
ATOM     23  C   UNL     1       5.902  -5.594   4.014  1.00  0.00     0.057 C 
ATOM     24  C   UNL     1       5.456  -6.989   3.649  1.00  0.00    -0.041 C 
BRANCH  24  25
ATOM     25  C   UNL     1       6.130  -8.119   4.311  1.00  0.00    -0.020 A 
ATOM     26  C   UNL     1       6.992  -8.918   3.541  1.00  0.00     0.008 A 
ATOM     27  C   UNL     1       5.964  -8.408   5.681  1.00  0.00    -0.044 A 
ATOM     28  C   UNL     1       7.705  -9.968   4.120  1.00  0.00     0.001 A 
ATOM     29  C   UNL     1       6.703  -9.458   6.253  1.00  0.00     0.004 A 
ATOM     30  C   UNL     1       5.043  -7.608   6.562  1.00  0.00     0.045 C 
ATOM     31  C   UNL     1       7.566 -10.232   5.479  1.00  0.00     0.000 A 
ENDBRANCH  24  25
ENDBRANCH  13  19
ENDBRANCH   5   8
ENDBRANCH   3   4
ENDBRANCH   2   3
ENDBRANCH   1   2
BRANCH   1  32
ATOM     32  C   UNL     1       7.084   1.754  -1.194  1.00  0.00     0.116 C 
BRANCH  32  33
ATOM     33  N   UNL     1       7.402   3.175  -1.190  1.00  0.00    -0.352 N 
ATOM     34  C   UNL     1       7.821   3.937  -2.274  1.00  0.00     0.251 C 
ATOM     35  H   UNL     1       7.310   3.645  -0.329  1.00  0.00     0.163 HD
ATOM     36  O   UNL     1       8.241   5.074  -2.173  1.00  0.00    -0.269 OA
BRANCH  34  37
ATOM     37  C   UNL     1       7.610   3.340  -3.612  1.00  0.00     0.039 A 
ATOM     38  C   UNL     1       6.547   3.852  -4.366  1.00  0.00     0.014 A 
ATOM     39  C   UNL     1       8.203   2.120  -3.928  1.00  0.00     0.014 A 
ATOM     40  C   UNL     1       5.939   3.038  -5.315  1.00  0.00     0.010 A 
ATOM     41  C   UNL     1       7.541   1.281  -4.806  1.00  0.00     0.010 A 
ATOM     42  C   UNL     1       6.371   1.716  -5.443  1.00  0.00    -0.014 A 
BRANCH  42  43
ATOM     43  C   UNL     1       5.576   0.694  -6.117  1.00  0.00     0.031 A 
ATOM     44  C   UNL     1       5.961   0.221  -7.464  1.00  0.00     0.074 A 
ATOM     45  C   UNL     1       4.486   0.165  -5.514  1.00  0.00     0.049 A 
ATOM     46  N   UNL     1       5.138  -0.289  -8.319  1.00  0.00    -0.248 NA
ATOM     47  C   UNL     1       7.321   0.349  -7.976  1.00  0.00     0.031 C 
ATOM     48  C   UNL     1       3.732  -1.009  -5.947  1.00  0.00     0.029 A 
ATOM     49  N   UNL     1       3.685   0.729  -4.515  1.00  0.00    -0.354 N 
ATOM     50  C   UNL     1       5.887  -0.820  -9.344  1.00  0.00     0.074 A 
ATOM     51  C   UNL     1       7.226  -0.319  -9.129  1.00  0.00     0.031 C 
ATOM     52  C   UNL     1       2.480  -0.905  -5.477  1.00  0.00     0.029 A 
ATOM     53  C   UNL     1       2.360   0.398  -4.846  1.00  0.00     0.049 A 
ATOM     54  H   UNL     1       3.989   1.251  -3.737  1.00  0.00     0.167 HD
ATOM     55  C   UNL     1       5.337  -1.739 -10.187  1.00  0.00     0.031 A 
ATOM     56  C   UNL     1       1.391   1.321  -5.114  1.00  0.00     0.031 A 
ATOM     57  C   UNL     1       3.915  -1.958  -9.921  1.00  0.00     0.049 A 
ATOM     58  C   UNL     1       0.774   1.183  -6.495  1.00  0.00     0.074 A 
ATOM     59  C   UNL     1       3.182  -2.975  -9.332  1.00  0.00     0.029 A 
ATOM     60  N   UNL     1       3.041  -0.889 -10.052  1.00  0.00    -0.354 N 
ATOM     61  N   UNL     1       1.140   0.300  -7.383  1.00  0.00    -0.248 NA
ATOM     62  C   UNL     1      -0.238   2.100  -7.019  1.00  0.00     0.031 C 
ATOM     63  C   UNL     1       1.854  -2.504  -9.115  1.00  0.00     0.029 A 
ATOM     64  C   UNL     1       1.780  -1.207  -9.584  1.00  0.00     0.049 A 
ATOM     65  H   UNL     1       3.288  -0.014 -10.430  1.00  0.00     0.167 HD
ATOM     66  C   UNL     1       0.482   0.528  -8.566  1.00  0.00     0.074 A 
ATOM     67  C   UNL     1      -0.373   1.667  -8.285  1.00  0.00     0.031 C 
ATOM     68  C   UNL     1       0.725  -0.210  -9.690  1.00  0.00     0.031 A 
BRANCH  55  69
ATOM     69  C   UNL     1       6.182  -2.629 -11.073  1.00  0.00    -0.014 A 
ATOM     70  C   UNL     1       5.765  -3.947 -11.349  1.00  0.00     0.010 A 
ATOM     71  C   UNL     1       7.429  -2.250 -11.606  1.00  0.00     0.010 A 
ATOM     72  C   UNL     1       6.602  -4.872 -11.993  1.00  0.00     0.020 A 
ATOM     73  C   UNL     1       8.296  -3.174 -12.210  1.00  0.00     0.020 A 
ATOM     74  C   UNL     1       7.883  -4.489 -12.383  1.00  0.00     0.054 A 
BRANCH  74  75
ATOM     75  S   UNL     1       9.004  -5.729 -13.084  1.00  0.00     0.124 S 
ATOM     76  O   UNL     1       8.963  -6.795 -12.086  1.00  0.00    -0.237 OA
ATOM     77  O   UNL     1       8.370  -6.036 -14.362  1.00  0.00    -0.237 OA
ATOM     78  O   UNL     1      10.282  -5.025 -13.177  1.00  0.00    -0.744 OA
ENDBRANCH  74  75
ENDBRANCH  55  69
BRANCH  56  79
ATOM     79  C   UNL     1       1.520   2.592  -4.351  1.00  0.00    -0.014 A 
ATOM     80  C   UNL     1       1.214   2.559  -2.975  1.00  0.00     0.010 A 
ATOM     81  C   UNL     1       2.282   3.662  -4.850  1.00  0.00     0.010 A 
ATOM     82  C   UNL     1       1.784   3.479  -2.093  1.00  0.00     0.020 A 
ATOM     83  C   UNL     1       2.861   4.585  -3.967  1.00  0.00     0.020 A 
ATOM     84  C   UNL     1       2.659   4.444  -2.590  1.00  0.00     0.054 A 
BRANCH  84  85
ATOM     85  S   UNL     1       3.641   5.408  -1.403  1.00  0.00     0.124 S 
ATOM     86  O   UNL     1       2.625   5.897  -0.476  1.00  0.00    -0.237 OA
ATOM     87  O   UNL     1       4.538   4.384  -0.866  1.00  0.00    -0.237 OA
ATOM     88  O   UNL     1       4.273   6.422  -2.239  1.00  0.00    -0.744 OA
ENDBRANCH  84  85
ENDBRANCH  56  79
BRANCH  68  89
ATOM     89  C   UNL     1       0.039  -0.040 -11.028  1.00  0.00    -0.014 A 
ATOM     90  C   UNL     1      -1.279   0.413 -11.186  1.00  0.00     0.010 A 
ATOM     91  C   UNL     1       0.712  -0.455 -12.204  1.00  0.00     0.010 A 
ATOM     92  C   UNL     1      -1.861   0.529 -12.460  1.00  0.00     0.020 A 
ATOM     93  C   UNL     1       0.139  -0.363 -13.474  1.00  0.00     0.020 A 
ATOM     94  C   UNL     1      -1.142   0.153 -13.597  1.00  0.00     0.054 A 
BRANCH  94  95
ATOM     95  S   UNL     1      -1.911   0.312 -15.228  1.00  0.00     0.124 S 
ATOM     96  O   UNL     1      -3.179  -0.392 -15.049  1.00  0.00    -0.237 OA
ATOM     97  O   UNL     1      -2.013   1.762 -15.375  1.00  0.00    -0.237 OA
ATOM     98  O   UNL     1      -0.964  -0.339 -16.129  1.00  0.00    -0.744 OA
ENDBRANCH  94  95
ENDBRANCH  68  89
ENDBRANCH  42  43
ENDBRANCH  34  37
ENDBRANCH  32  33
ENDBRANCH   1  32
TORSDOF 17
