REMARK SMILES C[NH+]1CCC([NH+]2CCC(Oc3ccc4ccccc4c3)(C(=O)NCCCCNC(=O)c3ccc(-c4c5nc(c(-c6ccc(S(=O)(=O)[O-])cc6)c6ccc([nH]6)c(-c6ccc(S(=O)(=O)[O-])cc6)c6nc(c(-c7ccc(S(=O)(=O)[O-])cc7)c7ccc4[nH]7)C=C6)C=C5)cc3)CC2)CC1
REMARK SMILES IDX 26 1 25 2 24 3 23 4 21 5 22 6 9 8 6 9 7 10 92 11 8 13 91 14
REMARK SMILES IDX 5 15 1 16 2 17 3 18 94 19 4 21 93 22 10 23 11 24 12 25 20 26
REMARK SMILES IDX 13 27 19 28 14 29 18 30 15 31 17 32 16 33 27 34 28 35 29 36
REMARK SMILES IDX 30 38 31 39 32 40 90 41 33 42 89 43 34 44 35 45 36 46 83 47
REMARK SMILES IDX 37 48 88 49 82 50 84 51 38 52 87 53 81 54 80 55 39 57 69 58
REMARK SMILES IDX 50 59 68 60 51 61 54 62 67 63 85 64 52 65 53 66 66 68 86 69
REMARK SMILES IDX 55 70 40 71 41 72 49 73 42 74 48 75 43 76 44 77 45 78 46 79
REMARK SMILES IDX 47 80 70 81 71 82 79 83 72 84 78 85 73 86 74 87 75 88 76 89
REMARK SMILES IDX 77 90 56 91 57 92 65 93 58 94 64 95 59 96 60 97 61 98 62 99
REMARK SMILES IDX 63 100
REMARK H PARENT 23 7 6 12 2 20 28 37 84 56 54 67
REMARK Flexibility Score: inf
ROOT
ATOM      1  C   UNL     1       3.812  -2.075   6.288  1.00  0.00     0.023 C 
ENDROOT
BRANCH   1   2
ATOM      2  C   UNL     1       4.486  -1.021   5.411  1.00  0.00     0.023 C 
BRANCH   2   3
ATOM      3  C   UNL     1       5.677  -1.536   4.602  1.00  0.00     0.116 C 
BRANCH   3   4
ATOM      4  N   UNL     1       5.254  -2.460   3.569  1.00  0.00    -0.353 N 
ATOM      5  C   UNL     1       5.211  -2.308   2.211  1.00  0.00     0.264 C 
ATOM      6  O   UNL     1       4.865  -3.302   1.564  1.00  0.00    -0.270 OA
ATOM      7  H   UNL     1       4.950  -3.337   3.897  1.00  0.00     0.163 HD
BRANCH   5   8
ATOM      8  C   UNL     1       5.578  -0.953   1.530  1.00  0.00     0.197 C 
ATOM      9  N   UNL     1       3.097  -0.107   0.182  1.00  0.00    -0.332 N 
ATOM     10  C   UNL     1       3.214  -0.101   1.644  1.00  0.00     0.267 C 
ATOM     11  C   UNL     1       3.921  -1.176  -0.412  1.00  0.00     0.267 C 
ATOM     12  H   UNL     1       3.471   0.783  -0.146  1.00  0.00     0.348 HD
ATOM     13  C   UNL     1       4.661   0.176   2.010  1.00  0.00     0.120 C 
ATOM     14  C   UNL     1       5.403  -1.083   0.002  1.00  0.00     0.120 C 
BRANCH   9  15
ATOM     15  C   UNL     1       1.693  -0.129  -0.296  1.00  0.00     0.195 C 
ATOM     16  C   UNL     1      -2.616   0.069  -0.212  1.00  0.00     0.332 C 
ATOM     17  N   UNL     1      -1.198   0.022   0.133  1.00  0.00    -0.337 N 
ATOM     18  C   UNL     1      -0.484   1.180  -0.415  1.00  0.00     0.268 C 
ATOM     19  C   UNL     1      -0.588  -1.231  -0.325  1.00  0.00     0.268 C 
ATOM     20  H   UNL     1      -1.122   0.058   1.150  1.00  0.00     0.347 HD
ATOM     21  C   UNL     1       0.966   1.186   0.061  1.00  0.00     0.126 C 
ATOM     22  C   UNL     1       0.857  -1.337   0.163  1.00  0.00     0.126 C 
ENDBRANCH   9  15
BRANCH   8  23
ATOM     23  O   UNL     1       6.972  -0.828   1.913  1.00  0.00    -0.477 OA
BRANCH  23  24
ATOM     24  C   UNL     1       7.686   0.254   1.502  1.00  0.00     0.121 A 
ATOM     25  C   UNL     1       7.446   1.538   1.977  1.00  0.00     0.047 A 
ATOM     26  C   UNL     1       8.801   0.011   0.700  1.00  0.00     0.055 A 
ATOM     27  C   UNL     1       8.232   2.606   1.545  1.00  0.00     0.012 A 
ATOM     28  C   UNL     1       9.633   1.067   0.294  1.00  0.00    -0.015 A 
ATOM     29  C   UNL     1       9.324   2.386   0.698  1.00  0.00    -0.018 A 
ATOM     30  C   UNL     1      10.771   0.843  -0.496  1.00  0.00     0.009 A 
ATOM     31  C   UNL     1      10.132   3.449   0.268  1.00  0.00     0.009 A 
ATOM     32  C   UNL     1      11.578   1.909  -0.899  1.00  0.00     0.001 A 
ATOM     33  C   UNL     1      11.253   3.210  -0.528  1.00  0.00     0.001 A 
ENDBRANCH  23  24
ENDBRANCH   8  23
ENDBRANCH   5   8
ENDBRANCH   3   4
ENDBRANCH   2   3
ENDBRANCH   1   2
BRANCH   1  34
ATOM     34  C   UNL     1       4.740  -2.782   7.264  1.00  0.00     0.116 C 
BRANCH  34  35
ATOM     35  N   UNL     1       5.431  -1.861   8.152  1.00  0.00    -0.352 N 
ATOM     36  C   UNL     1       5.675  -1.986   9.497  1.00  0.00     0.251 C 
ATOM     37  H   UNL     1       5.770  -1.037   7.733  1.00  0.00     0.163 HD
ATOM     38  O   UNL     1       6.144  -1.039  10.125  1.00  0.00    -0.269 OA
BRANCH  36  39
ATOM     39  C   UNL     1       5.348  -3.252  10.186  1.00  0.00     0.039 A 
ATOM     40  C   UNL     1       4.717  -3.200  11.430  1.00  0.00     0.014 A 
ATOM     41  C   UNL     1       5.657  -4.485   9.605  1.00  0.00     0.014 A 
ATOM     42  C   UNL     1       4.364  -4.388  12.073  1.00  0.00     0.010 A 
ATOM     43  C   UNL     1       5.223  -5.662  10.203  1.00  0.00     0.010 A 
ATOM     44  C   UNL     1       4.595  -5.629  11.456  1.00  0.00    -0.014 A 
BRANCH  44  45
ATOM     45  C   UNL     1       4.231  -6.900  12.131  1.00  0.00     0.031 A 
ATOM     46  C   UNL     1       5.308  -7.887  12.504  1.00  0.00     0.074 A 
ATOM     47  C   UNL     1       2.937  -7.184  12.377  1.00  0.00     0.049 A 
ATOM     48  N   UNL     1       5.192  -9.053  13.087  1.00  0.00    -0.248 NA
ATOM     49  C   UNL     1       6.693  -7.530  12.152  1.00  0.00     0.031 C 
ATOM     50  C   UNL     1       1.799  -6.332  12.023  1.00  0.00     0.029 A 
ATOM     51  N   UNL     1       2.361  -8.269  12.988  1.00  0.00    -0.354 N 
ATOM     52  C   UNL     1       6.480  -9.571  13.156  1.00  0.00     0.074 A 
ATOM     53  C   UNL     1       7.353  -8.625  12.499  1.00  0.00     0.031 C 
ATOM     54  C   UNL     1       0.666  -6.909  12.457  1.00  0.00     0.029 A 
ATOM     55  C   UNL     1       0.992  -8.186  13.083  1.00  0.00     0.049 A 
ATOM     56  H   UNL     1       2.879  -9.035  13.325  1.00  0.00     0.167 HD
ATOM     57  C   UNL     1       6.906 -10.717  13.738  1.00  0.00     0.031 A 
ATOM     58  C   UNL     1       0.099  -9.041  13.618  1.00  0.00     0.031 A 
ATOM     59  C   UNL     1       6.036 -11.652  14.402  1.00  0.00     0.049 A 
ATOM     60  C   UNL     1       0.596 -10.309  14.258  1.00  0.00     0.074 A 
ATOM     61  C   UNL     1       6.373 -12.816  15.069  1.00  0.00     0.029 A 
ATOM     62  N   UNL     1       4.657 -11.528  14.483  1.00  0.00    -0.354 N 
ATOM     63  N   UNL     1       1.827 -10.750  14.373  1.00  0.00    -0.248 NA
ATOM     64  C   UNL     1      -0.418 -11.185  14.861  1.00  0.00     0.031 C 
ATOM     65  C   UNL     1       5.192 -13.426  15.504  1.00  0.00     0.029 A 
ATOM     66  C   UNL     1       4.125 -12.607  15.170  1.00  0.00     0.049 A 
ATOM     67  H   UNL     1       4.134 -10.784  14.108  1.00  0.00     0.167 HD
ATOM     68  C   UNL     1       1.738 -11.939  15.090  1.00  0.00     0.074 A 
ATOM     69  C   UNL     1       0.335 -12.135  15.398  1.00  0.00     0.031 C 
ATOM     70  C   UNL     1       2.726 -12.792  15.461  1.00  0.00     0.031 A 
BRANCH  57  71
ATOM     71  C   UNL     1       8.381 -11.023  13.675  1.00  0.00    -0.014 A 
ATOM     72  C   UNL     1       9.319 -10.243  14.378  1.00  0.00     0.010 A 
ATOM     73  C   UNL     1       8.836 -12.124  12.928  1.00  0.00     0.010 A 
ATOM     74  C   UNL     1      10.684 -10.529  14.298  1.00  0.00     0.020 A 
ATOM     75  C   UNL     1      10.198 -12.435  12.871  1.00  0.00     0.020 A 
ATOM     76  C   UNL     1      11.115 -11.624  13.543  1.00  0.00     0.054 A 
BRANCH  76  77
ATOM     77  S   UNL     1      12.891 -11.986  13.477  1.00  0.00     0.124 S 
ATOM     78  O   UNL     1      13.390 -10.894  12.645  1.00  0.00    -0.237 OA
ATOM     79  O   UNL     1      13.280 -11.932  14.884  1.00  0.00    -0.237 OA
ATOM     80  O   UNL     1      12.953 -13.312  12.867  1.00  0.00    -0.744 OA
ENDBRANCH  76  77
ENDBRANCH  57  71
BRANCH  58  81
ATOM     81  C   UNL     1      -1.355  -8.715  13.594  1.00  0.00    -0.014 A 
ATOM     82  C   UNL     1      -2.041  -8.410  14.783  1.00  0.00     0.010 A 
ATOM     83  C   UNL     1      -2.062  -8.707  12.377  1.00  0.00     0.010 A 
ATOM     84  C   UNL     1      -3.410  -8.128  14.760  1.00  0.00     0.020 A 
ATOM     85  C   UNL     1      -3.424  -8.394  12.346  1.00  0.00     0.020 A 
ATOM     86  C   UNL     1      -4.092  -8.119  13.540  1.00  0.00     0.054 A 
BRANCH  86  87
ATOM     87  S   UNL     1      -5.859  -7.707  13.530  1.00  0.00     0.124 S 
ATOM     88  O   UNL     1      -6.453  -8.899  14.126  1.00  0.00    -0.237 OA
ATOM     89  O   UNL     1      -5.905  -6.499  14.350  1.00  0.00    -0.237 OA
ATOM     90  O   UNL     1      -6.154  -7.501  12.114  1.00  0.00    -0.744 OA
ENDBRANCH  86  87
ENDBRANCH  58  81
BRANCH  70  91
ATOM     91  C   UNL     1       2.327 -13.993  16.280  1.00  0.00    -0.014 A 
ATOM     92  C   UNL     1       1.569 -15.041  15.727  1.00  0.00     0.010 A 
ATOM     93  C   UNL     1       2.736 -14.079  17.623  1.00  0.00     0.010 A 
ATOM     94  C   UNL     1       1.176 -16.123  16.520  1.00  0.00     0.020 A 
ATOM     95  C   UNL     1       2.376 -15.177  18.409  1.00  0.00     0.020 A 
ATOM     96  C   UNL     1       1.578 -16.180  17.858  1.00  0.00     0.054 A 
BRANCH  96  97
ATOM     97  S   UNL     1       1.057 -17.595  18.867  1.00  0.00     0.124 S 
ATOM     98  O   UNL     1      -0.359 -17.310  19.081  1.00  0.00    -0.237 OA
ATOM     99  O   UNL     1       1.345 -18.732  17.997  1.00  0.00    -0.237 OA
ATOM    100  O   UNL     1       1.899 -17.500  20.058  1.00  0.00    -0.744 OA
ENDBRANCH  96  97
ENDBRANCH  70  91
ENDBRANCH  44  45
ENDBRANCH  36  39
ENDBRANCH  34  35
ENDBRANCH   1  34
TORSDOF 17
