REMARK SMILES CC(C)CN(C(=O)NC(=O)CCCC(=O)NCCCCNC(=O)c1ccc(-c2c3nc(c(-c4ccc(S(=O)(=O)[O-])cc4)c4ccc([nH]4)c(-c4ccc(S(=O)(=O)[O-])cc4)c4nc(c(-c5ccc(S(=O)(=O)[O-])cc5)c5ccc2[nH]5)C=C4)C=C3)cc1)C1CCCC1
REMARK SMILES IDX 17 1 16 2 14 3 15 4 13 6 12 7 11 8 9 9 6 10 7 11 8 12 10 14
REMARK SMILES IDX 5 15 4 16 2 17 1 18 3 19 84 20 85 21 88 22 86 23 87 24 18 25
REMARK SMILES IDX 19 26 20 27 21 28 22 29 23 31 24 32 25 33 83 34 26 35 82 36
REMARK SMILES IDX 27 37 28 38 29 39 76 40 30 41 81 42 75 43 77 44 31 45 80 46
REMARK SMILES IDX 74 47 73 48 32 50 62 51 43 52 61 53 44 54 47 55 60 56 78 57
REMARK SMILES IDX 45 58 46 59 59 61 79 62 48 63 33 64 34 65 42 66 35 67 41 68
REMARK SMILES IDX 36 69 37 70 38 71 39 72 40 73 63 74 64 75 72 76 65 77 71 78
REMARK SMILES IDX 66 79 67 80 68 81 69 82 70 83 49 84 50 85 58 86 51 87 57 88
REMARK SMILES IDX 52 89 53 90 54 91 55 92 56 93
REMARK H PARENT 16 5 8 13 21 30 77 49 47 60
REMARK Flexibility Score: inf
ROOT
ATOM      1  C   UNL     1      -2.452  -0.433   0.904  1.00  0.00     0.116 C 
ENDROOT
BRANCH   1   2
ATOM      2  N   UNL     1      -0.882  -0.069   0.859  1.00  0.00    -0.356 N 
ATOM      3  C   UNL     1       0.223   0.433   0.153  1.00  0.00     0.220 C 
ATOM      4  O   UNL     1       0.946   1.074   0.960  1.00  0.00    -0.275 OA
ATOM      5  H   UNL     1      -0.533  -0.316   1.746  1.00  0.00     0.163 HD
BRANCH   3   6
ATOM      6  C   UNL     1       1.028   0.263  -1.426  1.00  0.00     0.100 C 
BRANCH   6   7
ATOM      7  C   UNL     1       0.796   0.158  -3.046  1.00  0.00     0.020 C 
BRANCH   7   8
ATOM      8  C   UNL     1       0.441  -1.108  -3.918  1.00  0.00     0.101 C 
BRANCH   8   9
ATOM      9  C   UNL     1      -0.923  -1.431  -4.549  1.00  0.00     0.227 C 
ATOM     10  C   UNL     1      -2.310   0.195  -3.325  1.00  0.00     0.324 C 
ATOM     11  O   UNL     1      -3.138   1.011  -3.712  1.00  0.00    -0.248 OA
ATOM     12  N   UNL     1      -2.085  -0.849  -4.157  1.00  0.00    -0.278 N 
ATOM     13  H   UNL     1      -2.897  -1.252  -4.541  1.00  0.00     0.174 HD
ATOM     14  O   UNL     1      -1.001  -2.293  -5.433  1.00  0.00    -0.275 OA
BRANCH  10  15
ATOM     15  N   UNL     1      -1.587   0.233  -2.125  1.00  0.00    -0.321 N 
BRANCH  15  16
ATOM     16  C   UNL     1      -1.183  -1.305  -1.536  1.00  0.00     0.124 C 
BRANCH  16  17
ATOM     17  C   UNL     1       0.176  -2.237  -0.988  1.00  0.00     0.002 C 
ATOM     18  C   UNL     1       0.958  -2.160   0.375  1.00  0.00     0.009 C 
ATOM     19  C   UNL     1      -0.242  -3.728  -0.996  1.00  0.00     0.009 C 
ENDBRANCH  16  17
ENDBRANCH  15  16
BRANCH  15  20
ATOM     20  C   UNL     1      -1.700   1.685  -1.377  1.00  0.00     0.087 C 
ATOM     21  C   UNL     1      -0.561   2.751  -1.480  1.00  0.00     0.025 C 
ATOM     22  C   UNL     1      -2.855   2.666  -1.766  1.00  0.00     0.025 C 
ATOM     23  C   UNL     1      -1.099   3.976  -0.731  1.00  0.00     0.002 C 
ATOM     24  C   UNL     1      -2.592   3.966  -0.988  1.00  0.00     0.002 C 
ENDBRANCH  15  20
ENDBRANCH  10  15
ENDBRANCH   8   9
ENDBRANCH   7   8
ENDBRANCH   6   7
ENDBRANCH   3   6
ENDBRANCH   1   2
BRANCH   1  25
ATOM     25  C   UNL     1      -2.911  -1.945   1.033  1.00  0.00     0.023 C 
BRANCH  25  26
ATOM     26  C   UNL     1      -4.312  -2.223   1.610  1.00  0.00     0.023 C 
BRANCH  26  27
ATOM     27  C   UNL     1      -5.529  -1.800   0.769  1.00  0.00     0.116 C 
BRANCH  27  28
ATOM     28  N   UNL     1      -5.967  -2.758  -0.257  1.00  0.00    -0.352 N 
ATOM     29  C   UNL     1      -7.200  -3.368  -0.432  1.00  0.00     0.251 C 
ATOM     30  H   UNL     1      -5.282  -3.004  -0.919  1.00  0.00     0.163 HD
ATOM     31  O   UNL     1      -7.374  -4.168  -1.355  1.00  0.00    -0.269 OA
BRANCH  29  32
ATOM     32  C   UNL     1      -8.301  -3.104   0.522  1.00  0.00     0.039 A 
ATOM     33  C   UNL     1      -8.947  -4.174   1.149  1.00  0.00     0.014 A 
ATOM     34  C   UNL     1      -8.623  -1.794   0.872  1.00  0.00     0.014 A 
ATOM     35  C   UNL     1      -9.797  -3.928   2.234  1.00  0.00     0.010 A 
ATOM     36  C   UNL     1      -9.383  -1.558   2.013  1.00  0.00     0.010 A 
ATOM     37  C   UNL     1      -9.961  -2.622   2.724  1.00  0.00    -0.014 A 
BRANCH  37  38
ATOM     38  C   UNL     1     -10.705  -2.343   3.984  1.00  0.00     0.031 A 
ATOM     39  C   UNL     1     -11.906  -1.433   3.966  1.00  0.00     0.074 A 
ATOM     40  C   UNL     1     -10.255  -2.836   5.159  1.00  0.00     0.049 A 
ATOM     41  N   UNL     1     -12.630  -1.002   4.966  1.00  0.00    -0.248 NA
ATOM     42  C   UNL     1     -12.326  -0.911   2.654  1.00  0.00     0.031 C 
ATOM     43  C   UNL     1      -9.069  -3.681   5.332  1.00  0.00     0.029 A 
ATOM     44  N   UNL     1     -10.743  -2.695   6.436  1.00  0.00    -0.354 N 
ATOM     45  C   UNL     1     -13.576  -0.149   4.408  1.00  0.00     0.074 A 
ATOM     46  C   UNL     1     -13.290  -0.069   2.993  1.00  0.00     0.031 C 
ATOM     47  C   UNL     1      -8.949  -4.016   6.628  1.00  0.00     0.029 A 
ATOM     48  C   UNL     1     -10.021  -3.382   7.387  1.00  0.00     0.049 A 
ATOM     49  H   UNL     1     -11.535  -2.153   6.652  1.00  0.00     0.167 HD
ATOM     50  C   UNL     1     -14.612   0.485   5.007  1.00  0.00     0.031 A 
ATOM     51  C   UNL     1     -10.204  -3.494   8.718  1.00  0.00     0.031 A 
ATOM     52  C   UNL     1     -14.918   0.384   6.407  1.00  0.00     0.049 A 
ATOM     53  C   UNL     1     -11.369  -2.787   9.359  1.00  0.00     0.074 A 
ATOM     54  C   UNL     1     -15.973   0.950   7.101  1.00  0.00     0.029 A 
ATOM     55  N   UNL     1     -14.178  -0.343   7.326  1.00  0.00    -0.354 N 
ATOM     56  N   UNL     1     -12.283  -2.030   8.800  1.00  0.00    -0.248 NA
ATOM     57  C   UNL     1     -11.535  -2.962  10.809  1.00  0.00     0.031 C 
ATOM     58  C   UNL     1     -15.851   0.592   8.448  1.00  0.00     0.029 A 
ATOM     59  C   UNL     1     -14.748  -0.235   8.582  1.00  0.00     0.049 A 
ATOM     60  H   UNL     1     -13.366  -0.859   7.117  1.00  0.00     0.167 HD
ATOM     61  C   UNL     1     -13.150  -1.666   9.824  1.00  0.00     0.074 A 
ATOM     62  C   UNL     1     -12.660  -2.297  11.032  1.00  0.00     0.031 C 
ATOM     63  C   UNL     1     -14.253  -0.880   9.771  1.00  0.00     0.031 A 
BRANCH  50  64
ATOM     64  C   UNL     1     -15.507   1.324   4.133  1.00  0.00    -0.014 A 
ATOM     65  C   UNL     1     -16.363   0.721   3.194  1.00  0.00     0.010 A 
ATOM     66  C   UNL     1     -15.517   2.723   4.270  1.00  0.00     0.010 A 
ATOM     67  C   UNL     1     -17.182   1.503   2.377  1.00  0.00     0.020 A 
ATOM     68  C   UNL     1     -16.357   3.508   3.474  1.00  0.00     0.020 A 
ATOM     69  C   UNL     1     -17.172   2.893   2.521  1.00  0.00     0.054 A 
BRANCH  69  70
ATOM     70  S   UNL     1     -18.265   3.881   1.464  1.00  0.00     0.124 S 
ATOM     71  O   UNL     1     -17.583   3.807   0.174  1.00  0.00    -0.237 OA
ATOM     72  O   UNL     1     -19.531   3.158   1.547  1.00  0.00    -0.237 OA
ATOM     73  O   UNL     1     -18.260   5.198   2.096  1.00  0.00    -0.744 OA
ENDBRANCH  69  70
ENDBRANCH  50  64
BRANCH  51  74
ATOM     74  C   UNL     1      -9.288  -4.334   9.541  1.00  0.00    -0.014 A 
ATOM     75  C   UNL     1      -9.744  -5.542  10.101  1.00  0.00     0.010 A 
ATOM     76  C   UNL     1      -7.968  -3.922   9.793  1.00  0.00     0.010 A 
ATOM     77  C   UNL     1      -8.909  -6.304  10.925  1.00  0.00     0.020 A 
ATOM     78  C   UNL     1      -7.120  -4.695  10.594  1.00  0.00     0.020 A 
ATOM     79  C   UNL     1      -7.603  -5.873  11.169  1.00  0.00     0.054 A 
BRANCH  79  80
ATOM     80  S   UNL     1      -6.527  -6.887  12.222  1.00  0.00     0.124 S 
ATOM     81  O   UNL     1      -7.043  -6.592  13.555  1.00  0.00    -0.237 OA
ATOM     82  O   UNL     1      -6.782  -8.238  11.729  1.00  0.00    -0.237 OA
ATOM     83  O   UNL     1      -5.190  -6.371  11.938  1.00  0.00    -0.744 OA
ENDBRANCH  79  80
ENDBRANCH  51  74
BRANCH  63  84
ATOM     84  C   UNL     1     -15.033  -0.695  11.044  1.00  0.00    -0.014 A 
ATOM     85  C   UNL     1     -14.545   0.111  12.087  1.00  0.00     0.010 A 
ATOM     86  C   UNL     1     -16.298  -1.298  11.174  1.00  0.00     0.010 A 
ATOM     87  C   UNL     1     -15.295   0.283  13.254  1.00  0.00     0.020 A 
ATOM     88  C   UNL     1     -17.061  -1.106  12.328  1.00  0.00     0.020 A 
ATOM     89  C   UNL     1     -16.547  -0.328  13.367  1.00  0.00     0.054 A 
BRANCH  89  90
ATOM     90  S   UNL     1     -17.519  -0.057  14.874  1.00  0.00     0.124 S 
ATOM     91  O   UNL     1     -16.832  -0.914  15.836  1.00  0.00    -0.237 OA
ATOM     92  O   UNL     1     -17.374   1.380  15.096  1.00  0.00    -0.237 OA
ATOM     93  O   UNL     1     -18.864  -0.490  14.501  1.00  0.00    -0.744 OA
ENDBRANCH  89  90
ENDBRANCH  63  84
ENDBRANCH  37  38
ENDBRANCH  29  32
ENDBRANCH  27  28
ENDBRANCH  26  27
ENDBRANCH  25  26
ENDBRANCH   1  25
TORSDOF 21
