REMARK SMILES O=C(NCCCCNC(=O)[C@H](CO)NC(=O)[C@H](CS)NC(=O)c1ccc(F)cc1)c1ccc(-c2c3nc(c(-c4ccc(S(=O)(=O)[O-])cc4)c4ccc([nH]4)c(-c4ccc(S(=O)(=O)[O-])cc4)c4nc(c(-c5ccc(S(=O)(=O)[O-])cc5)c5ccc2[nH]5)C=C4)C=C3)cc1
REMARK SMILES IDX 6 1 5 2 4 3 3 4 1 5 2 6 30 8 31 9 89 10 32 11 88 12 33 13
REMARK SMILES IDX 34 14 35 15 82 16 36 17 87 18 81 19 83 20 37 21 86 22 80 23
REMARK SMILES IDX 79 24 38 26 68 27 49 28 67 29 50 30 53 31 66 32 84 33 51 34
REMARK SMILES IDX 52 35 65 37 85 38 54 39 39 40 40 41 48 42 41 43 47 44 42 45
REMARK SMILES IDX 43 46 44 47 45 48 46 49 69 50 70 51 78 52 71 53 77 54 72 55
REMARK SMILES IDX 73 56 74 57 75 58 76 59 55 60 56 61 64 62 57 63 63 64 58 65
REMARK SMILES IDX 59 66 60 67 61 68 62 69 7 70 8 71 9 72 10 74 11 75 14 76
REMARK SMILES IDX 15 77 16 79 17 80 20 81 21 82 22 84 23 85 24 86 29 87 25 88
REMARK SMILES IDX 28 89 26 90 27 91 18 92 19 93 12 95 13 96
REMARK H PARENT 3 7 83 25 53 36 8 73 14 78 20 83 19 94 13 97
REMARK Flexibility Score: inf
ROOT
ATOM      1  C   UNL     1       6.516   9.745  -1.641  1.00  0.00     0.023 C 
ENDROOT
BRANCH   1   2
ATOM      2  C   UNL     1       6.307   9.068  -2.997  1.00  0.00     0.023 C 
BRANCH   2   3
ATOM      3  C   UNL     1       4.922   8.475  -3.226  1.00  0.00     0.116 C 
BRANCH   3   4
ATOM      4  N   UNL     1       3.862   9.470  -3.171  1.00  0.00    -0.352 N 
ATOM      5  O   UNL     1       2.100  10.659  -3.921  1.00  0.00    -0.269 OA
ATOM      6  C   UNL     1       2.830   9.682  -4.055  1.00  0.00     0.251 C 
ATOM      7  H   UNL     1       3.887  10.073  -2.394  1.00  0.00     0.163 HD
BRANCH   6   8
ATOM      8  C   UNL     1       2.623   8.746  -5.182  1.00  0.00     0.039 A 
ATOM      9  C   UNL     1       2.649   7.365  -4.974  1.00  0.00     0.014 A 
ATOM     10  C   UNL     1       2.398   9.259  -6.463  1.00  0.00     0.014 A 
ATOM     11  C   UNL     1       2.577   6.501  -6.062  1.00  0.00     0.010 A 
ATOM     12  C   UNL     1       2.253   8.387  -7.546  1.00  0.00     0.010 A 
ATOM     13  C   UNL     1       2.367   7.002  -7.358  1.00  0.00    -0.014 A 
BRANCH  13  14
ATOM     14  C   UNL     1       2.195   6.049  -8.483  1.00  0.00     0.031 A 
ATOM     15  C   UNL     1       3.204   5.958  -9.594  1.00  0.00     0.074 A 
ATOM     16  C   UNL     1       1.118   5.238  -8.476  1.00  0.00     0.049 A 
ATOM     17  N   UNL     1       3.212   5.155 -10.628  1.00  0.00    -0.248 NA
ATOM     18  C   UNL     1       4.346   6.884  -9.546  1.00  0.00     0.031 C 
ATOM     19  C   UNL     1       0.063   5.247  -7.458  1.00  0.00     0.029 A 
ATOM     20  N   UNL     1       0.741   4.238  -9.334  1.00  0.00    -0.354 N 
ATOM     21  C   UNL     1       4.342   5.490 -11.364  1.00  0.00     0.074 A 
ATOM     22  C   UNL     1       4.992   6.579 -10.666  1.00  0.00     0.031 C 
ATOM     23  C   UNL     1      -0.816   4.270  -7.726  1.00  0.00     0.029 A 
ATOM     24  C   UNL     1      -0.419   3.602  -8.960  1.00  0.00     0.049 A 
ATOM     25  H   UNL     1       1.251   3.999 -10.142  1.00  0.00     0.167 HD
ATOM     26  C   UNL     1       4.796   4.938 -12.516  1.00  0.00     0.031 A 
ATOM     27  C   UNL     1      -1.099   2.601  -9.547  1.00  0.00     0.031 A 
ATOM     28  C   UNL     1       4.153   3.846 -13.201  1.00  0.00     0.049 A 
ATOM     29  C   UNL     1      -0.573   2.012 -10.823  1.00  0.00     0.074 A 
ATOM     30  C   UNL     1       4.561   3.195 -14.353  1.00  0.00     0.029 A 
ATOM     31  N   UNL     1       2.969   3.246 -12.802  1.00  0.00    -0.354 N 
ATOM     32  N   UNL     1       0.518   2.322 -11.481  1.00  0.00    -0.248 NA
ATOM     33  C   UNL     1      -1.370   0.941 -11.435  1.00  0.00     0.031 C 
ATOM     34  C   UNL     1       3.603   2.227 -14.672  1.00  0.00     0.029 A 
ATOM     35  C   UNL     1       2.620   2.248 -13.696  1.00  0.00     0.049 A 
ATOM     36  H   UNL     1       2.452   3.493 -12.001  1.00  0.00     0.167 HD
ATOM     37  C   UNL     1       0.540   1.481 -12.586  1.00  0.00     0.074 A 
ATOM     38  C   UNL     1      -0.631   0.632 -12.492  1.00  0.00     0.031 C 
ATOM     39  C   UNL     1       1.446   1.421 -13.592  1.00  0.00     0.031 A 
BRANCH  26  40
ATOM     40  C   UNL     1       6.043   5.514 -13.130  1.00  0.00    -0.014 A 
ATOM     41  C   UNL     1       7.313   5.220 -12.604  1.00  0.00     0.010 A 
ATOM     42  C   UNL     1       5.948   6.290 -14.299  1.00  0.00     0.010 A 
ATOM     43  C   UNL     1       8.466   5.709 -13.226  1.00  0.00     0.020 A 
ATOM     44  C   UNL     1       7.099   6.766 -14.934  1.00  0.00     0.020 A 
ATOM     45  C   UNL     1       8.352   6.481 -14.386  1.00  0.00     0.054 A 
BRANCH  45  46
ATOM     46  S   UNL     1       9.865   7.065 -15.200  1.00  0.00     0.124 S 
ATOM     47  O   UNL     1      10.276   8.157 -14.322  1.00  0.00    -0.237 OA
ATOM     48  O   UNL     1      10.723   5.883 -15.174  1.00  0.00    -0.237 OA
ATOM     49  O   UNL     1       9.410   7.470 -16.528  1.00  0.00    -0.744 OA
ENDBRANCH  45  46
ENDBRANCH  26  40
BRANCH  27  50
ATOM     50  C   UNL     1      -2.364   2.113  -8.940  1.00  0.00    -0.014 A 
ATOM     51  C   UNL     1      -2.421   0.857  -8.314  1.00  0.00     0.010 A 
ATOM     52  C   UNL     1      -3.515   2.921  -8.966  1.00  0.00     0.010 A 
ATOM     53  C   UNL     1      -3.613   0.409  -7.737  1.00  0.00     0.020 A 
ATOM     54  C   UNL     1      -4.700   2.489  -8.369  1.00  0.00     0.020 A 
ATOM     55  C   UNL     1      -4.746   1.229  -7.770  1.00  0.00     0.054 A 
BRANCH  55  56
ATOM     56  S   UNL     1      -6.271   0.660  -6.970  1.00  0.00     0.124 S 
ATOM     57  O   UNL     1      -6.835  -0.221  -7.987  1.00  0.00    -0.237 OA
ATOM     58  O   UNL     1      -5.776  -0.000  -5.764  1.00  0.00    -0.237 OA
ATOM     59  O   UNL     1      -7.009   1.899  -6.731  1.00  0.00    -0.744 OA
ENDBRANCH  55  56
ENDBRANCH  27  50
BRANCH  39  60
ATOM     60  C   UNL     1       1.205   0.397 -14.664  1.00  0.00    -0.014 A 
ATOM     61  C   UNL     1       0.216   0.598 -15.642  1.00  0.00     0.010 A 
ATOM     62  C   UNL     1       1.995  -0.765 -14.709  1.00  0.00     0.010 A 
ATOM     63  C   UNL     1      -0.002  -0.364 -16.631  1.00  0.00     0.020 A 
ATOM     64  C   UNL     1       1.793  -1.720 -15.708  1.00  0.00     0.020 A 
ATOM     65  C   UNL     1       0.784  -1.520 -16.654  1.00  0.00     0.054 A 
BRANCH  65  66
ATOM     66  S   UNL     1       0.506  -2.744 -17.963  1.00  0.00     0.124 S 
ATOM     67  O   UNL     1      -0.676  -3.447 -17.474  1.00  0.00    -0.237 OA
ATOM     68  O   UNL     1       0.299  -1.913 -19.146  1.00  0.00    -0.237 OA
ATOM     69  O   UNL     1       1.740  -3.527 -17.970  1.00  0.00    -0.744 OA
ENDBRANCH  65  66
ENDBRANCH  39  60
ENDBRANCH  13  14
ENDBRANCH   6   8
ENDBRANCH   3   4
ENDBRANCH   2   3
ENDBRANCH   1   2
BRANCH   1  70
ATOM     70  C   UNL     1       6.232   8.864  -0.428  1.00  0.00     0.116 C 
BRANCH  70  71
ATOM     71  N   UNL     1       7.127   7.723  -0.349  1.00  0.00    -0.354 N 
ATOM     72  C   UNL     1       8.101   7.428   0.559  1.00  0.00     0.244 C 
ATOM     73  H   UNL     1       7.013   7.058  -1.066  1.00  0.00     0.163 HD
ATOM     74  O   UNL     1       8.710   6.361   0.434  1.00  0.00    -0.273 OA
BRANCH  72  75
ATOM     75  C   UNL     1       8.477   8.430   1.660  1.00  0.00     0.197 C 
BRANCH  75  76
ATOM     76  N   UNL     1       8.765   7.672   2.886  1.00  0.00    -0.340 N 
ATOM     77  C   UNL     1       8.065   7.429   4.021  1.00  0.00     0.244 C 
ATOM     78  H   UNL     1       9.655   7.252   2.882  1.00  0.00     0.164 HD
ATOM     79  O   UNL     1       8.598   6.666   4.838  1.00  0.00    -0.273 OA
BRANCH  77  80
ATOM     80  C   UNL     1       6.630   7.937   4.308  1.00  0.00     0.181 C 
BRANCH  80  81
ATOM     81  N   UNL     1       6.173   9.125   3.594  1.00  0.00    -0.339 N 
ATOM     82  C   UNL     1       6.079  10.442   3.948  1.00  0.00     0.251 C 
ATOM     83  H   UNL     1       5.873   8.942   2.674  1.00  0.00     0.164 HD
ATOM     84  O   UNL     1       5.643  11.241   3.130  1.00  0.00    -0.269 OA
BRANCH  82  85
ATOM     85  C   UNL     1       6.389  10.899   5.321  1.00  0.00     0.040 A 
ATOM     86  C   UNL     1       7.566  10.554   5.994  1.00  0.00     0.017 A 
ATOM     87  C   UNL     1       5.453  11.746   5.933  1.00  0.00     0.017 A 
ATOM     88  C   UNL     1       7.769  11.005   7.302  1.00  0.00     0.040 A 
ATOM     89  C   UNL     1       5.664  12.202   7.234  1.00  0.00     0.040 A 
ATOM     90  C   UNL     1       6.816  11.818   7.910  1.00  0.00     0.123 A 
ATOM     91  F   UNL     1       7.014  12.243   9.165  1.00  0.00    -0.207 F 
ENDBRANCH  82  85
ENDBRANCH  80  81
BRANCH  80  92
ATOM     92  C   UNL     1       5.639   6.763   4.166  1.00  0.00     0.101 C 
BRANCH  92  93
ATOM     93  S   UNL     1       4.904   6.596   2.501  1.00  0.00    -0.177 SA
ATOM     94  H   UNL     1       4.177   7.709   2.213  1.00  0.00     0.102 HD
ENDBRANCH  92  93
ENDBRANCH  80  92
ENDBRANCH  77  80
ENDBRANCH  75  76
BRANCH  75  95
ATOM     95  C   UNL     1       9.713   9.218   1.191  1.00  0.00     0.191 C 
BRANCH  95  96
ATOM     96  O   UNL     1       9.355  10.547   0.809  1.00  0.00    -0.394 OA
ATOM     97  H   UNL     1       8.721  10.513   0.076  1.00  0.00     0.210 HD
ENDBRANCH  95  96
ENDBRANCH  75  95
ENDBRANCH  72  75
ENDBRANCH  70  71
ENDBRANCH   1  70
TORSDOF 22
