REMARK SMILES CC1(C)[C@H]2CC[C@]1(C)[C@H](NC(=O)CCC(=O)NCCCCNC(=O)c1ccc(-c3c4nc(c(-c5ccc(S(=O)(=O)[O-])cc5)c5ccc([nH]5)c(-c5ccc(S(=O)(=O)[O-])cc5)c5nc(c(-c6ccc(S(=O)(=O)[O-])cc6)c6ccc3[nH]6)C=C5)C=C4)cc1)C2
REMARK SMILES IDX 19 1 18 2 17 3 15 4 16 5 14 7 13 8 11 9 10 10 12 12 9 13
REMARK SMILES IDX 1 14 2 15 3 16 4 17 7 18 5 19 85 20 6 21 8 22 20 23 21 24
REMARK SMILES IDX 22 25 23 26 24 28 25 29 26 30 84 31 27 32 83 33 28 34 29 35
REMARK SMILES IDX 30 36 77 37 31 38 82 39 76 40 78 41 32 42 81 43 75 44 74 45
REMARK SMILES IDX 33 47 63 48 44 49 62 50 45 51 48 52 61 53 79 54 46 55 47 56
REMARK SMILES IDX 60 58 80 59 49 60 34 61 35 62 43 63 36 64 42 65 37 66 38 67
REMARK SMILES IDX 39 68 40 69 41 70 64 71 65 72 73 73 66 74 72 75 67 76 68 77
REMARK SMILES IDX 69 78 70 79 71 80 50 81 51 82 59 83 52 84 58 85 53 86 54 87
REMARK SMILES IDX 55 88 56 89 57 90
REMARK H PARENT 17 6 10 11 22 27 78 46 48 57
REMARK Flexibility Score: inf
ROOT
ATOM      1  C   UNL     1      -2.527  -2.802   2.300  1.00  0.00     0.023 C 
ENDROOT
BRANCH   1   2
ATOM      2  C   UNL     1      -3.239  -1.574   2.861  1.00  0.00     0.116 C 
BRANCH   2   3
ATOM      3  N   UNL     1      -2.398  -0.397   2.845  1.00  0.00    -0.356 N 
ATOM      4  C   UNL     1      -2.619   0.799   2.241  1.00  0.00     0.220 C 
ATOM      5  O   UNL     1      -1.833   1.721   2.462  1.00  0.00    -0.275 OA
ATOM      6  H   UNL     1      -1.551  -0.473   3.341  1.00  0.00     0.163 HD
BRANCH   4   7
ATOM      7  C   UNL     1      -3.832   1.004   1.370  1.00  0.00     0.110 C 
BRANCH   7   8
ATOM      8  C   UNL     1      -3.856   0.428  -0.037  1.00  0.00     0.110 C 
BRANCH   8   9
ATOM      9  C   UNL     1      -3.215  -0.899  -0.356  1.00  0.00     0.220 C 
ATOM     10  N   UNL     1      -1.896  -1.046  -0.640  1.00  0.00    -0.353 N 
ATOM     11  H   UNL     1      -1.708  -1.805  -1.238  1.00  0.00     0.163 HD
ATOM     12  O   UNL     1      -3.928  -1.905  -0.457  1.00  0.00    -0.275 OA
BRANCH  10  13
ATOM     13  C   UNL     1      -0.695  -0.313  -0.242  1.00  0.00     0.088 C 
ATOM     14  C   UNL     1       2.826   0.496  -1.736  1.00  0.00     0.012 C 
ATOM     15  C   UNL     1       1.547   0.469  -0.877  1.00  0.00    -0.025 C 
ATOM     16  C   UNL     1       2.000   0.706   0.579  1.00  0.00     0.012 C 
ATOM     17  C   UNL     1       0.475   1.451  -1.401  1.00  0.00    -0.003 C 
ATOM     18  C   UNL     1       0.585  -0.747  -1.069  1.00  0.00    -0.007 C 
ATOM     19  C   UNL     1       0.058   0.870  -2.773  1.00  0.00     0.005 C 
ATOM     20  C   UNL     1      -0.708   1.212  -0.457  1.00  0.00     0.029 C 
ATOM     21  C   UNL     1       0.226  -0.644  -2.575  1.00  0.00     0.010 C 
ATOM     22  C   UNL     1       1.153  -2.103  -0.684  1.00  0.00     0.014 C 
ENDBRANCH  10  13
ENDBRANCH   8   9
ENDBRANCH   7   8
ENDBRANCH   4   7
ENDBRANCH   2   3
ENDBRANCH   1   2
BRANCH   1  23
ATOM     23  C   UNL     1      -1.319  -3.275   3.094  1.00  0.00     0.023 C 
BRANCH  23  24
ATOM     24  C   UNL     1      -1.598  -3.524   4.564  1.00  0.00     0.116 C 
BRANCH  24  25
ATOM     25  N   UNL     1      -2.800  -4.308   4.800  1.00  0.00    -0.352 N 
ATOM     26  C   UNL     1      -3.001  -5.330   5.706  1.00  0.00     0.251 C 
ATOM     27  H   UNL     1      -3.575  -4.079   4.237  1.00  0.00     0.163 HD
ATOM     28  O   UNL     1      -4.047  -5.949   5.732  1.00  0.00    -0.269 OA
BRANCH  26  29
ATOM     29  C   UNL     1      -1.884  -5.671   6.604  1.00  0.00     0.039 A 
ATOM     30  C   UNL     1      -1.435  -6.990   6.648  1.00  0.00     0.014 A 
ATOM     31  C   UNL     1      -1.219  -4.657   7.294  1.00  0.00     0.014 A 
ATOM     32  C   UNL     1      -0.256  -7.283   7.333  1.00  0.00     0.010 A 
ATOM     33  C   UNL     1       0.006  -4.931   7.877  1.00  0.00     0.010 A 
ATOM     34  C   UNL     1       0.493  -6.247   7.913  1.00  0.00    -0.014 A 
BRANCH  34  35
ATOM     35  C   UNL     1       1.776  -6.500   8.608  1.00  0.00     0.031 A 
ATOM     36  C   UNL     1       1.898  -6.131  10.061  1.00  0.00     0.074 A 
ATOM     37  C   UNL     1       2.841  -6.956   7.923  1.00  0.00     0.049 A 
ATOM     38  N   UNL     1       2.960  -6.103  10.821  1.00  0.00    -0.248 NA
ATOM     39  C   UNL     1       0.665  -5.680  10.730  1.00  0.00     0.031 C 
ATOM     40  C   UNL     1       2.854  -7.310   6.501  1.00  0.00     0.029 A 
ATOM     41  N   UNL     1       4.126  -7.195   8.336  1.00  0.00    -0.354 N 
ATOM     42  C   UNL     1       2.533  -5.580  12.036  1.00  0.00     0.074 A 
ATOM     43  C   UNL     1       1.133  -5.253  11.892  1.00  0.00     0.031 C 
ATOM     44  C   UNL     1       4.074  -7.767   6.174  1.00  0.00     0.029 A 
ATOM     45  C   UNL     1       4.939  -7.693   7.346  1.00  0.00     0.049 A 
ATOM     46  H   UNL     1       4.437  -7.027   9.254  1.00  0.00     0.167 HD
ATOM     47  C   UNL     1       3.237  -5.410  13.180  1.00  0.00     0.031 A 
ATOM     48  C   UNL     1       6.237  -8.051   7.386  1.00  0.00     0.031 A 
ATOM     49  C   UNL     1       4.615  -5.787  13.327  1.00  0.00     0.049 A 
ATOM     50  C   UNL     1       6.991  -7.900   8.677  1.00  0.00     0.074 A 
ATOM     51  C   UNL     1       5.414  -5.722  14.453  1.00  0.00     0.029 A 
ATOM     52  N   UNL     1       5.392  -6.324  12.310  1.00  0.00    -0.354 N 
ATOM     53  N   UNL     1       6.569  -7.428   9.826  1.00  0.00    -0.248 NA
ATOM     54  C   UNL     1       8.394  -8.335   8.678  1.00  0.00     0.031 C 
ATOM     55  C   UNL     1       6.684  -6.201  14.110  1.00  0.00     0.029 A 
ATOM     56  C   UNL     1       6.663  -6.597  12.781  1.00  0.00     0.049 A 
ATOM     57  H   UNL     1       5.084  -6.486  11.389  1.00  0.00     0.167 HD
ATOM     58  C   UNL     1       7.646  -7.535  10.697  1.00  0.00     0.074 A 
ATOM     59  C   UNL     1       8.736  -8.120   9.942  1.00  0.00     0.031 C 
ATOM     60  C   UNL     1       7.726  -7.185  12.005  1.00  0.00     0.031 A 
BRANCH  47  61
ATOM     61  C   UNL     1       2.509  -4.782  14.338  1.00  0.00    -0.014 A 
ATOM     62  C   UNL     1       1.465  -5.462  14.994  1.00  0.00     0.010 A 
ATOM     63  C   UNL     1       2.832  -3.475  14.741  1.00  0.00     0.010 A 
ATOM     64  C   UNL     1       0.703  -4.816  15.971  1.00  0.00     0.020 A 
ATOM     65  C   UNL     1       2.094  -2.837  15.742  1.00  0.00     0.020 A 
ATOM     66  C   UNL     1       1.012  -3.501  16.326  1.00  0.00     0.054 A 
BRANCH  66  67
ATOM     67  S   UNL     1      -0.016  -2.663  17.563  1.00  0.00     0.124 S 
ATOM     68  O   UNL     1      -1.175  -2.265  16.768  1.00  0.00    -0.237 OA
ATOM     69  O   UNL     1      -0.264  -3.715  18.547  1.00  0.00    -0.237 OA
ATOM     70  O   UNL     1       0.829  -1.567  18.029  1.00  0.00    -0.744 OA
ENDBRANCH  66  67
ENDBRANCH  47  61
BRANCH  48  71
ATOM     71  C   UNL     1       6.876  -8.646   6.182  1.00  0.00    -0.014 A 
ATOM     72  C   UNL     1       7.112 -10.031   6.130  1.00  0.00     0.010 A 
ATOM     73  C   UNL     1       7.204  -7.852   5.069  1.00  0.00     0.010 A 
ATOM     74  C   UNL     1       7.668 -10.613   4.988  1.00  0.00     0.020 A 
ATOM     75  C   UNL     1       7.742  -8.435   3.916  1.00  0.00     0.020 A 
ATOM     76  C   UNL     1       7.976  -9.812   3.886  1.00  0.00     0.054 A 
BRANCH  76  77
ATOM     77  S   UNL     1       8.622 -10.603   2.385  1.00  0.00     0.124 S 
ATOM     78  O   UNL     1       9.999 -10.899   2.767  1.00  0.00    -0.237 OA
ATOM     79  O   UNL     1       7.744 -11.760   2.234  1.00  0.00    -0.237 OA
ATOM     80  O   UNL     1       8.462  -9.572   1.361  1.00  0.00    -0.744 OA
ENDBRANCH  76  77
ENDBRANCH  48  71
BRANCH  60  81
ATOM     81  C   UNL     1       9.023  -7.462  12.711  1.00  0.00    -0.014 A 
ATOM     82  C   UNL     1      10.148  -6.645  12.508  1.00  0.00     0.010 A 
ATOM     83  C   UNL     1       9.091  -8.517  13.639  1.00  0.00     0.010 A 
ATOM     84  C   UNL     1      11.330  -6.893  13.210  1.00  0.00     0.020 A 
ATOM     85  C   UNL     1      10.264  -8.753  14.357  1.00  0.00     0.020 A 
ATOM     86  C   UNL     1      11.381  -7.945  14.129  1.00  0.00     0.054 A 
BRANCH  86  87
ATOM     87  S   UNL     1      12.907  -8.212  15.071  1.00  0.00     0.124 S 
ATOM     88  O   UNL     1      13.761  -8.866  14.084  1.00  0.00    -0.237 OA
ATOM     89  O   UNL     1      13.300  -6.854  15.441  1.00  0.00    -0.237 OA
ATOM     90  O   UNL     1      12.482  -9.055  16.186  1.00  0.00    -0.744 OA
ENDBRANCH  86  87
ENDBRANCH  60  81
ENDBRANCH  34  35
ENDBRANCH  26  29
ENDBRANCH  24  25
ENDBRANCH  23  24
ENDBRANCH   1  23
TORSDOF 17
