REMARK SMILES O=C(NCCCCNC(=O)[C@H]1CCC[N@@H+]1CCn1ccnc1)c1ccc(-c2c3nc(c(-c4ccc(S(=O)(=O)[O-])cc4)c4ccc([nH]4)c(-c4ccc(S(=O)(=O)[O-])cc4)c4nc(c(-c5ccc(S(=O)(=O)[O-])cc5)c5ccc2[nH]5)C=C4)C=C3)cc1
REMARK SMILES IDX 5 1 4 2 3 3 1 4 2 5 23 7 24 8 82 9 25 10 81 11 26 12 27 13
REMARK SMILES IDX 28 14 75 15 29 16 80 17 74 18 76 19 30 20 79 21 73 22 72 23
REMARK SMILES IDX 31 25 61 26 42 27 60 28 43 29 46 30 59 31 77 32 44 33 45 34
REMARK SMILES IDX 58 36 78 37 47 38 32 39 33 40 41 41 34 42 40 43 35 44 36 45
REMARK SMILES IDX 37 46 38 47 39 48 62 49 63 50 71 51 64 52 70 53 65 54 66 55
REMARK SMILES IDX 67 56 68 57 69 58 48 59 49 60 57 61 50 62 56 63 51 64 52 65
REMARK SMILES IDX 53 66 54 67 55 68 6 69 7 70 8 71 9 72 10 74 11 75 12 76
REMARK SMILES IDX 15 77 13 78 14 79 16 81 17 82 18 83 19 84 22 85 20 86 21 87
REMARK H PARENT 3 6 76 24 46 35 8 73 15 80
REMARK Flexibility Score: inf
ROOT
ATOM      1  C   UNL     1       5.527  10.426  -4.801  1.00  0.00     0.023 C 
ENDROOT
BRANCH   1   2
ATOM      2  C   UNL     1       4.208  11.174  -4.558  1.00  0.00     0.116 C 
BRANCH   2   3
ATOM      3  N   UNL     1       4.312  12.311  -3.667  1.00  0.00    -0.352 N 
ATOM      4  O   UNL     1       4.202  14.383  -2.910  1.00  0.00    -0.269 OA
ATOM      5  C   UNL     1       4.457  13.657  -3.875  1.00  0.00     0.251 C 
ATOM      6  H   UNL     1       4.269  12.066  -2.715  1.00  0.00     0.163 HD
BRANCH   5   7
ATOM      7  C   UNL     1       4.954  14.279  -5.135  1.00  0.00     0.039 A 
ATOM      8  C   UNL     1       5.279  13.594  -6.305  1.00  0.00     0.014 A 
ATOM      9  C   UNL     1       5.182  15.669  -5.090  1.00  0.00     0.014 A 
ATOM     10  C   UNL     1       5.893  14.255  -7.364  1.00  0.00     0.010 A 
ATOM     11  C   UNL     1       5.785  16.338  -6.150  1.00  0.00     0.010 A 
ATOM     12  C   UNL     1       6.175  15.620  -7.274  1.00  0.00    -0.014 A 
BRANCH  12  13
ATOM     13  C   UNL     1       6.736  16.276  -8.452  1.00  0.00     0.031 A 
ATOM     14  C   UNL     1       5.856  16.215  -9.655  1.00  0.00     0.074 A 
ATOM     15  C   UNL     1       7.889  16.975  -8.467  1.00  0.00     0.049 A 
ATOM     16  N   UNL     1       6.066  15.580 -10.761  1.00  0.00    -0.248 NA
ATOM     17  C   UNL     1       4.519  16.822  -9.561  1.00  0.00     0.031 C 
ATOM     18  C   UNL     1       8.733  17.369  -7.337  1.00  0.00     0.029 A 
ATOM     19  N   UNL     1       8.507  17.570  -9.526  1.00  0.00    -0.354 N 
ATOM     20  C   UNL     1       4.977  15.860 -11.583  1.00  0.00     0.074 A 
ATOM     21  C   UNL     1       3.998  16.511 -10.749  1.00  0.00     0.031 C 
ATOM     22  C   UNL     1       9.604  18.325  -7.741  1.00  0.00     0.029 A 
ATOM     23  C   UNL     1       9.486  18.495  -9.180  1.00  0.00     0.049 A 
ATOM     24  H   UNL     1       8.278  17.362 -10.461  1.00  0.00     0.167 HD
ATOM     25  C   UNL     1       5.036  15.710 -12.936  1.00  0.00     0.031 A 
ATOM     26  C   UNL     1      10.117  19.366 -10.012  1.00  0.00     0.031 A 
ATOM     27  C   UNL     1       6.167  14.920 -13.339  1.00  0.00     0.049 A 
ATOM     28  C   UNL     1       9.980  18.829 -11.388  1.00  0.00     0.074 A 
ATOM     29  C   UNL     1       6.572  13.619 -13.126  1.00  0.00     0.029 A 
ATOM     30  N   UNL     1       7.278  15.599 -13.778  1.00  0.00    -0.354 N 
ATOM     31  N   UNL     1      10.537  17.718 -11.783  1.00  0.00    -0.248 NA
ATOM     32  C   UNL     1       8.857  19.288 -12.189  1.00  0.00     0.031 C 
ATOM     33  C   UNL     1       7.985  13.701 -12.969  1.00  0.00     0.029 A 
ATOM     34  C   UNL     1       8.364  15.030 -13.168  1.00  0.00     0.049 A 
ATOM     35  H   UNL     1       7.291  16.352 -14.413  1.00  0.00     0.167 HD
ATOM     36  C   UNL     1       9.589  17.120 -12.600  1.00  0.00     0.074 A 
ATOM     37  C   UNL     1       8.609  18.169 -12.876  1.00  0.00     0.031 C 
ATOM     38  C   UNL     1       9.542  15.765 -12.759  1.00  0.00     0.031 A 
BRANCH  25  39
ATOM     39  C   UNL     1       4.300  16.591 -13.915  1.00  0.00    -0.014 A 
ATOM     40  C   UNL     1       4.417  16.319 -15.295  1.00  0.00     0.010 A 
ATOM     41  C   UNL     1       3.748  17.837 -13.553  1.00  0.00     0.010 A 
ATOM     42  C   UNL     1       4.078  17.277 -16.258  1.00  0.00     0.020 A 
ATOM     43  C   UNL     1       3.368  18.784 -14.507  1.00  0.00     0.020 A 
ATOM     44  C   UNL     1       3.570  18.511 -15.854  1.00  0.00     0.054 A 
BRANCH  44  45
ATOM     45  S   UNL     1       3.243  19.786 -17.096  1.00  0.00     0.124 S 
ATOM     46  O   UNL     1       4.589  20.067 -17.599  1.00  0.00    -0.237 OA
ATOM     47  O   UNL     1       2.357  19.088 -18.027  1.00  0.00    -0.237 OA
ATOM     48  O   UNL     1       2.622  20.859 -16.335  1.00  0.00    -0.744 OA
ENDBRANCH  44  45
ENDBRANCH  25  39
BRANCH  26  49
ATOM     49  C   UNL     1      10.498  20.780  -9.749  1.00  0.00    -0.014 A 
ATOM     50  C   UNL     1      11.350  21.486 -10.622  1.00  0.00     0.010 A 
ATOM     51  C   UNL     1       9.777  21.530  -8.797  1.00  0.00     0.010 A 
ATOM     52  C   UNL     1      11.432  22.892 -10.581  1.00  0.00     0.020 A 
ATOM     53  C   UNL     1       9.856  22.929  -8.749  1.00  0.00     0.020 A 
ATOM     54  C   UNL     1      10.667  23.607  -9.656  1.00  0.00     0.054 A 
BRANCH  54  55
ATOM     55  S   UNL     1      10.639  25.425  -9.723  1.00  0.00     0.124 S 
ATOM     56  O   UNL     1      11.974  25.775  -9.246  1.00  0.00    -0.237 OA
ATOM     57  O   UNL     1      10.384  25.689 -11.136  1.00  0.00    -0.237 OA
ATOM     58  O   UNL     1       9.546  25.787  -8.822  1.00  0.00    -0.744 OA
ENDBRANCH  54  55
ENDBRANCH  26  49
BRANCH  38  59
ATOM     59  C   UNL     1      10.699  14.928 -12.270  1.00  0.00    -0.014 A 
ATOM     60  C   UNL     1      11.065  14.805 -10.915  1.00  0.00     0.010 A 
ATOM     61  C   UNL     1      11.303  14.075 -13.210  1.00  0.00     0.010 A 
ATOM     62  C   UNL     1      12.010  13.845 -10.517  1.00  0.00     0.020 A 
ATOM     63  C   UNL     1      12.229  13.108 -12.818  1.00  0.00     0.020 A 
ATOM     64  C   UNL     1      12.579  12.996 -11.473  1.00  0.00     0.054 A 
BRANCH  64  65
ATOM     65  S   UNL     1      13.725  11.688 -10.948  1.00  0.00     0.124 S 
ATOM     66  O   UNL     1      14.907  12.445 -10.544  1.00  0.00    -0.237 OA
ATOM     67  O   UNL     1      12.996  11.033  -9.864  1.00  0.00    -0.237 OA
ATOM     68  O   UNL     1      13.894  10.870 -12.148  1.00  0.00    -0.744 OA
ENDBRANCH  64  65
ENDBRANCH  38  59
ENDBRANCH  12  13
ENDBRANCH   5   7
ENDBRANCH   2   3
ENDBRANCH   1   2
BRANCH   1  69
ATOM     69  C   UNL     1       6.227   9.890  -3.550  1.00  0.00     0.023 C 
BRANCH  69  70
ATOM     70  C   UNL     1       5.328   9.078  -2.626  1.00  0.00     0.116 C 
BRANCH  70  71
ATOM     71  N   UNL     1       5.536   7.647  -2.629  1.00  0.00    -0.351 N 
ATOM     72  C   UNL     1       5.873   6.767  -1.638  1.00  0.00     0.278 C 
ATOM     73  H   UNL     1       5.412   7.227  -3.511  1.00  0.00     0.163 HD
ATOM     74  O   UNL     1       5.580   5.583  -1.865  1.00  0.00    -0.268 OA
BRANCH  72  75
ATOM     75  C   UNL     1       6.609   7.137  -0.301  1.00  0.00     0.274 C 
ATOM     76  C   UNL     1       7.126   8.554  -0.137  1.00  0.00     0.081 C 
ATOM     77  N   UNL     1       5.706   6.952   0.869  1.00  0.00    -0.323 N 
ATOM     78  C   UNL     1       6.008   9.296   0.606  1.00  0.00     0.068 C 
ATOM     79  C   UNL     1       5.008   8.227   1.013  1.00  0.00     0.263 C 
ATOM     80  H   UNL     1       5.067   6.178   0.689  1.00  0.00     0.348 HD
BRANCH  77  81
ATOM     81  C   UNL     1       6.342   6.477   2.119  1.00  0.00     0.285 C 
BRANCH  81  82
ATOM     82  C   UNL     1       7.558   7.151   2.818  1.00  0.00     0.184 C 
BRANCH  82  83
ATOM     83  N   UNL     1       7.422   8.506   3.311  1.00  0.00    -0.332 N 
ATOM     84  C   UNL     1       6.379   9.043   4.016  1.00  0.00     0.107 A 
ATOM     85  C   UNL     1       8.331   9.513   3.106  1.00  0.00     0.199 A 
ATOM     86  C   UNL     1       6.643  10.395   4.069  1.00  0.00     0.130 A 
ATOM     87  N   UNL     1       7.870  10.670   3.527  1.00  0.00    -0.245 NA
ENDBRANCH  82  83
ENDBRANCH  81  82
ENDBRANCH  77  81
ENDBRANCH  72  75
ENDBRANCH  70  71
ENDBRANCH  69  70
ENDBRANCH   1  69
TORSDOF 17
