REMARK SMILES O=C(NCCCCNC(=O)[C@H]1[C@H]2CC[C@H](CC2)[C@@H]1C(=O)Nc1sc2c(c1C(=O)N1CCCCC1)CCCC2)c1ccc(-c2c3nc(c(-c4ccc(S(=O)(=O)[O-])cc4)c4ccc([nH]4)c(-c4ccc(S(=O)(=O)[O-])cc4)c4nc(c(-c5ccc(S(=O)(=O)[O-])cc5)c5ccc2[nH]5)C=C4)C=C3)cc1
REMARK SMILES IDX 5 1 4 2 3 3 1 4 2 5 39 7 40 8 98 9 41 10 97 11 42 12 43 13
REMARK SMILES IDX 44 14 91 15 45 16 96 17 90 18 92 19 46 20 95 21 89 22 88 23
REMARK SMILES IDX 47 25 77 26 58 27 76 28 59 29 62 30 75 31 93 32 60 33 61 34
REMARK SMILES IDX 74 36 94 37 63 38 48 39 49 40 57 41 50 42 56 43 51 44 52 45
REMARK SMILES IDX 53 46 54 47 55 48 78 49 79 50 87 51 80 52 86 53 81 54 82 55
REMARK SMILES IDX 83 56 84 57 85 58 64 59 65 60 73 61 66 62 72 63 67 64 68 65
REMARK SMILES IDX 69 66 70 67 71 68 6 69 7 70 8 71 9 72 10 74 11 75 12 76
REMARK SMILES IDX 18 77 13 78 17 79 15 80 14 81 16 82 19 83 20 84 21 85 22 87
REMARK SMILES IDX 23 88 26 89 24 90 25 91 38 92 35 93 37 94 36 95 27 96 28 97
REMARK SMILES IDX 29 98 30 99 34 100 31 101 33 102 32 103
REMARK H PARENT 3 6 92 24 62 35 8 73 21 86
REMARK Flexibility Score: inf
ROOT
ATOM      1  C   UNL     1       4.745   2.162   1.547  1.00  0.00     0.023 C 
ENDROOT
BRANCH   1   2
ATOM      2  C   UNL     1       4.457   0.778   0.977  1.00  0.00     0.116 C 
BRANCH   2   3
ATOM      3  N   UNL     1       3.035   0.477   0.928  1.00  0.00    -0.352 N 
ATOM      4  O   UNL     1       1.078  -0.087  -0.041  1.00  0.00    -0.269 OA
ATOM      5  C   UNL     1       2.303  -0.034  -0.115  1.00  0.00     0.251 C 
ATOM      6  H   UNL     1       2.531   0.664   1.752  1.00  0.00     0.163 HD
BRANCH   5   7
ATOM      7  C   UNL     1       2.996  -0.499  -1.335  1.00  0.00     0.039 A 
ATOM      8  C   UNL     1       4.116  -1.329  -1.244  1.00  0.00     0.014 A 
ATOM      9  C   UNL     1       2.511  -0.102  -2.584  1.00  0.00     0.014 A 
ATOM     10  C   UNL     1       4.815  -1.675  -2.396  1.00  0.00     0.010 A 
ATOM     11  C   UNL     1       3.175  -0.508  -3.744  1.00  0.00     0.010 A 
ATOM     12  C   UNL     1       4.341  -1.283  -3.659  1.00  0.00    -0.014 A 
BRANCH  12  13
ATOM     13  C   UNL     1       5.024  -1.772  -4.882  1.00  0.00     0.031 A 
ATOM     14  C   UNL     1       5.728  -0.826  -5.814  1.00  0.00     0.074 A 
ATOM     15  C   UNL     1       4.992  -3.093  -5.148  1.00  0.00     0.049 A 
ATOM     16  N   UNL     1       6.354  -1.093  -6.932  1.00  0.00    -0.248 NA
ATOM     17  C   UNL     1       5.725   0.600  -5.454  1.00  0.00     0.031 C 
ATOM     18  C   UNL     1       4.327  -4.103  -4.319  1.00  0.00     0.029 A 
ATOM     19  N   UNL     1       5.529  -3.815  -6.182  1.00  0.00    -0.354 N 
ATOM     20  C   UNL     1       6.799   0.129  -7.422  1.00  0.00     0.074 A 
ATOM     21  C   UNL     1       6.361   1.142  -6.486  1.00  0.00     0.031 C 
ATOM     22  C   UNL     1       4.518  -5.314  -4.862  1.00  0.00     0.029 A 
ATOM     23  C   UNL     1       5.263  -5.162  -6.106  1.00  0.00     0.049 A 
ATOM     24  H   UNL     1       6.055  -3.409  -6.908  1.00  0.00     0.167 HD
ATOM     25  C   UNL     1       7.507   0.378  -8.550  1.00  0.00     0.031 A 
ATOM     26  C   UNL     1       5.557  -6.164  -6.955  1.00  0.00     0.031 A 
ATOM     27  C   UNL     1       7.942  -0.639  -9.473  1.00  0.00     0.049 A 
ATOM     28  C   UNL     1       6.314  -5.852  -8.213  1.00  0.00     0.074 A 
ATOM     29  C   UNL     1       8.716  -0.492 -10.611  1.00  0.00     0.029 A 
ATOM     30  N   UNL     1       7.633  -1.988  -9.373  1.00  0.00    -0.354 N 
ATOM     31  N   UNL     1       6.779  -4.698  -8.626  1.00  0.00    -0.248 NA
ATOM     32  C   UNL     1       6.582  -6.975  -9.121  1.00  0.00     0.031 C 
ATOM     33  C   UNL     1       8.826  -1.742 -11.230  1.00  0.00     0.029 A 
ATOM     34  C   UNL     1       8.167  -2.677 -10.449  1.00  0.00     0.049 A 
ATOM     35  H   UNL     1       7.111  -2.395  -8.644  1.00  0.00     0.167 HD
ATOM     36  C   UNL     1       7.404  -4.957  -9.839  1.00  0.00     0.074 A 
ATOM     37  C   UNL     1       7.278  -6.380 -10.081  1.00  0.00     0.031 C 
ATOM     38  C   UNL     1       8.024  -4.092 -10.679  1.00  0.00     0.031 A 
BRANCH  25  39
ATOM     39  C   UNL     1       7.837   1.812  -8.876  1.00  0.00    -0.014 A 
ATOM     40  C   UNL     1       8.820   2.517  -8.162  1.00  0.00     0.010 A 
ATOM     41  C   UNL     1       7.203   2.437  -9.966  1.00  0.00     0.010 A 
ATOM     42  C   UNL     1       9.144   3.832  -8.514  1.00  0.00     0.020 A 
ATOM     43  C   UNL     1       7.539   3.743 -10.335  1.00  0.00     0.020 A 
ATOM     44  C   UNL     1       8.499   4.437  -9.597  1.00  0.00     0.054 A 
BRANCH  44  45
ATOM     45  S   UNL     1       8.964   6.131 -10.053  1.00  0.00     0.124 S 
ATOM     46  O   UNL     1       8.350   6.910  -8.980  1.00  0.00    -0.237 OA
ATOM     47  O   UNL     1      10.424   6.080 -10.034  1.00  0.00    -0.237 OA
ATOM     48  O   UNL     1       8.367   6.312 -11.374  1.00  0.00    -0.744 OA
ENDBRANCH  44  45
ENDBRANCH  25  39
BRANCH  26  49
ATOM     49  C   UNL     1       5.095  -7.544  -6.653  1.00  0.00    -0.014 A 
ATOM     50  C   UNL     1       6.011  -8.547  -6.296  1.00  0.00     0.010 A 
ATOM     51  C   UNL     1       3.722  -7.853  -6.697  1.00  0.00     0.010 A 
ATOM     52  C   UNL     1       5.564  -9.839  -6.003  1.00  0.00     0.020 A 
ATOM     53  C   UNL     1       3.269  -9.134  -6.376  1.00  0.00     0.020 A 
ATOM     54  C   UNL     1       4.195 -10.124  -6.045  1.00  0.00     0.054 A 
BRANCH  54  55
ATOM     55  S   UNL     1       3.631 -11.793  -5.613  1.00  0.00     0.124 S 
ATOM     56  O   UNL     1       3.971 -12.547  -6.815  1.00  0.00    -0.237 OA
ATOM     57  O   UNL     1       4.427 -12.100  -4.427  1.00  0.00    -0.237 OA
ATOM     58  O   UNL     1       2.202 -11.617  -5.365  1.00  0.00    -0.744 OA
ENDBRANCH  54  55
ENDBRANCH  26  49
BRANCH  38  59
ATOM     59  C   UNL     1       8.623  -4.663 -11.934  1.00  0.00    -0.014 A 
ATOM     60  C   UNL     1       7.808  -5.058 -13.009  1.00  0.00     0.010 A 
ATOM     61  C   UNL     1      10.021  -4.753 -12.060  1.00  0.00     0.010 A 
ATOM     62  C   UNL     1       8.381  -5.552 -14.183  1.00  0.00     0.020 A 
ATOM     63  C   UNL     1      10.598  -5.223 -13.242  1.00  0.00     0.020 A 
ATOM     64  C   UNL     1       9.773  -5.630 -14.293  1.00  0.00     0.054 A 
BRANCH  64  65
ATOM     65  S   UNL     1      10.495  -6.220 -15.849  1.00  0.00     0.124 S 
ATOM     66  O   UNL     1      10.243  -7.657 -15.775  1.00  0.00    -0.237 OA
ATOM     67  O   UNL     1       9.721  -5.498 -16.857  1.00  0.00    -0.237 OA
ATOM     68  O   UNL     1      11.899  -5.827 -15.751  1.00  0.00    -0.744 OA
ENDBRANCH  64  65
ENDBRANCH  38  59
ENDBRANCH  12  13
ENDBRANCH   5   7
ENDBRANCH   2   3
ENDBRANCH   1   2
BRANCH   1  69
ATOM     69  C   UNL     1       4.256   2.392   2.981  1.00  0.00     0.023 C 
BRANCH  69  70
ATOM     70  C   UNL     1       4.754   1.361   3.992  1.00  0.00     0.116 C 
BRANCH  70  71
ATOM     71  N   UNL     1       6.201   1.396   4.106  1.00  0.00    -0.356 N 
ATOM     72  C   UNL     1       7.001   1.809   5.124  1.00  0.00     0.224 C 
ATOM     73  H   UNL     1       6.683   1.065   3.313  1.00  0.00     0.163 HD
ATOM     74  O   UNL     1       8.211   1.860   4.901  1.00  0.00    -0.275 OA
BRANCH  72  75
ATOM     75  C   UNL     1       6.399   2.203   6.469  1.00  0.00     0.094 C 
ATOM     76  C   UNL     1       7.167   1.543   7.650  1.00  0.00     0.002 C 
ATOM     77  C   UNL     1       6.364   3.758   6.633  1.00  0.00     0.094 C 
ATOM     78  C   UNL     1       8.588   2.108   7.824  1.00  0.00     0.005 C 
ATOM     79  C   UNL     1       6.386   1.883   8.934  1.00  0.00     0.005 C 
ATOM     80  C   UNL     1       7.082   4.113   7.971  1.00  0.00     0.002 C 
ATOM     81  C   UNL     1       8.541   3.634   7.881  1.00  0.00     0.005 C 
ATOM     82  C   UNL     1       6.393   3.400   9.152  1.00  0.00     0.005 C 
BRANCH  77  83
ATOM     83  C   UNL     1       4.924   4.312   6.605  1.00  0.00     0.229 C 
ATOM     84  O   UNL     1       3.958   3.560   6.427  1.00  0.00    -0.274 OA
ATOM     85  N   UNL     1       4.632   5.621   6.868  1.00  0.00    -0.317 N 
ATOM     86  H   UNL     1       3.683   5.785   7.070  1.00  0.00     0.170 HD
BRANCH  85  87
ATOM     87  C   UNL     1       5.418   6.756   6.904  1.00  0.00     0.108 A 
ATOM     88  S   UNL     1       6.741   6.899   5.854  1.00  0.00    -0.122 S 
ATOM     89  C   UNL     1       5.194   7.902   7.668  1.00  0.00     0.078 A 
ATOM     90  C   UNL     1       7.202   8.373   6.538  1.00  0.00     0.011 A 
ATOM     91  C   UNL     1       6.279   8.851   7.453  1.00  0.00    -0.019 A 
ATOM     92  C   UNL     1       8.469   9.059   6.128  1.00  0.00     0.047 C 
ATOM     93  C   UNL     1       6.502  10.174   8.126  1.00  0.00     0.037 C 
ATOM     94  C   UNL     1       8.856  10.116   7.168  1.00  0.00     0.006 C 
ATOM     95  C   UNL     1       7.654  10.990   7.523  1.00  0.00     0.005 C 
BRANCH  89  96
ATOM     96  C   UNL     1       4.052   7.967   8.607  1.00  0.00     0.257 C 
ATOM     97  O   UNL     1       3.150   7.128   8.596  1.00  0.00    -0.269 OA
ATOM     98  N   UNL     1       4.104   8.938   9.603  1.00  0.00    -0.339 N 
ATOM     99  C   UNL     1       3.998   8.458  10.973  1.00  0.00     0.120 C 
ATOM    100  C   UNL     1       3.404  10.195   9.374  1.00  0.00     0.120 C 
ATOM    101  C   UNL     1       4.600   9.475  11.936  1.00  0.00     0.022 C 
ATOM    102  C   UNL     1       3.937  11.292  10.297  1.00  0.00     0.022 C 
ATOM    103  C   UNL     1       3.956  10.851  11.762  1.00  0.00     0.004 C 
ENDBRANCH  89  96
ENDBRANCH  85  87
ENDBRANCH  77  83
ENDBRANCH  72  75
ENDBRANCH  70  71
ENDBRANCH  69  70
ENDBRANCH   1  69
TORSDOF 17
