REMARK SMILES CC(C)[C@@H](NC(N)=O)C(=O)Nc1cccc(F)c1C(=O)NCCCCNC(=O)c1ccc(-c2c3nc(c(-c4ccc(S(=O)(=O)[O-])cc4)c4ccc([nH]4)c(-c4ccc(S(=O)(=O)[O-])cc4)c4nc(c(-c5ccc(S(=O)(=O)[O-])cc5)c5ccc2[nH]5)C=C4)C=C3)cc1
REMARK SMILES IDX 23 1 22 2 21 3 19 4 20 5 18 7 12 8 13 9 14 10 16 11 15 12
REMARK SMILES IDX 17 13 11 14 9 15 10 16 4 18 2 19 1 20 3 21 5 22 6 23 7 25
REMARK SMILES IDX 8 26 24 29 25 30 26 31 27 32 28 34 29 35 30 36 88 37 31 38
REMARK SMILES IDX 87 39 32 40 33 41 34 42 81 43 35 44 86 45 80 46 82 47 36 48
REMARK SMILES IDX 85 49 79 50 78 51 37 53 67 54 48 55 66 56 49 57 52 58 65 59
REMARK SMILES IDX 83 60 50 61 51 62 64 64 84 65 53 66 38 67 39 68 47 69 40 70
REMARK SMILES IDX 46 71 41 72 42 73 43 74 44 75 45 76 68 77 69 78 77 79 70 80
REMARK SMILES IDX 76 81 71 82 72 83 73 84 74 85 75 86 54 87 55 88 63 89 56 90
REMARK SMILES IDX 62 91 57 92 58 93 59 94 60 95 61 96
REMARK H PARENT 21 6 11 17 5 24 7 27 7 28 26 33 82 52 52 63
REMARK Flexibility Score: inf
ROOT
ATOM      1  C   UNL     1      -0.979   2.222   8.979  1.00  0.00     0.023 C 
ENDROOT
BRANCH   1   2
ATOM      2  C   UNL     1      -1.238   1.247   7.839  1.00  0.00     0.116 C 
BRANCH   2   3
ATOM      3  N   UNL     1      -2.061   1.798   6.777  1.00  0.00    -0.352 N 
ATOM      4  C   UNL     1      -1.845   1.901   5.423  1.00  0.00     0.256 C 
ATOM      5  O   UNL     1      -2.657   2.559   4.773  1.00  0.00    -0.269 OA
ATOM      6  H   UNL     1      -2.924   2.161   7.080  1.00  0.00     0.163 HD
BRANCH   4   7
ATOM      7  C   UNL     1      -0.619   1.377   4.767  1.00  0.00     0.099 A 
ATOM      8  C   UNL     1      -0.098   2.011   3.631  1.00  0.00     0.057 A 
ATOM      9  C   UNL     1       1.230   1.778   3.256  1.00  0.00     0.027 A 
ATOM     10  C   UNL     1       1.965   0.753   3.843  1.00  0.00     0.005 A 
ATOM     11  C   UNL     1       0.053   0.237   5.208  1.00  0.00     0.138 A 
ATOM     12  C   UNL     1       1.342  -0.069   4.770  1.00  0.00     0.040 A 
ATOM     13  F   UNL     1      -0.532  -0.634   6.044  1.00  0.00    -0.206 F 
BRANCH   8  14
ATOM     14  N   UNL     1      -0.887   2.842   2.818  1.00  0.00    -0.323 N 
ATOM     15  C   UNL     1      -1.220   2.618   1.496  1.00  0.00     0.247 C 
ATOM     16  O   UNL     1      -1.640   3.569   0.826  1.00  0.00    -0.272 OA
ATOM     17  H   UNL     1      -1.236   3.665   3.230  1.00  0.00     0.170 HD
BRANCH  15  18
ATOM     18  C   UNL     1      -1.000   1.219   0.806  1.00  0.00     0.176 C 
BRANCH  18  19
ATOM     19  C   UNL     1       0.429   1.016   0.236  1.00  0.00     0.015 C 
ATOM     20  C   UNL     1       0.539  -0.210  -0.679  1.00  0.00     0.010 C 
ATOM     21  C   UNL     1       0.958   2.245  -0.506  1.00  0.00     0.010 C 
ENDBRANCH  18  19
BRANCH  18  22
ATOM     22  N   UNL     1      -1.373   0.102   1.688  1.00  0.00    -0.326 N 
ATOM     23  C   UNL     1      -2.637  -0.010   2.188  1.00  0.00     0.312 C 
ATOM     24  H   UNL     1      -0.699  -0.577   1.921  1.00  0.00     0.166 HD
ATOM     25  N   UNL     1      -2.806  -1.111   2.957  1.00  0.00    -0.352 N 
ATOM     26  O   UNL     1      -3.533   0.795   2.017  1.00  0.00    -0.249 OA
ATOM     27  H   UNL     1      -2.064  -1.746   3.078  1.00  0.00     0.161 HD
ATOM     28  H   UNL     1      -3.672  -1.277   3.397  1.00  0.00     0.161 HD
ENDBRANCH  18  22
ENDBRANCH  15  18
ENDBRANCH   8  14
ENDBRANCH   4   7
ENDBRANCH   2   3
ENDBRANCH   1   2
BRANCH   1  29
ATOM     29  C   UNL     1      -2.200   2.633   9.789  1.00  0.00     0.023 C 
BRANCH  29  30
ATOM     30  C   UNL     1      -3.073   1.489  10.289  1.00  0.00     0.116 C 
BRANCH  30  31
ATOM     31  N   UNL     1      -2.342   0.494  11.063  1.00  0.00    -0.352 N 
ATOM     32  C   UNL     1      -2.615  -0.012  12.312  1.00  0.00     0.251 C 
ATOM     33  H   UNL     1      -1.536   0.131  10.628  1.00  0.00     0.163 HD
ATOM     34  O   UNL     1      -1.819  -0.772  12.855  1.00  0.00    -0.269 OA
BRANCH  32  35
ATOM     35  C   UNL     1      -3.851   0.399  13.009  1.00  0.00     0.039 A 
ATOM     36  C   UNL     1      -3.770   0.828  14.335  1.00  0.00     0.014 A 
ATOM     37  C   UNL     1      -5.076   0.412  12.337  1.00  0.00     0.014 A 
ATOM     38  C   UNL     1      -4.903   1.353  14.958  1.00  0.00     0.010 A 
ATOM     39  C   UNL     1      -6.178   1.022  12.927  1.00  0.00     0.010 A 
ATOM     40  C   UNL     1      -6.104   1.501  14.243  1.00  0.00    -0.014 A 
BRANCH  40  41
ATOM     41  C   UNL     1      -7.285   2.167  14.852  1.00  0.00     0.031 A 
ATOM     42  C   UNL     1      -8.574   1.411  15.032  1.00  0.00     0.074 A 
ATOM     43  C   UNL     1      -7.214   3.471  15.190  1.00  0.00     0.049 A 
ATOM     44  N   UNL     1      -9.714   1.830  15.518  1.00  0.00    -0.248 NA
ATOM     45  C   UNL     1      -8.594   0.008  14.585  1.00  0.00     0.031 C 
ATOM     46  C   UNL     1      -6.038   4.329  15.018  1.00  0.00     0.029 A 
ATOM     47  N   UNL     1      -8.150   4.305  15.749  1.00  0.00    -0.354 N 
ATOM     48  C   UNL     1     -10.586   0.752  15.424  1.00  0.00     0.074 A 
ATOM     49  C   UNL     1      -9.862  -0.322  14.780  1.00  0.00     0.031 C 
ATOM     50  C   UNL     1      -6.312   5.553  15.497  1.00  0.00     0.029 A 
ATOM     51  C   UNL     1      -7.692   5.584  15.968  1.00  0.00     0.049 A 
ATOM     52  H   UNL     1      -9.064   4.015  15.973  1.00  0.00     0.167 HD
ATOM     53  C   UNL     1     -11.866   0.653  15.856  1.00  0.00     0.031 A 
ATOM     54  C   UNL     1      -8.313   6.662  16.485  1.00  0.00     0.031 A 
ATOM     55  C   UNL     1     -12.581   1.723  16.500  1.00  0.00     0.049 A 
ATOM     56  C   UNL     1      -9.741   6.533  16.943  1.00  0.00     0.074 A 
ATOM     57  C   UNL     1     -13.862   1.707  17.024  1.00  0.00     0.029 A 
ATOM     58  N   UNL     1     -12.082   3.002  16.702  1.00  0.00    -0.354 N 
ATOM     59  N   UNL     1     -10.523   5.479  16.917  1.00  0.00    -0.248 NA
ATOM     60  C   UNL     1     -10.365   7.734  17.513  1.00  0.00     0.031 C 
ATOM     61  C   UNL     1     -14.160   2.993  17.486  1.00  0.00     0.029 A 
ATOM     62  C   UNL     1     -13.040   3.792  17.316  1.00  0.00     0.049 A 
ATOM     63  H   UNL     1     -11.181   3.303  16.447  1.00  0.00     0.167 HD
ATOM     64  C   UNL     1     -11.723   5.885  17.491  1.00  0.00     0.074 A 
ATOM     65  C   UNL     1     -11.554   7.272  17.874  1.00  0.00     0.031 C 
ATOM     66  C   UNL     1     -12.861   5.174  17.685  1.00  0.00     0.031 A 
BRANCH  53  67
ATOM     67  C   UNL     1     -12.575  -0.659  15.641  1.00  0.00    -0.014 A 
ATOM     68  C   UNL     1     -12.188  -1.819  16.337  1.00  0.00     0.010 A 
ATOM     69  C   UNL     1     -13.671  -0.726  14.761  1.00  0.00     0.010 A 
ATOM     70  C   UNL     1     -12.854  -3.029  16.125  1.00  0.00     0.020 A 
ATOM     71  C   UNL     1     -14.361  -1.927  14.570  1.00  0.00     0.020 A 
ATOM     72  C   UNL     1     -13.937  -3.075  15.242  1.00  0.00     0.054 A 
BRANCH  72  73
ATOM     73  S   UNL     1     -14.797  -4.655  15.009  1.00  0.00     0.124 S 
ATOM     74  O   UNL     1     -13.811  -5.427  14.258  1.00  0.00    -0.237 OA
ATOM     75  O   UNL     1     -15.029  -5.098  16.381  1.00  0.00    -0.237 OA
ATOM     76  O   UNL     1     -15.999  -4.289  14.263  1.00  0.00    -0.744 OA
ENDBRANCH  72  73
ENDBRANCH  53  67
BRANCH  54  77
ATOM     77  C   UNL     1      -7.582   7.955  16.613  1.00  0.00    -0.014 A 
ATOM     78  C   UNL     1      -7.244   8.465  17.879  1.00  0.00     0.010 A 
ATOM     79  C   UNL     1      -7.213   8.681  15.465  1.00  0.00     0.010 A 
ATOM     80  C   UNL     1      -6.570   9.684  17.996  1.00  0.00     0.020 A 
ATOM     81  C   UNL     1      -6.511   9.884  15.576  1.00  0.00     0.020 A 
ATOM     82  C   UNL     1      -6.205  10.385  16.843  1.00  0.00     0.054 A 
BRANCH  82  83
ATOM     83  S   UNL     1      -5.287  11.940  17.019  1.00  0.00     0.124 S 
ATOM     84  O   UNL     1      -6.311  12.841  17.536  1.00  0.00    -0.237 OA
ATOM     85  O   UNL     1      -4.229  11.576  17.959  1.00  0.00    -0.237 OA
ATOM     86  O   UNL     1      -4.831  12.224  15.660  1.00  0.00    -0.744 OA
ENDBRANCH  82  83
ENDBRANCH  54  77
BRANCH  66  87
ATOM     87  C   UNL     1     -14.007   5.873  18.370  1.00  0.00    -0.014 A 
ATOM     88  C   UNL     1     -14.727   6.898  17.732  1.00  0.00     0.010 A 
ATOM     89  C   UNL     1     -14.395   5.465  19.660  1.00  0.00     0.010 A 
ATOM     90  C   UNL     1     -15.787   7.530  18.387  1.00  0.00     0.020 A 
ATOM     91  C   UNL     1     -15.476   6.070  20.304  1.00  0.00     0.020 A 
ATOM     92  C   UNL     1     -16.155   7.112  19.670  1.00  0.00     0.054 A 
BRANCH  92  93
ATOM     93  S   UNL     1     -17.555   7.926  20.485  1.00  0.00     0.124 S 
ATOM     94  O   UNL     1     -16.997   9.235  20.813  1.00  0.00    -0.237 OA
ATOM     95  O   UNL     1     -18.578   7.923  19.442  1.00  0.00    -0.237 OA
ATOM     96  O   UNL     1     -17.839   7.065  21.631  1.00  0.00    -0.744 OA
ENDBRANCH  92  93
ENDBRANCH  66  87
ENDBRANCH  40  41
ENDBRANCH  32  35
ENDBRANCH  30  31
ENDBRANCH  29  30
ENDBRANCH   1  29
TORSDOF 18
