REMARK SMILES C[C@@H]1[C@@H](C(=O)NCCCCNC(=O)c2ccc(-c3c4nc(c(-c5ccc(S(=O)(=O)[O-])cc5)c5ccc([nH]5)c(-c5ccc(S(=O)(=O)[O-])cc5)c5nc(c(-c6ccc(S(=O)(=O)[O-])cc6)c6ccc3[nH]6)C=C5)C=C4)cc2)CC[N@@H+]1[C@@H]1CCOC2(CCCCC2)C1
REMARK SMILES IDX 9 1 8 2 7 3 6 4 4 5 5 6 3 8 1 9 2 10 76 11 74 12 75 13 77 15
REMARK SMILES IDX 78 16 87 17 79 18 81 19 80 20 82 21 86 22 83 23 85 24 84 25
REMARK SMILES IDX 10 26 11 27 12 28 13 30 14 31 15 32 73 33 16 34 72 35 17 36
REMARK SMILES IDX 18 37 19 38 66 39 20 40 71 41 65 42 67 43 21 44 70 45 64 46
REMARK SMILES IDX 63 47 22 49 52 50 33 51 51 52 34 53 37 54 50 55 68 56 35 57
REMARK SMILES IDX 36 58 49 60 69 61 38 62 23 63 24 64 32 65 25 66 31 67 26 68
REMARK SMILES IDX 27 69 28 70 29 71 30 72 53 73 54 74 62 75 55 76 61 77 56 78
REMARK SMILES IDX 57 79 58 80 59 81 60 82 39 83 40 84 48 85 41 86 47 87 42 88
REMARK SMILES IDX 43 89 44 90 45 91 46 92
REMARK H PARENT 6 7 76 14 11 29 67 48 37 59
REMARK Flexibility Score: inf
ROOT
ATOM      1  C   UNL     1      -3.921   4.867  -2.474  1.00  0.00     0.023 C 
ENDROOT
BRANCH   1   2
ATOM      2  C   UNL     1      -3.122   4.588  -1.207  1.00  0.00     0.023 C 
BRANCH   2   3
ATOM      3  C   UNL     1      -3.049   3.117  -0.826  1.00  0.00     0.116 C 
BRANCH   3   4
ATOM      4  N   UNL     1      -2.381   2.319  -1.835  1.00  0.00    -0.356 N 
ATOM      5  C   UNL     1      -1.414   1.370  -1.643  1.00  0.00     0.229 C 
ATOM      6  O   UNL     1      -0.997   0.741  -2.611  1.00  0.00    -0.275 OA
ATOM      7  H   UNL     1      -2.654   2.478  -2.768  1.00  0.00     0.163 HD
BRANCH   5   8
ATOM      8  C   UNL     1      -0.934   1.179  -0.217  1.00  0.00     0.142 C 
ATOM      9  C   UNL     1       1.248   1.298   0.869  1.00  0.00     0.076 C 
ATOM     10  C   UNL     1       0.404   0.443  -0.087  1.00  0.00     0.193 C 
ATOM     11  N   UNL     1       0.038  -0.946   0.239  1.00  0.00    -0.329 N 
ATOM     12  C   UNL     1      -1.905   0.361   0.608  1.00  0.00     0.081 C 
ATOM     13  C   UNL     1      -1.402  -1.056   0.458  1.00  0.00     0.263 C 
ATOM     14  H   UNL     1       0.484  -1.300  -0.608  1.00  0.00     0.348 HD
BRANCH  11  15
ATOM     15  C   UNL     1       0.839  -1.996   0.875  1.00  0.00     0.189 C 
ATOM     16  C   UNL     1       1.396  -1.601   2.240  1.00  0.00     0.093 C 
ATOM     17  C   UNL     1       1.960  -2.699   0.062  1.00  0.00     0.100 C 
ATOM     18  C   UNL     1       2.882  -1.268   2.180  1.00  0.00     0.167 C 
ATOM     19  C   UNL     1       3.183  -1.807  -0.170  1.00  0.00     0.074 C 
ATOM     20  O   UNL     1       3.292  -0.838   0.883  1.00  0.00    -0.375 OA
ATOM     21  C   UNL     1       3.036  -1.147  -1.558  1.00  0.00     0.036 C 
ATOM     22  C   UNL     1       4.548  -2.524  -0.226  1.00  0.00     0.036 C 
ATOM     23  C   UNL     1       4.032  -0.021  -1.752  1.00  0.00     0.003 C 
ATOM     24  C   UNL     1       5.687  -1.512  -0.501  1.00  0.00     0.003 C 
ATOM     25  C   UNL     1       5.443  -0.591  -1.705  1.00  0.00     0.000 C 
ENDBRANCH  11  15
ENDBRANCH   5   8
ENDBRANCH   3   4
ENDBRANCH   2   3
ENDBRANCH   1   2
BRANCH   1  26
ATOM     26  C   UNL     1      -5.226   4.093  -2.581  1.00  0.00     0.116 C 
BRANCH  26  27
ATOM     27  N   UNL     1      -6.079   4.249  -1.409  1.00  0.00    -0.352 N 
ATOM     28  C   UNL     1      -7.425   4.506  -1.365  1.00  0.00     0.251 C 
ATOM     29  H   UNL     1      -5.631   4.159  -0.537  1.00  0.00     0.163 HD
ATOM     30  O   UNL     1      -7.995   4.702  -0.297  1.00  0.00    -0.269 OA
BRANCH  28  31
ATOM     31  C   UNL     1      -8.152   4.587  -2.641  1.00  0.00     0.039 A 
ATOM     32  C   UNL     1      -8.848   5.757  -2.943  1.00  0.00     0.014 A 
ATOM     33  C   UNL     1      -8.032   3.554  -3.575  1.00  0.00     0.014 A 
ATOM     34  C   UNL     1      -9.381   5.917  -4.220  1.00  0.00     0.010 A 
ATOM     35  C   UNL     1      -8.481   3.757  -4.871  1.00  0.00     0.010 A 
ATOM     36  C   UNL     1      -9.171   4.934  -5.202  1.00  0.00    -0.014 A 
BRANCH  36  37
ATOM     37  C   UNL     1      -9.698   5.099  -6.577  1.00  0.00     0.031 A 
ATOM     38  C   UNL     1     -10.725   4.130  -7.093  1.00  0.00     0.074 A 
ATOM     39  C   UNL     1      -9.217   6.076  -7.370  1.00  0.00     0.049 A 
ATOM     40  N   UNL     1     -11.274   4.064  -8.278  1.00  0.00    -0.248 NA
ATOM     41  C   UNL     1     -11.171   3.075  -6.166  1.00  0.00     0.031 C 
ATOM     42  C   UNL     1      -8.188   7.049  -6.993  1.00  0.00     0.029 A 
ATOM     43  N   UNL     1      -9.532   6.412  -8.662  1.00  0.00    -0.354 N 
ATOM     44  C   UNL     1     -12.107   2.953  -8.244  1.00  0.00     0.074 A 
ATOM     45  C   UNL     1     -11.945   2.338  -6.946  1.00  0.00     0.031 C 
ATOM     46  C   UNL     1      -7.984   7.892  -8.019  1.00  0.00     0.029 A 
ATOM     47  C   UNL     1      -8.835   7.498  -9.136  1.00  0.00     0.049 A 
ATOM     48  H   UNL     1     -10.195   5.921  -9.199  1.00  0.00     0.167 HD
ATOM     49  C   UNL     1     -12.954   2.498  -9.197  1.00  0.00     0.031 A 
ATOM     50  C   UNL     1      -8.881   8.107 -10.337  1.00  0.00     0.031 A 
ATOM     51  C   UNL     1     -13.124   3.127 -10.478  1.00  0.00     0.049 A 
ATOM     52  C   UNL     1      -9.833   7.589 -11.380  1.00  0.00     0.074 A 
ATOM     53  C   UNL     1     -13.991   2.780 -11.498  1.00  0.00     0.029 A 
ATOM     54  N   UNL     1     -12.412   4.235 -10.914  1.00  0.00    -0.354 N 
ATOM     55  N   UNL     1     -10.659   6.571 -11.309  1.00  0.00    -0.248 NA
ATOM     56  C   UNL     1      -9.872   8.311 -12.659  1.00  0.00     0.031 C 
ATOM     57  C   UNL     1     -13.772   3.653 -12.569  1.00  0.00     0.029 A 
ATOM     58  C   UNL     1     -12.811   4.578 -12.193  1.00  0.00     0.049 A 
ATOM     59  H   UNL     1     -11.726   4.708 -10.389  1.00  0.00     0.167 HD
ATOM     60  C   UNL     1     -11.340   6.551 -12.521  1.00  0.00     0.074 A 
ATOM     61  C   UNL     1     -10.836   7.664 -13.301  1.00  0.00     0.031 C 
ATOM     62  C   UNL     1     -12.299   5.694 -12.949  1.00  0.00     0.031 A 
BRANCH  49  63
ATOM     63  C   UNL     1     -13.753   1.263  -8.879  1.00  0.00    -0.014 A 
ATOM     64  C   UNL     1     -14.766   1.283  -7.902  1.00  0.00     0.010 A 
ATOM     65  C   UNL     1     -13.496   0.066  -9.572  1.00  0.00     0.010 A 
ATOM     66  C   UNL     1     -15.471   0.119  -7.588  1.00  0.00     0.020 A 
ATOM     67  C   UNL     1     -14.222  -1.093  -9.283  1.00  0.00     0.020 A 
ATOM     68  C   UNL     1     -15.191  -1.063  -8.278  1.00  0.00     0.054 A 
BRANCH  68  69
ATOM     69  S   UNL     1     -16.130  -2.557  -7.857  1.00  0.00     0.124 S 
ATOM     70  O   UNL     1     -15.551  -2.922  -6.567  1.00  0.00    -0.237 OA
ATOM     71  O   UNL     1     -17.506  -2.068  -7.812  1.00  0.00    -0.237 OA
ATOM     72  O   UNL     1     -15.833  -3.474  -8.955  1.00  0.00    -0.744 OA
ENDBRANCH  68  69
ENDBRANCH  49  63
BRANCH  50  73
ATOM     73  C   UNL     1      -8.023   9.294 -10.602  1.00  0.00    -0.014 A 
ATOM     74  C   UNL     1      -8.593  10.576 -10.707  1.00  0.00     0.010 A 
ATOM     75  C   UNL     1      -6.629   9.154 -10.733  1.00  0.00     0.010 A 
ATOM     76  C   UNL     1      -7.788  11.692 -10.956  1.00  0.00     0.020 A 
ATOM     77  C   UNL     1      -5.818  10.272 -10.954  1.00  0.00     0.020 A 
ATOM     78  C   UNL     1      -6.405  11.533 -11.076  1.00  0.00     0.054 A 
BRANCH  78  79
ATOM     79  S   UNL     1      -5.376  13.003 -11.344  1.00  0.00     0.124 S 
ATOM     80  O   UNL     1      -5.669  13.329 -12.736  1.00  0.00    -0.237 OA
ATOM     81  O   UNL     1      -5.897  13.939 -10.351  1.00  0.00    -0.237 OA
ATOM     82  O   UNL     1      -4.020  12.523 -11.085  1.00  0.00    -0.744 OA
ENDBRANCH  78  79
ENDBRANCH  50  73
BRANCH  62  83
ATOM     83  C   UNL     1     -12.903   5.950 -14.303  1.00  0.00    -0.014 A 
ATOM     84  C   UNL     1     -12.183   5.706 -15.486  1.00  0.00     0.010 A 
ATOM     85  C   UNL     1     -14.238   6.389 -14.389  1.00  0.00     0.010 A 
ATOM     86  C   UNL     1     -12.777   5.928 -16.731  1.00  0.00     0.020 A 
ATOM     87  C   UNL     1     -14.844   6.584 -15.632  1.00  0.00     0.020 A 
ATOM     88  C   UNL     1     -14.104   6.367 -16.795  1.00  0.00     0.054 A 
BRANCH  88  89
ATOM     89  S   UNL     1     -14.867   6.607 -18.423  1.00  0.00     0.124 S 
ATOM     90  O   UNL     1     -14.233   7.843 -18.875  1.00  0.00    -0.237 OA
ATOM     91  O   UNL     1     -14.473   5.399 -19.144  1.00  0.00    -0.237 OA
ATOM     92  O   UNL     1     -16.293   6.711 -18.126  1.00  0.00    -0.744 OA
ENDBRANCH  88  89
ENDBRANCH  62  83
ENDBRANCH  36  37
ENDBRANCH  28  31
ENDBRANCH  26  27
ENDBRANCH   1  26
TORSDOF 15
