REMARK SMILES Cc1ccc(C(=O)N2CCCC[C@@H]2C(=O)NCCCCNC(=O)c2ccc(-c3c4nc(c(-c5ccc(S(=O)(=O)[O-])cc5)c5ccc([nH]5)c(-c5ccc(S(=O)(=O)[O-])cc5)c5nc(c(-c6ccc(S(=O)(=O)[O-])cc6)c6ccc3[nH]6)C=C5)C=C4)cc2)cc1S(=O)(=O)N1CCCCC1
REMARK SMILES IDX 18 1 17 2 16 3 14 4 15 5 13 7 8 8 9 9 10 10 12 11 11 12 6 13
REMARK SMILES IDX 7 14 5 15 1 16 2 17 3 18 85 19 4 20 84 21 86 22 87 23 88 24
REMARK SMILES IDX 89 25 90 26 94 27 91 28 93 29 92 30 19 31 20 32 21 33 22 34
REMARK SMILES IDX 23 36 24 37 25 38 83 39 26 40 82 41 27 42 28 43 29 44 76 45
REMARK SMILES IDX 30 46 81 47 75 48 77 49 31 50 80 51 74 52 73 53 32 55 62 56
REMARK SMILES IDX 43 57 61 58 44 59 47 60 60 61 78 62 45 63 46 64 59 66 79 67
REMARK SMILES IDX 48 68 33 69 34 70 42 71 35 72 41 73 36 74 37 75 38 76 39 77
REMARK SMILES IDX 40 78 63 79 64 80 72 81 65 82 71 83 66 84 67 85 68 86 69 87
REMARK SMILES IDX 70 88 49 89 50 90 58 91 51 92 57 93 52 94 53 95 54 96 55 97
REMARK SMILES IDX 56 98
REMARK H PARENT 16 6 21 35 77 54 47 65
REMARK Flexibility Score: inf
ROOT
ATOM      1  C   UNL     1      -5.704  -0.073  -3.689  1.00  0.00     0.023 C 
ENDROOT
BRANCH   1   2
ATOM      2  C   UNL     1      -4.819  -0.105  -2.444  1.00  0.00     0.116 C 
BRANCH   2   3
ATOM      3  N   UNL     1      -3.526   0.492  -2.725  1.00  0.00    -0.354 N 
ATOM      4  C   UNL     1      -2.984   1.643  -2.251  1.00  0.00     0.242 C 
ATOM      5  O   UNL     1      -1.999   2.097  -2.839  1.00  0.00    -0.273 OA
ATOM      6  H   UNL     1      -2.959  -0.011  -3.353  1.00  0.00     0.163 HD
BRANCH   4   7
ATOM      7  C   UNL     1      -3.655   2.414  -1.100  1.00  0.00     0.174 C 
ATOM      8  N   UNL     1      -4.055   1.565   0.055  1.00  0.00    -0.327 N 
ATOM      9  C   UNL     1      -5.004   2.148   0.993  1.00  0.00     0.120 C 
ATOM     10  C   UNL     1      -6.235   2.704   0.309  1.00  0.00     0.022 C 
ATOM     11  C   UNL     1      -4.860   3.153  -1.735  1.00  0.00     0.035 C 
ATOM     12  C   UNL     1      -5.835   3.742  -0.727  1.00  0.00     0.004 C 
BRANCH   8  13
ATOM     13  C   UNL     1      -3.384   0.432   0.536  1.00  0.00     0.254 C 
ATOM     14  O   UNL     1      -3.941  -0.384   1.273  1.00  0.00    -0.269 OA
BRANCH  13  15
ATOM     15  C   UNL     1      -1.958   0.181   0.231  1.00  0.00     0.041 A 
ATOM     16  C   UNL     1       2.211  -0.863  -0.088  1.00  0.00     0.046 C 
ATOM     17  C   UNL     1       0.813  -0.342  -0.023  1.00  0.00    -0.031 A 
ATOM     18  C   UNL     1      -0.153  -1.380  -0.036  1.00  0.00     0.005 A 
ATOM     19  C   UNL     1       0.361   0.986   0.092  1.00  0.00     0.086 A 
ATOM     20  C   UNL     1      -1.517  -1.129   0.086  1.00  0.00     0.014 A 
ATOM     21  C   UNL     1      -1.025   1.216   0.255  1.00  0.00     0.035 A 
BRANCH  19  22
ATOM     22  S   UNL     1       1.258   2.546   0.080  1.00  0.00     0.243 S 
ATOM     23  O   UNL     1       0.891   3.207  -1.149  1.00  0.00    -0.207 OA
ATOM     24  O   UNL     1       0.947   3.171   1.361  1.00  0.00    -0.207 OA
BRANCH  22  25
ATOM     25  N   UNL     1       2.936   2.335   0.049  1.00  0.00    -0.198 NA
ATOM     26  C   UNL     1       3.568   1.947   1.324  1.00  0.00     0.102 C 
ATOM     27  C   UNL     1       3.526   2.004  -1.266  1.00  0.00     0.102 C 
ATOM     28  C   UNL     1       5.069   1.734   1.236  1.00  0.00     0.017 C 
ATOM     29  C   UNL     1       5.026   1.748  -1.236  1.00  0.00     0.017 C 
ATOM     30  C   UNL     1       5.487   0.980  -0.011  1.00  0.00     0.003 C 
ENDBRANCH  22  25
ENDBRANCH  19  22
ENDBRANCH  13  15
ENDBRANCH   8  13
ENDBRANCH   4   7
ENDBRANCH   2   3
ENDBRANCH   1   2
BRANCH   1  31
ATOM     31  C   UNL     1      -5.070  -0.719  -4.922  1.00  0.00     0.023 C 
BRANCH  31  32
ATOM     32  C   UNL     1      -4.391  -2.046  -4.627  1.00  0.00     0.116 C 
BRANCH  32  33
ATOM     33  N   UNL     1      -5.312  -2.938  -3.970  1.00  0.00    -0.352 N 
ATOM     34  C   UNL     1      -6.217  -3.701  -4.679  1.00  0.00     0.251 C 
ATOM     35  H   UNL     1      -5.296  -3.004  -2.988  1.00  0.00     0.163 HD
ATOM     36  O   UNL     1      -7.395  -3.408  -4.554  1.00  0.00    -0.269 OA
BRANCH  34  37
ATOM     37  C   UNL     1      -5.680  -4.977  -5.312  1.00  0.00     0.039 A 
ATOM     38  C   UNL     1      -6.293  -6.084  -4.717  1.00  0.00     0.014 A 
ATOM     39  C   UNL     1      -4.291  -5.001  -5.417  1.00  0.00     0.014 A 
ATOM     40  C   UNL     1      -5.611  -6.749  -3.715  1.00  0.00     0.010 A 
ATOM     41  C   UNL     1      -3.617  -5.524  -4.343  1.00  0.00     0.010 A 
ATOM     42  C   UNL     1      -4.328  -6.312  -3.438  1.00  0.00    -0.014 A 
BRANCH  42  43
ATOM     43  C   UNL     1      -3.623  -6.614  -2.216  1.00  0.00     0.031 A 
ATOM     44  C   UNL     1      -2.644  -7.697  -2.307  1.00  0.00     0.074 A 
ATOM     45  C   UNL     1      -3.814  -5.763  -1.184  1.00  0.00     0.049 A 
ATOM     46  N   UNL     1      -2.080  -8.264  -1.311  1.00  0.00    -0.248 NA
ATOM     47  C   UNL     1      -2.253  -8.278  -3.596  1.00  0.00     0.031 C 
ATOM     48  C   UNL     1      -3.068  -5.590   0.059  1.00  0.00     0.029 A 
ATOM     49  N   UNL     1      -4.969  -4.996  -0.990  1.00  0.00    -0.354 N 
ATOM     50  C   UNL     1      -1.042  -9.019  -1.815  1.00  0.00     0.074 A 
ATOM     51  C   UNL     1      -1.264  -9.094  -3.233  1.00  0.00     0.031 C 
ATOM     52  C   UNL     1      -3.892  -5.040   0.977  1.00  0.00     0.029 A 
ATOM     53  C   UNL     1      -5.230  -5.020   0.388  1.00  0.00     0.049 A 
ATOM     54  H   UNL     1      -5.493  -4.532  -1.682  1.00  0.00     0.167 HD
ATOM     55  C   UNL     1      -0.021  -9.326  -0.973  1.00  0.00     0.031 A 
ATOM     56  C   UNL     1      -6.272  -5.788   0.836  1.00  0.00     0.031 A 
ATOM     57  C   UNL     1      -0.402  -8.976   0.396  1.00  0.00     0.049 A 
ATOM     58  C   UNL     1      -5.760  -6.960   1.673  1.00  0.00     0.074 A 
ATOM     59  C   UNL     1      -0.160  -7.856   1.174  1.00  0.00     0.029 A 
ATOM     60  N   UNL     1      -1.514  -9.607   0.946  1.00  0.00    -0.354 N 
ATOM     61  N   UNL     1      -4.630  -7.594   1.469  1.00  0.00    -0.248 NA
ATOM     62  C   UNL     1      -6.454  -7.429   2.869  1.00  0.00     0.031 C 
ATOM     63  C   UNL     1      -1.226  -7.750   2.114  1.00  0.00     0.029 A 
ATOM     64  C   UNL     1      -2.090  -8.818   1.926  1.00  0.00     0.049 A 
ATOM     65  H   UNL     1      -1.845 -10.494   0.675  1.00  0.00     0.167 HD
ATOM     66  C   UNL     1      -4.418  -8.493   2.489  1.00  0.00     0.074 A 
ATOM     67  C   UNL     1      -5.597  -8.355   3.330  1.00  0.00     0.031 C 
ATOM     68  C   UNL     1      -3.297  -9.271   2.609  1.00  0.00     0.031 A 
BRANCH  55  69
ATOM     69  C   UNL     1       1.385  -9.642  -1.421  1.00  0.00    -0.014 A 
ATOM     70  C   UNL     1       2.434  -9.503  -0.491  1.00  0.00     0.010 A 
ATOM     71  C   UNL     1       1.766  -9.985  -2.735  1.00  0.00     0.010 A 
ATOM     72  C   UNL     1       3.780  -9.654  -0.855  1.00  0.00     0.020 A 
ATOM     73  C   UNL     1       3.109 -10.131  -3.118  1.00  0.00     0.020 A 
ATOM     74  C   UNL     1       4.111  -9.959  -2.172  1.00  0.00     0.054 A 
BRANCH  74  75
ATOM     75  S   UNL     1       5.855 -10.136  -2.623  1.00  0.00     0.124 S 
ATOM     76  O   UNL     1       6.393  -8.813  -2.316  1.00  0.00    -0.237 OA
ATOM     77  O   UNL     1       6.296 -11.216  -1.745  1.00  0.00    -0.237 OA
ATOM     78  O   UNL     1       5.816 -10.470  -4.046  1.00  0.00    -0.744 OA
ENDBRANCH  74  75
ENDBRANCH  55  69
BRANCH  56  79
ATOM     79  C   UNL     1      -7.451  -5.837  -0.111  1.00  0.00    -0.014 A 
ATOM     80  C   UNL     1      -8.085  -4.628  -0.503  1.00  0.00     0.010 A 
ATOM     81  C   UNL     1      -7.771  -6.991  -0.841  1.00  0.00     0.010 A 
ATOM     82  C   UNL     1      -8.919  -4.556  -1.640  1.00  0.00     0.020 A 
ATOM     83  C   UNL     1      -8.621  -6.927  -1.968  1.00  0.00     0.020 A 
ATOM     84  C   UNL     1      -9.160  -5.705  -2.392  1.00  0.00     0.054 A 
BRANCH  84  85
ATOM     85  S   UNL     1     -10.279  -5.649  -3.848  1.00  0.00     0.124 S 
ATOM     86  O   UNL     1     -11.275  -4.655  -3.457  1.00  0.00    -0.237 OA
ATOM     87  O   UNL     1      -9.423  -5.271  -4.965  1.00  0.00    -0.237 OA
ATOM     88  O   UNL     1     -10.777  -7.021  -3.925  1.00  0.00    -0.744 OA
ENDBRANCH  84  85
ENDBRANCH  56  79
BRANCH  68  89
ATOM     89  C   UNL     1      -3.196 -10.535   3.445  1.00  0.00    -0.014 A 
ATOM     90  C   UNL     1      -4.299 -11.210   3.989  1.00  0.00     0.010 A 
ATOM     91  C   UNL     1      -1.939 -11.184   3.568  1.00  0.00     0.010 A 
ATOM     92  C   UNL     1      -4.150 -12.419   4.682  1.00  0.00     0.020 A 
ATOM     93  C   UNL     1      -1.789 -12.425   4.190  1.00  0.00     0.020 A 
ATOM     94  C   UNL     1      -2.895 -13.019   4.777  1.00  0.00     0.054 A 
BRANCH  94  95
ATOM     95  S   UNL     1      -2.734 -14.598   5.639  1.00  0.00     0.124 S 
ATOM     96  O   UNL     1      -2.747 -14.176   7.037  1.00  0.00    -0.237 OA
ATOM     97  O   UNL     1      -3.917 -15.331   5.194  1.00  0.00    -0.237 OA
ATOM     98  O   UNL     1      -1.462 -15.129   5.157  1.00  0.00    -0.744 OA
ENDBRANCH  94  95
ENDBRANCH  68  89
ENDBRANCH  42  43
ENDBRANCH  34  37
ENDBRANCH  32  33
ENDBRANCH  31  32
ENDBRANCH   1  31
TORSDOF 18
