REMARK SMILES O=C(NCCCCNC(=O)[C@H]1C[C@H]2CCCC[C@@H]2[N@@H+]1Cc1ccno1)c1ccc(-c2c3nc(c(-c4ccc(S(=O)(=O)[O-])cc4)c4ccc([nH]4)c(-c4ccc(S(=O)(=O)[O-])cc4)c4nc(c(-c5ccc(S(=O)(=O)[O-])cc5)c5ccc2[nH]5)C=C4)C=C3)cc1
REMARK SMILES IDX 5 1 4 2 3 3 1 4 2 5 26 7 27 8 85 9 28 10 84 11 29 12 30 13
REMARK SMILES IDX 31 14 78 15 32 16 83 17 77 18 79 19 33 20 82 21 76 22 75 23
REMARK SMILES IDX 34 25 64 26 45 27 63 28 46 29 49 30 62 31 80 32 47 33 48 34
REMARK SMILES IDX 61 36 81 37 50 38 35 39 36 40 44 41 37 42 43 43 38 44 39 45
REMARK SMILES IDX 40 46 41 47 42 48 65 49 66 50 74 51 67 52 73 53 68 54 69 55
REMARK SMILES IDX 70 56 71 57 72 58 51 59 52 60 60 61 53 62 59 63 54 64 55 65
REMARK SMILES IDX 56 66 57 67 58 68 6 69 7 70 8 71 9 72 10 74 11 75 12 76
REMARK SMILES IDX 19 77 13 78 18 79 14 81 17 82 15 83 16 84 20 85 21 86 22 87
REMARK SMILES IDX 25 88 23 89 24 90
REMARK H PARENT 3 6 79 24 49 35 8 73 19 80
REMARK Flexibility Score: inf
ROOT
ATOM      1  C   UNL     1       6.167  10.610  -4.989  1.00  0.00     0.023 C 
ENDROOT
BRANCH   1   2
ATOM      2  C   UNL     1       4.828  11.083  -5.517  1.00  0.00     0.116 C 
BRANCH   2   3
ATOM      3  N   UNL     1       4.194  12.113  -4.704  1.00  0.00    -0.352 N 
ATOM      4  O   UNL     1       3.079  14.051  -4.346  1.00  0.00    -0.269 OA
ATOM      5  C   UNL     1       3.500  13.223  -5.138  1.00  0.00     0.251 C 
ATOM      6  H   UNL     1       4.270  12.003  -3.728  1.00  0.00     0.163 HD
BRANCH   5   7
ATOM      7  C   UNL     1       3.321  13.402  -6.595  1.00  0.00     0.039 A 
ATOM      8  C   UNL     1       2.872  12.332  -7.371  1.00  0.00     0.014 A 
ATOM      9  C   UNL     1       3.708  14.604  -7.192  1.00  0.00     0.014 A 
ATOM     10  C   UNL     1       2.980  12.401  -8.750  1.00  0.00     0.010 A 
ATOM     11  C   UNL     1       3.709  14.707  -8.586  1.00  0.00     0.010 A 
ATOM     12  C   UNL     1       3.381  13.594  -9.375  1.00  0.00    -0.014 A 
BRANCH  12  13
ATOM     13  C   UNL     1       3.361  13.658 -10.856  1.00  0.00     0.031 A 
ATOM     14  C   UNL     1       4.619  13.854 -11.656  1.00  0.00     0.074 A 
ATOM     15  C   UNL     1       2.177  13.475 -11.475  1.00  0.00     0.049 A 
ATOM     16  N   UNL     1       4.761  13.893 -12.957  1.00  0.00    -0.248 NA
ATOM     17  C   UNL     1       5.875  14.035 -10.912  1.00  0.00     0.031 C 
ATOM     18  C   UNL     1       0.893  13.280 -10.791  1.00  0.00     0.029 A 
ATOM     19  N   UNL     1       1.861  13.385 -12.803  1.00  0.00    -0.354 N 
ATOM     20  C   UNL     1       6.111  14.128 -13.189  1.00  0.00     0.074 A 
ATOM     21  C   UNL     1       6.747  14.234 -11.893  1.00  0.00     0.031 C 
ATOM     22  C   UNL     1      -0.056  13.022 -11.701  1.00  0.00     0.029 A 
ATOM     23  C   UNL     1       0.533  13.112 -13.030  1.00  0.00     0.049 A 
ATOM     24  H   UNL     1       2.519  13.504 -13.525  1.00  0.00     0.167 HD
ATOM     25  C   UNL     1       6.755  14.246 -14.375  1.00  0.00     0.031 A 
ATOM     26  C   UNL     1      -0.147  12.968 -14.182  1.00  0.00     0.031 A 
ATOM     27  C   UNL     1       6.111  14.131 -15.659  1.00  0.00     0.049 A 
ATOM     28  C   UNL     1       0.592  13.111 -15.476  1.00  0.00     0.074 A 
ATOM     29  C   UNL     1       6.679  14.220 -16.919  1.00  0.00     0.029 A 
ATOM     30  N   UNL     1       4.757  13.897 -15.849  1.00  0.00    -0.354 N 
ATOM     31  N   UNL     1       1.870  13.334 -15.671  1.00  0.00    -0.248 NA
ATOM     32  C   UNL     1      -0.202  12.993 -16.705  1.00  0.00     0.031 C 
ATOM     33  C   UNL     1       5.661  14.081 -17.870  1.00  0.00     0.029 A 
ATOM     34  C   UNL     1       4.467  13.857 -17.203  1.00  0.00     0.049 A 
ATOM     35  H   UNL     1       4.098  13.776 -15.127  1.00  0.00     0.167 HD
ATOM     36  C   UNL     1       2.035  13.386 -17.048  1.00  0.00     0.074 A 
ATOM     37  C   UNL     1       0.732  13.138 -17.635  1.00  0.00     0.031 C 
ATOM     38  C   UNL     1       3.160  13.627 -17.763  1.00  0.00     0.031 A 
BRANCH  25  39
ATOM     39  C   UNL     1       8.232  14.543 -14.349  1.00  0.00    -0.014 A 
ATOM     40  C   UNL     1       9.169  13.549 -14.018  1.00  0.00     0.010 A 
ATOM     41  C   UNL     1       8.692  15.818 -14.728  1.00  0.00     0.010 A 
ATOM     42  C   UNL     1      10.539  13.832 -14.041  1.00  0.00     0.020 A 
ATOM     43  C   UNL     1      10.061  16.099 -14.772  1.00  0.00     0.020 A 
ATOM     44  C   UNL     1      10.976  15.107 -14.416  1.00  0.00     0.054 A 
BRANCH  44  45
ATOM     45  S   UNL     1      12.760  15.438 -14.472  1.00  0.00     0.124 S 
ATOM     46  O   UNL     1      13.090  15.547 -13.053  1.00  0.00    -0.237 OA
ATOM     47  O   UNL     1      13.287  14.255 -15.149  1.00  0.00    -0.237 OA
ATOM     48  O   UNL     1      12.858  16.682 -15.232  1.00  0.00    -0.744 OA
ENDBRANCH  44  45
ENDBRANCH  25  39
BRANCH  26  49
ATOM     49  C   UNL     1      -1.609  12.706 -14.143  1.00  0.00    -0.014 A 
ATOM     50  C   UNL     1      -2.123  11.452 -14.513  1.00  0.00     0.010 A 
ATOM     51  C   UNL     1      -2.491  13.706 -13.694  1.00  0.00     0.010 A 
ATOM     52  C   UNL     1      -3.497  11.206 -14.444  1.00  0.00     0.020 A 
ATOM     53  C   UNL     1      -3.860  13.454 -13.596  1.00  0.00     0.020 A 
ATOM     54  C   UNL     1      -4.357  12.209 -13.985  1.00  0.00     0.054 A 
BRANCH  54  55
ATOM     55  S   UNL     1      -6.130  11.856 -13.843  1.00  0.00     0.124 S 
ATOM     56  O   UNL     1      -6.579  12.008 -15.223  1.00  0.00    -0.237 OA
ATOM     57  O   UNL     1      -6.144  10.492 -13.318  1.00  0.00    -0.237 OA
ATOM     58  O   UNL     1      -6.605  12.877 -12.911  1.00  0.00    -0.744 OA
ENDBRANCH  54  55
ENDBRANCH  26  49
BRANCH  38  59
ATOM     59  C   UNL     1       3.020  13.627 -19.259  1.00  0.00    -0.014 A 
ATOM     60  C   UNL     1       2.403  14.702 -19.924  1.00  0.00     0.010 A 
ATOM     61  C   UNL     1       3.520  12.547 -20.006  1.00  0.00     0.010 A 
ATOM     62  C   UNL     1       2.252  14.676 -21.311  1.00  0.00     0.020 A 
ATOM     63  C   UNL     1       3.391  12.529 -21.396  1.00  0.00     0.020 A 
ATOM     64  C   UNL     1       2.741  13.586 -22.038  1.00  0.00     0.054 A 
BRANCH  64  65
ATOM     65  S   UNL     1       2.552  13.582 -23.842  1.00  0.00     0.124 S 
ATOM     66  O   UNL     1       1.150  13.205 -23.997  1.00  0.00    -0.237 OA
ATOM     67  O   UNL     1       2.877  14.959 -24.205  1.00  0.00    -0.237 OA
ATOM     68  O   UNL     1       3.520  12.582 -24.287  1.00  0.00    -0.744 OA
ENDBRANCH  64  65
ENDBRANCH  38  59
ENDBRANCH  12  13
ENDBRANCH   5   7
ENDBRANCH   2   3
ENDBRANCH   1   2
BRANCH   1  69
ATOM     69  C   UNL     1       6.158  10.114  -3.554  1.00  0.00     0.023 C 
BRANCH  69  70
ATOM     70  C   UNL     1       5.177   8.983  -3.248  1.00  0.00     0.116 C 
BRANCH  70  71
ATOM     71  N   UNL     1       5.659   7.671  -3.613  1.00  0.00    -0.351 N 
ATOM     72  C   UNL     1       6.245   6.677  -2.892  1.00  0.00     0.278 C 
ATOM     73  H   UNL     1       5.541   7.456  -4.566  1.00  0.00     0.163 HD
ATOM     74  O   UNL     1       6.355   5.591  -3.482  1.00  0.00    -0.268 OA
BRANCH  72  75
ATOM     75  C   UNL     1       6.754   6.795  -1.429  1.00  0.00     0.275 C 
ATOM     76  C   UNL     1       7.230   8.150  -0.900  1.00  0.00     0.085 C 
ATOM     77  N   UNL     1       5.722   6.309  -0.458  1.00  0.00    -0.316 N 
ATOM     78  C   UNL     1       6.316   8.478   0.271  1.00  0.00     0.054 C 
ATOM     79  C   UNL     1       5.143   7.515   0.128  1.00  0.00     0.188 C 
ATOM     80  H   UNL     1       4.970   5.781  -0.901  1.00  0.00     0.349 HD
ATOM     81  C   UNL     1       5.817   9.909   0.423  1.00  0.00     0.010 C 
ATOM     82  C   UNL     1       4.322   7.503   1.415  1.00  0.00     0.065 C 
ATOM     83  C   UNL     1       4.928   9.995   1.670  1.00  0.00     0.001 C 
ATOM     84  C   UNL     1       3.817   8.931   1.699  1.00  0.00     0.006 C 
BRANCH  77  85
ATOM     85  C   UNL     1       6.226   5.269   0.456  1.00  0.00     0.342 C 
BRANCH  85  86
ATOM     86  C   UNL     1       7.451   5.594   1.244  1.00  0.00     0.190 A 
ATOM     87  C   UNL     1       7.694   6.139   2.484  1.00  0.00     0.075 A 
ATOM     88  O   UNL     1       8.647   5.321   0.645  1.00  0.00    -0.355 OA
ATOM     89  C   UNL     1       9.094   6.256   2.541  1.00  0.00     0.158 A 
ATOM     90  N   UNL     1       9.683   5.757   1.453  1.00  0.00    -0.088 NA
ENDBRANCH  85  86
ENDBRANCH  77  85
ENDBRANCH  72  75
ENDBRANCH  70  71
ENDBRANCH  69  70
ENDBRANCH   1  69
TORSDOF 16
