REMARK SMILES O=C(CSc1ccc(Cl)cc1)Nc1ccc(C(=O)NCCCCNC(=O)c2ccc(-c3c4nc(c(-c5ccc(S(=O)(=O)[O-])cc5)c5ccc([nH]5)c(-c5ccc(S(=O)(=O)[O-])cc5)c5nc(c(-c6ccc(S(=O)(=O)[O-])cc6)c6ccc3[nH]6)C=C5)C=C4)cc2)cc1
REMARK SMILES IDX 21 1 20 2 19 3 17 4 18 5 16 7 13 8 14 9 88 10 15 11 87 12
REMARK SMILES IDX 12 13 1 14 2 15 3 17 4 18 5 19 6 20 11 21 7 22 10 23 8 24
REMARK SMILES IDX 9 25 22 26 23 27 24 28 25 29 26 31 27 32 28 33 86 34 29 35
REMARK SMILES IDX 85 36 30 37 31 38 32 39 79 40 33 41 84 42 78 43 80 44 34 45
REMARK SMILES IDX 83 46 77 47 76 48 35 50 65 51 46 52 64 53 47 54 50 55 63 56
REMARK SMILES IDX 81 57 48 58 49 59 62 61 82 62 51 63 36 64 37 65 45 66 38 67
REMARK SMILES IDX 44 68 39 69 40 70 41 71 42 72 43 73 66 74 67 75 75 76 68 77
REMARK SMILES IDX 74 78 69 79 70 80 71 81 72 82 73 83 52 84 53 85 61 86 54 87
REMARK SMILES IDX 60 88 55 89 56 90 57 91 58 92 59 93
REMARK H PARENT 19 6 12 16 24 30 80 49 50 60
REMARK Flexibility Score: inf
ROOT
ATOM      1  C   UNL     1      -1.403  -2.848   5.615  1.00  0.00     0.023 C 
ENDROOT
BRANCH   1   2
ATOM      2  C   UNL     1      -1.525  -1.326   5.495  1.00  0.00     0.116 C 
BRANCH   2   3
ATOM      3  N   UNL     1      -0.579  -0.664   6.375  1.00  0.00    -0.352 N 
ATOM      4  C   UNL     1       0.662  -0.123   6.146  1.00  0.00     0.251 C 
ATOM      5  O   UNL     1       1.236   0.429   7.085  1.00  0.00    -0.269 OA
ATOM      6  H   UNL     1      -0.884  -0.588   7.309  1.00  0.00     0.163 HD
BRANCH   4   7
ATOM      7  C   UNL     1       1.313  -0.119   4.806  1.00  0.00     0.039 A 
ATOM      8  C   UNL     1       2.480   0.130   2.249  1.00  0.00     0.041 A 
ATOM      9  C   UNL     1       2.787   1.049   3.254  1.00  0.00     0.027 A 
ATOM     10  C   UNL     1       1.675  -0.964   2.559  1.00  0.00     0.027 A 
ATOM     11  C   UNL     1       2.192   0.935   4.517  1.00  0.00     0.016 A 
ATOM     12  C   UNL     1       1.124  -1.103   3.836  1.00  0.00     0.016 A 
BRANCH   8  13
ATOM     13  N   UNL     1       3.002   0.351   0.962  1.00  0.00    -0.325 N 
ATOM     14  O   UNL     1       1.505  -0.880  -0.318  1.00  0.00    -0.274 OA
ATOM     15  C   UNL     1       2.509  -0.175  -0.218  1.00  0.00     0.234 C 
ATOM     16  H   UNL     1       3.791   0.936   0.894  1.00  0.00     0.169 HD
BRANCH  15  17
ATOM     17  C   UNL     1       3.313   0.147  -1.467  1.00  0.00     0.175 C 
BRANCH  17  18
ATOM     18  S   UNL     1       4.319   1.661  -1.362  1.00  0.00    -0.116 SA
BRANCH  18  19
ATOM     19  C   UNL     1       3.135   3.001  -1.415  1.00  0.00     0.008 A 
ATOM     20  C   UNL     1       3.681   4.295  -1.436  1.00  0.00     0.016 A 
ATOM     21  C   UNL     1       1.742   2.867  -1.413  1.00  0.00     0.016 A 
ATOM     22  C   UNL     1       2.861   5.426  -1.442  1.00  0.00     0.021 A 
ATOM     23  C   UNL     1       0.917   4.000  -1.413  1.00  0.00     0.021 A 
ATOM     24  C   UNL     1       1.479   5.274  -1.425  1.00  0.00     0.041 A 
ATOM     25  Cl  UNL     1       0.466   6.662  -1.418  1.00  0.00    -0.084 Cl
ENDBRANCH  18  19
ENDBRANCH  17  18
ENDBRANCH  15  17
ENDBRANCH   8  13
ENDBRANCH   4   7
ENDBRANCH   2   3
ENDBRANCH   1   2
BRANCH   1  26
ATOM     26  C   UNL     1      -2.098  -3.439   6.843  1.00  0.00     0.023 C 
BRANCH  26  27
ATOM     27  C   UNL     1      -3.617  -3.306   6.846  1.00  0.00     0.116 C 
BRANCH  27  28
ATOM     28  N   UNL     1      -4.252  -3.949   5.706  1.00  0.00    -0.352 N 
ATOM     29  C   UNL     1      -5.486  -4.554   5.644  1.00  0.00     0.251 C 
ATOM     30  H   UNL     1      -3.731  -3.952   4.871  1.00  0.00     0.163 HD
ATOM     31  O   UNL     1      -5.833  -5.145   4.631  1.00  0.00    -0.269 OA
BRANCH  29  32
ATOM     32  C   UNL     1      -6.366  -4.517   6.831  1.00  0.00     0.039 A 
ATOM     33  C   UNL     1      -6.926  -5.712   7.289  1.00  0.00     0.014 A 
ATOM     34  C   UNL     1      -6.606  -3.318   7.509  1.00  0.00     0.014 A 
ATOM     35  C   UNL     1      -7.672  -5.716   8.469  1.00  0.00     0.010 A 
ATOM     36  C   UNL     1      -7.295  -3.335   8.718  1.00  0.00     0.010 A 
ATOM     37  C   UNL     1      -7.831  -4.534   9.211  1.00  0.00    -0.014 A 
BRANCH  37  38
ATOM     38  C   UNL     1      -8.548  -4.533  10.511  1.00  0.00     0.031 A 
ATOM     39  C   UNL     1      -9.835  -3.769  10.661  1.00  0.00     0.074 A 
ATOM     40  C   UNL     1      -8.008  -5.167  11.570  1.00  0.00     0.049 A 
ATOM     41  N   UNL     1     -10.570  -3.597  11.728  1.00  0.00    -0.248 NA
ATOM     42  C   UNL     1     -10.351  -3.093   9.459  1.00  0.00     0.031 C 
ATOM     43  C   UNL     1      -6.746  -5.913  11.561  1.00  0.00     0.029 A 
ATOM     44  N   UNL     1      -8.451  -5.283  12.864  1.00  0.00    -0.354 N 
ATOM     45  C   UNL     1     -11.627  -2.785  11.332  1.00  0.00     0.074 A 
ATOM     46  C   UNL     1     -11.410  -2.458   9.940  1.00  0.00     0.031 C 
ATOM     47  C   UNL     1      -6.532  -6.430  12.782  1.00  0.00     0.029 A 
ATOM     48  C   UNL     1      -7.617  -6.023  13.669  1.00  0.00     0.049 A 
ATOM     49  H   UNL     1      -9.287  -4.874  13.185  1.00  0.00     0.167 HD
ATOM     50  C   UNL     1     -12.693  -2.366  12.056  1.00  0.00     0.031 A 
ATOM     51  C   UNL     1      -7.714  -6.336  14.976  1.00  0.00     0.031 A 
ATOM     52  C   UNL     1     -12.912  -2.701  13.438  1.00  0.00     0.049 A 
ATOM     53  C   UNL     1      -8.901  -5.848  15.761  1.00  0.00     0.074 A 
ATOM     54  C   UNL     1     -13.980  -2.357  14.248  1.00  0.00     0.029 A 
ATOM     55  N   UNL     1     -12.049  -3.459  14.214  1.00  0.00    -0.354 N 
ATOM     56  N   UNL     1      -9.915  -5.121  15.355  1.00  0.00    -0.248 NA
ATOM     57  C   UNL     1      -8.961  -6.231  17.178  1.00  0.00     0.031 C 
ATOM     58  C   UNL     1     -13.744  -2.876  15.525  1.00  0.00     0.029 A 
ATOM     59  C   UNL     1     -12.553  -3.584  15.497  1.00  0.00     0.049 A 
ATOM     60  H   UNL     1     -11.202  -3.851  13.899  1.00  0.00     0.167 HD
ATOM     61  C   UNL     1     -10.748  -4.985  16.459  1.00  0.00     0.074 A 
ATOM     62  C   UNL     1     -10.125  -5.713  17.546  1.00  0.00     0.031 C 
ATOM     63  C   UNL     1     -11.923  -4.318  16.564  1.00  0.00     0.031 A 
BRANCH  50  64
ATOM     64  C   UNL     1     -13.707  -1.501  11.357  1.00  0.00    -0.014 A 
ATOM     65  C   UNL     1     -14.560  -2.039  10.377  1.00  0.00     0.010 A 
ATOM     66  C   UNL     1     -13.834  -0.145  11.706  1.00  0.00     0.010 A 
ATOM     67  C   UNL     1     -15.494  -1.227   9.728  1.00  0.00     0.020 A 
ATOM     68  C   UNL     1     -14.786   0.665  11.079  1.00  0.00     0.020 A 
ATOM     69  C   UNL     1     -15.598   0.121  10.081  1.00  0.00     0.054 A 
BRANCH  69  70
ATOM     70  S   UNL     1     -16.833   1.148   9.237  1.00  0.00     0.124 S 
ATOM     71  O   UNL     1     -16.218   1.339   7.926  1.00  0.00    -0.237 OA
ATOM     72  O   UNL     1     -18.022   0.299   9.254  1.00  0.00    -0.237 OA
ATOM     73  O   UNL     1     -16.914   2.346  10.068  1.00  0.00    -0.744 OA
ENDBRANCH  69  70
ENDBRANCH  50  64
BRANCH  51  74
ATOM     74  C   UNL     1      -6.668  -7.173  15.623  1.00  0.00    -0.014 A 
ATOM     75  C   UNL     1      -6.951  -8.498  16.001  1.00  0.00     0.010 A 
ATOM     76  C   UNL     1      -5.385  -6.651  15.868  1.00  0.00     0.010 A 
ATOM     77  C   UNL     1      -5.980  -9.277  16.636  1.00  0.00     0.020 A 
ATOM     78  C   UNL     1      -4.402  -7.436  16.479  1.00  0.00     0.020 A 
ATOM     79  C   UNL     1      -4.711  -8.740  16.872  1.00  0.00     0.054 A 
BRANCH  79  80
ATOM     80  S   UNL     1      -3.453  -9.781  17.664  1.00  0.00     0.124 S 
ATOM     81  O   UNL     1      -3.887  -9.773  19.057  1.00  0.00    -0.237 OA
ATOM     82  O   UNL     1      -3.604 -11.052  16.960  1.00  0.00    -0.237 OA
ATOM     83  O   UNL     1      -2.205  -9.072  17.391  1.00  0.00    -0.744 OA
ENDBRANCH  79  80
ENDBRANCH  51  74
BRANCH  63  84
ATOM     84  C   UNL     1     -12.635  -4.377  17.889  1.00  0.00    -0.014 A 
ATOM     85  C   UNL     1     -12.169  -3.651  18.999  1.00  0.00     0.010 A 
ATOM     86  C   UNL     1     -13.818  -5.129  18.006  1.00  0.00     0.010 A 
ATOM     87  C   UNL     1     -12.860  -3.700  20.213  1.00  0.00     0.020 A 
ATOM     88  C   UNL     1     -14.525  -5.160  19.210  1.00  0.00     0.020 A 
ATOM     89  C   UNL     1     -14.033  -4.456  20.311  1.00  0.00     0.054 A 
BRANCH  89  90
ATOM     90  S   UNL     1     -14.937  -4.467  21.883  1.00  0.00     0.124 S 
ATOM     91  O   UNL     1     -14.111  -5.350  22.702  1.00  0.00    -0.237 OA
ATOM     92  O   UNL     1     -14.927  -3.058  22.271  1.00  0.00    -0.237 OA
ATOM     93  O   UNL     1     -16.250  -4.997  21.523  1.00  0.00    -0.744 OA
ENDBRANCH  89  90
ENDBRANCH  63  84
ENDBRANCH  37  38
ENDBRANCH  29  32
ENDBRANCH  27  28
ENDBRANCH  26  27
ENDBRANCH   1  26
TORSDOF 18
