REMARK SMILES C[C@@H](C(=O)NCCCCNC(=O)c1ccc(-c2c3nc(c(-c4ccc(S(=O)(=O)[O-])cc4)c4ccc([nH]4)c(-c4ccc(S(=O)(=O)[O-])cc4)c4nc(c(-c5ccc(S(=O)(=O)[O-])cc5)c5ccc2[nH]5)C=C4)C=C3)cc1)c1ccc(C[C@H]2CCC[C@@H]2O)cc1
REMARK SMILES IDX 7 1 6 2 5 3 3 4 4 5 2 7 1 8 73 9 74 10 85 11 75 12 84 13
REMARK SMILES IDX 76 14 77 15 78 16 79 17 82 18 80 19 81 20 83 21 8 23 9 24
REMARK SMILES IDX 10 25 11 26 12 28 13 29 14 30 72 31 15 32 71 33 16 34 17 35
REMARK SMILES IDX 18 36 65 37 19 38 70 39 64 40 66 41 20 42 69 43 63 44 62 45
REMARK SMILES IDX 21 47 51 48 32 49 50 50 33 51 36 52 49 53 67 54 34 55 35 56
REMARK SMILES IDX 48 58 68 59 37 60 22 61 23 62 31 63 24 64 30 65 25 66 26 67
REMARK SMILES IDX 27 68 28 69 29 70 52 71 53 72 61 73 54 74 60 75 55 76 56 77
REMARK SMILES IDX 57 78 58 79 59 80 38 81 39 82 47 83 40 84 46 85 41 86 42 87
REMARK SMILES IDX 43 88 44 89 45 90
REMARK H PARENT 5 6 83 22 10 27 66 46 36 57
REMARK Flexibility Score: inf
ROOT
ATOM      1  C   UNL     1       4.396   1.016  -0.554  1.00  0.00     0.023 C 
ENDROOT
BRANCH   1   2
ATOM      2  C   UNL     1       3.508   1.743   0.462  1.00  0.00     0.116 C 
BRANCH   2   3
ATOM      3  N   UNL     1       2.484   2.518  -0.210  1.00  0.00    -0.356 N 
ATOM      4  C   UNL     1       1.189   2.189  -0.496  1.00  0.00     0.227 C 
ATOM      5  O   UNL     1       0.635   2.851  -1.375  1.00  0.00    -0.274 OA
ATOM      6  H   UNL     1       2.764   3.416  -0.504  1.00  0.00     0.163 HD
BRANCH   4   7
ATOM      7  C   UNL     1       0.503   1.044   0.275  1.00  0.00     0.105 C 
ATOM      8  C   UNL     1       0.904  -0.283  -0.383  1.00  0.00     0.023 C 
BRANCH   7   9
ATOM      9  C   UNL     1      -1.020   1.174   0.421  1.00  0.00    -0.036 A 
ATOM     10  C   UNL     1      -1.675   2.411   0.333  1.00  0.00     0.005 A 
ATOM     11  C   UNL     1      -1.814   0.051   0.710  1.00  0.00     0.005 A 
ATOM     12  C   UNL     1      -3.065   2.512   0.445  1.00  0.00     0.004 A 
ATOM     13  C   UNL     1      -3.201   0.152   0.848  1.00  0.00     0.004 A 
ATOM     14  C   UNL     1      -3.842   1.387   0.722  1.00  0.00    -0.048 A 
BRANCH  14  15
ATOM     15  C   UNL     1      -5.336   1.488   0.902  1.00  0.00     0.041 C 
BRANCH  15  16
ATOM     16  C   UNL     1      -5.819   2.009   2.266  1.00  0.00     0.022 C 
ATOM     17  C   UNL     1      -5.252   1.291   3.503  1.00  0.00     0.007 C 
ATOM     18  C   UNL     1      -5.572   3.498   2.526  1.00  0.00     0.117 C 
ATOM     19  C   UNL     1      -4.962   2.386   4.532  1.00  0.00     0.003 C 
ATOM     20  C   UNL     1      -5.715   3.608   4.036  1.00  0.00     0.032 C 
BRANCH  18  21
ATOM     21  O   UNL     1      -6.532   4.310   1.874  1.00  0.00    -0.393 OA
ATOM     22  H   UNL     1      -7.422   4.058   2.167  1.00  0.00     0.210 HD
ENDBRANCH  18  21
ENDBRANCH  15  16
ENDBRANCH  14  15
ENDBRANCH   7   9
ENDBRANCH   4   7
ENDBRANCH   2   3
ENDBRANCH   1   2
BRANCH   1  23
ATOM     23  C   UNL     1       5.176   1.934  -1.498  1.00  0.00     0.023 C 
BRANCH  23  24
ATOM     24  C   UNL     1       6.150   2.876  -0.808  1.00  0.00     0.116 C 
BRANCH  24  25
ATOM     25  N   UNL     1       7.183   2.168  -0.066  1.00  0.00    -0.352 N 
ATOM     26  C   UNL     1       8.525   2.455   0.002  1.00  0.00     0.251 C 
ATOM     27  H   UNL     1       6.882   1.387   0.452  1.00  0.00     0.163 HD
ATOM     28  O   UNL     1       9.300   1.687   0.560  1.00  0.00    -0.269 OA
BRANCH  26  29
ATOM     29  C   UNL     1       9.018   3.689  -0.640  1.00  0.00     0.039 A 
ATOM     30  C   UNL     1      10.071   3.609  -1.554  1.00  0.00     0.014 A 
ATOM     31  C   UNL     1       8.389   4.910  -0.382  1.00  0.00     0.014 A 
ATOM     32  C   UNL     1      10.449   4.748  -2.268  1.00  0.00     0.010 A 
ATOM     33  C   UNL     1       8.722   6.024  -1.141  1.00  0.00     0.010 A 
ATOM     34  C   UNL     1       9.753   5.954  -2.092  1.00  0.00    -0.014 A 
BRANCH  34  35
ATOM     35  C   UNL     1      10.072   7.170  -2.877  1.00  0.00     0.031 A 
ATOM     36  C   UNL     1      10.566   8.399  -2.167  1.00  0.00     0.074 A 
ATOM     37  C   UNL     1       9.802   7.211  -4.196  1.00  0.00     0.049 A 
ATOM     38  N   UNL     1      10.728   9.611  -2.628  1.00  0.00    -0.248 NA
ATOM     39  C   UNL     1      10.883   8.247  -0.738  1.00  0.00     0.031 C 
ATOM     40  C   UNL     1       9.284   6.097  -4.992  1.00  0.00     0.029 A 
ATOM     41  N   UNL     1       9.898   8.245  -5.093  1.00  0.00    -0.354 N 
ATOM     42  C   UNL     1      11.122  10.377  -1.537  1.00  0.00     0.074 A 
ATOM     43  C   UNL     1      11.144   9.497  -0.388  1.00  0.00     0.031 C 
ATOM     44  C   UNL     1       9.111   6.506  -6.259  1.00  0.00     0.029 A 
ATOM     45  C   UNL     1       9.462   7.920  -6.356  1.00  0.00     0.049 A 
ATOM     46  H   UNL     1      10.245   9.135  -4.855  1.00  0.00     0.167 HD
ATOM     47  C   UNL     1      11.442  11.692  -1.497  1.00  0.00     0.031 A 
ATOM     48  C   UNL     1       9.338   8.679  -7.462  1.00  0.00     0.031 A 
ATOM     49  C   UNL     1      11.438  12.555  -2.647  1.00  0.00     0.049 A 
ATOM     50  C   UNL     1       9.726  10.129  -7.407  1.00  0.00     0.074 A 
ATOM     51  C   UNL     1      11.806  13.886  -2.726  1.00  0.00     0.029 A 
ATOM     52  N   UNL     1      11.048  12.170  -3.921  1.00  0.00    -0.354 N 
ATOM     53  N   UNL     1      10.146  10.828  -6.379  1.00  0.00    -0.248 NA
ATOM     54  C   UNL     1       9.636  10.892  -8.659  1.00  0.00     0.031 C 
ATOM     55  C   UNL     1      11.605  14.316  -4.042  1.00  0.00     0.029 A 
ATOM     56  C   UNL     1      11.155  13.240  -4.792  1.00  0.00     0.049 A 
ATOM     57  H   UNL     1      10.740  11.268  -4.169  1.00  0.00     0.167 HD
ATOM     58  C   UNL     1      10.395  12.106  -6.865  1.00  0.00     0.074 A 
ATOM     59  C   UNL     1      10.081  12.083  -8.280  1.00  0.00     0.031 C 
ATOM     60  C   UNL     1      10.847  13.197  -6.200  1.00  0.00     0.031 A 
BRANCH  47  61
ATOM     61  C   UNL     1      11.798  12.268  -0.153  1.00  0.00    -0.014 A 
ATOM     62  C   UNL     1      12.995  11.918   0.497  1.00  0.00     0.010 A 
ATOM     63  C   UNL     1      10.911  13.160   0.477  1.00  0.00     0.010 A 
ATOM     64  C   UNL     1      13.265  12.392   1.783  1.00  0.00     0.020 A 
ATOM     65  C   UNL     1      11.192  13.660   1.752  1.00  0.00     0.020 A 
ATOM     66  C   UNL     1      12.354  13.249   2.408  1.00  0.00     0.054 A 
BRANCH  66  67
ATOM     67  S   UNL     1      12.711  13.829   4.089  1.00  0.00     0.124 S 
ATOM     68  O   UNL     1      12.349  12.662   4.890  1.00  0.00    -0.237 OA
ATOM     69  O   UNL     1      14.139  14.131   4.032  1.00  0.00    -0.237 OA
ATOM     70  O   UNL     1      11.838  14.989   4.246  1.00  0.00    -0.744 OA
ENDBRANCH  66  67
ENDBRANCH  47  61
BRANCH  48  71
ATOM     71  C   UNL     1       8.838   8.059  -8.718  1.00  0.00    -0.014 A 
ATOM     72  C   UNL     1       9.731   7.743  -9.756  1.00  0.00     0.010 A 
ATOM     73  C   UNL     1       7.480   7.717  -8.853  1.00  0.00     0.010 A 
ATOM     74  C   UNL     1       9.277   7.091 -10.905  1.00  0.00     0.020 A 
ATOM     75  C   UNL     1       7.026   7.046  -9.993  1.00  0.00     0.020 A 
ATOM     76  C   UNL     1       7.928   6.739 -11.013  1.00  0.00     0.054 A 
BRANCH  76  77
ATOM     77  S   UNL     1       7.382   5.804 -12.470  1.00  0.00     0.124 S 
ATOM     78  O   UNL     1       7.352   6.837 -13.500  1.00  0.00    -0.237 OA
ATOM     79  O   UNL     1       8.432   4.798 -12.613  1.00  0.00    -0.237 OA
ATOM     80  O   UNL     1       6.079   5.279 -12.069  1.00  0.00    -0.744 OA
ENDBRANCH  76  77
ENDBRANCH  48  71
BRANCH  60  81
ATOM     81  C   UNL     1      11.077  14.453  -6.994  1.00  0.00    -0.014 A 
ATOM     82  C   UNL     1      10.004  15.265  -7.398  1.00  0.00     0.010 A 
ATOM     83  C   UNL     1      12.395  14.870  -7.257  1.00  0.00     0.010 A 
ATOM     84  C   UNL     1      10.246  16.471  -8.062  1.00  0.00     0.020 A 
ATOM     85  C   UNL     1      12.640  16.084  -7.902  1.00  0.00     0.020 A 
ATOM     86  C   UNL     1      11.563  16.874  -8.307  1.00  0.00     0.054 A 
BRANCH  86  87
ATOM     87  S   UNL     1      11.855  18.479  -9.102  1.00  0.00     0.124 S 
ATOM     88  O   UNL     1      11.531  18.191 -10.496  1.00  0.00    -0.237 OA
ATOM     89  O   UNL     1      10.917  19.358  -8.407  1.00  0.00    -0.237 OA
ATOM     90  O   UNL     1      13.266  18.747  -8.831  1.00  0.00    -0.744 OA
ENDBRANCH  86  87
ENDBRANCH  60  81
ENDBRANCH  34  35
ENDBRANCH  26  29
ENDBRANCH  24  25
ENDBRANCH  23  24
ENDBRANCH   1  23
TORSDOF 18
