REMARK SMILES COc1ccc(C(=O)N(C)CCC(=O)NCCCCNC(=O)c2ccc(-c3c4nc(c(-c5ccc(S(=O)(=O)[O-])cc5)c5ccc([nH]5)c(-c5ccc(S(=O)(=O)[O-])cc5)c5nc(c(-c6ccc(S(=O)(=O)[O-])cc6)c6ccc3[nH]6)C=C5)C=C4)cc2)cc1O
REMARK SMILES IDX 16 1 15 2 13 3 14 4 12 6 11 7 9 8 10 9 7 10 8 11 6 12 3 13
REMARK SMILES IDX 4 14 84 15 5 16 83 17 2 18 1 19 85 20 17 22 18 23 19 24
REMARK SMILES IDX 20 25 21 26 22 28 23 29 24 30 82 31 25 32 81 33 26 34 27 35
REMARK SMILES IDX 28 36 75 37 29 38 80 39 74 40 76 41 30 42 79 43 73 44 72 45
REMARK SMILES IDX 31 47 61 48 42 49 60 50 43 51 46 52 59 53 77 54 44 55 45 56
REMARK SMILES IDX 58 58 78 59 47 60 32 61 33 62 41 63 34 64 40 65 35 66 36 67
REMARK SMILES IDX 37 68 38 69 39 70 62 71 63 72 71 73 64 74 70 75 65 76 66 77
REMARK SMILES IDX 67 78 68 79 69 80 48 81 49 82 57 83 50 84 56 85 51 86 52 87
REMARK SMILES IDX 53 88 54 89 55 90
REMARK H PARENT 15 5 85 21 20 27 76 46 46 57
REMARK Flexibility Score: inf
ROOT
ATOM      1  C   UNL     1       4.439  -6.492   0.728  1.00  0.00     0.116 C 
ENDROOT
BRANCH   1   2
ATOM      2  N   UNL     1       4.531  -7.880   0.324  1.00  0.00    -0.356 N 
ATOM      3  C   UNL     1       4.983  -8.381  -0.864  1.00  0.00     0.221 C 
ATOM      4  O   UNL     1       4.821  -9.578  -1.102  1.00  0.00    -0.275 OA
ATOM      5  H   UNL     1       4.232  -8.544   0.987  1.00  0.00     0.163 HD
BRANCH   3   6
ATOM      6  C   UNL     1       5.720  -7.481  -1.839  1.00  0.00     0.121 C 
BRANCH   6   7
ATOM      7  C   UNL     1       4.845  -6.945  -2.982  1.00  0.00     0.129 C 
BRANCH   7   8
ATOM      8  N   UNL     1       4.428  -5.531  -2.854  1.00  0.00    -0.341 N 
ATOM      9  C   UNL     1       5.470  -4.539  -2.656  1.00  0.00     0.147 C 
BRANCH   8  10
ATOM     10  C   UNL     1       3.086  -5.213  -3.146  1.00  0.00     0.253 C 
ATOM     11  O   UNL     1       2.347  -6.026  -3.705  1.00  0.00    -0.269 OA
BRANCH  10  12
ATOM     12  C   UNL     1       2.433  -3.961  -2.630  1.00  0.00     0.043 A 
ATOM     13  C   UNL     1       1.035  -1.760  -1.488  1.00  0.00     0.160 A 
ATOM     14  C   UNL     1       0.441  -3.021  -1.569  1.00  0.00     0.051 A 
ATOM     15  C   UNL     1       2.315  -1.607  -2.026  1.00  0.00     0.158 A 
ATOM     16  C   UNL     1       1.124  -4.102  -2.140  1.00  0.00     0.018 A 
ATOM     17  C   UNL     1       3.009  -2.692  -2.586  1.00  0.00     0.064 A 
BRANCH  13  18
ATOM     18  O   UNL     1       0.223  -0.804  -0.949  1.00  0.00    -0.493 OA
ATOM     19  C   UNL     1       0.804   0.290  -0.253  1.00  0.00     0.278 C 
ENDBRANCH  13  18
BRANCH  15  20
ATOM     20  O   UNL     1       2.967  -0.408  -2.115  1.00  0.00    -0.504 OA
ATOM     21  H   UNL     1       2.573   0.367  -1.765  1.00  0.00     0.293 HD
ENDBRANCH  15  20
ENDBRANCH  10  12
ENDBRANCH   8  10
ENDBRANCH   7   8
ENDBRANCH   6   7
ENDBRANCH   3   6
ENDBRANCH   1   2
BRANCH   1  22
ATOM     22  C   UNL     1       3.207  -5.851   0.109  1.00  0.00     0.023 C 
BRANCH  22  23
ATOM     23  C   UNL     1       1.933  -5.970   0.926  1.00  0.00     0.023 C 
BRANCH  23  24
ATOM     24  C   UNL     1       1.907  -5.126   2.187  1.00  0.00     0.116 C 
BRANCH  24  25
ATOM     25  N   UNL     1       2.222  -3.718   1.976  1.00  0.00    -0.352 N 
ATOM     26  C   UNL     1       1.550  -2.589   2.386  1.00  0.00     0.251 C 
ATOM     27  H   UNL     1       3.044  -3.548   1.461  1.00  0.00     0.163 HD
ATOM     28  O   UNL     1       1.985  -1.478   2.115  1.00  0.00    -0.269 OA
BRANCH  26  29
ATOM     29  C   UNL     1       0.287  -2.724   3.137  1.00  0.00     0.039 A 
ATOM     30  C   UNL     1      -0.817  -1.948   2.773  1.00  0.00     0.014 A 
ATOM     31  C   UNL     1       0.191  -3.636   4.186  1.00  0.00     0.014 A 
ATOM     32  C   UNL     1      -2.038  -2.135   3.423  1.00  0.00     0.010 A 
ATOM     33  C   UNL     1      -1.048  -3.907   4.744  1.00  0.00     0.010 A 
ATOM     34  C   UNL     1      -2.170  -3.141   4.390  1.00  0.00    -0.014 A 
BRANCH  34  35
ATOM     35  C   UNL     1      -3.432  -3.388   5.127  1.00  0.00     0.031 A 
ATOM     36  C   UNL     1      -3.419  -3.270   6.628  1.00  0.00     0.074 A 
ATOM     37  C   UNL     1      -4.529  -3.830   4.483  1.00  0.00     0.049 A 
ATOM     38  N   UNL     1      -4.302  -3.677   7.500  1.00  0.00    -0.248 NA
ATOM     39  C   UNL     1      -2.215  -2.666   7.228  1.00  0.00     0.031 C 
ATOM     40  C   UNL     1      -4.657  -4.012   3.035  1.00  0.00     0.029 A 
ATOM     41  N   UNL     1      -5.744  -4.232   4.976  1.00  0.00    -0.354 N 
ATOM     42  C   UNL     1      -3.732  -3.441   8.746  1.00  0.00     0.074 A 
ATOM     43  C   UNL     1      -2.412  -2.899   8.516  1.00  0.00     0.031 C 
ATOM     44  C   UNL     1      -5.888  -4.473   2.757  1.00  0.00     0.029 A 
ATOM     45  C   UNL     1      -6.615  -4.669   4.007  1.00  0.00     0.049 A 
ATOM     46  H   UNL     1      -5.971  -4.210   5.934  1.00  0.00     0.167 HD
ATOM     47  C   UNL     1      -4.267  -3.642   9.973  1.00  0.00     0.031 A 
ATOM     48  C   UNL     1      -7.854  -5.185   4.119  1.00  0.00     0.031 A 
ATOM     49  C   UNL     1      -5.604  -4.122  10.186  1.00  0.00     0.049 A 
ATOM     50  C   UNL     1      -8.453  -5.347   5.490  1.00  0.00     0.074 A 
ATOM     51  C   UNL     1      -6.279  -4.293  11.381  1.00  0.00     0.029 A 
ATOM     52  N   UNL     1      -6.478  -4.487   9.173  1.00  0.00    -0.354 N 
ATOM     53  N   UNL     1      -7.913  -5.096   6.659  1.00  0.00    -0.248 NA
ATOM     54  C   UNL     1      -9.830  -5.853   5.556  1.00  0.00     0.031 C 
ATOM     55  C   UNL     1      -7.554  -4.789  11.090  1.00  0.00     0.029 A 
ATOM     56  C   UNL     1      -7.687  -4.884   9.713  1.00  0.00     0.049 A 
ATOM     57  H   UNL     1      -6.268  -4.467   8.211  1.00  0.00     0.167 HD
ATOM     58  C   UNL     1      -8.894  -5.388   7.600  1.00  0.00     0.074 A 
ATOM     59  C   UNL     1     -10.063  -5.823   6.861  1.00  0.00     0.031 C 
ATOM     60  C   UNL     1      -8.836  -5.303   8.952  1.00  0.00     0.031 A 
BRANCH  47  61
ATOM     61  C   UNL     1      -3.396  -3.341  11.164  1.00  0.00    -0.014 A 
ATOM     62  C   UNL     1      -3.017  -2.022  11.477  1.00  0.00     0.010 A 
ATOM     63  C   UNL     1      -2.940  -4.393  11.978  1.00  0.00     0.010 A 
ATOM     64  C   UNL     1      -2.148  -1.768  12.541  1.00  0.00     0.020 A 
ATOM     65  C   UNL     1      -2.097  -4.140  13.064  1.00  0.00     0.020 A 
ATOM     66  C   UNL     1      -1.686  -2.830  13.323  1.00  0.00     0.054 A 
BRANCH  66  67
ATOM     67  S   UNL     1      -0.556  -2.475  14.696  1.00  0.00     0.124 S 
ATOM     68  O   UNL     1       0.703  -2.239  13.994  1.00  0.00    -0.237 OA
ATOM     69  O   UNL     1      -1.160  -1.297  15.313  1.00  0.00    -0.237 OA
ATOM     70  O   UNL     1      -0.601  -3.690  15.505  1.00  0.00    -0.744 OA
ENDBRANCH  66  67
ENDBRANCH  47  61
BRANCH  48  71
ATOM     71  C   UNL     1      -8.617  -5.558   2.897  1.00  0.00    -0.014 A 
ATOM     72  C   UNL     1      -9.692  -4.761   2.466  1.00  0.00     0.010 A 
ATOM     73  C   UNL     1      -8.259  -6.689   2.141  1.00  0.00     0.010 A 
ATOM     74  C   UNL     1     -10.404  -5.094   1.310  1.00  0.00     0.020 A 
ATOM     75  C   UNL     1      -8.953  -7.012   0.971  1.00  0.00     0.020 A 
ATOM     76  C   UNL     1     -10.028  -6.216   0.567  1.00  0.00     0.054 A 
BRANCH  76  77
ATOM     77  S   UNL     1     -10.926  -6.591  -0.964  1.00  0.00     0.124 S 
ATOM     78  O   UNL     1     -12.184  -7.128  -0.455  1.00  0.00    -0.237 OA
ATOM     79  O   UNL     1     -11.012  -5.283  -1.609  1.00  0.00    -0.237 OA
ATOM     80  O   UNL     1     -10.061  -7.554  -1.641  1.00  0.00    -0.744 OA
ENDBRANCH  76  77
ENDBRANCH  48  71
BRANCH  60  81
ATOM     81  C   UNL     1     -10.084  -5.645   9.717  1.00  0.00    -0.014 A 
ATOM     82  C   UNL     1     -10.500  -6.979   9.874  1.00  0.00     0.010 A 
ATOM     83  C   UNL     1     -10.814  -4.617  10.341  1.00  0.00     0.010 A 
ATOM     84  C   UNL     1     -11.643  -7.275  10.621  1.00  0.00     0.020 A 
ATOM     85  C   UNL     1     -11.942  -4.912  11.109  1.00  0.00     0.020 A 
ATOM     86  C   UNL     1     -12.357  -6.240  11.233  1.00  0.00     0.054 A 
BRANCH  86  87
ATOM     87  S   UNL     1     -13.809  -6.653  12.237  1.00  0.00     0.124 S 
ATOM     88  O   UNL     1     -14.811  -6.944  11.216  1.00  0.00    -0.237 OA
ATOM     89  O   UNL     1     -13.348  -7.802  13.012  1.00  0.00    -0.237 OA
ATOM     90  O   UNL     1     -14.047  -5.440  13.016  1.00  0.00    -0.744 OA
ENDBRANCH  86  87
ENDBRANCH  60  81
ENDBRANCH  34  35
ENDBRANCH  26  29
ENDBRANCH  24  25
ENDBRANCH  23  24
ENDBRANCH  22  23
ENDBRANCH   1  22
TORSDOF 20
