REMARK SMILES CC(=O)N[C@@H]1[C@H](Oc2ccc(C)c(C)c2)O[C@H]2COC(C)(C)O[C@@H]2[C@H]1O[C@@H](C)C(=O)NCCCCNC(=O)c1ccc(-c2c3nc(c(-c4ccc(S(=O)(=O)[O-])cc4)c4ccc([nH]4)c(-c4ccc(S(=O)(=O)[O-])cc4)c4nc(c(-c5ccc(S(=O)(=O)[O-])cc5)c5ccc2[nH]5)C=C4)C=C3)cc1
REMARK SMILES IDX 33 1 32 2 31 3 29 4 30 5 27 7 28 8 26 9 25 10 5 11 6 12
REMARK SMILES IDX 16 13 24 14 17 15 23 16 18 17 20 18 19 19 21 20 22 21 4 22
REMARK SMILES IDX 1 23 2 24 3 25 7 27 8 28 9 29 15 30 10 31 13 32 11 33 14 34
REMARK SMILES IDX 12 35 34 36 35 37 36 38 37 39 38 41 39 42 40 43 98 44 41 45
REMARK SMILES IDX 97 46 42 47 43 48 44 49 91 50 45 51 96 52 90 53 92 54 46 55
REMARK SMILES IDX 95 56 89 57 88 58 47 60 77 61 58 62 76 63 59 64 62 65 75 66
REMARK SMILES IDX 93 67 60 68 61 69 74 71 94 72 63 73 48 74 49 75 57 76 50 77
REMARK SMILES IDX 56 78 51 79 52 80 53 81 54 82 55 83 78 84 79 85 87 86 80 87
REMARK SMILES IDX 86 88 81 89 82 90 83 91 84 92 85 93 64 94 65 95 73 96 66 97
REMARK SMILES IDX 72 98 67 99 68 100 69 101 70 102 71 103
REMARK H PARENT 31 6 4 26 36 40 92 59 62 70
REMARK Flexibility Score: inf
ROOT
ATOM      1  C   UNL     1       3.201   3.524  -1.676  1.00  0.00     0.023 C 
ENDROOT
BRANCH   1   2
ATOM      2  C   UNL     1       4.111   3.091  -0.526  1.00  0.00     0.116 C 
BRANCH   2   3
ATOM      3  N   UNL     1       3.467   2.610   0.675  1.00  0.00    -0.354 N 
ATOM      4  C   UNL     1       3.314   1.384   1.250  1.00  0.00     0.248 C 
ATOM      5  O   UNL     1       2.858   1.377   2.403  1.00  0.00    -0.272 OA
ATOM      6  H   UNL     1       3.042   3.330   1.195  1.00  0.00     0.163 HD
BRANCH   4   7
ATOM      7  C   UNL     1       3.697   0.021   0.575  1.00  0.00     0.204 C 
ATOM      8  C   UNL     1       5.171   0.021   0.174  1.00  0.00     0.049 C 
BRANCH   7   9
ATOM      9  O   UNL     1       2.909  -0.767  -0.328  1.00  0.00    -0.360 OA
BRANCH   9  10
ATOM     10  C   UNL     1       2.284  -0.105  -1.432  1.00  0.00     0.179 C 
ATOM     11  C   UNL     1       1.939  -1.083  -2.627  1.00  0.00     0.182 C 
ATOM     12  C   UNL     1       1.288  -0.230  -3.773  1.00  0.00     0.333 C 
ATOM     13  O   UNL     1       0.020   0.262  -3.278  1.00  0.00    -0.332 OA
ATOM     14  C   UNL     1       0.896   0.485  -0.985  1.00  0.00     0.184 C 
ATOM     15  C   UNL     1       0.172   1.137  -2.166  1.00  0.00     0.180 C 
ATOM     16  O   UNL     1       1.013   1.448   0.054  1.00  0.00    -0.342 OA
ATOM     17  C   UNL     1      -1.183   1.614  -1.635  1.00  0.00     0.198 C 
ATOM     18  C   UNL     1      -0.220   2.002   0.527  1.00  0.00     0.163 C 
ATOM     19  O   UNL     1      -1.010   2.519  -0.545  1.00  0.00    -0.348 OA
ATOM     20  C   UNL     1       0.136   3.200   1.425  1.00  0.00     0.075 C 
ATOM     21  C   UNL     1      -1.001   1.019   1.401  1.00  0.00     0.075 C 
BRANCH  11  22
ATOM     22  N   UNL     1       2.819  -2.100  -3.259  1.00  0.00    -0.345 N 
ATOM     23  C   UNL     1       4.520  -2.826  -1.625  1.00  0.00     0.114 C 
ATOM     24  C   UNL     1       3.755  -2.995  -2.884  1.00  0.00     0.217 C 
ATOM     25  O   UNL     1       4.020  -3.907  -3.671  1.00  0.00    -0.275 OA
ATOM     26  H   UNL     1       2.678  -2.128  -4.233  1.00  0.00     0.164 HD
ENDBRANCH  11  22
BRANCH  12  27
ATOM     27  O   UNL     1       1.997   0.795  -4.500  1.00  0.00    -0.463 OA
BRANCH  27  28
ATOM     28  C   UNL     1       3.297   1.185  -4.446  1.00  0.00     0.123 A 
ATOM     29  C   UNL     1       4.371   0.532  -3.873  1.00  0.00     0.047 A 
ATOM     30  C   UNL     1       3.557   2.448  -4.992  1.00  0.00     0.050 A 
ATOM     31  C   UNL     1       5.563   1.206  -3.583  1.00  0.00     0.007 A 
ATOM     32  C   UNL     1       4.740   3.164  -4.696  1.00  0.00    -0.045 A 
ATOM     33  C   UNL     1       5.718   2.556  -3.894  1.00  0.00    -0.048 A 
ATOM     34  C   UNL     1       4.888   4.571  -5.213  1.00  0.00     0.045 C 
ATOM     35  C   UNL     1       6.867   3.315  -3.291  1.00  0.00     0.044 C 
ENDBRANCH  27  28
ENDBRANCH  12  27
ENDBRANCH   9  10
ENDBRANCH   7   9
ENDBRANCH   4   7
ENDBRANCH   2   3
ENDBRANCH   1   2
BRANCH   1  36
ATOM     36  C   UNL     1       2.028   4.434  -1.361  1.00  0.00     0.023 C 
BRANCH  36  37
ATOM     37  C   UNL     1       1.690   5.405  -2.485  1.00  0.00     0.116 C 
BRANCH  37  38
ATOM     38  N   UNL     1       1.455   4.830  -3.800  1.00  0.00    -0.352 N 
ATOM     39  C   UNL     1       0.924   5.417  -4.938  1.00  0.00     0.251 C 
ATOM     40  H   UNL     1       1.712   3.885  -3.896  1.00  0.00     0.163 HD
ATOM     41  O   UNL     1       0.961   4.820  -6.004  1.00  0.00    -0.269 OA
BRANCH  39  42
ATOM     42  C   UNL     1       0.212   6.721  -4.842  1.00  0.00     0.039 A 
ATOM     43  C   UNL     1      -0.955   6.905  -5.592  1.00  0.00     0.014 A 
ATOM     44  C   UNL     1       0.591   7.696  -3.929  1.00  0.00     0.014 A 
ATOM     45  C   UNL     1      -1.801   7.982  -5.307  1.00  0.00     0.010 A 
ATOM     46  C   UNL     1      -0.325   8.655  -3.527  1.00  0.00     0.010 A 
ATOM     47  C   UNL     1      -1.534   8.815  -4.210  1.00  0.00    -0.014 A 
BRANCH  47  48
ATOM     48  C   UNL     1      -2.490   9.854  -3.743  1.00  0.00     0.031 A 
ATOM     49  C   UNL     1      -2.026  11.280  -3.574  1.00  0.00     0.074 A 
ATOM     50  C   UNL     1      -3.733   9.496  -3.360  1.00  0.00     0.049 A 
ATOM     51  N   UNL     1      -2.665  12.302  -3.063  1.00  0.00    -0.248 NA
ATOM     52  C   UNL     1      -0.641  11.588  -3.973  1.00  0.00     0.031 C 
ATOM     53  C   UNL     1      -4.272   8.131  -3.372  1.00  0.00     0.029 A 
ATOM     54  N   UNL     1      -4.775  10.251  -2.884  1.00  0.00    -0.354 N 
ATOM     55  C   UNL     1      -1.746  13.345  -3.034  1.00  0.00     0.074 A 
ATOM     56  C   UNL     1      -0.487  12.816  -3.505  1.00  0.00     0.031 C 
ATOM     57  C   UNL     1      -5.558   8.158  -2.986  1.00  0.00     0.029 A 
ATOM     58  C   UNL     1      -5.924   9.530  -2.656  1.00  0.00     0.049 A 
ATOM     59  H   UNL     1      -4.706  11.220  -2.719  1.00  0.00     0.167 HD
ATOM     60  C   UNL     1      -1.938  14.639  -2.688  1.00  0.00     0.031 A 
ATOM     61  C   UNL     1      -7.141   9.932  -2.241  1.00  0.00     0.031 A 
ATOM     62  C   UNL     1      -3.211  15.176  -2.295  1.00  0.00     0.049 A 
ATOM     63  C   UNL     1      -7.359  11.392  -1.958  1.00  0.00     0.074 A 
ATOM     64  C   UNL     1      -3.546  16.488  -2.018  1.00  0.00     0.029 A 
ATOM     65  N   UNL     1      -4.367  14.424  -2.149  1.00  0.00    -0.354 N 
ATOM     66  N   UNL     1      -6.494  12.378  -2.008  1.00  0.00    -0.248 NA
ATOM     67  C   UNL     1      -8.719  11.797  -1.580  1.00  0.00     0.031 C 
ATOM     68  C   UNL     1      -4.903  16.526  -1.679  1.00  0.00     0.029 A 
ATOM     69  C   UNL     1      -5.419  15.244  -1.783  1.00  0.00     0.049 A 
ATOM     70  H   UNL     1      -4.430  13.451  -2.286  1.00  0.00     0.167 HD
ATOM     71  C   UNL     1      -7.209  13.524  -1.682  1.00  0.00     0.074 A 
ATOM     72  C   UNL     1      -8.582  13.111  -1.462  1.00  0.00     0.031 C 
ATOM     73  C   UNL     1      -6.773  14.803  -1.568  1.00  0.00     0.031 A 
BRANCH  60  74
ATOM     74  C   UNL     1      -0.746  15.559  -2.754  1.00  0.00    -0.014 A 
ATOM     75  C   UNL     1      -0.165  15.905  -3.989  1.00  0.00     0.010 A 
ATOM     76  C   UNL     1      -0.198  16.086  -1.572  1.00  0.00     0.010 A 
ATOM     77  C   UNL     1       0.974  16.711  -4.037  1.00  0.00     0.020 A 
ATOM     78  C   UNL     1       0.924  16.921  -1.617  1.00  0.00     0.020 A 
ATOM     79  C   UNL     1       1.516  17.208  -2.849  1.00  0.00     0.054 A 
BRANCH  79  80
ATOM     80  S   UNL     1       2.992  18.259  -2.940  1.00  0.00     0.124 S 
ATOM     81  O   UNL     1       4.043  17.278  -3.199  1.00  0.00    -0.237 OA
ATOM     82  O   UNL     1       2.682  19.154  -4.052  1.00  0.00    -0.237 OA
ATOM     83  O   UNL     1       3.044  18.897  -1.627  1.00  0.00    -0.744 OA
ENDBRANCH  79  80
ENDBRANCH  60  74
BRANCH  61  84
ATOM     84  C   UNL     1      -8.255   8.951  -2.126  1.00  0.00    -0.014 A 
ATOM     85  C   UNL     1      -9.297   8.950  -3.070  1.00  0.00     0.010 A 
ATOM     86  C   UNL     1      -8.272   8.000  -1.090  1.00  0.00     0.010 A 
ATOM     87  C   UNL     1     -10.346   8.031  -2.970  1.00  0.00     0.020 A 
ATOM     88  C   UNL     1      -9.307   7.063  -1.001  1.00  0.00     0.020 A 
ATOM     89  C   UNL     1     -10.345   7.092  -1.935  1.00  0.00     0.054 A 
BRANCH  89  90
ATOM     90  S   UNL     1     -11.687   5.873  -1.857  1.00  0.00     0.124 S 
ATOM     91  O   UNL     1     -12.790   6.669  -1.329  1.00  0.00    -0.237 OA
ATOM     92  O   UNL     1     -11.819   5.454  -3.250  1.00  0.00    -0.237 OA
ATOM     93  O   UNL     1     -11.164   4.849  -0.955  1.00  0.00    -0.744 OA
ENDBRANCH  89  90
ENDBRANCH  61  84
BRANCH  73  94
ATOM     94  C   UNL     1      -7.796  15.842  -1.208  1.00  0.00    -0.014 A 
ATOM     95  C   UNL     1      -8.305  15.931   0.099  1.00  0.00     0.010 A 
ATOM     96  C   UNL     1      -8.221  16.765  -2.181  1.00  0.00     0.010 A 
ATOM     97  C   UNL     1      -9.255  16.903   0.418  1.00  0.00     0.020 A 
ATOM     98  C   UNL     1      -9.151  17.754  -1.858  1.00  0.00     0.020 A 
ATOM     99  C   UNL     1      -9.675  17.805  -0.564  1.00  0.00     0.054 A 
BRANCH  99 100
ATOM    100  S   UNL     1     -10.889  19.077  -0.120  1.00  0.00     0.124 S 
ATOM    101  O   UNL     1     -12.134  18.314  -0.105  1.00  0.00    -0.237 OA
ATOM    102  O   UNL     1     -10.415  19.535   1.183  1.00  0.00    -0.237 OA
ATOM    103  O   UNL     1     -10.771  20.057  -1.198  1.00  0.00    -0.744 OA
ENDBRANCH  99 100
ENDBRANCH  73  94
ENDBRANCH  47  48
ENDBRANCH  39  42
ENDBRANCH  37  38
ENDBRANCH  36  37
ENDBRANCH   1  36
TORSDOF 19
