REMARK SMILES Cn1ncc(C(=O)NCCCCNC(=O)c2ccc(-c3c4nc(c(-c5ccc(S(=O)(=O)[O-])cc5)c5ccc([nH]5)c(-c5ccc(S(=O)(=O)[O-])cc5)c5nc(c(-c6ccc(S(=O)(=O)[O-])cc6)c6ccc3[nH]6)C=C5)C=C4)cc2)c1C(=O)NCC1CC[NH+](Cc2ccccc2)CC1
REMARK SMILES IDX 9 1 8 2 6 3 7 4 5 6 1 7 2 8 3 9 76 10 4 11 77 12 78 13 79 14
REMARK SMILES IDX 80 16 81 17 82 18 93 19 83 20 92 21 84 22 85 24 86 25 87 26
REMARK SMILES IDX 91 27 88 28 90 29 89 30 10 31 11 32 12 33 13 34 14 35 15 37
REMARK SMILES IDX 16 38 17 39 75 40 18 41 74 42 19 43 20 44 21 45 68 46 22 47
REMARK SMILES IDX 73 48 67 49 69 50 23 51 72 52 66 53 65 54 24 56 54 57 35 58
REMARK SMILES IDX 53 59 36 60 39 61 52 62 70 63 37 64 38 65 51 67 71 68 40 69
REMARK SMILES IDX 25 70 26 71 34 72 27 73 33 74 28 75 29 76 30 77 31 78 32 79
REMARK SMILES IDX 55 80 56 81 64 82 57 83 63 84 58 85 59 86 60 87 61 88 62 89
REMARK SMILES IDX 41 90 42 91 50 92 43 93 49 94 44 95 45 96 46 97 47 98 48 99
REMARK H PARENT 8 5 79 15 84 23 13 36 69 55 39 66
REMARK Flexibility Score: inf
ROOT
ATOM      1  C   UNL     1       0.967  -4.213   0.419  1.00  0.00     0.116 C 
ENDROOT
BRANCH   1   2
ATOM      2  N   UNL     1       2.100  -3.367   0.691  1.00  0.00    -0.352 N 
ATOM      3  C   UNL     1       2.241  -2.008   0.812  1.00  0.00     0.255 C 
ATOM      4  O   UNL     1       3.381  -1.630   1.102  1.00  0.00    -0.269 OA
ATOM      5  H   UNL     1       2.941  -3.863   0.815  1.00  0.00     0.163 HD
BRANCH   3   6
ATOM      6  C   UNL     1       1.207  -1.015   0.535  1.00  0.00     0.090 A 
ATOM      7  C   UNL     1      -1.794   1.001   0.350  1.00  0.00     0.174 C 
ATOM      8  N   UNL     1      -0.514   0.342   0.296  1.00  0.00    -0.262 N 
ATOM      9  N   UNL     1       0.528   1.097  -0.077  1.00  0.00    -0.180 NA
ATOM     10  C   UNL     1      -0.188  -0.947   0.664  1.00  0.00     0.138 A 
ATOM     11  C   UNL     1       1.566   0.287   0.089  1.00  0.00     0.149 A 
BRANCH  10  12
ATOM     12  C   UNL     1      -1.112  -1.916   1.201  1.00  0.00     0.270 C 
ATOM     13  O   UNL     1      -0.959  -2.456   2.294  1.00  0.00    -0.268 OA
ATOM     14  N   UNL     1      -2.019  -2.471   0.320  1.00  0.00    -0.350 N 
ATOM     15  H   UNL     1      -1.707  -3.226  -0.229  1.00  0.00     0.163 HD
BRANCH  14  16
ATOM     16  C   UNL     1      -3.392  -2.038   0.132  1.00  0.00     0.120 C 
BRANCH  16  17
ATOM     17  C   UNL     1      -3.954  -2.183  -1.303  1.00  0.00     0.019 C 
ATOM     18  C   UNL     1      -3.590  -3.501  -2.009  1.00  0.00     0.067 C 
ATOM     19  C   UNL     1      -3.639  -1.011  -2.244  1.00  0.00     0.067 C 
ATOM     20  C   UNL     1      -2.209  -3.482  -2.693  1.00  0.00     0.262 C 
ATOM     21  C   UNL     1      -2.222  -1.055  -2.818  1.00  0.00     0.262 C 
ATOM     22  N   UNL     1      -2.041  -2.304  -3.544  1.00  0.00    -0.331 N 
ATOM     23  H   UNL     1      -2.816  -2.381  -4.204  1.00  0.00     0.348 HD
BRANCH  22  24
ATOM     24  C   UNL     1      -0.875  -2.302  -4.447  1.00  0.00     0.299 C 
BRANCH  24  25
ATOM     25  C   UNL     1       0.492  -1.906  -3.918  1.00  0.00     0.006 A 
ATOM     26  C   UNL     1       1.249  -0.863  -4.464  1.00  0.00     0.009 A 
ATOM     27  C   UNL     1       1.110  -2.696  -2.960  1.00  0.00     0.009 A 
ATOM     28  C   UNL     1       2.579  -0.649  -4.064  1.00  0.00     0.001 A 
ATOM     29  C   UNL     1       2.441  -2.515  -2.577  1.00  0.00     0.001 A 
ATOM     30  C   UNL     1       3.180  -1.483  -3.127  1.00  0.00     0.000 A 
ENDBRANCH  24  25
ENDBRANCH  22  24
ENDBRANCH  16  17
ENDBRANCH  14  16
ENDBRANCH  10  12
ENDBRANCH   3   6
ENDBRANCH   1   2
BRANCH   1  31
ATOM     31  C   UNL     1       1.159  -5.282  -0.656  1.00  0.00     0.023 C 
BRANCH  31  32
ATOM     32  C   UNL     1       2.366  -6.179  -0.541  1.00  0.00     0.023 C 
BRANCH  32  33
ATOM     33  C   UNL     1       2.363  -6.965   0.745  1.00  0.00     0.116 C 
BRANCH  33  34
ATOM     34  N   UNL     1       1.109  -7.706   0.905  1.00  0.00    -0.352 N 
ATOM     35  C   UNL     1       0.830  -9.020   0.603  1.00  0.00     0.251 C 
ATOM     36  H   UNL     1       0.360  -7.191   1.284  1.00  0.00     0.163 HD
ATOM     37  O   UNL     1      -0.323  -9.396   0.451  1.00  0.00    -0.269 OA
BRANCH  35  38
ATOM     38  C   UNL     1       1.965  -9.950   0.469  1.00  0.00     0.039 A 
ATOM     39  C   UNL     1       1.989 -10.923  -0.529  1.00  0.00     0.014 A 
ATOM     40  C   UNL     1       3.050  -9.783   1.325  1.00  0.00     0.014 A 
ATOM     41  C   UNL     1       3.151 -11.676  -0.706  1.00  0.00     0.010 A 
ATOM     42  C   UNL     1       4.253 -10.377   1.015  1.00  0.00     0.010 A 
ATOM     43  C   UNL     1       4.305 -11.375   0.038  1.00  0.00    -0.014 A 
BRANCH  43  44
ATOM     44  C   UNL     1       5.573 -12.125  -0.102  1.00  0.00     0.031 A 
ATOM     45  C   UNL     1       6.173 -12.773   1.122  1.00  0.00     0.074 A 
ATOM     46  C   UNL     1       6.223 -12.133  -1.280  1.00  0.00     0.049 A 
ATOM     47  N   UNL     1       7.332 -13.361   1.261  1.00  0.00    -0.248 NA
ATOM     48  C   UNL     1       5.396 -12.691   2.376  1.00  0.00     0.031 C 
ATOM     49  C   UNL     1       5.772 -11.472  -2.509  1.00  0.00     0.029 A 
ATOM     50  N   UNL     1       7.410 -12.716  -1.636  1.00  0.00    -0.354 N 
ATOM     51  C   UNL     1       7.430 -13.674   2.612  1.00  0.00     0.074 A 
ATOM     52  C   UNL     1       6.269 -13.125   3.268  1.00  0.00     0.031 C 
ATOM     53  C   UNL     1       6.646 -11.733  -3.495  1.00  0.00     0.029 A 
ATOM     54  C   UNL     1       7.740 -12.533  -2.958  1.00  0.00     0.049 A 
ATOM     55  H   UNL     1       7.974 -13.220  -1.005  1.00  0.00     0.167 HD
ATOM     56  C   UNL     1       8.379 -14.398   3.248  1.00  0.00     0.031 A 
ATOM     57  C   UNL     1       8.808 -12.967  -3.654  1.00  0.00     0.031 A 
ATOM     58  C   UNL     1       9.503 -14.980   2.571  1.00  0.00     0.049 A 
ATOM     59  C   UNL     1       9.837 -13.800  -2.940  1.00  0.00     0.074 A 
ATOM     60  C   UNL     1      10.490 -15.798   3.085  1.00  0.00     0.029 A 
ATOM     61  N   UNL     1       9.778 -14.809   1.221  1.00  0.00    -0.354 N 
ATOM     62  N   UNL     1       9.877 -14.156  -1.676  1.00  0.00    -0.248 NA
ATOM     63  C   UNL     1      10.955 -14.304  -3.746  1.00  0.00     0.031 C 
ATOM     64  C   UNL     1      11.395 -16.078   2.056  1.00  0.00     0.029 A 
ATOM     65  C   UNL     1      10.933 -15.490   0.887  1.00  0.00     0.049 A 
ATOM     66  H   UNL     1       9.232 -14.281   0.595  1.00  0.00     0.167 HD
ATOM     67  C   UNL     1      11.010 -14.948  -1.541  1.00  0.00     0.074 A 
ATOM     68  C   UNL     1      11.616 -15.032  -2.856  1.00  0.00     0.031 C 
ATOM     69  C   UNL     1      11.508 -15.552  -0.433  1.00  0.00     0.031 A 
BRANCH  56  70
ATOM     70  C   UNL     1       8.221 -14.603   4.733  1.00  0.00    -0.014 A 
ATOM     71  C   UNL     1       7.147 -15.348   5.258  1.00  0.00     0.010 A 
ATOM     72  C   UNL     1       9.155 -14.041   5.620  1.00  0.00     0.010 A 
ATOM     73  C   UNL     1       6.977 -15.476   6.638  1.00  0.00     0.020 A 
ATOM     74  C   UNL     1       9.011 -14.199   7.002  1.00  0.00     0.020 A 
ATOM     75  C   UNL     1       7.910 -14.898   7.502  1.00  0.00     0.054 A 
BRANCH  75  76
ATOM     76  S   UNL     1       7.673 -15.093   9.289  1.00  0.00     0.124 S 
ATOM     77  O   UNL     1       6.532 -14.215   9.539  1.00  0.00    -0.237 OA
ATOM     78  O   UNL     1       7.404 -16.523   9.421  1.00  0.00    -0.237 OA
ATOM     79  O   UNL     1       8.940 -14.645   9.859  1.00  0.00    -0.744 OA
ENDBRANCH  75  76
ENDBRANCH  56  70
BRANCH  57  80
ATOM     80  C   UNL     1       8.925 -12.654  -5.104  1.00  0.00    -0.014 A 
ATOM     81  C   UNL     1       8.759 -13.664  -6.069  1.00  0.00     0.010 A 
ATOM     82  C   UNL     1       9.160 -11.335  -5.534  1.00  0.00     0.010 A 
ATOM     83  C   UNL     1       8.842 -13.365  -7.432  1.00  0.00     0.020 A 
ATOM     84  C   UNL     1       9.213 -11.026  -6.896  1.00  0.00     0.020 A 
ATOM     85  C   UNL     1       9.063 -12.046  -7.838  1.00  0.00     0.054 A 
BRANCH  85  86
ATOM     86  S   UNL     1       9.104 -11.673  -9.613  1.00  0.00     0.124 S 
ATOM     87  O   UNL     1      10.370 -12.274 -10.021  1.00  0.00    -0.237 OA
ATOM     88  O   UNL     1       7.900 -12.340 -10.102  1.00  0.00    -0.237 OA
ATOM     89  O   UNL     1       9.060 -10.213  -9.657  1.00  0.00    -0.744 OA
ENDBRANCH  85  86
ENDBRANCH  57  80
BRANCH  69  90
ATOM     90  C   UNL     1      12.749 -16.384  -0.602  1.00  0.00    -0.014 A 
ATOM     91  C   UNL     1      14.000 -15.789  -0.836  1.00  0.00     0.010 A 
ATOM     92  C   UNL     1      12.667 -17.781  -0.452  1.00  0.00     0.010 A 
ATOM     93  C   UNL     1      15.145 -16.581  -0.950  1.00  0.00     0.020 A 
ATOM     94  C   UNL     1      13.813 -18.572  -0.532  1.00  0.00     0.020 A 
ATOM     95  C   UNL     1      15.043 -17.967  -0.795  1.00  0.00     0.054 A 
BRANCH  95  96
ATOM     96  S   UNL     1      16.552 -18.966  -0.900  1.00  0.00     0.124 S 
ATOM     97  O   UNL     1      16.852 -18.912  -2.328  1.00  0.00    -0.237 OA
ATOM     98  O   UNL     1      17.477 -18.239  -0.034  1.00  0.00    -0.237 OA
ATOM     99  O   UNL     1      16.137 -20.275  -0.400  1.00  0.00    -0.744 OA
ENDBRANCH  95  96
ENDBRANCH  69  90
ENDBRANCH  43  44
ENDBRANCH  35  38
ENDBRANCH  33  34
ENDBRANCH  32  33
ENDBRANCH  31  32
ENDBRANCH   1  31
TORSDOF 19
