REMARK SMILES COc1ccc(CNC(=O)[C@H]2CC(C)=C(C)C[C@@H]2C(=O)NCCCCNC(=O)c2ccc(-c3c4nc(c(-c5ccc(S(=O)(=O)[O-])cc5)c5ccc([nH]5)c(-c5ccc(S(=O)(=O)[O-])cc5)c5nc(c(-c6ccc(S(=O)(=O)[O-])cc6)c6ccc3[nH]6)C=C5)C=C4)cc2)cc1OC
REMARK SMILES IDX 23 1 22 2 21 3 19 4 20 5 18 7 11 8 12 9 13 10 17 11 14 12
REMARK SMILES IDX 15 13 16 14 9 15 8 16 10 18 7 19 6 20 3 21 4 22 90 23 5 24
REMARK SMILES IDX 89 25 2 26 1 27 91 28 92 29 24 30 25 31 26 32 27 33 28 35
REMARK SMILES IDX 29 36 30 37 88 38 31 39 87 40 32 41 33 42 34 43 81 44 35 45
REMARK SMILES IDX 86 46 80 47 82 48 36 49 85 50 79 51 78 52 37 54 67 55 48 56
REMARK SMILES IDX 66 57 49 58 52 59 65 60 83 61 50 62 51 63 64 65 84 66 53 67
REMARK SMILES IDX 38 68 39 69 47 70 40 71 46 72 41 73 42 74 43 75 44 76 45 77
REMARK SMILES IDX 68 78 69 79 77 80 70 81 76 82 71 83 72 84 73 85 74 86 75 87
REMARK SMILES IDX 54 88 55 89 63 90 56 91 62 92 57 93 58 94 59 95 60 96 61 97
REMARK H PARENT 21 6 8 17 26 34 82 53 52 64
REMARK Flexibility Score: inf
ROOT
ATOM      1  C   UNL     1      -4.455   4.892  -5.292  1.00  0.00     0.023 C 
ENDROOT
BRANCH   1   2
ATOM      2  C   UNL     1      -3.790   6.244  -5.063  1.00  0.00     0.116 C 
BRANCH   2   3
ATOM      3  N   UNL     1      -2.982   6.284  -3.857  1.00  0.00    -0.356 N 
ATOM      4  C   UNL     1      -1.733   6.805  -3.668  1.00  0.00     0.224 C 
ATOM      5  O   UNL     1      -1.285   6.798  -2.521  1.00  0.00    -0.275 OA
ATOM      6  H   UNL     1      -3.394   5.878  -3.060  1.00  0.00     0.163 HD
BRANCH   4   7
ATOM      7  C   UNL     1      -0.947   7.332  -4.874  1.00  0.00     0.095 C 
ATOM      8  C   UNL     1       0.552   7.485  -4.529  1.00  0.00     0.095 C 
ATOM      9  C   UNL     1       1.223   8.845  -4.773  1.00  0.00     0.045 C 
ATOM     10  C   UNL     1       0.373  10.002  -5.220  1.00  0.00    -0.074 C 
ATOM     11  C   UNL     1      -1.654   8.564  -5.457  1.00  0.00     0.045 C 
ATOM     12  C   UNL     1       1.121  11.310  -5.297  1.00  0.00     0.039 C 
ATOM     13  C   UNL     1      -0.926   9.870  -5.538  1.00  0.00    -0.074 C 
ATOM     14  C   UNL     1      -1.776  11.015  -6.033  1.00  0.00     0.039 C 
BRANCH   8  15
ATOM     15  C   UNL     1       1.306   6.418  -5.320  1.00  0.00     0.224 C 
ATOM     16  N   UNL     1       1.967   5.413  -4.686  1.00  0.00    -0.352 N 
ATOM     17  H   UNL     1       2.289   4.696  -5.279  1.00  0.00     0.163 HD
ATOM     18  O   UNL     1       1.307   6.422  -6.554  1.00  0.00    -0.275 OA
BRANCH  16  19
ATOM     19  C   UNL     1       2.277   5.221  -3.283  1.00  0.00     0.151 C 
BRANCH  19  20
ATOM     20  C   UNL     1       1.874   3.856  -2.793  1.00  0.00    -0.025 A 
ATOM     21  C   UNL     1       1.139   1.357  -1.722  1.00  0.00     0.160 A 
ATOM     22  C   UNL     1       0.171   2.210  -2.270  1.00  0.00     0.051 A 
ATOM     23  C   UNL     1       2.488   1.727  -1.741  1.00  0.00     0.161 A 
ATOM     24  C   UNL     1       0.533   3.455  -2.790  1.00  0.00     0.009 A 
ATOM     25  C   UNL     1       2.837   2.976  -2.278  1.00  0.00     0.056 A 
BRANCH  21  26
ATOM     26  O   UNL     1       0.743   0.128  -1.266  1.00  0.00    -0.493 OA
ATOM     27  C   UNL     1      -0.070   0.215  -0.094  1.00  0.00     0.278 C 
ENDBRANCH  21  26
BRANCH  23  28
ATOM     28  O   UNL     1       3.574   1.018  -1.302  1.00  0.00    -0.493 OA
ATOM     29  C   UNL     1       3.347  -0.080  -0.432  1.00  0.00     0.278 C 
ENDBRANCH  23  28
ENDBRANCH  19  20
ENDBRANCH  16  19
ENDBRANCH   8  15
ENDBRANCH   4   7
ENDBRANCH   2   3
ENDBRANCH   1   2
BRANCH   1  30
ATOM     30  C   UNL     1      -5.389   4.422  -4.178  1.00  0.00     0.023 C 
BRANCH  30  31
ATOM     31  C   UNL     1      -6.439   5.433  -3.729  1.00  0.00     0.116 C 
BRANCH  31  32
ATOM     32  N   UNL     1      -7.328   5.849  -4.803  1.00  0.00    -0.352 N 
ATOM     33  C   UNL     1      -8.701   5.782  -4.877  1.00  0.00     0.251 C 
ATOM     34  H   UNL     1      -6.883   6.235  -5.591  1.00  0.00     0.163 HD
ATOM     35  O   UNL     1      -9.274   6.064  -5.921  1.00  0.00    -0.269 OA
BRANCH  33  36
ATOM     36  C   UNL     1      -9.475   5.329  -3.701  1.00  0.00     0.039 A 
ATOM     37  C   UNL     1     -10.433   4.326  -3.868  1.00  0.00     0.014 A 
ATOM     38  C   UNL     1      -9.228   5.864  -2.434  1.00  0.00     0.014 A 
ATOM     39  C   UNL     1     -11.078   3.794  -2.749  1.00  0.00     0.010 A 
ATOM     40  C   UNL     1      -9.818   5.284  -1.314  1.00  0.00     0.010 A 
ATOM     41  C   UNL     1     -10.738   4.233  -1.459  1.00  0.00    -0.014 A 
BRANCH  41  42
ATOM     42  C   UNL     1     -11.306   3.593  -0.244  1.00  0.00     0.031 A 
ATOM     43  C   UNL     1     -12.162   4.392   0.701  1.00  0.00     0.074 A 
ATOM     44  C   UNL     1     -10.985   2.317   0.050  1.00  0.00     0.049 A 
ATOM     45  N   UNL     1     -12.652   4.043   1.863  1.00  0.00    -0.248 NA
ATOM     46  C   UNL     1     -12.490   5.769   0.297  1.00  0.00     0.031 C 
ATOM     47  C   UNL     1     -10.142   1.442  -0.770  1.00  0.00     0.029 A 
ATOM     48  N   UNL     1     -11.319   1.535   1.128  1.00  0.00    -0.354 N 
ATOM     49  C   UNL     1     -13.335   5.158   2.334  1.00  0.00     0.074 A 
ATOM     50  C   UNL     1     -13.157   6.209   1.355  1.00  0.00     0.031 C 
ATOM     51  C   UNL     1     -10.044   0.241  -0.177  1.00  0.00     0.029 A 
ATOM     52  C   UNL     1     -10.773   0.273   1.087  1.00  0.00     0.049 A 
ATOM     53  H   UNL     1     -11.896   1.848   1.861  1.00  0.00     0.167 HD
ATOM     54  C   UNL     1     -14.061   5.290   3.470  1.00  0.00     0.031 A 
ATOM     55  C   UNL     1     -10.835  -0.740   1.974  1.00  0.00     0.031 A 
ATOM     56  C   UNL     1     -14.243   4.243   4.440  1.00  0.00     0.049 A 
ATOM     57  C   UNL     1     -11.612  -0.552   3.249  1.00  0.00     0.074 A 
ATOM     58  C   UNL     1     -14.995   4.268   5.602  1.00  0.00     0.029 A 
ATOM     59  N   UNL     1     -13.669   2.983   4.363  1.00  0.00    -0.354 N 
ATOM     60  N   UNL     1     -12.290   0.495   3.653  1.00  0.00    -0.248 NA
ATOM     61  C   UNL     1     -11.634  -1.685   4.186  1.00  0.00     0.031 C 
ATOM     62  C   UNL     1     -14.835   3.041   6.253  1.00  0.00     0.029 A 
ATOM     63  C   UNL     1     -14.028   2.232   5.469  1.00  0.00     0.049 A 
ATOM     64  H   UNL     1     -13.090   2.670   3.630  1.00  0.00     0.167 HD
ATOM     65  C   UNL     1     -12.838   0.139   4.881  1.00  0.00     0.074 A 
ATOM     66  C   UNL     1     -12.428  -1.225   5.143  1.00  0.00     0.031 C 
ATOM     67  C   UNL     1     -13.610   0.875   5.717  1.00  0.00     0.031 A 
BRANCH  54  68
ATOM     68  C   UNL     1     -14.716   6.622   3.727  1.00  0.00    -0.014 A 
ATOM     69  C   UNL     1     -15.814   7.047   2.957  1.00  0.00     0.010 A 
ATOM     70  C   UNL     1     -14.263   7.436   4.780  1.00  0.00     0.010 A 
ATOM     71  C   UNL     1     -16.424   8.277   3.212  1.00  0.00     0.020 A 
ATOM     72  C   UNL     1     -14.887   8.656   5.057  1.00  0.00     0.020 A 
ATOM     73  C   UNL     1     -15.955   9.075   4.261  1.00  0.00     0.054 A 
BRANCH  73  74
ATOM     74  S   UNL     1     -16.787  10.653   4.588  1.00  0.00     0.124 S 
ATOM     75  O   UNL     1     -16.336  11.469   3.463  1.00  0.00    -0.237 OA
ATOM     76  O   UNL     1     -18.199  10.282   4.568  1.00  0.00    -0.237 OA
ATOM     77  O   UNL     1     -16.269  11.054   5.894  1.00  0.00    -0.744 OA
ENDBRANCH  73  74
ENDBRANCH  54  68
BRANCH  55  78
ATOM     78  C   UNL     1     -10.136  -2.024   1.696  1.00  0.00    -0.014 A 
ATOM     79  C   UNL     1     -10.871  -3.192   1.423  1.00  0.00     0.010 A 
ATOM     80  C   UNL     1      -8.730  -2.090   1.713  1.00  0.00     0.010 A 
ATOM     81  C   UNL     1     -10.216  -4.406   1.199  1.00  0.00     0.020 A 
ATOM     82  C   UNL     1      -8.071  -3.297   1.461  1.00  0.00     0.020 A 
ATOM     83  C   UNL     1      -8.819  -4.451   1.220  1.00  0.00     0.054 A 
BRANCH  83  84
ATOM     84  S   UNL     1      -7.987  -6.030   0.895  1.00  0.00     0.124 S 
ATOM     85  O   UNL     1      -8.215  -6.755   2.140  1.00  0.00    -0.237 OA
ATOM     86  O   UNL     1      -8.708  -6.532  -0.272  1.00  0.00    -0.237 OA
ATOM     87  O   UNL     1      -6.602  -5.639   0.641  1.00  0.00    -0.744 OA
ENDBRANCH  83  84
ENDBRANCH  55  78
BRANCH  67  88
ATOM     88  C   UNL     1     -14.085   0.215   6.983  1.00  0.00    -0.014 A 
ATOM     89  C   UNL     1     -13.203  -0.028   8.050  1.00  0.00     0.010 A 
ATOM     90  C   UNL     1     -15.445  -0.116   7.127  1.00  0.00     0.010 A 
ATOM     91  C   UNL     1     -13.668  -0.615   9.230  1.00  0.00     0.020 A 
ATOM     92  C   UNL     1     -15.918  -0.678   8.316  1.00  0.00     0.020 A 
ATOM     93  C   UNL     1     -15.023  -0.935   9.356  1.00  0.00     0.054 A 
BRANCH  93  94
ATOM     94  S   UNL     1     -15.610  -1.649  10.917  1.00  0.00     0.124 S 
ATOM     95  O   UNL     1     -15.091  -3.012  10.841  1.00  0.00    -0.237 OA
ATOM     96  O   UNL     1     -14.980  -0.791  11.918  1.00  0.00    -0.237 OA
ATOM     97  O   UNL     1     -17.063  -1.530  10.828  1.00  0.00    -0.744 OA
ENDBRANCH  93  94
ENDBRANCH  67  88
ENDBRANCH  41  42
ENDBRANCH  33  36
ENDBRANCH  31  32
ENDBRANCH  30  31
ENDBRANCH   1  30
TORSDOF 19
