REMARK SMILES Cc1c(Cl)cc2c(c1C)O[C@H](C(F)(F)F)C(C(=O)NCCCCNC(=O)c1ccc(-c3c4nc(c(-c5ccc(S(=O)(=O)[O-])cc5)c5ccc([nH]5)c(-c5ccc(S(=O)(=O)[O-])cc5)c5nc(c(-c6ccc(S(=O)(=O)[O-])cc6)c6ccc3[nH]6)C=C5)C=C4)cc1)=C2
REMARK SMILES IDX 22 1 21 2 20 3 19 4 17 5 18 6 16 8 1 9 2 10 3 11 8 12 4 13
REMARK SMILES IDX 5 14 7 15 9 16 6 17 10 18 87 19 11 20 12 21 13 22 14 23
REMARK SMILES IDX 15 24 23 25 24 26 25 27 26 29 27 30 28 31 86 32 29 33 85 34
REMARK SMILES IDX 30 35 31 36 32 37 79 38 33 39 84 40 78 41 80 42 34 43 83 44
REMARK SMILES IDX 77 45 76 46 35 48 65 49 46 50 64 51 47 52 50 53 63 54 81 55
REMARK SMILES IDX 48 56 49 57 62 59 82 60 51 61 36 62 37 63 45 64 38 65 44 66
REMARK SMILES IDX 39 67 40 68 41 69 42 70 43 71 66 72 67 73 75 74 68 75 74 76
REMARK SMILES IDX 69 77 70 78 71 79 72 80 73 81 52 82 53 83 61 84 54 85 60 86
REMARK SMILES IDX 55 87 56 88 57 89 58 90 59 91
REMARK H PARENT 19 7 24 28 80 47 50 58
REMARK Flexibility Score: inf
ROOT
ATOM      1  C   UNL     1       2.666 -10.713   1.333  1.00  0.00     0.023 C 
ENDROOT
BRANCH   1   2
ATOM      2  C   UNL     1       2.605  -9.252   0.881  1.00  0.00     0.023 C 
BRANCH   2   3
ATOM      3  C   UNL     1       1.419  -8.930  -0.024  1.00  0.00     0.116 C 
BRANCH   3   4
ATOM      4  N   UNL     1       0.230  -8.592   0.738  1.00  0.00    -0.352 N 
ATOM      5  C   UNL     1      -0.417  -7.462   1.104  1.00  0.00     0.251 C 
ATOM      6  O   UNL     1      -1.431  -7.633   1.789  1.00  0.00    -0.270 OA
ATOM      7  H   UNL     1      -0.224  -9.397   1.077  1.00  0.00     0.163 HD
BRANCH   5   8
ATOM      8  C   UNL     1       0.000  -6.074   0.746  1.00  0.00     0.067 C 
ATOM      9  C   UNL     1       0.740   0.408   0.186  1.00  0.00     0.046 C 
ATOM     10  C   UNL     1       0.345  -1.020   0.463  1.00  0.00    -0.026 A 
ATOM     11  C   UNL     1      -0.849  -1.332   1.145  1.00  0.00     0.045 A 
ATOM     12  C   UNL     1       1.157  -2.086   0.002  1.00  0.00    -0.004 A 
ATOM     13  Cl  UNL     1      -1.953  -0.110   1.680  1.00  0.00    -0.084 Cl
ATOM     14  C   UNL     1      -1.202  -2.658   1.421  1.00  0.00     0.032 A 
ATOM     15  C   UNL     1       0.789  -3.412   0.303  1.00  0.00     0.131 A 
ATOM     16  C   UNL     1       2.427  -1.859  -0.782  1.00  0.00     0.049 C 
ATOM     17  C   UNL     1      -0.377  -3.702   1.011  1.00  0.00     0.019 A 
ATOM     18  O   UNL     1       1.651  -4.404  -0.083  1.00  0.00    -0.475 OA
ATOM     19  C   UNL     1      -0.699  -5.086   1.336  1.00  0.00     0.025 C 
ATOM     20  C   UNL     1       1.085  -5.735  -0.235  1.00  0.00     0.314 C 
BRANCH  20  21
ATOM     21  C   UNL     1       0.649  -5.934  -1.699  1.00  0.00     0.429 C 
ATOM     22  F   UNL     1       1.728  -5.905  -2.521  1.00  0.00    -0.167 F 
ATOM     23  F   UNL     1       0.042  -7.126  -1.904  1.00  0.00    -0.167 F 
ATOM     24  F   UNL     1      -0.207  -4.977  -2.123  1.00  0.00    -0.167 F 
ENDBRANCH  20  21
ENDBRANCH   5   8
ENDBRANCH   3   4
ENDBRANCH   2   3
ENDBRANCH   1   2
BRANCH   1  25
ATOM     25  C   UNL     1       2.659 -11.749   0.209  1.00  0.00     0.116 C 
BRANCH  25  26
ATOM     26  N   UNL     1       3.643 -11.492  -0.831  1.00  0.00    -0.352 N 
ATOM     27  C   UNL     1       4.322 -12.410  -1.598  1.00  0.00     0.251 C 
ATOM     28  H   UNL     1       3.849 -10.545  -1.007  1.00  0.00     0.163 HD
ATOM     29  O   UNL     1       5.186 -12.047  -2.389  1.00  0.00    -0.269 OA
BRANCH  27  30
ATOM     30  C   UNL     1       4.020 -13.841  -1.414  1.00  0.00     0.039 A 
ATOM     31  C   UNL     1       5.060 -14.709  -1.079  1.00  0.00     0.014 A 
ATOM     32  C   UNL     1       2.703 -14.300  -1.501  1.00  0.00     0.014 A 
ATOM     33  C   UNL     1       4.767 -16.035  -0.761  1.00  0.00     0.010 A 
ATOM     34  C   UNL     1       2.406 -15.605  -1.127  1.00  0.00     0.010 A 
ATOM     35  C   UNL     1       3.436 -16.483  -0.753  1.00  0.00    -0.014 A 
BRANCH  35  36
ATOM     36  C   UNL     1       3.106 -17.874  -0.365  1.00  0.00     0.031 A 
ATOM     37  C   UNL     1       2.569 -18.827  -1.393  1.00  0.00     0.074 A 
ATOM     38  C   UNL     1       3.253 -18.264   0.916  1.00  0.00     0.049 A 
ATOM     39  N   UNL     1       2.209 -20.076  -1.248  1.00  0.00    -0.248 NA
ATOM     40  C   UNL     1       2.396 -18.304  -2.758  1.00  0.00     0.031 C 
ATOM     41  C   UNL     1       3.732 -17.416   2.011  1.00  0.00     0.029 A 
ATOM     42  N   UNL     1       3.022 -19.477   1.512  1.00  0.00    -0.354 N 
ATOM     43  C   UNL     1       1.760 -20.484  -2.497  1.00  0.00     0.074 A 
ATOM     44  C   UNL     1       1.843 -19.337  -3.375  1.00  0.00     0.031 C 
ATOM     45  C   UNL     1       3.796 -18.148   3.136  1.00  0.00     0.029 A 
ATOM     46  C   UNL     1       3.338 -19.504   2.849  1.00  0.00     0.049 A 
ATOM     47  H   UNL     1       2.662 -20.255   1.027  1.00  0.00     0.167 HD
ATOM     48  C   UNL     1       1.343 -21.711  -2.888  1.00  0.00     0.031 A 
ATOM     49  C   UNL     1       3.275 -20.511   3.741  1.00  0.00     0.031 A 
ATOM     50  C   UNL     1       1.276 -22.853  -2.019  1.00  0.00     0.049 A 
ATOM     51  C   UNL     1       2.793 -21.861   3.290  1.00  0.00     0.074 A 
ATOM     52  C   UNL     1       0.911 -24.151  -2.329  1.00  0.00     0.029 A 
ATOM     53  N   UNL     1       1.585 -22.833  -0.668  1.00  0.00    -0.354 N 
ATOM     54  N   UNL     1       2.418 -22.241   2.092  1.00  0.00    -0.248 NA
ATOM     55  C   UNL     1       2.728 -22.918   4.309  1.00  0.00     0.031 C 
ATOM     56  C   UNL     1       0.968 -24.910  -1.155  1.00  0.00     0.029 A 
ATOM     57  C   UNL     1       1.402 -24.091  -0.123  1.00  0.00     0.049 A 
ATOM     58  H   UNL     1       1.889 -22.040  -0.169  1.00  0.00     0.167 HD
ATOM     59  C   UNL     1       2.082 -23.584   2.210  1.00  0.00     0.074 A 
ATOM     60  C   UNL     1       2.311 -23.954   3.592  1.00  0.00     0.031 C 
ATOM     61  C   UNL     1       1.625 -24.434   1.258  1.00  0.00     0.031 A 
BRANCH  48  62
ATOM     62  C   UNL     1       0.938 -21.867  -4.327  1.00  0.00    -0.014 A 
ATOM     63  C   UNL     1       1.905 -21.867  -5.348  1.00  0.00     0.010 A 
ATOM     64  C   UNL     1      -0.419 -22.011  -4.665  1.00  0.00     0.010 A 
ATOM     65  C   UNL     1       1.520 -21.956  -6.687  1.00  0.00     0.020 A 
ATOM     66  C   UNL     1      -0.807 -22.125  -6.003  1.00  0.00     0.020 A 
ATOM     67  C   UNL     1       0.164 -22.075  -7.006  1.00  0.00     0.054 A 
BRANCH  67  68
ATOM     68  S   UNL     1      -0.311 -22.181  -8.754  1.00  0.00     0.124 S 
ATOM     69  O   UNL     1      -0.159 -20.795  -9.190  1.00  0.00    -0.237 OA
ATOM     70  O   UNL     1       0.666 -23.121  -9.297  1.00  0.00    -0.237 OA
ATOM     71  O   UNL     1      -1.686 -22.672  -8.709  1.00  0.00    -0.744 OA
ENDBRANCH  67  68
ENDBRANCH  48  62
BRANCH  49  72
ATOM     72  C   UNL     1       3.720 -20.285   5.141  1.00  0.00    -0.014 A 
ATOM     73  C   UNL     1       4.964 -20.776   5.571  1.00  0.00     0.010 A 
ATOM     74  C   UNL     1       2.926 -19.545   6.035  1.00  0.00     0.010 A 
ATOM     75  C   UNL     1       5.409 -20.532   6.873  1.00  0.00     0.020 A 
ATOM     76  C   UNL     1       3.376 -19.284   7.333  1.00  0.00     0.020 A 
ATOM     77  C   UNL     1       4.613 -19.783   7.745  1.00  0.00     0.054 A 
BRANCH  77  78
ATOM     78  S   UNL     1       5.246 -19.415   9.406  1.00  0.00     0.124 S 
ATOM     79  O   UNL     1       5.090 -20.698  10.083  1.00  0.00    -0.237 OA
ATOM     80  O   UNL     1       6.622 -19.005   9.135  1.00  0.00    -0.237 OA
ATOM     81  O   UNL     1       4.368 -18.345   9.875  1.00  0.00    -0.744 OA
ENDBRANCH  77  78
ENDBRANCH  49  72
BRANCH  61  82
ATOM     82  C   UNL     1       1.335 -25.849   1.674  1.00  0.00    -0.014 A 
ATOM     83  C   UNL     1       0.157 -26.161   2.373  1.00  0.00     0.010 A 
ATOM     84  C   UNL     1       2.204 -26.884   1.285  1.00  0.00     0.010 A 
ATOM     85  C   UNL     1      -0.146 -27.489   2.682  1.00  0.00     0.020 A 
ATOM     86  C   UNL     1       1.895 -28.214   1.577  1.00  0.00     0.020 A 
ATOM     87  C   UNL     1       0.723 -28.508   2.279  1.00  0.00     0.054 A 
BRANCH  87  88
ATOM     88  S   UNL     1       0.269 -30.230   2.625  1.00  0.00     0.124 S 
ATOM     89  O   UNL     1       0.548 -30.336   4.054  1.00  0.00    -0.237 OA
ATOM     90  O   UNL     1      -1.144 -30.270   2.256  1.00  0.00    -0.237 OA
ATOM     91  O   UNL     1       1.155 -31.002   1.757  1.00  0.00    -0.744 OA
ENDBRANCH  87  88
ENDBRANCH  61  82
ENDBRANCH  35  36
ENDBRANCH  27  30
ENDBRANCH  25  26
ENDBRANCH   1  25
TORSDOF 15
