REMARK SMILES O=C(NCCCCNC(=O)c1[nH]ncc1C[NH+]1CCC([N@H+]2CCC[C@@H](C(=O)N3CCCC3)C2)CC1)c1ccc(-c2c3nc(c(-c4ccc(S(=O)(=O)[O-])cc4)c4ccc([nH]4)c(-c4ccc(S(=O)(=O)[O-])cc4)c4nc(c(-c5ccc(S(=O)(=O)[O-])cc5)c5ccc2[nH]5)C=C4)C=C3)cc1
REMARK SMILES IDX 6 1 5 2 4 3 3 4 1 5 2 6 36 8 37 9 95 10 38 11 94 12 39 13
REMARK SMILES IDX 40 14 41 15 88 16 42 17 93 18 87 19 89 20 43 21 92 22 86 23
REMARK SMILES IDX 85 24 44 26 74 27 55 28 73 29 56 30 59 31 72 32 90 33 57 34
REMARK SMILES IDX 58 35 71 37 91 38 60 39 45 40 46 41 54 42 47 43 53 44 48 45
REMARK SMILES IDX 49 46 50 47 51 48 52 49 75 50 76 51 84 52 77 53 83 54 78 55
REMARK SMILES IDX 79 56 80 57 81 58 82 59 61 60 62 61 70 62 63 63 69 64 64 65
REMARK SMILES IDX 65 66 66 67 67 68 68 69 7 70 8 71 9 72 10 74 11 75 12 76
REMARK SMILES IDX 15 77 13 78 14 80 16 81 17 82 18 83 35 84 19 86 34 87 20 88
REMARK SMILES IDX 21 89 22 90 33 91 23 93 25 94 24 95 26 96 27 97 28 98 29 99
REMARK SMILES IDX 32 100 30 101 31 102
REMARK H PARENT 3 7 89 25 59 36 8 73 12 79 17 85 21 92
REMARK Flexibility Score: inf
ROOT
ATOM      1  C   UNL     1       4.460   3.181  -2.172  1.00  0.00     0.023 C 
ENDROOT
BRANCH   1   2
ATOM      2  C   UNL     1       4.931   1.755  -1.909  1.00  0.00     0.023 C 
BRANCH   2   3
ATOM      3  C   UNL     1       4.569   1.197  -0.539  1.00  0.00     0.116 C 
BRANCH   3   4
ATOM      4  N   UNL     1       3.132   1.128  -0.311  1.00  0.00    -0.352 N 
ATOM      5  O   UNL     1       1.123   0.138  -0.032  1.00  0.00    -0.269 OA
ATOM      6  C   UNL     1       2.344   0.029  -0.061  1.00  0.00     0.251 C 
ATOM      7  H   UNL     1       2.658   1.991  -0.340  1.00  0.00     0.163 HD
BRANCH   6   8
ATOM      8  C   UNL     1       2.984  -1.288   0.140  1.00  0.00     0.039 A 
ATOM      9  C   UNL     1       4.087  -1.411   0.987  1.00  0.00     0.014 A 
ATOM     10  C   UNL     1       2.499  -2.400  -0.553  1.00  0.00     0.014 A 
ATOM     11  C   UNL     1       4.808  -2.597   1.006  1.00  0.00     0.010 A 
ATOM     12  C   UNL     1       3.168  -3.623  -0.451  1.00  0.00     0.010 A 
ATOM     13  C   UNL     1       4.349  -3.723   0.301  1.00  0.00    -0.014 A 
BRANCH  13  14
ATOM     14  C   UNL     1       5.087  -5.005   0.430  1.00  0.00     0.031 A 
ATOM     15  C   UNL     1       5.751  -5.652  -0.754  1.00  0.00     0.074 A 
ATOM     16  C   UNL     1       5.179  -5.567   1.651  1.00  0.00     0.049 A 
ATOM     17  N   UNL     1       6.452  -6.758  -0.797  1.00  0.00    -0.248 NA
ATOM     18  C   UNL     1       5.611  -4.983  -2.057  1.00  0.00     0.031 C 
ATOM     19  C   UNL     1       4.571  -5.030   2.873  1.00  0.00     0.029 A 
ATOM     20  N   UNL     1       5.832  -6.695   2.076  1.00  0.00    -0.354 N 
ATOM     21  C   UNL     1       6.817  -6.930  -2.128  1.00  0.00     0.074 A 
ATOM     22  C   UNL     1       6.243  -5.825  -2.865  1.00  0.00     0.031 C 
ATOM     23  C   UNL     1       4.925  -5.796   3.914  1.00  0.00     0.029 A 
ATOM     24  C   UNL     1       5.719  -6.916   3.428  1.00  0.00     0.049 A 
ATOM     25  H   UNL     1       6.333  -7.289   1.471  1.00  0.00     0.167 HD
ATOM     26  C   UNL     1       7.563  -7.918  -2.680  1.00  0.00     0.031 A 
ATOM     27  C   UNL     1       6.182  -7.920   4.194  1.00  0.00     0.031 A 
ATOM     28  C   UNL     1       8.129  -9.015  -1.936  1.00  0.00     0.049 A 
ATOM     29  C   UNL     1       6.978  -9.017   3.551  1.00  0.00     0.074 A 
ATOM     30  C   UNL     1       8.923 -10.050  -2.401  1.00  0.00     0.029 A 
ATOM     31  N   UNL     1       7.958  -9.225  -0.576  1.00  0.00    -0.354 N 
ATOM     32  N   UNL     1       7.334  -9.144   2.296  1.00  0.00    -0.248 NA
ATOM     33  C   UNL     1       7.433 -10.103   4.426  1.00  0.00     0.031 C 
ATOM     34  C   UNL     1       9.187 -10.914  -1.332  1.00  0.00     0.029 A 
ATOM     35  C   UNL     1       8.608 -10.386  -0.189  1.00  0.00     0.049 A 
ATOM     36  H   UNL     1       7.449  -8.636   0.027  1.00  0.00     0.167 HD
ATOM     37  C   UNL     1       8.070 -10.321   2.232  1.00  0.00     0.074 A 
ATOM     38  C   UNL     1       8.125 -10.853   3.579  1.00  0.00     0.031 C 
ATOM     39  C   UNL     1       8.646 -10.908   1.154  1.00  0.00     0.031 A 
BRANCH  26  40
ATOM     40  C   UNL     1       7.790  -7.878  -4.170  1.00  0.00    -0.014 A 
ATOM     41  C   UNL     1       8.643  -6.926  -4.755  1.00  0.00     0.010 A 
ATOM     42  C   UNL     1       7.183  -8.846  -4.992  1.00  0.00     0.010 A 
ATOM     43  C   UNL     1       8.856  -6.919  -6.138  1.00  0.00     0.020 A 
ATOM     44  C   UNL     1       7.413  -8.859  -6.372  1.00  0.00     0.020 A 
ATOM     45  C   UNL     1       8.236  -7.884  -6.938  1.00  0.00     0.054 A 
BRANCH  45  46
ATOM     46  S   UNL     1       8.544  -7.863  -8.726  1.00  0.00     0.124 S 
ATOM     47  O   UNL     1       7.776  -6.694  -9.149  1.00  0.00    -0.237 OA
ATOM     48  O   UNL     1       9.996  -7.719  -8.800  1.00  0.00    -0.237 OA
ATOM     49  O   UNL     1       8.024  -9.149  -9.184  1.00  0.00    -0.744 OA
ENDBRANCH  45  46
ENDBRANCH  26  40
BRANCH  27  50
ATOM     50  C   UNL     1       5.879  -7.932   5.650  1.00  0.00    -0.014 A 
ATOM     51  C   UNL     1       6.893  -7.710   6.597  1.00  0.00     0.010 A 
ATOM     52  C   UNL     1       4.557  -8.128   6.094  1.00  0.00     0.010 A 
ATOM     53  C   UNL     1       6.593  -7.697   7.962  1.00  0.00     0.020 A 
ATOM     54  C   UNL     1       4.249  -8.084   7.455  1.00  0.00     0.020 A 
ATOM     55  C   UNL     1       5.272  -7.881   8.382  1.00  0.00     0.054 A 
BRANCH  55  56
ATOM     56  S   UNL     1       4.896  -7.802  10.154  1.00  0.00     0.124 S 
ATOM     57  O   UNL     1       5.409  -9.083  10.629  1.00  0.00    -0.237 OA
ATOM     58  O   UNL     1       5.641  -6.622  10.584  1.00  0.00    -0.237 OA
ATOM     59  O   UNL     1       3.442  -7.657  10.188  1.00  0.00    -0.744 OA
ENDBRANCH  55  56
ENDBRANCH  27  50
BRANCH  39  60
ATOM     60  C   UNL     1       9.408 -12.182   1.395  1.00  0.00    -0.014 A 
ATOM     61  C   UNL     1       8.740 -13.387   1.681  1.00  0.00     0.010 A 
ATOM     62  C   UNL     1      10.811 -12.180   1.299  1.00  0.00     0.010 A 
ATOM     63  C   UNL     1       9.466 -14.560   1.899  1.00  0.00     0.020 A 
ATOM     64  C   UNL     1      11.538 -13.357   1.489  1.00  0.00     0.020 A 
ATOM     65  C   UNL     1      10.861 -14.537   1.803  1.00  0.00     0.054 A 
BRANCH  65  66
ATOM     66  S   UNL     1      11.779 -16.081   2.053  1.00  0.00     0.124 S 
ATOM     67  O   UNL     1      11.695 -16.254   3.501  1.00  0.00    -0.237 OA
ATOM     68  O   UNL     1      11.015 -17.041   1.260  1.00  0.00    -0.237 OA
ATOM     69  O   UNL     1      13.112 -15.779   1.538  1.00  0.00    -0.744 OA
ENDBRANCH  65  66
ENDBRANCH  39  60
ENDBRANCH  13  14
ENDBRANCH   6   8
ENDBRANCH   3   4
ENDBRANCH   2   3
ENDBRANCH   1   2
BRANCH   1  70
ATOM     70  C   UNL     1       4.803   4.185  -1.080  1.00  0.00     0.116 C 
BRANCH  70  71
ATOM     71  N   UNL     1       6.234   4.332  -0.864  1.00  0.00    -0.351 N 
ATOM     72  C   UNL     1       6.987   5.475  -0.869  1.00  0.00     0.269 C 
ATOM     73  H   UNL     1       6.727   3.498  -0.690  1.00  0.00     0.163 HD
ATOM     74  O   UNL     1       8.218   5.376  -0.857  1.00  0.00    -0.268 OA
BRANCH  72  75
ATOM     75  C   UNL     1       6.329   6.743  -0.966  1.00  0.00     0.131 A 
ATOM     76  N   UNL     1       6.742   7.696  -1.856  1.00  0.00    -0.272 N 
ATOM     77  C   UNL     1       5.269   7.317  -0.271  1.00  0.00     0.057 A 
ATOM     78  N   UNL     1       5.923   8.756  -1.934  1.00  0.00    -0.183 NA
ATOM     79  H   UNL     1       7.565   7.612  -2.390  1.00  0.00     0.190 HD
ATOM     80  C   UNL     1       5.028   8.522  -0.974  1.00  0.00     0.145 A 
BRANCH  77  81
ATOM     81  C   UNL     1       4.511   6.759   0.889  1.00  0.00     0.303 C 
BRANCH  81  82
ATOM     82  N   UNL     1       4.644   7.516   2.131  1.00  0.00    -0.331 N 
ATOM     83  C   UNL     1       6.020   7.622   2.614  1.00  0.00     0.268 C 
ATOM     84  C   UNL     1       3.943   8.796   2.146  1.00  0.00     0.268 C 
ATOM     85  H   UNL     1       4.150   6.940   2.813  1.00  0.00     0.348 HD
ATOM     86  C   UNL     1       6.038   8.142   4.052  1.00  0.00     0.126 C 
ATOM     87  C   UNL     1       3.864   9.332   3.574  1.00  0.00     0.126 C 
ATOM     88  C   UNL     1       5.271   9.475   4.179  1.00  0.00     0.195 C 
BRANCH  88  89
ATOM     89  N   UNL     1       5.226  10.074   5.538  1.00  0.00    -0.331 N 
ATOM     90  C   UNL     1       4.567   9.232   6.549  1.00  0.00     0.262 C 
ATOM     91  C   UNL     1       6.581  10.445   5.982  1.00  0.00     0.275 C 
ATOM     92  H   UNL     1       4.647  10.909   5.454  1.00  0.00     0.348 HD
ATOM     93  C   UNL     1       4.498   9.943   7.905  1.00  0.00     0.062 C 
ATOM     94  C   UNL     1       6.591  11.174   7.336  1.00  0.00     0.134 C 
ATOM     95  C   UNL     1       5.887  10.337   8.399  1.00  0.00     0.025 C 
BRANCH  94  96
ATOM     96  C   UNL     1       8.065  11.402   7.643  1.00  0.00     0.231 C 
ATOM     97  O   UNL     1       8.816  10.461   7.905  1.00  0.00    -0.274 OA
ATOM     98  N   UNL     1       8.557  12.662   7.390  1.00  0.00    -0.342 N 
ATOM     99  C   UNL     1       7.909  13.938   7.616  1.00  0.00     0.119 C 
ATOM    100  C   UNL     1       9.920  12.841   6.927  1.00  0.00     0.119 C 
ATOM    101  C   UNL     1       8.633  14.870   6.665  1.00  0.00     0.023 C 
ATOM    102  C   UNL     1      10.064  14.338   6.673  1.00  0.00     0.023 C 
ENDBRANCH  94  96
ENDBRANCH  88  89
ENDBRANCH  81  82
ENDBRANCH  77  81
ENDBRANCH  72  75
ENDBRANCH  70  71
ENDBRANCH   1  70
TORSDOF 18
