REMARK SMILES O=C(NCCCCNC(=O)[C@H](Cc1ccc(O)cc1)NC(=O)c1ccc(Cl)s1)c1ccc(-c2c3nc(c(-c4ccc(S(=O)(=O)[O-])cc4)c4ccc([nH]4)c(-c4ccc(S(=O)(=O)[O-])cc4)c4nc(c(-c5ccc(S(=O)(=O)[O-])cc5)c5ccc2[nH]5)C=C4)C=C3)cc1
REMARK SMILES IDX 5 1 4 2 3 3 1 4 2 5 29 7 30 8 88 9 31 10 87 11 32 12 33 13
REMARK SMILES IDX 34 14 81 15 35 16 86 17 80 18 82 19 36 20 85 21 79 22 78 23
REMARK SMILES IDX 37 25 67 26 48 27 66 28 49 29 52 30 65 31 83 32 50 33 51 34
REMARK SMILES IDX 64 36 84 37 53 38 38 39 39 40 47 41 40 42 46 43 41 44 42 45
REMARK SMILES IDX 43 46 44 47 45 48 68 49 69 50 77 51 70 52 76 53 71 54 72 55
REMARK SMILES IDX 73 56 74 57 75 58 54 59 55 60 63 61 56 62 62 63 57 64 58 65
REMARK SMILES IDX 59 66 60 67 61 68 6 69 7 70 8 71 9 72 10 74 11 75 20 76
REMARK SMILES IDX 21 77 22 79 23 80 24 81 28 82 25 83 26 84 27 85 12 86 13 87
REMARK SMILES IDX 14 88 19 89 15 90 18 91 16 92 17 93
REMARK H PARENT 3 6 82 24 52 35 8 73 20 78 17 94
REMARK Flexibility Score: inf
ROOT
ATOM      1  C   UNL     1       7.380   9.393  -0.979  1.00  0.00     0.023 C 
ENDROOT
BRANCH   1   2
ATOM      2  C   UNL     1       7.157  10.891  -0.837  1.00  0.00     0.116 C 
BRANCH   2   3
ATOM      3  N   UNL     1       8.268  11.606  -0.222  1.00  0.00    -0.352 N 
ATOM      4  O   UNL     1       9.670  13.366   0.048  1.00  0.00    -0.269 OA
ATOM      5  C   UNL     1       8.676  12.897  -0.486  1.00  0.00     0.251 C 
ATOM      6  H   UNL     1       8.783  11.114   0.457  1.00  0.00     0.163 HD
BRANCH   5   7
ATOM      7  C   UNL     1       7.896  13.677  -1.468  1.00  0.00     0.039 A 
ATOM      8  C   UNL     1       6.509  13.755  -1.337  1.00  0.00     0.014 A 
ATOM      9  C   UNL     1       8.543  14.227  -2.576  1.00  0.00     0.014 A 
ATOM     10  C   UNL     1       5.753  14.241  -2.391  1.00  0.00     0.010 A 
ATOM     11  C   UNL     1       7.782  14.811  -3.592  1.00  0.00     0.010 A 
ATOM     12  C   UNL     1       6.381  14.796  -3.519  1.00  0.00    -0.014 A 
BRANCH  12  13
ATOM     13  C   UNL     1       5.538  15.446  -4.551  1.00  0.00     0.031 A 
ATOM     14  C   UNL     1       5.459  14.919  -5.956  1.00  0.00     0.074 A 
ATOM     15  C   UNL     1       4.810  16.516  -4.175  1.00  0.00     0.049 A 
ATOM     16  N   UNL     1       4.755  15.376  -6.959  1.00  0.00    -0.248 NA
ATOM     17  C   UNL     1       6.272  13.737  -6.286  1.00  0.00     0.031 C 
ATOM     18  C   UNL     1       4.824  17.114  -2.835  1.00  0.00     0.029 A 
ATOM     19  N   UNL     1       3.902  17.274  -4.864  1.00  0.00    -0.354 N 
ATOM     20  C   UNL     1       5.059  14.564  -8.045  1.00  0.00     0.074 A 
ATOM     21  C   UNL     1       6.016  13.582  -7.580  1.00  0.00     0.031 C 
ATOM     22  C   UNL     1       3.926  18.107  -2.785  1.00  0.00     0.029 A 
ATOM     23  C   UNL     1       3.333  18.268  -4.105  1.00  0.00     0.049 A 
ATOM     24  H   UNL     1       3.679  17.122  -5.811  1.00  0.00     0.167 HD
ATOM     25  C   UNL     1       4.584  14.640  -9.312  1.00  0.00     0.031 A 
ATOM     26  C   UNL     1       2.452  19.228  -4.437  1.00  0.00     0.031 A 
ATOM     27  C   UNL     1       3.620  15.615  -9.754  1.00  0.00     0.049 A 
ATOM     28  C   UNL     1       1.956  19.290  -5.849  1.00  0.00     0.074 A 
ATOM     29  C   UNL     1       3.043  15.745 -11.006  1.00  0.00     0.029 A 
ATOM     30  N   UNL     1       3.093  16.627  -8.965  1.00  0.00    -0.354 N 
ATOM     31  N   UNL     1       2.235  18.492  -6.851  1.00  0.00    -0.248 NA
ATOM     32  C   UNL     1       1.037  20.386  -6.178  1.00  0.00     0.031 C 
ATOM     33  C   UNL     1       2.205  16.865 -10.987  1.00  0.00     0.029 A 
ATOM     34  C   UNL     1       2.222  17.403  -9.711  1.00  0.00     0.049 A 
ATOM     35  H   UNL     1       3.308  16.771  -8.015  1.00  0.00     0.167 HD
ATOM     36  C   UNL     1       1.526  18.991  -7.935  1.00  0.00     0.074 A 
ATOM     37  C   UNL     1       0.780  20.138  -7.456  1.00  0.00     0.031 C 
ATOM     38  C   UNL     1       1.503  18.548  -9.215  1.00  0.00     0.031 A 
BRANCH  25  39
ATOM     39  C   UNL     1       5.112  13.666 -10.332  1.00  0.00    -0.014 A 
ATOM     40  C   UNL     1       4.677  12.330 -10.359  1.00  0.00     0.010 A 
ATOM     41  C   UNL     1       5.977  14.125 -11.344  1.00  0.00     0.010 A 
ATOM     42  C   UNL     1       5.106  11.468 -11.374  1.00  0.00     0.020 A 
ATOM     43  C   UNL     1       6.394  13.271 -12.369  1.00  0.00     0.020 A 
ATOM     44  C   UNL     1       5.960  11.944 -12.374  1.00  0.00     0.054 A 
BRANCH  44  45
ATOM     45  S   UNL     1       6.452  10.821 -13.712  1.00  0.00     0.124 S 
ATOM     46  O   UNL     1       7.408   9.948 -13.035  1.00  0.00    -0.237 OA
ATOM     47  O   UNL     1       5.187  10.194 -14.086  1.00  0.00    -0.237 OA
ATOM     48  O   UNL     1       7.025  11.710 -14.720  1.00  0.00    -0.744 OA
ENDBRANCH  44  45
ENDBRANCH  25  39
BRANCH  26  49
ATOM     49  C   UNL     1       2.037  20.231  -3.423  1.00  0.00    -0.014 A 
ATOM     50  C   UNL     1       0.728  20.241  -2.913  1.00  0.00     0.010 A 
ATOM     51  C   UNL     1       2.969  21.171  -2.943  1.00  0.00     0.010 A 
ATOM     52  C   UNL     1       0.354  21.187  -1.954  1.00  0.00     0.020 A 
ATOM     53  C   UNL     1       2.607  22.096  -1.964  1.00  0.00     0.020 A 
ATOM     54  C   UNL     1       1.295  22.109  -1.487  1.00  0.00     0.054 A 
BRANCH  54  55
ATOM     55  S   UNL     1       0.807  23.302  -0.211  1.00  0.00     0.124 S 
ATOM     56  O   UNL     1       0.101  24.309  -0.996  1.00  0.00    -0.237 OA
ATOM     57  O   UNL     1      -0.024  22.495   0.679  1.00  0.00    -0.237 OA
ATOM     58  O   UNL     1       2.083  23.729   0.359  1.00  0.00    -0.744 OA
ENDBRANCH  54  55
ENDBRANCH  26  49
BRANCH  38  59
ATOM     59  C   UNL     1       0.636  19.309 -10.177  1.00  0.00    -0.014 A 
ATOM     60  C   UNL     1       1.030  20.572 -10.655  1.00  0.00     0.010 A 
ATOM     61  C   UNL     1      -0.573  18.747 -10.622  1.00  0.00     0.010 A 
ATOM     62  C   UNL     1       0.210  21.277 -11.537  1.00  0.00     0.020 A 
ATOM     63  C   UNL     1      -1.384  19.439 -11.524  1.00  0.00     0.020 A 
ATOM     64  C   UNL     1      -0.995  20.707 -11.962  1.00  0.00     0.054 A 
BRANCH  64  65
ATOM     65  S   UNL     1      -2.032  21.628 -13.130  1.00  0.00     0.124 S 
ATOM     66  O   UNL     1      -2.655  22.623 -12.261  1.00  0.00    -0.237 OA
ATOM     67  O   UNL     1      -1.058  22.149 -14.086  1.00  0.00    -0.237 OA
ATOM     68  O   UNL     1      -2.936  20.612 -13.663  1.00  0.00    -0.744 OA
ENDBRANCH  64  65
ENDBRANCH  38  59
ENDBRANCH  12  13
ENDBRANCH   5   7
ENDBRANCH   2   3
ENDBRANCH   1   2
BRANCH   1  69
ATOM     69  C   UNL     1       7.639   8.671   0.336  1.00  0.00     0.023 C 
BRANCH  69  70
ATOM     70  C   UNL     1       6.476   8.716   1.327  1.00  0.00     0.116 C 
BRANCH  70  71
ATOM     71  N   UNL     1       5.572   7.596   1.144  1.00  0.00    -0.354 N 
ATOM     72  C   UNL     1       5.534   6.388   1.781  1.00  0.00     0.242 C 
ATOM     73  H   UNL     1       4.881   7.726   0.455  1.00  0.00     0.163 HD
ATOM     74  O   UNL     1       4.664   5.578   1.450  1.00  0.00    -0.273 OA
BRANCH  72  75
ATOM     75  C   UNL     1       6.527   6.064   2.912  1.00  0.00     0.176 C 
BRANCH  75  76
ATOM     76  N   UNL     1       5.708   5.626   4.051  1.00  0.00    -0.339 N 
ATOM     77  C   UNL     1       5.731   6.077   5.348  1.00  0.00     0.262 C 
ATOM     78  H   UNL     1       5.055   4.915   3.859  1.00  0.00     0.164 HD
ATOM     79  O   UNL     1       5.011   5.530   6.180  1.00  0.00    -0.268 OA
BRANCH  77  80
ATOM     80  C   UNL     1       6.609   7.184   5.655  1.00  0.00     0.093 A 
ATOM     81  C   UNL     1       6.515   8.505   5.252  1.00  0.00     0.027 A 
ATOM     82  S   UNL     1       7.984   6.916   6.638  1.00  0.00    -0.118 S 
ATOM     83  C   UNL     1       7.631   9.279   5.689  1.00  0.00     0.033 A 
ATOM     84  C   UNL     1       8.486   8.521   6.447  1.00  0.00     0.094 A 
ATOM     85  Cl  UNL     1       9.947   9.049   7.177  1.00  0.00    -0.072 Cl
ENDBRANCH  77  80
ENDBRANCH  75  76
BRANCH  75  86
ATOM     86  C   UNL     1       7.514   4.961   2.466  1.00  0.00     0.070 C 
BRANCH  86  87
ATOM     87  C   UNL     1       8.998   5.298   2.506  1.00  0.00    -0.045 A 
ATOM     88  C   UNL     1       9.934   4.255   2.597  1.00  0.00     0.007 A 
ATOM     89  C   UNL     1       9.494   6.599   2.359  1.00  0.00     0.007 A 
ATOM     90  C   UNL     1      11.311   4.511   2.544  1.00  0.00     0.046 A 
ATOM     91  C   UNL     1      10.862   6.860   2.284  1.00  0.00     0.046 A 
ATOM     92  C   UNL     1      11.762   5.815   2.378  1.00  0.00     0.115 A 
BRANCH  92  93
ATOM     93  O   UNL     1      13.087   6.117   2.299  1.00  0.00    -0.508 OA
ATOM     94  H   UNL     1      13.727   5.435   2.359  1.00  0.00     0.293 HD
ENDBRANCH  92  93
ENDBRANCH  86  87
ENDBRANCH  75  86
ENDBRANCH  72  75
ENDBRANCH  70  71
ENDBRANCH  69  70
ENDBRANCH   1  69
TORSDOF 19
