REMARK SMILES O=C(NCCCCNC(=O)c1ccc(S(=O)(=O)NCc2ccn[nH]2)c(F)c1)c1ccc(-c2c3nc(c(-c4ccc(S(=O)(=O)[O-])cc4)c4ccc([nH]4)c(-c4ccc(S(=O)(=O)[O-])cc4)c4nc(c(-c5ccc(S(=O)(=O)[O-])cc5)c5ccc2[nH]5)C=C4)C=C3)cc1
REMARK SMILES IDX 6 1 5 2 4 3 3 4 1 5 2 6 28 8 29 9 87 10 30 11 86 12 31 13
REMARK SMILES IDX 32 14 33 15 80 16 34 17 85 18 79 19 81 20 35 21 84 22 78 23
REMARK SMILES IDX 77 24 36 26 66 27 47 28 65 29 48 30 51 31 64 32 82 33 49 34
REMARK SMILES IDX 50 35 63 37 83 38 52 39 37 40 38 41 46 42 39 43 45 44 40 45
REMARK SMILES IDX 41 46 42 47 43 48 44 49 67 50 68 51 76 52 69 53 75 54 70 55
REMARK SMILES IDX 71 56 72 57 73 58 74 59 53 60 54 61 62 62 55 63 61 64 56 65
REMARK SMILES IDX 57 66 58 67 59 68 60 69 7 70 8 71 9 72 10 74 11 75 12 76
REMARK SMILES IDX 27 77 13 78 25 79 14 80 26 81 15 82 16 83 17 84 18 85 19 87
REMARK SMILES IDX 20 88 21 89 24 90 22 91 23 92
REMARK H PARENT 3 7 81 25 51 36 8 73 18 86 24 93
REMARK Flexibility Score: inf
ROOT
ATOM      1  C   UNL     1       4.570   0.161   3.884  1.00  0.00     0.023 C 
ENDROOT
BRANCH   1   2
ATOM      2  C   UNL     1       5.054   0.674   2.529  1.00  0.00     0.023 C 
BRANCH   2   3
ATOM      3  C   UNL     1       4.704  -0.202   1.332  1.00  0.00     0.116 C 
BRANCH   3   4
ATOM      4  N   UNL     1       3.270  -0.359   1.146  1.00  0.00    -0.352 N 
ATOM      5  O   UNL     1       1.271  -0.126   0.138  1.00  0.00    -0.269 OA
ATOM      6  C   UNL     1       2.494  -0.058   0.052  1.00  0.00     0.251 C 
ATOM      7  H   UNL     1       2.785  -0.736   1.915  1.00  0.00     0.163 HD
BRANCH   6   8
ATOM      8  C   UNL     1       3.128   0.372  -1.213  1.00  0.00     0.039 A 
ATOM      9  C   UNL     1       4.232  -0.310  -1.731  1.00  0.00     0.014 A 
ATOM     10  C   UNL     1       2.600   1.471  -1.896  1.00  0.00     0.014 A 
ATOM     11  C   UNL     1       4.890   0.186  -2.853  1.00  0.00     0.010 A 
ATOM     12  C   UNL     1       3.216   1.922  -3.066  1.00  0.00     0.010 A 
ATOM     13  C   UNL     1       4.384   1.302  -3.537  1.00  0.00    -0.014 A 
BRANCH  13  14
ATOM     14  C   UNL     1       5.048   1.768  -4.780  1.00  0.00     0.031 A 
ATOM     15  C   UNL     1       5.705   3.118  -4.851  1.00  0.00     0.074 A 
ATOM     16  C   UNL     1       5.045   0.961  -5.858  1.00  0.00     0.049 A 
ATOM     17  N   UNL     1       6.310   3.685  -5.864  1.00  0.00    -0.248 NA
ATOM     18  C   UNL     1       5.673   3.942  -3.634  1.00  0.00     0.031 C 
ATOM     19  C   UNL     1       4.425  -0.365  -5.914  1.00  0.00     0.029 A 
ATOM     20  N   UNL     1       5.575   1.135  -7.111  1.00  0.00    -0.354 N 
ATOM     21  C   UNL     1       6.709   4.939  -5.418  1.00  0.00     0.074 A 
ATOM     22  C   UNL     1       6.260   5.058  -4.047  1.00  0.00     0.031 C 
ATOM     23  C   UNL     1       4.625  -0.892  -7.131  1.00  0.00     0.029 A 
ATOM     24  C   UNL     1       5.335   0.079  -7.957  1.00  0.00     0.049 A 
ATOM     25  H   UNL     1       6.077   1.938  -7.378  1.00  0.00     0.167 HD
ATOM     26  C   UNL     1       7.385   5.903  -6.090  1.00  0.00     0.031 A 
ATOM     27  C   UNL     1       5.625  -0.087  -9.261  1.00  0.00     0.031 A 
ATOM     28  C   UNL     1       7.823   5.779  -7.457  1.00  0.00     0.049 A 
ATOM     29  C   UNL     1       6.358   0.998  -9.991  1.00  0.00     0.074 A 
ATOM     30  C   UNL     1       8.555   6.680  -8.210  1.00  0.00     0.029 A 
ATOM     31  N   UNL     1       7.557   4.694  -8.280  1.00  0.00    -0.354 N 
ATOM     32  N   UNL     1       6.775   2.155  -9.535  1.00  0.00    -0.248 NA
ATOM     33  C   UNL     1       6.665   0.757 -11.406  1.00  0.00     0.031 C 
ATOM     34  C   UNL     1       8.688   6.162  -9.504  1.00  0.00     0.029 A 
ATOM     35  C   UNL     1       8.084   4.915  -9.541  1.00  0.00     0.049 A 
ATOM     36  H   UNL     1       7.066   3.886  -8.007  1.00  0.00     0.167 HD
ATOM     37  C   UNL     1       7.403   2.779 -10.605  1.00  0.00     0.074 A 
ATOM     38  C   UNL     1       7.325   1.863 -11.727  1.00  0.00     0.031 C 
ATOM     39  C   UNL     1       7.991   3.999 -10.652  1.00  0.00     0.031 A 
BRANCH  26  40
ATOM     40  C   UNL     1       7.657   7.194  -5.364  1.00  0.00    -0.014 A 
ATOM     41  C   UNL     1       8.598   7.264  -4.321  1.00  0.00     0.010 A 
ATOM     42  C   UNL     1       6.969   8.362  -5.742  1.00  0.00     0.010 A 
ATOM     43  C   UNL     1       8.804   8.463  -3.632  1.00  0.00     0.020 A 
ATOM     44  C   UNL     1       7.190   9.569  -5.073  1.00  0.00     0.020 A 
ATOM     45  C   UNL     1       8.089   9.606  -4.005  1.00  0.00     0.054 A 
BRANCH  45  46
ATOM     46  S   UNL     1       8.359  11.145  -3.083  1.00  0.00     0.124 S 
ATOM     47  O   UNL     1       7.628  10.883  -1.845  1.00  0.00    -0.237 OA
ATOM     48  O   UNL     1       9.813  11.194  -2.954  1.00  0.00    -0.237 OA
ATOM     49  O   UNL     1       7.778  12.172  -3.944  1.00  0.00    -0.744 OA
ENDBRANCH  45  46
ENDBRANCH  26  40
BRANCH  27  50
ATOM     50  C   UNL     1       5.188  -1.333  -9.942  1.00  0.00    -0.014 A 
ATOM     51  C   UNL     1       6.115  -2.339 -10.263  1.00  0.00     0.010 A 
ATOM     52  C   UNL     1       3.820  -1.554 -10.190  1.00  0.00     0.010 A 
ATOM     53  C   UNL     1       5.679  -3.549 -10.812  1.00  0.00     0.020 A 
ATOM     54  C   UNL     1       3.379  -2.770 -10.714  1.00  0.00     0.020 A 
ATOM     55  C   UNL     1       4.312  -3.760 -11.024  1.00  0.00     0.054 A 
BRANCH  55  56
ATOM     56  S   UNL     1       3.760  -5.376 -11.638  1.00  0.00     0.124 S 
ATOM     57  O   UNL     1       4.109  -5.299 -13.052  1.00  0.00    -0.237 OA
ATOM     58  O   UNL     1       4.554  -6.306 -10.839  1.00  0.00    -0.237 OA
ATOM     59  O   UNL     1       2.329  -5.381 -11.343  1.00  0.00    -0.744 OA
ENDBRANCH  55  56
ENDBRANCH  27  50
BRANCH  39  60
ATOM     60  C   UNL     1       8.614   4.417 -11.955  1.00  0.00    -0.014 A 
ATOM     61  C   UNL     1       7.820   4.829 -13.039  1.00  0.00     0.010 A 
ATOM     62  C   UNL     1      10.015   4.463 -12.071  1.00  0.00     0.010 A 
ATOM     63  C   UNL     1       8.417   5.267 -14.224  1.00  0.00     0.020 A 
ATOM     64  C   UNL     1      10.615   4.922 -13.246  1.00  0.00     0.020 A 
ATOM     65  C   UNL     1       9.812   5.313 -14.319  1.00  0.00     0.054 A 
BRANCH  65  66
ATOM     66  S   UNL     1      10.564   5.948 -15.843  1.00  0.00     0.124 S 
ATOM     67  O   UNL     1      10.374   4.831 -16.764  1.00  0.00    -0.237 OA
ATOM     68  O   UNL     1       9.764   7.138 -16.125  1.00  0.00    -0.237 OA
ATOM     69  O   UNL     1      11.949   6.213 -15.460  1.00  0.00    -0.744 OA
ENDBRANCH  65  66
ENDBRANCH  39  60
ENDBRANCH  13  14
ENDBRANCH   6   8
ENDBRANCH   3   4
ENDBRANCH   2   3
ENDBRANCH   1   2
BRANCH   1  70
ATOM     70  C   UNL     1       4.953  -1.277   4.223  1.00  0.00     0.116 C 
BRANCH  70  71
ATOM     71  N   UNL     1       6.391  -1.495   4.253  1.00  0.00    -0.352 N 
ATOM     72  C   UNL     1       7.178  -2.064   5.222  1.00  0.00     0.251 C 
ATOM     73  H   UNL     1       6.875  -1.185   3.453  1.00  0.00     0.163 HD
ATOM     74  O   UNL     1       8.400  -2.048   5.116  1.00  0.00    -0.269 OA
BRANCH  72  75
ATOM     75  C   UNL     1       6.572  -2.669   6.428  1.00  0.00     0.042 A 
ATOM     76  C   UNL     1       5.471  -3.530   6.346  1.00  0.00     0.015 A 
ATOM     77  C   UNL     1       7.146  -2.387   7.672  1.00  0.00     0.054 A 
ATOM     78  C   UNL     1       4.863  -3.991   7.513  1.00  0.00     0.026 A 
ATOM     79  C   UNL     1       6.566  -2.896   8.831  1.00  0.00     0.144 A 
ATOM     80  C   UNL     1       5.401  -3.647   8.761  1.00  0.00     0.118 A 
ATOM     81  F   UNL     1       7.139  -2.609  10.008  1.00  0.00    -0.205 F 
BRANCH  80  82
ATOM     82  S   UNL     1       4.544  -4.164  10.207  1.00  0.00     0.243 S 
ATOM     83  O   UNL     1       3.127  -4.069   9.924  1.00  0.00    -0.207 OA
ATOM     84  O   UNL     1       5.135  -5.414  10.627  1.00  0.00    -0.207 OA
BRANCH  82  85
ATOM     85  N   UNL     1       4.836  -3.074  11.441  1.00  0.00    -0.205 NA
ATOM     86  H   UNL     1       5.800  -3.235  11.735  1.00  0.00     0.141 HD
BRANCH  85  87
ATOM     87  C   UNL     1       4.703  -1.633  11.279  1.00  0.00     0.154 C 
BRANCH  87  88
ATOM     88  C   UNL     1       3.325  -1.123  11.433  1.00  0.00     0.050 A 
ATOM     89  C   UNL     1       2.871   0.178  11.526  1.00  0.00     0.046 A 
ATOM     90  N   UNL     1       2.198  -1.901  11.447  1.00  0.00    -0.281 N 
ATOM     91  C   UNL     1       1.473   0.074  11.602  1.00  0.00     0.135 A 
ATOM     92  N   UNL     1       1.059  -1.193  11.575  1.00  0.00    -0.184 NA
ATOM     93  H   UNL     1       2.218  -2.882  11.372  1.00  0.00     0.190 HD
ENDBRANCH  87  88
ENDBRANCH  85  87
ENDBRANCH  82  85
ENDBRANCH  80  82
ENDBRANCH  72  75
ENDBRANCH  70  71
ENDBRANCH   1  70
TORSDOF 18
