REMARK SMILES O=C(NCCCCNC(=O)[C@@H]1CC(=O)N(c2ccc(Cl)cc2C(=O)c2ccccc2)C1)c1ccc(-c2c3nc(c(-c4ccc(S(=O)(=O)[O-])cc4)c4ccc([nH]4)c(-c4ccc(S(=O)(=O)[O-])cc4)c4nc(c(-c5ccc(S(=O)(=O)[O-])cc5)c5ccc2[nH]5)C=C4)C=C3)cc1
REMARK SMILES IDX 5 1 4 2 3 3 1 4 2 5 32 7 33 8 91 9 34 10 90 11 35 12 36 13
REMARK SMILES IDX 37 14 84 15 38 16 89 17 83 18 85 19 39 20 88 21 82 22 81 23
REMARK SMILES IDX 40 25 70 26 51 27 69 28 52 29 55 30 68 31 86 32 53 33 54 34
REMARK SMILES IDX 67 36 87 37 56 38 41 39 42 40 50 41 43 42 49 43 44 44 45 45
REMARK SMILES IDX 46 46 47 47 48 48 71 49 72 50 80 51 73 52 79 53 74 54 75 55
REMARK SMILES IDX 76 56 77 57 78 58 57 59 58 60 66 61 59 62 65 63 60 64 61 65
REMARK SMILES IDX 62 66 63 67 64 68 6 69 7 70 8 71 9 72 10 74 11 75 12 76
REMARK SMILES IDX 31 77 13 78 15 79 14 80 16 81 17 82 22 83 18 84 21 85 19 86
REMARK SMILES IDX 20 87 23 88 24 89 25 90 26 91 30 92 27 93 29 94 28 95
REMARK H PARENT 3 6 85 24 55 35 8 73
REMARK Flexibility Score: inf
ROOT
ATOM      1  C   UNL     1       4.991  -2.508  -0.325  1.00  0.00     0.023 C 
ENDROOT
BRANCH   1   2
ATOM      2  C   UNL     1       4.622  -1.063  -0.629  1.00  0.00     0.116 C 
BRANCH   2   3
ATOM      3  N   UNL     1       3.187  -0.813  -0.655  1.00  0.00    -0.352 N 
ATOM      4  O   UNL     1       1.224   0.158  -0.136  1.00  0.00    -0.269 OA
ATOM      5  C   UNL     1       2.448   0.169  -0.036  1.00  0.00     0.251 C 
ATOM      6  H   UNL     1       2.665  -1.445  -1.199  1.00  0.00     0.163 HD
BRANCH   5   7
ATOM      7  C   UNL     1       3.120   1.203   0.780  1.00  0.00     0.039 A 
ATOM      8  C   UNL     1       4.293   1.815   0.338  1.00  0.00     0.014 A 
ATOM      9  C   UNL     1       2.581   1.541   2.025  1.00  0.00     0.014 A 
ATOM     10  C   UNL     1       5.026   2.607   1.213  1.00  0.00     0.010 A 
ATOM     11  C   UNL     1       3.270   2.422   2.865  1.00  0.00     0.010 A 
ATOM     12  C   UNL     1       4.527   2.919   2.488  1.00  0.00    -0.014 A 
BRANCH  12  13
ATOM     13  C   UNL     1       5.337   3.777   3.393  1.00  0.00     0.031 A 
ATOM     14  C   UNL     1       5.864   3.248   4.702  1.00  0.00     0.074 A 
ATOM     15  C   UNL     1       5.644   5.029   2.999  1.00  0.00     0.049 A 
ATOM     16  N   UNL     1       6.641   3.841   5.574  1.00  0.00    -0.248 NA
ATOM     17  C   UNL     1       5.466   1.885   5.089  1.00  0.00     0.031 C 
ATOM     18  C   UNL     1       5.191   5.656   1.754  1.00  0.00     0.029 A 
ATOM     19  N   UNL     1       6.435   5.985   3.582  1.00  0.00    -0.354 N 
ATOM     20  C   UNL     1       6.799   2.941   6.623  1.00  0.00     0.074 A 
ATOM     21  C   UNL     1       6.021   1.767   6.288  1.00  0.00     0.031 C 
ATOM     22  C   UNL     1       5.763   6.862   1.635  1.00  0.00     0.029 A 
ATOM     23  C   UNL     1       6.570   7.123   2.821  1.00  0.00     0.049 A 
ATOM     24  H   UNL     1       6.865   5.869   4.460  1.00  0.00     0.167 HD
ATOM     25  C   UNL     1       7.528   3.077   7.758  1.00  0.00     0.031 A 
ATOM     26  C   UNL     1       7.261   8.255   3.050  1.00  0.00     0.031 A 
ATOM     27  C   UNL     1       8.311   4.242   8.081  1.00  0.00     0.049 A 
ATOM     28  C   UNL     1       8.055   8.381   4.317  1.00  0.00     0.074 A 
ATOM     29  C   UNL     1       9.112   4.459   9.190  1.00  0.00     0.029 A 
ATOM     30  N   UNL     1       8.392   5.385   7.301  1.00  0.00    -0.354 N 
ATOM     31  N   UNL     1       8.214   7.505   5.280  1.00  0.00    -0.248 NA
ATOM     32  C   UNL     1       8.768   9.648   4.525  1.00  0.00     0.031 C 
ATOM     33  C   UNL     1       9.638   5.753   9.103  1.00  0.00     0.029 A 
ATOM     34  C   UNL     1       9.212   6.319   7.912  1.00  0.00     0.049 A 
ATOM     35  H   UNL     1       7.934   5.514   6.439  1.00  0.00     0.167 HD
ATOM     36  C   UNL     1       9.067   8.105   6.198  1.00  0.00     0.074 A 
ATOM     37  C   UNL     1       9.402   9.411   5.666  1.00  0.00     0.031 C 
ATOM     38  C   UNL     1       9.534   7.616   7.373  1.00  0.00     0.031 A 
BRANCH  25  39
ATOM     39  C   UNL     1       7.487   1.948   8.756  1.00  0.00    -0.014 A 
ATOM     40  C   UNL     1       8.126   0.720   8.506  1.00  0.00     0.010 A 
ATOM     41  C   UNL     1       6.830   2.135   9.987  1.00  0.00     0.010 A 
ATOM     42  C   UNL     1       8.073  -0.312   9.448  1.00  0.00     0.020 A 
ATOM     43  C   UNL     1       6.797   1.115  10.943  1.00  0.00     0.020 A 
ATOM     44  C   UNL     1       7.403  -0.110  10.659  1.00  0.00     0.054 A 
BRANCH  44  45
ATOM     45  S   UNL     1       7.357  -1.461  11.868  1.00  0.00     0.124 S 
ATOM     46  O   UNL     1       6.396  -2.377  11.258  1.00  0.00    -0.237 OA
ATOM     47  O   UNL     1       8.742  -1.925  11.884  1.00  0.00    -0.237 OA
ATOM     48  O   UNL     1       6.906  -0.812  13.097  1.00  0.00    -0.744 OA
ENDBRANCH  44  45
ENDBRANCH  25  39
BRANCH  26  49
ATOM     49  C   UNL     1       7.231   9.352   2.047  1.00  0.00    -0.014 A 
ATOM     50  C   UNL     1       8.374   9.659   1.288  1.00  0.00     0.010 A 
ATOM     51  C   UNL     1       6.046  10.078   1.825  1.00  0.00     0.010 A 
ATOM     52  C   UNL     1       8.336  10.682   0.336  1.00  0.00     0.020 A 
ATOM     53  C   UNL     1       5.996  11.080   0.854  1.00  0.00     0.020 A 
ATOM     54  C   UNL     1       7.146  11.384   0.123  1.00  0.00     0.054 A 
BRANCH  54  55
ATOM     55  S   UNL     1       7.103  12.668  -1.157  1.00  0.00     0.124 S 
ATOM     56  O   UNL     1       7.830  13.759  -0.515  1.00  0.00    -0.237 OA
ATOM     57  O   UNL     1       7.786  12.023  -2.276  1.00  0.00    -0.237 OA
ATOM     58  O   UNL     1       5.675  12.900  -1.359  1.00  0.00    -0.744 OA
ENDBRANCH  54  55
ENDBRANCH  26  49
BRANCH  38  59
ATOM     59  C   UNL     1      10.494   8.484   8.142  1.00  0.00    -0.014 A 
ATOM     60  C   UNL     1      10.062   9.647   8.803  1.00  0.00     0.010 A 
ATOM     61  C   UNL     1      11.848   8.111   8.222  1.00  0.00     0.010 A 
ATOM     62  C   UNL     1      10.978  10.447   9.493  1.00  0.00     0.020 A 
ATOM     63  C   UNL     1      12.760   8.892   8.934  1.00  0.00     0.020 A 
ATOM     64  C   UNL     1      12.322  10.067   9.549  1.00  0.00     0.054 A 
BRANCH  64  65
ATOM     65  S   UNL     1      13.490  11.108  10.466  1.00  0.00     0.124 S 
ATOM     66  O   UNL     1      13.679  12.229   9.550  1.00  0.00    -0.237 OA
ATOM     67  O   UNL     1      12.754  11.415  11.691  1.00  0.00    -0.237 OA
ATOM     68  O   UNL     1      14.655  10.246  10.646  1.00  0.00    -0.744 OA
ENDBRANCH  64  65
ENDBRANCH  38  59
ENDBRANCH  12  13
ENDBRANCH   5   7
ENDBRANCH   2   3
ENDBRANCH   1   2
BRANCH   1  69
ATOM     69  C   UNL     1       4.293  -3.572  -1.167  1.00  0.00     0.023 C 
BRANCH  69  70
ATOM     70  C   UNL     1       4.359  -3.381  -2.684  1.00  0.00     0.116 C 
BRANCH  70  71
ATOM     71  N   UNL     1       5.682  -3.588  -3.236  1.00  0.00    -0.356 N 
ATOM     72  C   UNL     1       6.162  -4.561  -4.051  1.00  0.00     0.225 C 
ATOM     73  H   UNL     1       6.345  -2.908  -2.977  1.00  0.00     0.163 HD
ATOM     74  O   UNL     1       7.110  -4.245  -4.776  1.00  0.00    -0.275 OA
BRANCH  72  75
ATOM     75  C   UNL     1       5.528  -5.936  -4.214  1.00  0.00     0.107 C 
ATOM     76  C   UNL     1       4.738  -6.539  -3.069  1.00  0.00     0.116 C 
ATOM     77  C   UNL     1       6.618  -6.997  -4.459  1.00  0.00     0.139 C 
ATOM     78  C   UNL     1       5.737  -7.362  -2.318  1.00  0.00     0.227 C 
ATOM     79  N   UNL     1       6.811  -7.627  -3.168  1.00  0.00    -0.311 N 
ATOM     80  O   UNL     1       5.554  -7.792  -1.188  1.00  0.00    -0.274 OA
BRANCH  79  81
ATOM     81  C   UNL     1       7.625  -8.773  -2.985  1.00  0.00     0.055 A 
ATOM     82  C   UNL     1       6.944  -9.975  -2.679  1.00  0.00     0.028 A 
ATOM     83  C   UNL     1       9.026  -8.812  -3.106  1.00  0.00     0.048 A 
ATOM     84  C   UNL     1       7.615 -11.183  -2.499  1.00  0.00     0.023 A 
ATOM     85  C   UNL     1       9.694 -10.043  -2.894  1.00  0.00     0.035 A 
ATOM     86  C   UNL     1       8.994 -11.210  -2.598  1.00  0.00     0.041 A 
ATOM     87  Cl  UNL     1       9.837 -12.691  -2.368  1.00  0.00    -0.084 Cl
BRANCH  83  88
ATOM     88  C   UNL     1       9.934  -7.694  -3.473  1.00  0.00     0.195 C 
ATOM     89  O   UNL     1      10.962  -7.984  -4.091  1.00  0.00    -0.289 OA
BRANCH  88  90
ATOM     90  C   UNL     1       9.721  -6.264  -3.163  1.00  0.00     0.023 A 
ATOM     91  C   UNL     1      10.197  -5.338  -4.105  1.00  0.00     0.012 A 
ATOM     92  C   UNL     1       9.143  -5.808  -1.976  1.00  0.00     0.012 A 
ATOM     93  C   UNL     1      10.068  -3.969  -3.882  1.00  0.00     0.001 A 
ATOM     94  C   UNL     1       9.015  -4.431  -1.756  1.00  0.00     0.001 A 
ATOM     95  C   UNL     1       9.473  -3.516  -2.708  1.00  0.00     0.000 A 
ENDBRANCH  88  90
ENDBRANCH  83  88
ENDBRANCH  79  81
ENDBRANCH  72  75
ENDBRANCH  70  71
ENDBRANCH  69  70
ENDBRANCH   1  69
TORSDOF 17
