REMARK SMILES Cc1cc(O[C@@H]2C[C@H](C)C[C@H](C)C2)cc(C(=O)NCCCCNC(=O)c2ccc(-c3c4nc(c(-c5ccc(S(=O)(=O)[O-])cc5)c5ccc([nH]5)c(-c5ccc(S(=O)(=O)[O-])cc5)c5nc(c(-c6ccc(S(=O)(=O)[O-])cc6)c6ccc3[nH]6)C=C5)C=C4)cc2)c1N
REMARK SMILES IDX 21 1 20 2 19 3 18 4 16 5 17 6 15 8 1 9 2 10 3 11 86 12 4 13
REMARK SMILES IDX 14 14 87 15 5 18 6 19 13 20 7 21 11 22 8 23 12 24 10 25 9 26
REMARK SMILES IDX 22 27 23 28 24 29 25 31 26 32 27 33 85 34 28 35 84 36 29 37
REMARK SMILES IDX 30 38 31 39 78 40 32 41 83 42 77 43 79 44 33 45 82 46 76 47
REMARK SMILES IDX 75 48 34 50 64 51 45 52 63 53 46 54 49 55 62 56 80 57 47 58
REMARK SMILES IDX 48 59 61 61 81 62 50 63 35 64 36 65 44 66 37 67 43 68 38 69
REMARK SMILES IDX 39 70 40 71 41 72 42 73 65 74 66 75 74 76 67 77 73 78 68 79
REMARK SMILES IDX 69 80 70 81 71 82 72 83 51 84 52 85 60 86 53 87 59 88 54 89
REMARK SMILES IDX 55 90 56 91 57 92 58 93
REMARK H PARENT 18 7 87 16 87 17 23 30 79 49 49 60
REMARK Flexibility Score: inf
ROOT
ATOM      1  C   UNL     1      -4.364  -5.017  -1.481  1.00  0.00     0.023 C 
ENDROOT
BRANCH   1   2
ATOM      2  C   UNL     1      -4.055  -3.535  -1.680  1.00  0.00     0.023 C 
BRANCH   2   3
ATOM      3  C   UNL     1      -3.321  -2.831  -0.544  1.00  0.00     0.116 C 
BRANCH   3   4
ATOM      4  N   UNL     1      -2.069  -3.454  -0.174  1.00  0.00    -0.352 N 
ATOM      5  C   UNL     1      -0.927  -2.952   0.399  1.00  0.00     0.253 C 
ATOM      6  O   UNL     1      -0.018  -3.765   0.595  1.00  0.00    -0.269 OA
ATOM      7  H   UNL     1      -2.029  -4.418  -0.369  1.00  0.00     0.163 HD
BRANCH   5   8
ATOM      8  C   UNL     1      -0.714  -1.510   0.764  1.00  0.00     0.066 A 
ATOM      9  C   UNL     1       2.203   0.954   1.136  1.00  0.00     0.047 C 
ATOM     10  C   UNL     1       0.850   0.301   1.245  1.00  0.00    -0.024 A 
ATOM     11  C   UNL     1      -0.231   1.100   1.633  1.00  0.00     0.052 A 
ATOM     12  C   UNL     1       0.623  -1.023   0.818  1.00  0.00     0.048 A 
ATOM     13  C   UNL     1      -1.503   0.734   1.247  1.00  0.00     0.120 A 
ATOM     14  C   UNL     1      -1.768  -0.613   1.006  1.00  0.00     0.062 A 
BRANCH  12  15
ATOM     15  N   UNL     1       1.683  -1.745   0.249  1.00  0.00    -0.398 N 
ATOM     16  H   UNL     1       2.600  -1.392   0.296  1.00  0.00     0.156 HD
ATOM     17  H   UNL     1       1.508  -2.604  -0.199  1.00  0.00     0.156 HD
ENDBRANCH  12  15
BRANCH  13  18
ATOM     18  O   UNL     1      -2.493   1.634   0.946  1.00  0.00    -0.490 OA
BRANCH  18  19
ATOM     19  C   UNL     1      -2.171   2.893   0.264  1.00  0.00     0.173 C 
ATOM     20  C   UNL     1      -0.791   3.111  -0.370  1.00  0.00     0.048 C 
ATOM     21  C   UNL     1      -3.266   3.179  -0.820  1.00  0.00     0.048 C 
ATOM     22  C   UNL     1      -0.631   2.495  -1.759  1.00  0.00    -0.010 C 
ATOM     23  C   UNL     1      -2.819   3.703  -2.237  1.00  0.00    -0.010 C 
ATOM     24  C   UNL     1      -1.125   1.065  -1.980  1.00  0.00     0.008 C 
ATOM     25  C   UNL     1      -1.364   3.442  -2.683  1.00  0.00     0.007 C 
ATOM     26  C   UNL     1      -3.775   3.216  -3.338  1.00  0.00     0.008 C 
ENDBRANCH  18  19
ENDBRANCH  13  18
ENDBRANCH   5   8
ENDBRANCH   3   4
ENDBRANCH   2   3
ENDBRANCH   1   2
BRANCH   1  27
ATOM     27  C   UNL     1      -5.013  -5.395  -0.155  1.00  0.00     0.116 C 
BRANCH  27  28
ATOM     28  N   UNL     1      -6.289  -4.732   0.076  1.00  0.00    -0.352 N 
ATOM     29  C   UNL     1      -7.535  -5.278   0.284  1.00  0.00     0.251 C 
ATOM     30  H   UNL     1      -6.255  -3.748   0.085  1.00  0.00     0.163 HD
ATOM     31  O   UNL     1      -8.522  -4.551   0.361  1.00  0.00    -0.269 OA
BRANCH  29  32
ATOM     32  C   UNL     1      -7.684  -6.746   0.366  1.00  0.00     0.039 A 
ATOM     33  C   UNL     1      -8.629  -7.377  -0.446  1.00  0.00     0.014 A 
ATOM     34  C   UNL     1      -6.849  -7.500   1.194  1.00  0.00     0.014 A 
ATOM     35  C   UNL     1      -8.663  -8.771  -0.507  1.00  0.00     0.010 A 
ATOM     36  C   UNL     1      -6.828  -8.886   1.068  1.00  0.00     0.010 A 
ATOM     37  C   UNL     1      -7.724  -9.536   0.204  1.00  0.00    -0.014 A 
BRANCH  37  38
ATOM     38  C   UNL     1      -7.633 -11.009   0.029  1.00  0.00     0.031 A 
ATOM     39  C   UNL     1      -7.870 -11.930   1.194  1.00  0.00     0.074 A 
ATOM     40  C   UNL     1      -7.253 -11.515  -1.163  1.00  0.00     0.049 A 
ATOM     41  N   UNL     1      -7.768 -13.233   1.248  1.00  0.00    -0.248 NA
ATOM     42  C   UNL     1      -8.242 -11.302   2.472  1.00  0.00     0.031 C 
ATOM     43  C   UNL     1      -6.940 -10.727  -2.359  1.00  0.00     0.029 A 
ATOM     44  N   UNL     1      -7.054 -12.813  -1.564  1.00  0.00    -0.354 N 
ATOM     45  C   UNL     1      -8.044 -13.579   2.566  1.00  0.00     0.074 A 
ATOM     46  C   UNL     1      -8.267 -12.346   3.288  1.00  0.00     0.031 C 
ATOM     47  C   UNL     1      -6.619 -11.558  -3.363  1.00  0.00     0.029 A 
ATOM     48  C   UNL     1      -6.660 -12.933  -2.877  1.00  0.00     0.049 A 
ATOM     49  H   UNL     1      -7.182 -13.586  -0.968  1.00  0.00     0.167 HD
ATOM     50  C   UNL     1      -8.123 -14.812   3.121  1.00  0.00     0.031 A 
ATOM     51  C   UNL     1      -6.360 -14.024  -3.608  1.00  0.00     0.031 A 
ATOM     52  C   UNL     1      -7.910 -16.038   2.399  1.00  0.00     0.049 A 
ATOM     53  C   UNL     1      -6.458 -15.383  -2.971  1.00  0.00     0.074 A 
ATOM     54  C   UNL     1      -8.027 -17.338   2.857  1.00  0.00     0.029 A 
ATOM     55  N   UNL     1      -7.533 -16.116   1.066  1.00  0.00    -0.354 N 
ATOM     56  N   UNL     1      -6.791 -15.693  -1.741  1.00  0.00    -0.248 NA
ATOM     57  C   UNL     1      -6.151 -16.539  -3.824  1.00  0.00     0.031 C 
ATOM     58  C   UNL     1      -7.673 -18.202   1.815  1.00  0.00     0.029 A 
ATOM     59  C   UNL     1      -7.392 -17.441   0.691  1.00  0.00     0.049 A 
ATOM     60  H   UNL     1      -7.388 -15.343   0.474  1.00  0.00     0.167 HD
ATOM     61  C   UNL     1      -6.761 -17.081  -1.680  1.00  0.00     0.074 A 
ATOM     62  C   UNL     1      -6.389 -17.550  -2.999  1.00  0.00     0.031 C 
ATOM     63  C   UNL     1      -7.021 -17.894  -0.626  1.00  0.00     0.031 A 
BRANCH  50  64
ATOM     64  C   UNL     1      -8.452 -14.890   4.590  1.00  0.00    -0.014 A 
ATOM     65  C   UNL     1      -9.730 -14.543   5.067  1.00  0.00     0.010 A 
ATOM     66  C   UNL     1      -7.480 -15.338   5.502  1.00  0.00     0.010 A 
ATOM     67  C   UNL     1     -10.013 -14.595   6.434  1.00  0.00     0.020 A 
ATOM     68  C   UNL     1      -7.769 -15.420   6.867  1.00  0.00     0.020 A 
ATOM     69  C   UNL     1      -9.028 -15.028   7.327  1.00  0.00     0.054 A 
BRANCH  69  70
ATOM     70  S   UNL     1      -9.427 -15.095   9.095  1.00  0.00     0.124 S 
ATOM     71  O   UNL     1      -9.426 -13.680   9.456  1.00  0.00    -0.237 OA
ATOM     72  O   UNL     1     -10.735 -15.744   9.105  1.00  0.00    -0.237 OA
ATOM     73  O   UNL     1      -8.339 -15.884   9.666  1.00  0.00    -0.744 OA
ENDBRANCH  69  70
ENDBRANCH  50  64
BRANCH  51  74
ATOM     74  C   UNL     1      -5.963 -13.874  -5.035  1.00  0.00    -0.014 A 
ATOM     75  C   UNL     1      -6.839 -14.266  -6.063  1.00  0.00     0.010 A 
ATOM     76  C   UNL     1      -4.717 -13.316  -5.375  1.00  0.00     0.010 A 
ATOM     77  C   UNL     1      -6.471 -14.115  -7.404  1.00  0.00     0.020 A 
ATOM     78  C   UNL     1      -4.357 -13.140  -6.715  1.00  0.00     0.020 A 
ATOM     79  C   UNL     1      -5.234 -13.550  -7.721  1.00  0.00     0.054 A 
BRANCH  79  80
ATOM     80  S   UNL     1      -4.805 -13.306  -9.468  1.00  0.00     0.124 S 
ATOM     81  O   UNL     1      -4.511 -14.669  -9.901  1.00  0.00    -0.237 OA
ATOM     82  O   UNL     1      -6.025 -12.717 -10.013  1.00  0.00    -0.237 OA
ATOM     83  O   UNL     1      -3.657 -12.403  -9.415  1.00  0.00    -0.744 OA
ENDBRANCH  79  80
ENDBRANCH  51  74
BRANCH  63  84
ATOM     84  C   UNL     1      -6.950 -19.379  -0.861  1.00  0.00    -0.014 A 
ATOM     85  C   UNL     1      -5.718 -20.035  -1.027  1.00  0.00     0.010 A 
ATOM     86  C   UNL     1      -8.135 -20.138  -0.854  1.00  0.00     0.010 A 
ATOM     87  C   UNL     1      -5.674 -21.419  -1.211  1.00  0.00     0.020 A 
ATOM     88  C   UNL     1      -8.094 -21.525  -1.010  1.00  0.00     0.020 A 
ATOM     89  C   UNL     1      -6.863 -22.156  -1.200  1.00  0.00     0.054 A 
BRANCH  89  90
ATOM     90  S   UNL     1      -6.777 -23.958  -1.392  1.00  0.00     0.124 S 
ATOM     91  O   UNL     1      -6.481 -24.098  -2.815  1.00  0.00    -0.237 OA
ATOM     92  O   UNL     1      -5.692 -24.326  -0.485  1.00  0.00    -0.237 OA
ATOM     93  O   UNL     1      -8.104 -24.413  -0.983  1.00  0.00    -0.744 OA
ENDBRANCH  89  90
ENDBRANCH  63  84
ENDBRANCH  37  38
ENDBRANCH  29  32
ENDBRANCH  27  28
ENDBRANCH   1  27
TORSDOF 17
