REMARK SMILES Cc1cc(C(=O)NCCCCNC(=O)c2ccc(-c3c4nc(c(-c5ccc(S(=O)(=O)[O-])cc5)c5ccc([nH]5)c(-c5ccc(S(=O)(=O)[O-])cc5)c5nc(c(-c6ccc(S(=O)(=O)[O-])cc6)c6ccc3[nH]6)C=C5)C=C4)cc2)c(C)n1[C@@H]1C[N@H+]2CC[C@@H]1CC2
REMARK SMILES IDX 10 1 9 2 8 3 7 4 5 5 6 6 4 8 1 9 2 10 3 11 77 12 75 13 76 14
REMARK SMILES IDX 78 15 79 16 83 17 80 18 84 19 82 20 85 21 81 22 11 24 12 25
REMARK SMILES IDX 13 26 14 28 15 29 16 30 74 31 17 32 73 33 18 34 19 35 20 36
REMARK SMILES IDX 67 37 21 38 72 39 66 40 68 41 22 42 71 43 65 44 64 45 23 47
REMARK SMILES IDX 53 48 34 49 52 50 35 51 38 52 51 53 69 54 36 55 37 56 50 58
REMARK SMILES IDX 70 59 39 60 24 61 25 62 33 63 26 64 32 65 27 66 28 67 29 68
REMARK SMILES IDX 30 69 31 70 54 71 55 72 63 73 56 74 62 75 57 76 58 77 59 78
REMARK SMILES IDX 60 79 61 80 40 81 41 82 49 83 42 84 48 85 43 86 44 87 45 88
REMARK SMILES IDX 46 89 47 90
REMARK H PARENT 7 7 80 23 12 27 68 46 38 57
REMARK Flexibility Score: inf
ROOT
ATOM      1  C   UNL     1      -5.926   2.725  -2.308  1.00  0.00     0.023 C 
ENDROOT
BRANCH   1   2
ATOM      2  C   UNL     1      -4.706   1.820  -2.014  1.00  0.00     0.023 C 
BRANCH   2   3
ATOM      3  C   UNL     1      -3.353   2.320  -2.527  1.00  0.00     0.116 C 
BRANCH   3   4
ATOM      4  N   UNL     1      -2.993   3.599  -1.934  1.00  0.00    -0.352 N 
ATOM      5  C   UNL     1      -1.950   4.034  -1.149  1.00  0.00     0.253 C 
ATOM      6  O   UNL     1      -1.911   5.243  -0.924  1.00  0.00    -0.269 OA
ATOM      7  H   UNL     1      -3.640   4.311  -2.140  1.00  0.00     0.163 HD
BRANCH   5   8
ATOM      8  C   UNL     1      -0.915   3.116  -0.649  1.00  0.00     0.060 A 
ATOM      9  C   UNL     1       0.731  -0.147  -0.579  1.00  0.00     0.064 C 
ATOM     10  C   UNL     1       0.326   1.259  -0.318  1.00  0.00     0.016 A 
ATOM     11  C   UNL     1      -0.964   1.721  -0.467  1.00  0.00     0.037 A 
ATOM     12  N   UNL     1       1.105   2.340   0.067  1.00  0.00    -0.339 N 
ATOM     13  C   UNL     1       0.362   3.498  -0.208  1.00  0.00     0.028 A 
ATOM     14  C   UNL     1       0.866   4.907  -0.086  1.00  0.00     0.065 C 
BRANCH  12  15
ATOM     15  C   UNL     1       2.428   2.324   0.706  1.00  0.00     0.145 C 
ATOM     16  C   UNL     1       3.571   1.567  -0.015  1.00  0.00     0.288 C 
ATOM     17  C   UNL     1       2.433   1.911   2.207  1.00  0.00     0.029 C 
ATOM     18  N   UNL     1       4.318   0.661   0.905  1.00  0.00    -0.333 N 
ATOM     19  C   UNL     1       3.834   2.245   2.776  1.00  0.00     0.067 C 
ATOM     20  C   UNL     1       2.295   0.390   2.354  1.00  0.00     0.067 C 
ATOM     21  C   UNL     1       4.910   1.471   1.991  1.00  0.00     0.262 C 
ATOM     22  C   UNL     1       3.380  -0.307   1.516  1.00  0.00     0.262 C 
ATOM     23  H   UNL     1       5.042   0.168   0.382  1.00  0.00     0.348 HD
ENDBRANCH  12  15
ENDBRANCH   5   8
ENDBRANCH   3   4
ENDBRANCH   2   3
ENDBRANCH   1   2
BRANCH   1  24
ATOM     24  C   UNL     1      -6.020   3.447  -3.675  1.00  0.00     0.116 C 
BRANCH  24  25
ATOM     25  N   UNL     1      -6.765   2.743  -4.693  1.00  0.00    -0.352 N 
ATOM     26  C   UNL     1      -7.338   3.238  -5.859  1.00  0.00     0.251 C 
ATOM     27  H   UNL     1      -6.883   1.778  -4.540  1.00  0.00     0.163 HD
ATOM     28  O   UNL     1      -8.004   2.444  -6.522  1.00  0.00    -0.269 OA
BRANCH  26  29
ATOM     29  C   UNL     1      -7.291   4.703  -6.265  1.00  0.00     0.039 A 
ATOM     30  C   UNL     1      -8.390   5.495  -5.968  1.00  0.00     0.014 A 
ATOM     31  C   UNL     1      -6.370   5.270  -7.168  1.00  0.00     0.014 A 
ATOM     32  C   UNL     1      -8.522   6.823  -6.500  1.00  0.00     0.010 A 
ATOM     33  C   UNL     1      -6.554   6.601  -7.777  1.00  0.00     0.010 A 
ATOM     34  C   UNL     1      -7.651   7.441  -7.475  1.00  0.00    -0.014 A 
BRANCH  34  35
ATOM     35  C   UNL     1      -8.350   8.589  -8.435  1.00  0.00     0.031 A 
ATOM     36  C   UNL     1      -9.627   7.912  -8.792  1.00  0.00     0.074 A 
ATOM     37  C   UNL     1      -8.190   9.816  -9.103  1.00  0.00     0.049 A 
ATOM     38  N   UNL     1      -9.573   6.746  -9.365  1.00  0.00    -0.248 NA
ATOM     39  C   UNL     1     -10.915   8.240  -8.184  1.00  0.00     0.031 C 
ATOM     40  C   UNL     1      -6.991  10.668  -9.196  1.00  0.00     0.029 A 
ATOM     41  N   UNL     1      -9.097  10.627  -9.886  1.00  0.00    -0.354 N 
ATOM     42  C   UNL     1     -10.860   6.286  -9.442  1.00  0.00     0.074 A 
ATOM     43  C   UNL     1     -11.598   7.136  -8.512  1.00  0.00     0.031 C 
ATOM     44  C   UNL     1      -7.252  11.869  -9.804  1.00  0.00     0.029 A 
ATOM     45  C   UNL     1      -8.643  11.958 -10.261  1.00  0.00     0.049 A 
ATOM     46  H   UNL     1      -9.984  10.293 -10.154  1.00  0.00     0.167 HD
ATOM     47  C   UNL     1     -11.245   5.847 -10.674  1.00  0.00     0.031 A 
ATOM     48  C   UNL     1      -9.277  13.004 -10.955  1.00  0.00     0.031 A 
ATOM     49  C   UNL     1     -11.961   6.872 -11.391  1.00  0.00     0.049 A 
ATOM     50  C   UNL     1     -10.253  12.348 -11.838  1.00  0.00     0.074 A 
ATOM     51  C   UNL     1     -12.964   7.746 -11.025  1.00  0.00     0.029 A 
ATOM     52  N   UNL     1     -11.329   7.418 -12.492  1.00  0.00    -0.354 N 
ATOM     53  N   UNL     1      -9.876  11.745 -12.923  1.00  0.00    -0.248 NA
ATOM     54  C   UNL     1     -11.696  12.468 -11.659  1.00  0.00     0.031 C 
ATOM     55  C   UNL     1     -12.563   8.985 -11.566  1.00  0.00     0.029 A 
ATOM     56  C   UNL     1     -11.581   8.772 -12.528  1.00  0.00     0.049 A 
ATOM     57  H   UNL     1     -10.787   6.920 -13.146  1.00  0.00     0.167 HD
ATOM     58  C   UNL     1     -10.948  10.962 -13.219  1.00  0.00     0.074 A 
ATOM     59  C   UNL     1     -12.088  11.651 -12.640  1.00  0.00     0.031 C 
ATOM     60  C   UNL     1     -10.713   9.627 -13.306  1.00  0.00     0.031 A 
BRANCH  47  61
ATOM     61  C   UNL     1     -10.267   4.921 -11.356  1.00  0.00    -0.014 A 
ATOM     62  C   UNL     1     -10.656   3.605 -11.629  1.00  0.00     0.010 A 
ATOM     63  C   UNL     1      -8.952   5.320 -11.697  1.00  0.00     0.010 A 
ATOM     64  C   UNL     1      -9.744   2.705 -12.194  1.00  0.00     0.020 A 
ATOM     65  C   UNL     1      -8.031   4.422 -12.235  1.00  0.00     0.020 A 
ATOM     66  C   UNL     1      -8.435   3.115 -12.482  1.00  0.00     0.054 A 
BRANCH  66  67
ATOM     67  S   UNL     1      -7.273   1.897 -13.149  1.00  0.00     0.124 S 
ATOM     68  O   UNL     1      -7.464   0.753 -12.262  1.00  0.00    -0.237 OA
ATOM     69  O   UNL     1      -7.767   1.717 -14.508  1.00  0.00    -0.237 OA
ATOM     70  O   UNL     1      -5.965   2.548 -13.023  1.00  0.00    -0.744 OA
ENDBRANCH  66  67
ENDBRANCH  47  61
BRANCH  48  71
ATOM     71  C   UNL     1      -9.251  14.531 -11.377  1.00  0.00    -0.014 A 
ATOM     72  C   UNL     1      -9.760  14.923 -12.672  1.00  0.00     0.010 A 
ATOM     73  C   UNL     1      -9.190  15.596 -10.460  1.00  0.00     0.010 A 
ATOM     74  C   UNL     1     -10.299  16.202 -12.978  1.00  0.00     0.020 A 
ATOM     75  C   UNL     1      -9.696  16.907 -10.772  1.00  0.00     0.020 A 
ATOM     76  C   UNL     1     -10.294  17.190 -12.008  1.00  0.00     0.054 A 
BRANCH  76  77
ATOM     77  S   UNL     1     -11.190  18.764 -12.329  1.00  0.00     0.124 S 
ATOM     78  O   UNL     1     -10.415  19.374 -13.406  1.00  0.00    -0.237 OA
ATOM     79  O   UNL     1     -12.527  18.305 -12.705  1.00  0.00    -0.237 OA
ATOM     80  O   UNL     1     -11.126  19.465 -11.048  1.00  0.00    -0.744 OA
ENDBRANCH  76  77
ENDBRANCH  48  71
BRANCH  60  81
ATOM     81  C   UNL     1      -9.418   9.188 -13.984  1.00  0.00    -0.014 A 
ATOM     82  C   UNL     1      -8.138   9.731 -13.708  1.00  0.00     0.010 A 
ATOM     83  C   UNL     1      -9.492   8.234 -15.012  1.00  0.00     0.010 A 
ATOM     84  C   UNL     1      -7.012   9.415 -14.482  1.00  0.00     0.020 A 
ATOM     85  C   UNL     1      -8.359   7.872 -15.760  1.00  0.00     0.020 A 
ATOM     86  C   UNL     1      -7.134   8.494 -15.517  1.00  0.00     0.054 A 
BRANCH  86  87
ATOM     87  S   UNL     1      -5.686   8.153 -16.557  1.00  0.00     0.124 S 
ATOM     88  O   UNL     1      -5.526   9.409 -17.288  1.00  0.00    -0.237 OA
ATOM     89  O   UNL     1      -4.640   7.870 -15.577  1.00  0.00    -0.237 OA
ATOM     90  O   UNL     1      -6.106   7.020 -17.377  1.00  0.00    -0.744 OA
ENDBRANCH  86  87
ENDBRANCH  60  81
ENDBRANCH  34  35
ENDBRANCH  26  29
ENDBRANCH  24  25
ENDBRANCH   1  24
TORSDOF 15
