REMARK SMILES C[C@@H]1CCC[C@@H](C)C1[N@H+]1CCO[C@H](CC(=O)NCCCCNC(=O)c2ccc(-c3c4nc(c(-c5ccc(S(=O)(=O)[O-])cc5)c5ccc([nH]5)c(-c5ccc(S(=O)(=O)[O-])cc5)c5nc(c(-c6ccc(S(=O)(=O)[O-])cc6)c6ccc3[nH]6)C=C5)C=C4)cc2)C1
REMARK SMILES IDX 20 1 19 2 18 3 17 4 15 5 16 6 14 8 13 9 9 10 10 11 85 12
REMARK SMILES IDX 11 14 12 15 8 16 1 17 2 18 3 19 4 20 6 21 5 22 7 23 21 24
REMARK SMILES IDX 22 25 23 26 24 28 25 29 26 30 84 31 27 32 83 33 28 34 29 35
REMARK SMILES IDX 30 36 77 37 31 38 82 39 76 40 78 41 32 42 81 43 75 44 74 45
REMARK SMILES IDX 33 47 63 48 44 49 62 50 45 51 48 52 61 53 79 54 46 55 47 56
REMARK SMILES IDX 60 58 80 59 49 60 34 61 35 62 43 63 36 64 42 65 37 66 38 67
REMARK SMILES IDX 39 68 40 69 41 70 64 71 65 72 73 73 66 74 72 75 67 76 68 77
REMARK SMILES IDX 69 78 70 79 71 80 50 81 51 82 59 83 52 84 58 85 53 86 54 87
REMARK SMILES IDX 55 88 56 89 57 90
REMARK H PARENT 17 7 9 13 22 27 78 46 48 57
REMARK Flexibility Score: inf
ROOT
ATOM      1  C   UNL     1      -4.367   4.543   2.676  1.00  0.00     0.023 C 
ENDROOT
BRANCH   1   2
ATOM      2  C   UNL     1      -2.860   4.474   2.896  1.00  0.00     0.023 C 
BRANCH   2   3
ATOM      3  C   UNL     1      -2.415   3.912   4.241  1.00  0.00     0.116 C 
BRANCH   3   4
ATOM      4  N   UNL     1      -2.872   2.557   4.482  1.00  0.00    -0.356 N 
ATOM      5  C   UNL     1      -2.281   1.369   4.161  1.00  0.00     0.222 C 
ATOM      6  O   UNL     1      -2.832   0.319   4.494  1.00  0.00    -0.275 OA
ATOM      7  H   UNL     1      -3.737   2.482   4.946  1.00  0.00     0.163 HD
BRANCH   5   8
ATOM      8  C   UNL     1      -0.940   1.356   3.468  1.00  0.00     0.138 C 
BRANCH   8   9
ATOM      9  C   UNL     1      -0.975   1.510   1.940  1.00  0.00     0.182 C 
ATOM     10  N   UNL     1       0.045   2.910   0.086  1.00  0.00    -0.328 N 
ATOM     11  C   UNL     1      -1.323   3.152  -0.365  1.00  0.00     0.291 C 
ATOM     12  C   UNL     1       0.045   2.605   1.521  1.00  0.00     0.295 C 
ATOM     13  H   UNL     1       0.468   3.811  -0.135  1.00  0.00     0.348 HD
ATOM     14  C   UNL     1      -2.364   2.111   0.074  1.00  0.00     0.222 C 
ATOM     15  O   UNL     1      -2.296   1.789   1.466  1.00  0.00    -0.366 OA
BRANCH  10  16
ATOM     16  C   UNL     1       1.079   2.235  -0.719  1.00  0.00     0.189 C 
ATOM     17  C   UNL     1       2.628   0.190  -0.884  1.00  0.00     0.014 C 
ATOM     18  C   UNL     1       1.221   0.694  -0.522  1.00  0.00     0.045 C 
ATOM     19  C   UNL     1       0.166  -0.094  -1.302  1.00  0.00     0.009 C 
ATOM     20  C   UNL     1       0.058   0.294  -2.775  1.00  0.00     0.001 C 
ATOM     21  C   UNL     1       1.123   2.559  -2.241  1.00  0.00     0.045 C 
ATOM     22  C   UNL     1       0.068   1.797  -3.056  1.00  0.00     0.009 C 
ATOM     23  C   UNL     1       1.146   4.061  -2.545  1.00  0.00     0.014 C 
ENDBRANCH  10  16
ENDBRANCH   8   9
ENDBRANCH   5   8
ENDBRANCH   3   4
ENDBRANCH   2   3
ENDBRANCH   1   2
BRANCH   1  24
ATOM     24  C   UNL     1      -5.008   5.669   3.459  1.00  0.00     0.116 C 
BRANCH  24  25
ATOM     25  N   UNL     1      -4.492   6.977   3.074  1.00  0.00    -0.352 N 
ATOM     26  C   UNL     1      -5.121   8.197   3.167  1.00  0.00     0.251 C 
ATOM     27  H   UNL     1      -3.581   6.989   2.701  1.00  0.00     0.163 HD
ATOM     28  O   UNL     1      -4.613   9.204   2.712  1.00  0.00    -0.269 OA
BRANCH  26  29
ATOM     29  C   UNL     1      -6.460   8.224   3.784  1.00  0.00     0.039 A 
ATOM     30  C   UNL     1      -7.516   8.788   3.069  1.00  0.00     0.014 A 
ATOM     31  C   UNL     1      -6.675   7.583   5.005  1.00  0.00     0.014 A 
ATOM     32  C   UNL     1      -8.812   8.654   3.559  1.00  0.00     0.010 A 
ATOM     33  C   UNL     1      -7.973   7.359   5.434  1.00  0.00     0.010 A 
ATOM     34  C   UNL     1      -9.051   7.908   4.726  1.00  0.00    -0.014 A 
BRANCH  34  35
ATOM     35  C   UNL     1     -10.421   7.725   5.256  1.00  0.00     0.031 A 
ATOM     36  C   UNL     1     -10.758   8.269   6.617  1.00  0.00     0.074 A 
ATOM     37  C   UNL     1     -11.325   7.019   4.550  1.00  0.00     0.049 A 
ATOM     38  N   UNL     1     -11.867   8.154   7.299  1.00  0.00    -0.248 NA
ATOM     39  C   UNL     1      -9.693   9.004   7.324  1.00  0.00     0.031 C 
ATOM     40  C   UNL     1     -11.089   6.395   3.245  1.00  0.00     0.029 A 
ATOM     41  N   UNL     1     -12.629   6.706   4.835  1.00  0.00    -0.354 N 
ATOM     42  C   UNL     1     -11.621   8.772   8.519  1.00  0.00     0.074 A 
ATOM     43  C   UNL     1     -10.243   9.204   8.511  1.00  0.00     0.031 C 
ATOM     44  C   UNL     1     -12.222   5.806   2.828  1.00  0.00     0.029 A 
ATOM     45  C   UNL     1     -13.251   5.979   3.847  1.00  0.00     0.049 A 
ATOM     46  H   UNL     1     -13.078   6.975   5.669  1.00  0.00     0.167 HD
ATOM     47  C   UNL     1     -12.477   8.990   9.544  1.00  0.00     0.031 A 
ATOM     48  C   UNL     1     -14.511   5.511   3.774  1.00  0.00     0.031 A 
ATOM     49  C   UNL     1     -13.857   8.594   9.524  1.00  0.00     0.049 A 
ATOM     50  C   UNL     1     -15.456   5.798   4.909  1.00  0.00     0.074 A 
ATOM     51  C   UNL     1     -14.833   8.823  10.476  1.00  0.00     0.029 A 
ATOM     52  N   UNL     1     -14.460   7.895   8.488  1.00  0.00    -0.354 N 
ATOM     53  N   UNL     1     -15.225   6.442   6.029  1.00  0.00    -0.248 NA
ATOM     54  C   UNL     1     -16.833   5.311   4.764  1.00  0.00     0.031 C 
ATOM     55  C   UNL     1     -16.019   8.229  10.032  1.00  0.00     0.029 A 
ATOM     56  C   UNL     1     -15.793   7.674   8.782  1.00  0.00     0.049 A 
ATOM     57  H   UNL     1     -14.005   7.599   7.666  1.00  0.00     0.167 HD
ATOM     58  C   UNL     1     -16.436   6.461   6.711  1.00  0.00     0.074 A 
ATOM     59  C   UNL     1     -17.398   5.776   5.870  1.00  0.00     0.031 C 
ATOM     60  C   UNL     1     -16.729   6.995   7.922  1.00  0.00     0.031 A 
BRANCH  47  61
ATOM     61  C   UNL     1     -11.938   9.696  10.758  1.00  0.00    -0.014 A 
ATOM     62  C   UNL     1     -11.578  11.055  10.707  1.00  0.00     0.010 A 
ATOM     63  C   UNL     1     -11.800   8.997  11.971  1.00  0.00     0.010 A 
ATOM     64  C   UNL     1     -11.046  11.690  11.831  1.00  0.00     0.020 A 
ATOM     65  C   UNL     1     -11.296   9.637  13.107  1.00  0.00     0.020 A 
ATOM     66  C   UNL     1     -10.904  10.976  13.024  1.00  0.00     0.054 A 
BRANCH  66  67
ATOM     67  S   UNL     1     -10.229  11.830  14.474  1.00  0.00     0.124 S 
ATOM     68  O   UNL     1      -8.810  11.916  14.138  1.00  0.00    -0.237 OA
ATOM     69  O   UNL     1     -10.954  13.098  14.465  1.00  0.00    -0.237 OA
ATOM     70  O   UNL     1     -10.554  10.938  15.584  1.00  0.00    -0.744 OA
ENDBRANCH  66  67
ENDBRANCH  47  61
BRANCH  48  71
ATOM     71  C   UNL     1     -14.959   4.758   2.571  1.00  0.00    -0.014 A 
ATOM     72  C   UNL     1     -15.849   5.347   1.655  1.00  0.00     0.010 A 
ATOM     73  C   UNL     1     -14.488   3.456   2.325  1.00  0.00     0.010 A 
ATOM     74  C   UNL     1     -16.276   4.640   0.527  1.00  0.00     0.020 A 
ATOM     75  C   UNL     1     -14.893   2.755   1.185  1.00  0.00     0.020 A 
ATOM     76  C   UNL     1     -15.796   3.348   0.299  1.00  0.00     0.054 A 
BRANCH  76  77
ATOM     77  S   UNL     1     -16.327   2.467  -1.196  1.00  0.00     0.124 S 
ATOM     78  O   UNL     1     -17.694   2.086  -0.854  1.00  0.00    -0.237 OA
ATOM     79  O   UNL     1     -16.195   3.490  -2.230  1.00  0.00    -0.237 OA
ATOM     80  O   UNL     1     -15.375   1.363  -1.298  1.00  0.00    -0.744 OA
ENDBRANCH  76  77
ENDBRANCH  48  71
BRANCH  60  81
ATOM     81  C   UNL     1     -18.152   6.894   8.394  1.00  0.00    -0.014 A 
ATOM     82  C   UNL     1     -18.683   5.675   8.848  1.00  0.00     0.010 A 
ATOM     83  C   UNL     1     -18.947   8.054   8.443  1.00  0.00     0.010 A 
ATOM     84  C   UNL     1     -19.997   5.612   9.316  1.00  0.00     0.020 A 
ATOM     85  C   UNL     1     -20.252   7.999   8.935  1.00  0.00     0.020 A 
ATOM     86  C   UNL     1     -20.773   6.774   9.356  1.00  0.00     0.054 A 
BRANCH  86  87
ATOM     87  S   UNL     1     -22.460   6.676  10.013  1.00  0.00     0.124 S 
ATOM     88  O   UNL     1     -23.177   6.038   8.913  1.00  0.00    -0.237 OA
ATOM     89  O   UNL     1     -22.292   5.858  11.212  1.00  0.00    -0.237 OA
ATOM     90  O   UNL     1     -22.816   8.071  10.264  1.00  0.00    -0.744 OA
ENDBRANCH  86  87
ENDBRANCH  60  81
ENDBRANCH  34  35
ENDBRANCH  26  29
ENDBRANCH  24  25
ENDBRANCH   1  24
TORSDOF 16
