REMARK SMILES C[C@@H](Nc1cccc(C(=O)NCCCCNC(=O)c2ccc(-c3c4nc(c(-c5ccc(S(=O)(=O)[O-])cc5)c5ccc([nH]5)c(-c5ccc(S(=O)(=O)[O-])cc5)c5nc(c(-c6ccc(S(=O)(=O)[O-])cc6)c6ccc3[nH]6)C=C5)C=C4)cc2)c1)C1CC[NH+](C)CC1
REMARK SMILES IDX 13 1 12 2 11 3 9 4 10 5 8 7 4 8 5 9 79 10 6 11 7 12 3 13
REMARK SMILES IDX 2 15 1 16 80 17 81 18 86 19 82 20 85 21 83 22 84 23 14 25
REMARK SMILES IDX 15 26 16 27 17 28 18 30 19 31 20 32 78 33 21 34 77 35 22 36
REMARK SMILES IDX 23 37 24 38 71 39 25 40 76 41 70 42 72 43 26 44 75 45 69 46
REMARK SMILES IDX 68 47 27 49 57 50 38 51 56 52 39 53 42 54 55 55 73 56 40 57
REMARK SMILES IDX 41 58 54 60 74 61 43 62 28 63 29 64 37 65 30 66 36 67 31 68
REMARK SMILES IDX 32 69 33 70 34 71 35 72 58 73 59 74 67 75 60 76 66 77 61 78
REMARK SMILES IDX 62 79 63 80 64 81 65 82 44 83 45 84 53 85 46 86 52 87 47 88
REMARK SMILES IDX 48 89 49 90 50 91 51 92
REMARK H PARENT 11 6 3 14 83 24 16 29 72 48 42 59
REMARK Flexibility Score: inf
ROOT
ATOM      1  C   UNL     1      -2.332  -3.257   4.696  1.00  0.00     0.023 C 
ENDROOT
BRANCH   1   2
ATOM      2  C   UNL     1      -3.507  -2.308   4.947  1.00  0.00     0.116 C 
BRANCH   2   3
ATOM      3  N   UNL     1      -3.297  -1.488   6.128  1.00  0.00    -0.352 N 
ATOM      4  C   UNL     1      -2.487  -0.421   6.429  1.00  0.00     0.251 C 
ATOM      5  O   UNL     1      -2.599   0.096   7.542  1.00  0.00    -0.269 OA
ATOM      6  H   UNL     1      -3.866  -1.758   6.884  1.00  0.00     0.163 HD
BRANCH   4   7
ATOM      7  C   UNL     1      -1.569   0.246   5.486  1.00  0.00     0.041 A 
ATOM      8  C   UNL     1       1.026   0.584   3.696  1.00  0.00     0.035 A 
ATOM      9  C   UNL     1       0.613   2.344   3.432  1.00  0.00     0.026 A 
ATOM     10  C   UNL     1       0.031  -0.425   4.867  1.00  0.00     0.039 A 
ATOM     11  C   UNL     1      -0.907   3.039   4.168  1.00  0.00     0.003 A 
ATOM     12  C   UNL     1      -2.015   1.965   5.130  1.00  0.00     0.014 A 
BRANCH   8  13
ATOM     13  N   UNL     1       1.711  -0.019   2.620  1.00  0.00    -0.382 N 
ATOM     14  H   UNL     1       2.666  -0.226   2.742  1.00  0.00     0.160 HD
BRANCH  13  15
ATOM     15  C   UNL     1       1.080  -0.369   1.296  1.00  0.00     0.079 C 
ATOM     16  C   UNL     1       1.914   0.298   0.184  1.00  0.00     0.031 C 
BRANCH  15  17
ATOM     17  C   UNL     1      -0.430  -0.177   0.889  1.00  0.00     0.022 C 
ATOM     18  C   UNL     1      -1.057   1.203   0.879  1.00  0.00     0.067 C 
ATOM     19  C   UNL     1      -1.448  -0.983   1.630  1.00  0.00     0.067 C 
ATOM     20  C   UNL     1      -1.477   1.737   2.261  1.00  0.00     0.262 C 
ATOM     21  C   UNL     1      -1.376  -0.568   3.074  1.00  0.00     0.262 C 
ATOM     22  N   UNL     1      -1.003   0.942   3.554  1.00  0.00    -0.337 N 
ATOM     23  C   UNL     1       0.037   1.564   5.252  1.00  0.00     0.332 C 
ATOM     24  H   UNL     1      -0.915   1.353   4.483  1.00  0.00     0.347 HD
ENDBRANCH  15  17
ENDBRANCH  13  15
ENDBRANCH   8  13
ENDBRANCH   4   7
ENDBRANCH   2   3
ENDBRANCH   1   2
BRANCH   1  25
ATOM     25  C   UNL     1      -2.686  -4.710   4.989  1.00  0.00     0.023 C 
BRANCH  25  26
ATOM     26  C   UNL     1      -3.570  -5.315   3.912  1.00  0.00     0.116 C 
BRANCH  26  27
ATOM     27  N   UNL     1      -2.855  -5.628   2.680  1.00  0.00    -0.352 N 
ATOM     28  C   UNL     1      -3.146  -6.650   1.801  1.00  0.00     0.251 C 
ATOM     29  H   UNL     1      -2.089  -5.052   2.454  1.00  0.00     0.163 HD
ATOM     30  O   UNL     1      -2.427  -6.891   0.839  1.00  0.00    -0.269 OA
BRANCH  28  31
ATOM     31  C   UNL     1      -4.333  -7.479   2.094  1.00  0.00     0.039 A 
ATOM     32  C   UNL     1      -4.173  -8.848   2.305  1.00  0.00     0.014 A 
ATOM     33  C   UNL     1      -5.564  -6.858   2.321  1.00  0.00     0.014 A 
ATOM     34  C   UNL     1      -5.242  -9.588   2.813  1.00  0.00     0.010 A 
ATOM     35  C   UNL     1      -6.589  -7.576   2.923  1.00  0.00     0.010 A 
ATOM     36  C   UNL     1      -6.446  -8.951   3.164  1.00  0.00    -0.014 A 
BRANCH  36  37
ATOM     37  C   UNL     1      -7.580  -9.711   3.751  1.00  0.00     0.031 A 
ATOM     38  C   UNL     1      -8.894  -9.766   3.015  1.00  0.00     0.074 A 
ATOM     39  C   UNL     1      -7.450 -10.309   4.954  1.00  0.00     0.049 A 
ATOM     40  N   UNL     1     -10.014 -10.340   3.370  1.00  0.00    -0.248 NA
ATOM     41  C   UNL     1      -8.968  -9.058   1.725  1.00  0.00     0.031 C 
ATOM     42  C   UNL     1      -6.245 -10.291   5.788  1.00  0.00     0.029 A 
ATOM     43  N   UNL     1      -8.344 -11.052   5.685  1.00  0.00    -0.354 N 
ATOM     44  C   UNL     1     -10.922 -10.052   2.358  1.00  0.00     0.074 A 
ATOM     45  C   UNL     1     -10.247  -9.194   1.412  1.00  0.00     0.031 C 
ATOM     46  C   UNL     1      -6.462 -11.023   6.893  1.00  0.00     0.029 A 
ATOM     47  C   UNL     1      -7.832 -11.526   6.872  1.00  0.00     0.049 A 
ATOM     48  H   UNL     1      -9.265 -11.229   5.388  1.00  0.00     0.167 HD
ATOM     49  C   UNL     1     -12.194 -10.488   2.208  1.00  0.00     0.031 A 
ATOM     50  C   UNL     1      -8.403 -12.280   7.833  1.00  0.00     0.031 A 
ATOM     51  C   UNL     1     -12.858 -11.357   3.141  1.00  0.00     0.049 A 
ATOM     52  C   UNL     1      -9.827 -12.737   7.652  1.00  0.00     0.074 A 
ATOM     53  C   UNL     1     -14.129 -11.896   3.057  1.00  0.00     0.029 A 
ATOM     54  N   UNL     1     -12.303 -11.816   4.325  1.00  0.00    -0.354 N 
ATOM     55  N   UNL     1     -10.647 -12.508   6.652  1.00  0.00    -0.248 NA
ATOM     56  C   UNL     1     -10.399 -13.568   8.720  1.00  0.00     0.031 C 
ATOM     57  C   UNL     1     -14.365 -12.634   4.220  1.00  0.00     0.029 A 
ATOM     58  C   UNL     1     -13.215 -12.615   4.993  1.00  0.00     0.049 A 
ATOM     59  H   UNL     1     -11.396 -11.606   4.644  1.00  0.00     0.167 HD
ATOM     60  C   UNL     1     -11.816 -13.199   6.956  1.00  0.00     0.074 A 
ATOM     61  C   UNL     1     -11.591 -13.864   8.222  1.00  0.00     0.031 C 
ATOM     62  C   UNL     1     -12.970 -13.279   6.248  1.00  0.00     0.031 A 
BRANCH  49  63
ATOM     63  C   UNL     1     -12.948 -10.035   0.985  1.00  0.00    -0.014 A 
ATOM     64  C   UNL     1     -12.584 -10.480  -0.299  1.00  0.00     0.010 A 
ATOM     65  C   UNL     1     -14.063  -9.189   1.124  1.00  0.00     0.010 A 
ATOM     66  C   UNL     1     -13.298 -10.060  -1.424  1.00  0.00     0.020 A 
ATOM     67  C   UNL     1     -14.801  -8.793   0.005  1.00  0.00     0.020 A 
ATOM     68  C   UNL     1     -14.404  -9.221  -1.264  1.00  0.00     0.054 A 
BRANCH  68  69
ATOM     69  S   UNL     1     -15.336  -8.727  -2.739  1.00  0.00     0.124 S 
ATOM     70  O   UNL     1     -14.400  -7.818  -3.396  1.00  0.00    -0.237 OA
ATOM     71  O   UNL     1     -15.556 -10.002  -3.418  1.00  0.00    -0.237 OA
ATOM     72  O   UNL     1     -16.538  -8.098  -2.196  1.00  0.00    -0.744 OA
ENDBRANCH  68  69
ENDBRANCH  49  63
BRANCH  50  73
ATOM     73  C   UNL     1      -7.630 -12.665   9.048  1.00  0.00    -0.014 A 
ATOM     74  C   UNL     1      -7.281 -14.008   9.281  1.00  0.00     0.010 A 
ATOM     75  C   UNL     1      -7.254 -11.693   9.993  1.00  0.00     0.010 A 
ATOM     76  C   UNL     1      -6.603 -14.375  10.449  1.00  0.00     0.020 A 
ATOM     77  C   UNL     1      -6.546 -12.050  11.145  1.00  0.00     0.020 A 
ATOM     78  C   UNL     1      -6.240 -13.392  11.374  1.00  0.00     0.054 A 
BRANCH  78  79
ATOM     79  S   UNL     1      -5.339 -13.887  12.869  1.00  0.00     0.124 S 
ATOM     80  O   UNL     1      -6.374 -14.577  13.633  1.00  0.00    -0.237 OA
ATOM     81  O   UNL     1      -4.279 -14.735  12.330  1.00  0.00    -0.237 OA
ATOM     82  O   UNL     1      -4.886 -12.617  13.431  1.00  0.00    -0.744 OA
ENDBRANCH  78  79
ENDBRANCH  50  73
BRANCH  62  83
ATOM     83  C   UNL     1     -14.064 -14.159   6.795  1.00  0.00    -0.014 A 
ATOM     84  C   UNL     1     -14.786 -13.806   7.948  1.00  0.00     0.010 A 
ATOM     85  C   UNL     1     -14.413 -15.332   6.099  1.00  0.00     0.010 A 
ATOM     86  C   UNL     1     -15.813 -14.630   8.417  1.00  0.00     0.020 A 
ATOM     87  C   UNL     1     -15.462 -16.139   6.545  1.00  0.00     0.020 A 
ATOM     88  C   UNL     1     -16.145 -15.791   7.710  1.00  0.00     0.054 A 
BRANCH  88  89
ATOM     89  S   UNL     1     -17.511 -16.819   8.316  1.00  0.00     0.124 S 
ATOM     90  O   UNL     1     -16.930 -17.421   9.512  1.00  0.00    -0.237 OA
ATOM     91  O   UNL     1     -18.567 -15.838   8.554  1.00  0.00    -0.237 OA
ATOM     92  O   UNL     1     -17.765 -17.744   7.213  1.00  0.00    -0.744 OA
ENDBRANCH  88  89
ENDBRANCH  62  83
ENDBRANCH  36  37
ENDBRANCH  28  31
ENDBRANCH  26  27
ENDBRANCH  25  26
ENDBRANCH   1  25
TORSDOF 17
