REMARK SMILES COc1ncccc1C(=O)N[C@@](C)(C(=O)NCCCCNC(=O)c1ccc(-c2c3nc(c(-c4ccc(S(=O)(=O)[O-])cc4)c4ccc([nH]4)c(-c4ccc(S(=O)(=O)[O-])cc4)c4nc(c(-c5ccc(S(=O)(=O)[O-])cc5)c5ccc2[nH]5)C=C4)C=C3)cc1)C(F)(F)F
REMARK SMILES IDX 18 1 17 2 16 3 14 4 15 5 12 7 13 8 11 9 9 10 10 11 8 13 3 14
REMARK SMILES IDX 4 15 5 16 7 17 6 18 2 19 1 20 84 21 85 22 86 23 87 24 19 25
REMARK SMILES IDX 20 26 21 27 22 28 23 30 24 31 25 32 83 33 26 34 82 35 27 36
REMARK SMILES IDX 28 37 29 38 76 39 30 40 81 41 75 42 77 43 31 44 80 45 74 46
REMARK SMILES IDX 73 47 32 49 62 50 43 51 61 52 44 53 47 54 60 55 78 56 45 57
REMARK SMILES IDX 46 58 59 60 79 61 48 62 33 63 34 64 42 65 35 66 41 67 36 68
REMARK SMILES IDX 37 69 38 70 39 71 40 72 63 73 64 74 72 75 65 76 71 77 66 78
REMARK SMILES IDX 67 79 68 80 69 81 70 82 49 83 50 84 58 85 51 86 57 87 52 88
REMARK SMILES IDX 53 89 54 90 55 91 56 92
REMARK H PARENT 16 6 11 12 21 29 77 48 47 59
REMARK Flexibility Score: inf
ROOT
ATOM      1  C   UNL     1       7.901   1.334  -0.446  1.00  0.00     0.023 C 
ENDROOT
BRANCH   1   2
ATOM      2  C   UNL     1       7.562   1.326   1.043  1.00  0.00     0.116 C 
BRANCH   2   3
ATOM      3  N   UNL     1       7.339   2.658   1.583  1.00  0.00    -0.354 N 
ATOM      4  C   UNL     1       6.455   3.186   2.480  1.00  0.00     0.254 C 
ATOM      5  O   UNL     1       6.691   4.353   2.803  1.00  0.00    -0.272 OA
ATOM      6  H   UNL     1       7.964   3.328   1.221  1.00  0.00     0.163 HD
BRANCH   4   7
ATOM      7  C   UNL     1       5.197   2.427   2.979  1.00  0.00     0.212 C 
ATOM      8  C   UNL     1       5.557   1.096   3.662  1.00  0.00     0.056 C 
BRANCH   7   9
ATOM      9  N   UNL     1       4.438   2.187   1.693  1.00  0.00    -0.330 N 
ATOM     10  C   UNL     1       3.225   1.993   1.103  1.00  0.00     0.257 C 
ATOM     11  O   UNL     1       3.349   1.533  -0.037  1.00  0.00    -0.269 OA
ATOM     12  H   UNL     1       5.109   2.156   0.973  1.00  0.00     0.165 HD
BRANCH  10  13
ATOM     13  C   UNL     1       1.858   2.292   1.612  1.00  0.00     0.101 A 
ATOM     14  C   UNL     1       0.724   1.786   0.953  1.00  0.00     0.226 A 
ATOM     15  N   UNL     1      -0.566   2.063   1.295  1.00  0.00    -0.221 NA
ATOM     16  C   UNL     1      -0.764   2.898   2.327  1.00  0.00     0.115 A 
ATOM     17  C   UNL     1       1.583   3.175   2.650  1.00  0.00     0.021 A 
ATOM     18  C   UNL     1       0.271   3.472   3.032  1.00  0.00     0.021 A 
BRANCH  14  19
ATOM     19  O   UNL     1       0.817   1.063  -0.206  1.00  0.00    -0.480 OA
ATOM     20  C   UNL     1       0.692  -0.323   0.076  1.00  0.00     0.280 C 
ENDBRANCH  14  19
ENDBRANCH  10  13
ENDBRANCH   7   9
BRANCH   7  21
ATOM     21  C   UNL     1       4.611   3.326   4.083  1.00  0.00     0.420 C 
ATOM     22  F   UNL     1       4.183   4.527   3.642  1.00  0.00    -0.168 F 
ATOM     23  F   UNL     1       3.548   2.711   4.673  1.00  0.00    -0.168 F 
ATOM     24  F   UNL     1       5.494   3.547   5.088  1.00  0.00    -0.168 F 
ENDBRANCH   7  21
ENDBRANCH   4   7
ENDBRANCH   2   3
ENDBRANCH   1   2
BRANCH   1  25
ATOM     25  C   UNL     1       9.077   2.217  -0.866  1.00  0.00     0.023 C 
BRANCH  25  26
ATOM     26  C   UNL     1      10.361   2.041  -0.063  1.00  0.00     0.116 C 
BRANCH  26  27
ATOM     27  N   UNL     1      10.886   0.687  -0.116  1.00  0.00    -0.352 N 
ATOM     28  C   UNL     1      12.160   0.261  -0.419  1.00  0.00     0.251 C 
ATOM     29  H   UNL     1      10.240  -0.026   0.093  1.00  0.00     0.163 HD
ATOM     30  O   UNL     1      12.395  -0.934  -0.532  1.00  0.00    -0.269 OA
BRANCH  28  31
ATOM     31  C   UNL     1      13.230   1.260  -0.640  1.00  0.00     0.039 A 
ATOM     32  C   UNL     1      14.031   1.149  -1.779  1.00  0.00     0.014 A 
ATOM     33  C   UNL     1      13.423   2.313   0.258  1.00  0.00     0.014 A 
ATOM     34  C   UNL     1      14.980   2.136  -2.054  1.00  0.00     0.010 A 
ATOM     35  C   UNL     1      14.317   3.332  -0.056  1.00  0.00     0.010 A 
ATOM     36  C   UNL     1      15.106   3.255  -1.215  1.00  0.00    -0.014 A 
BRANCH  36  37
ATOM     37  C   UNL     1      16.055   4.354  -1.527  1.00  0.00     0.031 A 
ATOM     38  C   UNL     1      17.201   4.647  -0.596  1.00  0.00     0.074 A 
ATOM     39  C   UNL     1      15.848   5.133  -2.608  1.00  0.00     0.049 A 
ATOM     40  N   UNL     1      18.091   5.604  -0.658  1.00  0.00    -0.248 NA
ATOM     41  C   UNL     1      17.349   3.763   0.571  1.00  0.00     0.031 C 
ATOM     42  C   UNL     1      14.753   4.978  -3.568  1.00  0.00     0.029 A 
ATOM     43  N   UNL     1      16.548   6.217  -3.077  1.00  0.00    -0.354 N 
ATOM     44  C   UNL     1      18.889   5.451   0.470  1.00  0.00     0.074 A 
ATOM     45  C   UNL     1      18.347   4.341   1.223  1.00  0.00     0.031 C 
ATOM     46  C   UNL     1      14.870   5.914  -4.524  1.00  0.00     0.029 A 
ATOM     47  C   UNL     1      16.021   6.760  -4.225  1.00  0.00     0.049 A 
ATOM     48  H   UNL     1      17.351   6.572  -2.632  1.00  0.00     0.167 HD
ATOM     49  C   UNL     1      19.986   6.157   0.837  1.00  0.00     0.031 A 
ATOM     50  C   UNL     1      16.416   7.822  -4.954  1.00  0.00     0.031 A 
ATOM     51  C   UNL     1      20.529   7.253   0.080  1.00  0.00     0.049 A 
ATOM     52  C   UNL     1      17.633   8.596  -4.525  1.00  0.00     0.074 A 
ATOM     53  C   UNL     1      21.666   7.998   0.339  1.00  0.00     0.029 A 
ATOM     54  N   UNL     1      19.972   7.764  -1.083  1.00  0.00    -0.354 N 
ATOM     55  N   UNL     1      18.410   8.398  -3.487  1.00  0.00    -0.248 NA
ATOM     56  C   UNL     1      18.032   9.729  -5.371  1.00  0.00     0.031 C 
ATOM     57  C   UNL     1      21.770   8.990  -0.642  1.00  0.00     0.029 A 
ATOM     58  C   UNL     1      20.731   8.827  -1.544  1.00  0.00     0.049 A 
ATOM     59  H   UNL     1      19.158   7.421  -1.518  1.00  0.00     0.167 HD
ATOM     60  C   UNL     1      19.407   9.364  -3.571  1.00  0.00     0.074 A 
ATOM     61  C   UNL     1      19.140  10.137  -4.767  1.00  0.00     0.031 C 
ATOM     62  C   UNL     1      20.452   9.587  -2.736  1.00  0.00     0.031 A 
BRANCH  49  63
ATOM     63  C   UNL     1      20.662   5.762   2.124  1.00  0.00    -0.014 A 
ATOM     64  C   UNL     1      21.351   4.540   2.239  1.00  0.00     0.010 A 
ATOM     65  C   UNL     1      20.622   6.630   3.230  1.00  0.00     0.010 A 
ATOM     66  C   UNL     1      21.938   4.169   3.451  1.00  0.00     0.020 A 
ATOM     67  C   UNL     1      21.235   6.276   4.436  1.00  0.00     0.020 A 
ATOM     68  C   UNL     1      21.870   5.037   4.545  1.00  0.00     0.054 A 
BRANCH  68  69
ATOM     69  S   UNL     1      22.640   4.529   6.106  1.00  0.00     0.124 S 
ATOM     70  O   UNL     1      21.699   3.521   6.590  1.00  0.00    -0.237 OA
ATOM     71  O   UNL     1      23.938   4.019   5.674  1.00  0.00    -0.237 OA
ATOM     72  O   UNL     1      22.686   5.762   6.887  1.00  0.00    -0.744 OA
ENDBRANCH  68  69
ENDBRANCH  49  63
BRANCH  50  73
ATOM     73  C   UNL     1      15.665   8.198  -6.183  1.00  0.00    -0.014 A 
ATOM     74  C   UNL     1      16.224   7.976  -7.454  1.00  0.00     0.010 A 
ATOM     75  C   UNL     1      14.376   8.756  -6.091  1.00  0.00     0.010 A 
ATOM     76  C   UNL     1      15.515   8.316  -8.609  1.00  0.00     0.020 A 
ATOM     77  C   UNL     1      13.653   9.072  -7.245  1.00  0.00     0.020 A 
ATOM     78  C   UNL     1      14.232   8.858  -8.498  1.00  0.00     0.054 A 
BRANCH  78  79
ATOM     79  S   UNL     1      13.305   9.231 -10.013  1.00  0.00     0.124 S 
ATOM     80  O   UNL     1      13.985  10.428 -10.498  1.00  0.00    -0.237 OA
ATOM     81  O   UNL     1      13.505   8.022 -10.809  1.00  0.00    -0.237 OA
ATOM     82  O   UNL     1      11.939   9.434  -9.536  1.00  0.00    -0.744 OA
ENDBRANCH  78  79
ENDBRANCH  50  73
BRANCH  62  83
ATOM     83  C   UNL     1      21.409  10.690  -3.101  1.00  0.00    -0.014 A 
ATOM     84  C   UNL     1      21.051  12.043  -2.968  1.00  0.00     0.010 A 
ATOM     85  C   UNL     1      22.710  10.363  -3.527  1.00  0.00     0.010 A 
ATOM     86  C   UNL     1      21.968  13.049  -3.281  1.00  0.00     0.020 A 
ATOM     87  C   UNL     1      23.638  11.366  -3.815  1.00  0.00     0.020 A 
ATOM     88  C   UNL     1      23.257  12.704  -3.702  1.00  0.00     0.054 A 
BRANCH  88  89
ATOM     89  S   UNL     1      24.445  14.029  -4.054  1.00  0.00     0.124 S 
ATOM     90  O   UNL     1      23.961  14.539  -5.334  1.00  0.00    -0.237 OA
ATOM     91  O   UNL     1      24.274  14.926  -2.914  1.00  0.00    -0.237 OA
ATOM     92  O   UNL     1      25.731  13.336  -4.106  1.00  0.00    -0.744 OA
ENDBRANCH  88  89
ENDBRANCH  62  83
ENDBRANCH  36  37
ENDBRANCH  28  31
ENDBRANCH  26  27
ENDBRANCH  25  26
ENDBRANCH   1  25
TORSDOF 18
