REMARK SMILES Cc1ccc(-c2cc(C(=O)NCCCCNC(=O)c3ccc(-c4c5nc(c(-c6ccc(S(=O)(=O)[O-])cc6)c6ccc([nH]6)c(-c6ccc(S(=O)(=O)[O-])cc6)c6nc(c(-c7ccc(S(=O)(=O)[O-])cc7)c7ccc4[nH]7)C=C6)C=C5)cc3)c3c(-c4cccc([N+](=O)[O-])c4)[nH]nc3n2)cc1
REMARK SMILES IDX 14 1 13 2 12 3 11 4 9 5 10 6 8 8 6 9 7 10 93 11 92 12 79 13
REMARK SMILES IDX 91 14 80 15 90 16 5 18 1 19 2 20 3 21 95 22 4 23 94 24 81 25
REMARK SMILES IDX 82 26 89 27 83 28 85 29 84 30 86 31 87 32 88 33 15 34 16 35
REMARK SMILES IDX 17 36 18 38 19 39 20 40 78 41 21 42 77 43 22 44 23 45 24 46
REMARK SMILES IDX 71 47 25 48 76 49 70 50 72 51 26 52 75 53 69 54 68 55 27 57
REMARK SMILES IDX 57 58 38 59 56 60 39 61 42 62 55 63 73 64 40 65 41 66 54 68
REMARK SMILES IDX 74 69 43 70 28 71 29 72 37 73 30 74 36 75 31 76 32 77 33 78
REMARK SMILES IDX 34 79 35 80 58 81 59 82 67 83 60 84 66 85 61 86 62 87 63 88
REMARK SMILES IDX 64 89 65 90 44 91 45 92 53 93 46 94 52 95 47 96 48 97 49 98
REMARK SMILES IDX 50 99 51 100
REMARK H PARENT 11 7 90 17 16 37 72 56 42 67
REMARK Flexibility Score: inf
ROOT
ATOM      1  C   UNL     1      -3.339   1.031  -5.809  1.00  0.00     0.023 C 
ENDROOT
BRANCH   1   2
ATOM      2  C   UNL     1      -2.792   1.163  -4.382  1.00  0.00     0.023 C 
BRANCH   2   3
ATOM      3  C   UNL     1      -3.437   2.280  -3.546  1.00  0.00     0.116 C 
BRANCH   3   4
ATOM      4  N   UNL     1      -4.866   2.078  -3.331  1.00  0.00    -0.352 N 
ATOM      5  C   UNL     1      -5.662   1.461  -2.399  1.00  0.00     0.252 C 
ATOM      6  O   UNL     1      -6.864   1.649  -2.566  1.00  0.00    -0.269 OA
ATOM      7  H   UNL     1      -5.402   2.494  -4.045  1.00  0.00     0.163 HD
BRANCH   5   8
ATOM      8  C   UNL     1      -5.177   0.653  -1.250  1.00  0.00     0.055 A 
ATOM      9  C   UNL     1      -3.314  -0.221   0.160  1.00  0.00     0.074 A 
ATOM     10  C   UNL     1      -3.822   0.408  -1.005  1.00  0.00     0.043 A 
ATOM     11  N   UNL     1      -4.056  -0.766   1.153  1.00  0.00    -0.226 NA
ATOM     12  C   UNL     1      -5.387  -0.620   0.941  1.00  0.00     0.182 A 
ATOM     13  C   UNL     1      -5.941   0.060  -0.215  1.00  0.00     0.059 A 
ATOM     14  N   UNL     1      -6.335  -1.069   1.763  1.00  0.00    -0.154 NA
ATOM     15  C   UNL     1      -7.314  -0.044  -0.036  1.00  0.00     0.076 A 
ATOM     16  N   UNL     1      -7.470  -0.692   1.167  1.00  0.00    -0.275 N 
ATOM     17  H   UNL     1      -8.355  -0.865   1.561  1.00  0.00     0.190 HD
BRANCH   9  18
ATOM     18  C   UNL     1      -1.853  -0.231   0.329  1.00  0.00     0.000 A 
ATOM     19  C   UNL     1       2.458  -0.149   0.071  1.00  0.00     0.044 C 
ATOM     20  C   UNL     1       0.967  -0.174   0.232  1.00  0.00    -0.051 A 
ATOM     21  C   UNL     1       0.279  -1.393   0.295  1.00  0.00     0.004 A 
ATOM     22  C   UNL     1       0.243   1.019   0.272  1.00  0.00     0.004 A 
ATOM     23  C   UNL     1      -1.119  -1.423   0.349  1.00  0.00     0.010 A 
ATOM     24  C   UNL     1      -1.149   0.988   0.328  1.00  0.00     0.010 A 
ENDBRANCH   9  18
BRANCH  15  25
ATOM     25  C   UNL     1      -8.491   0.321  -0.811  1.00  0.00     0.007 A 
ATOM     26  C   UNL     1      -9.329   1.360  -0.382  1.00  0.00     0.011 A 
ATOM     27  C   UNL     1      -8.767  -0.339  -2.015  1.00  0.00     0.096 A 
ATOM     28  C   UNL     1     -10.405   1.775  -1.171  1.00  0.00     0.008 A 
ATOM     29  C   UNL     1      -9.825   0.107  -2.818  1.00  0.00     0.270 A 
ATOM     30  C   UNL     1     -10.649   1.160  -2.399  1.00  0.00     0.085 A 
BRANCH  29  31
ATOM     31  N   UNL     1     -10.049  -0.517  -4.126  1.00  0.00     0.062 N 
ATOM     32  O   UNL     1     -10.952  -0.057  -4.840  1.00  0.00    -0.258 OA
ATOM     33  O   UNL     1      -9.348  -1.494  -4.431  1.00  0.00    -0.258 OA
ENDBRANCH  29  31
ENDBRANCH  15  25
ENDBRANCH   5   8
ENDBRANCH   3   4
ENDBRANCH   2   3
ENDBRANCH   1   2
BRANCH   1  34
ATOM     34  C   UNL     1      -3.092   2.259  -6.675  1.00  0.00     0.116 C 
BRANCH  34  35
ATOM     35  N   UNL     1      -1.912   2.201  -7.517  1.00  0.00    -0.352 N 
ATOM     36  C   UNL     1      -1.526   3.156  -8.450  1.00  0.00     0.251 C 
ATOM     37  H   UNL     1      -1.330   1.413  -7.417  1.00  0.00     0.163 HD
ATOM     38  O   UNL     1      -0.817   2.907  -9.403  1.00  0.00    -0.269 OA
BRANCH  36  39
ATOM     39  C   UNL     1      -1.882   4.557  -8.119  1.00  0.00     0.039 A 
ATOM     40  C   UNL     1      -0.839   5.377  -7.669  1.00  0.00     0.014 A 
ATOM     41  C   UNL     1      -3.213   4.926  -7.947  1.00  0.00     0.014 A 
ATOM     42  C   UNL     1      -1.131   6.485  -6.879  1.00  0.00     0.010 A 
ATOM     43  C   UNL     1      -3.495   5.972  -7.089  1.00  0.00     0.010 A 
ATOM     44  C   UNL     1      -2.454   6.717  -6.512  1.00  0.00    -0.014 A 
BRANCH  44  45
ATOM     45  C   UNL     1      -2.857   7.670  -5.483  1.00  0.00     0.031 A 
ATOM     46  C   UNL     1      -3.513   8.939  -5.878  1.00  0.00     0.074 A 
ATOM     47  C   UNL     1      -2.722   7.364  -4.172  1.00  0.00     0.049 A 
ATOM     48  N   UNL     1      -3.656   9.964  -5.105  1.00  0.00    -0.248 NA
ATOM     49  C   UNL     1      -3.983   9.182  -7.240  1.00  0.00     0.031 C 
ATOM     50  C   UNL     1      -3.391   8.018  -3.050  1.00  0.00     0.029 A 
ATOM     51  N   UNL     1      -1.765   6.548  -3.562  1.00  0.00    -0.354 N 
ATOM     52  C   UNL     1      -4.498  10.845  -5.743  1.00  0.00     0.074 A 
ATOM     53  C   UNL     1      -4.554  10.382  -7.107  1.00  0.00     0.031 C 
ATOM     54  C   UNL     1      -2.653   7.835  -1.944  1.00  0.00     0.029 A 
ATOM     55  C   UNL     1      -1.420   7.190  -2.360  1.00  0.00     0.049 A 
ATOM     56  H   UNL     1      -1.406   5.697  -3.904  1.00  0.00     0.167 HD
ATOM     57  C   UNL     1      -5.176  11.774  -5.010  1.00  0.00     0.031 A 
ATOM     58  C   UNL     1      -0.165   7.631  -2.050  1.00  0.00     0.031 A 
ATOM     59  C   UNL     1      -4.642  11.874  -3.651  1.00  0.00     0.049 A 
ATOM     60  C   UNL     1      -0.116   9.106  -1.714  1.00  0.00     0.074 A 
ATOM     61  C   UNL     1      -5.091  11.449  -2.412  1.00  0.00     0.029 A 
ATOM     62  N   UNL     1      -3.318  12.267  -3.476  1.00  0.00    -0.354 N 
ATOM     63  N   UNL     1      -1.071   9.949  -1.994  1.00  0.00    -0.248 NA
ATOM     64  C   UNL     1       1.026   9.755  -1.077  1.00  0.00     0.031 C 
ATOM     65  C   UNL     1      -3.991  11.495  -1.511  1.00  0.00     0.029 A 
ATOM     66  C   UNL     1      -2.892  11.989  -2.193  1.00  0.00     0.049 A 
ATOM     67  H   UNL     1      -2.763  12.687  -4.172  1.00  0.00     0.167 HD
ATOM     68  C   UNL     1      -0.708  11.211  -1.599  1.00  0.00     0.074 A 
ATOM     69  C   UNL     1       0.611  11.034  -1.017  1.00  0.00     0.031 C 
ATOM     70  C   UNL     1      -1.521  12.292  -1.794  1.00  0.00     0.031 A 
BRANCH  57  71
ATOM     71  C   UNL     1      -6.486  12.411  -5.446  1.00  0.00    -0.014 A 
ATOM     72  C   UNL     1      -7.266  13.122  -4.508  1.00  0.00     0.010 A 
ATOM     73  C   UNL     1      -7.069  12.250  -6.718  1.00  0.00     0.010 A 
ATOM     74  C   UNL     1      -8.563  13.584  -4.806  1.00  0.00     0.020 A 
ATOM     75  C   UNL     1      -8.354  12.711  -7.036  1.00  0.00     0.020 A 
ATOM     76  C   UNL     1      -9.106  13.359  -6.069  1.00  0.00     0.054 A 
BRANCH  76  77
ATOM     77  S   UNL     1     -10.799  13.886  -6.436  1.00  0.00     0.124 S 
ATOM     78  O   UNL     1     -11.585  13.075  -5.510  1.00  0.00    -0.237 OA
ATOM     79  O   UNL     1     -10.757  15.316  -6.145  1.00  0.00    -0.237 OA
ATOM     80  O   UNL     1     -10.970  13.549  -7.848  1.00  0.00    -0.744 OA
ENDBRANCH  76  77
ENDBRANCH  57  71
BRANCH  58  81
ATOM     81  C   UNL     1       0.934   6.859  -2.689  1.00  0.00    -0.014 A 
ATOM     82  C   UNL     1       1.143   5.540  -2.230  1.00  0.00     0.010 A 
ATOM     83  C   UNL     1       1.403   7.221  -3.964  1.00  0.00     0.010 A 
ATOM     84  C   UNL     1       1.622   4.558  -3.098  1.00  0.00     0.020 A 
ATOM     85  C   UNL     1       1.893   6.236  -4.833  1.00  0.00     0.020 A 
ATOM     86  C   UNL     1       1.922   4.902  -4.416  1.00  0.00     0.054 A 
BRANCH  86  87
ATOM     87  S   UNL     1       2.132   3.552  -5.617  1.00  0.00     0.124 S 
ATOM     88  O   UNL     1       3.197   2.759  -5.013  1.00  0.00    -0.237 OA
ATOM     89  O   UNL     1       0.804   2.937  -5.606  1.00  0.00    -0.237 OA
ATOM     90  O   UNL     1       2.484   4.253  -6.847  1.00  0.00    -0.744 OA
ENDBRANCH  86  87
ENDBRANCH  58  81
BRANCH  70  91
ATOM     91  C   UNL     1      -1.147  13.742  -1.573  1.00  0.00    -0.014 A 
ATOM     92  C   UNL     1       0.170  14.228  -1.544  1.00  0.00     0.010 A 
ATOM     93  C   UNL     1      -2.181  14.708  -1.511  1.00  0.00     0.010 A 
ATOM     94  C   UNL     1       0.442  15.597  -1.395  1.00  0.00     0.020 A 
ATOM     95  C   UNL     1      -1.923  16.079  -1.408  1.00  0.00     0.020 A 
ATOM     96  C   UNL     1      -0.607  16.514  -1.325  1.00  0.00     0.054 A 
BRANCH  96  97
ATOM     97  S   UNL     1      -0.246  18.285  -1.206  1.00  0.00     0.124 S 
ATOM     98  O   UNL     1      -0.143  18.475   0.238  1.00  0.00    -0.237 OA
ATOM     99  O   UNL     1       1.008  18.416  -1.946  1.00  0.00    -0.237 OA
ATOM    100  O   UNL     1      -1.403  18.912  -1.842  1.00  0.00    -0.744 OA
ENDBRANCH  96  97
ENDBRANCH  70  91
ENDBRANCH  44  45
ENDBRANCH  36  39
ENDBRANCH  34  35
ENDBRANCH   1  34
TORSDOF 17
