REMARK SMILES C#CCN(CC(=O)NCCCCNC(=O)c1ccc(-c2c3nc(c(-c4ccc(S(=O)(=O)[O-])cc4)c4ccc([nH]4)c(-c4ccc(S(=O)(=O)[O-])cc4)c4nc(c(-c5ccc(S(=O)(=O)[O-])cc5)c5ccc2[nH]5)C=C4)C=C3)cc1)c1ncccc1C(=O)OCC
REMARK SMILES IDX 9 1 8 2 6 3 7 4 5 6 4 7 3 8 2 9 1 10 76 11 77 12 81 13 78 14
REMARK SMILES IDX 80 15 79 16 82 17 83 18 84 19 85 20 86 21 10 22 11 23 12 24
REMARK SMILES IDX 13 25 14 26 15 28 16 29 17 30 75 31 18 32 74 33 19 34 20 35
REMARK SMILES IDX 21 36 68 37 22 38 73 39 67 40 69 41 23 42 72 43 66 44 65 45
REMARK SMILES IDX 24 47 54 48 35 49 53 50 36 51 39 52 52 53 70 54 37 55 38 56
REMARK SMILES IDX 51 58 71 59 40 60 25 61 26 62 34 63 27 64 33 65 28 66 29 67
REMARK SMILES IDX 30 68 31 69 32 70 55 71 56 72 64 73 57 74 63 75 58 76 59 77
REMARK SMILES IDX 60 78 61 79 62 80 41 81 42 82 50 83 43 84 49 85 44 86 45 87
REMARK SMILES IDX 46 88 47 89 48 90
REMARK H PARENT 8 5 13 27 69 46 39 57
REMARK Flexibility Score: inf
ROOT
ATOM      1  C   UNL     1      -5.093   0.087   0.014  1.00  0.00     0.116 C 
ENDROOT
BRANCH   1   2
ATOM      2  N   UNL     1      -5.292   1.122  -0.972  1.00  0.00    -0.355 N 
ATOM      3  C   UNL     1      -4.405   1.655  -1.866  1.00  0.00     0.239 C 
ATOM      4  O   UNL     1      -4.839   2.495  -2.663  1.00  0.00    -0.273 OA
ATOM      5  H   UNL     1      -6.201   1.500  -1.006  1.00  0.00     0.163 HD
BRANCH   3   6
ATOM      6  C   UNL     1      -2.963   1.132  -1.979  1.00  0.00     0.219 C 
BRANCH   6   7
ATOM      7  N   UNL     1      -2.113   1.238  -0.778  1.00  0.00    -0.335 N 
BRANCH   7   8
ATOM      8  C   UNL     1      -1.760  -0.013  -0.076  1.00  0.00     0.208 C 
BRANCH   8   9
ATOM      9  C   UNL     1      -0.240  -0.013  -0.076  1.00  0.00    -0.085 C 
ATOM     10  C   UNL     1       1.064  -0.013  -0.076  1.00  0.00     0.006 C 
ENDBRANCH   8   9
ENDBRANCH   7   8
BRANCH   7  11
ATOM     11  C   UNL     1      -1.870   2.525  -0.310  1.00  0.00     0.144 A 
ATOM     12  N   UNL     1      -3.006   3.232  -0.071  1.00  0.00    -0.238 NA
ATOM     13  C   UNL     1      -0.635   3.178  -0.086  1.00  0.00     0.102 A 
ATOM     14  C   UNL     1      -2.958   4.513   0.363  1.00  0.00     0.113 A 
ATOM     15  C   UNL     1      -0.615   4.508   0.396  1.00  0.00     0.021 A 
ATOM     16  C   UNL     1      -1.793   5.189   0.626  1.00  0.00     0.021 A 
BRANCH  13  17
ATOM     17  C   UNL     1       0.721   2.740  -0.494  1.00  0.00     0.341 C 
ATOM     18  O   UNL     1       1.063   2.525  -1.642  1.00  0.00    -0.246 OA
BRANCH  17  19
ATOM     19  O   UNL     1       1.539   2.777   0.609  1.00  0.00    -0.462 OA
BRANCH  19  20
ATOM     20  C   UNL     1       2.937   2.478   0.410  1.00  0.00     0.230 C 
ATOM     21  C   UNL     1       3.454   1.651   1.584  1.00  0.00     0.049 C 
ENDBRANCH  19  20
ENDBRANCH  17  19
ENDBRANCH  13  17
ENDBRANCH   7  11
ENDBRANCH   6   7
ENDBRANCH   3   6
ENDBRANCH   1   2
BRANCH   1  22
ATOM     22  C   UNL     1      -4.783   0.640   1.405  1.00  0.00     0.023 C 
BRANCH  22  23
ATOM     23  C   UNL     1      -5.948   1.352   2.091  1.00  0.00     0.023 C 
BRANCH  23  24
ATOM     24  C   UNL     1      -7.179   0.487   2.321  1.00  0.00     0.116 C 
BRANCH  24  25
ATOM     25  N   UNL     1      -6.902  -0.702   3.115  1.00  0.00    -0.352 N 
ATOM     26  C   UNL     1      -7.696  -1.306   4.059  1.00  0.00     0.251 C 
ATOM     27  H   UNL     1      -6.030  -1.129   2.953  1.00  0.00     0.163 HD
ATOM     28  O   UNL     1      -7.260  -2.243   4.721  1.00  0.00    -0.269 OA
BRANCH  26  29
ATOM     29  C   UNL     1      -9.061  -0.792   4.297  1.00  0.00     0.039 A 
ATOM     30  C   UNL     1      -9.467  -0.545   5.611  1.00  0.00     0.014 A 
ATOM     31  C   UNL     1      -9.920  -0.522   3.229  1.00  0.00     0.014 A 
ATOM     32  C   UNL     1     -10.713   0.039   5.848  1.00  0.00     0.010 A 
ATOM     33  C   UNL     1     -11.132   0.121   3.464  1.00  0.00     0.010 A 
ATOM     34  C   UNL     1     -11.539   0.411   4.775  1.00  0.00    -0.014 A 
BRANCH  34  35
ATOM     35  C   UNL     1     -12.824   1.120   5.001  1.00  0.00     0.031 A 
ATOM     36  C   UNL     1     -14.124   0.471   4.613  1.00  0.00     0.074 A 
ATOM     37  C   UNL     1     -12.812   2.380   5.480  1.00  0.00     0.049 A 
ATOM     38  N   UNL     1     -15.336   0.960   4.669  1.00  0.00    -0.248 NA
ATOM     39  C   UNL     1     -14.052  -0.894   4.065  1.00  0.00     0.031 C 
ATOM     40  C   UNL     1     -11.612   3.141   5.839  1.00  0.00     0.029 A 
ATOM     41  N   UNL     1     -13.843   3.251   5.733  1.00  0.00    -0.354 N 
ATOM     42  C   UNL     1     -16.165  -0.022   4.140  1.00  0.00     0.074 A 
ATOM     43  C   UNL     1     -15.316  -1.121   3.736  1.00  0.00     0.031 C 
ATOM     44  C   UNL     1     -11.976   4.357   6.276  1.00  0.00     0.029 A 
ATOM     45  C   UNL     1     -13.429   4.477   6.198  1.00  0.00     0.049 A 
ATOM     46  H   UNL     1     -14.790   3.019   5.594  1.00  0.00     0.167 HD
ATOM     47  C   UNL     1     -17.514  -0.015   4.015  1.00  0.00     0.031 A 
ATOM     48  C   UNL     1     -14.136   5.579   6.515  1.00  0.00     0.031 A 
ATOM     49  C   UNL     1     -18.358   1.068   4.444  1.00  0.00     0.049 A 
ATOM     50  C   UNL     1     -15.635   5.550   6.394  1.00  0.00     0.074 A 
ATOM     51  C   UNL     1     -19.741   1.131   4.439  1.00  0.00     0.029 A 
ATOM     52  N   UNL     1     -17.904   2.275   4.950  1.00  0.00    -0.354 N 
ATOM     53  N   UNL     1     -16.407   4.575   5.977  1.00  0.00    -0.248 NA
ATOM     54  C   UNL     1     -16.358   6.763   6.801  1.00  0.00     0.031 C 
ATOM     55  C   UNL     1     -20.121   2.396   4.898  1.00  0.00     0.029 A 
ATOM     56  C   UNL     1     -18.977   3.100   5.238  1.00  0.00     0.049 A 
ATOM     57  H   UNL     1     -16.957   2.511   5.085  1.00  0.00     0.167 HD
ATOM     58  C   UNL     1     -17.709   5.050   6.094  1.00  0.00     0.074 A 
ATOM     59  C   UNL     1     -17.620   6.390   6.636  1.00  0.00     0.031 C 
ATOM     60  C   UNL     1     -18.873   4.431   5.780  1.00  0.00     0.031 A 
BRANCH  47  61
ATOM     61  C   UNL     1     -18.165  -1.217   3.385  1.00  0.00    -0.014 A 
ATOM     62  C   UNL     1     -18.239  -2.445   4.067  1.00  0.00     0.010 A 
ATOM     63  C   UNL     1     -18.765  -1.099   2.118  1.00  0.00     0.010 A 
ATOM     64  C   UNL     1     -18.872  -3.543   3.478  1.00  0.00     0.020 A 
ATOM     65  C   UNL     1     -19.422  -2.188   1.537  1.00  0.00     0.020 A 
ATOM     66  C   UNL     1     -19.458  -3.408   2.216  1.00  0.00     0.054 A 
BRANCH  66  67
ATOM     67  S   UNL     1     -20.306  -4.839   1.493  1.00  0.00     0.124 S 
ATOM     68  O   UNL     1     -19.183  -5.686   1.099  1.00  0.00    -0.237 OA
ATOM     69  O   UNL     1     -21.105  -5.337   2.610  1.00  0.00    -0.237 OA
ATOM     70  O   UNL     1     -21.072  -4.267   0.389  1.00  0.00    -0.744 OA
ENDBRANCH  66  67
ENDBRANCH  47  61
BRANCH  48  71
ATOM     71  C   UNL     1     -13.433   6.806   6.982  1.00  0.00    -0.014 A 
ATOM     72  C   UNL     1     -13.522   7.214   8.324  1.00  0.00     0.010 A 
ATOM     73  C   UNL     1     -12.669   7.571   6.082  1.00  0.00     0.010 A 
ATOM     74  C   UNL     1     -12.879   8.380   8.753  1.00  0.00     0.020 A 
ATOM     75  C   UNL     1     -12.004   8.722   6.514  1.00  0.00     0.020 A 
ATOM     76  C   UNL     1     -12.125   9.127   7.844  1.00  0.00     0.054 A 
BRANCH  76  77
ATOM     77  S   UNL     1     -11.265  10.613   8.430  1.00  0.00     0.124 S 
ATOM     78  O   UNL     1     -12.358  11.573   8.538  1.00  0.00    -0.237 OA
ATOM     79  O   UNL     1     -10.686  10.167   9.695  1.00  0.00    -0.237 OA
ATOM     80  O   UNL     1     -10.294  10.883   7.372  1.00  0.00    -0.744 OA
ENDBRANCH  76  77
ENDBRANCH  48  71
BRANCH  60  81
ATOM     81  C   UNL     1     -20.151   5.181   6.045  1.00  0.00    -0.014 A 
ATOM     82  C   UNL     1     -20.544   6.258   5.232  1.00  0.00     0.010 A 
ATOM     83  C   UNL     1     -20.997   4.762   7.088  1.00  0.00     0.010 A 
ATOM     84  C   UNL     1     -21.748   6.923   5.477  1.00  0.00     0.020 A 
ATOM     85  C   UNL     1     -22.214   5.407   7.319  1.00  0.00     0.020 A 
ATOM     86  C   UNL     1     -22.575   6.494   6.520  1.00  0.00     0.054 A 
BRANCH  86  87
ATOM     87  S   UNL     1     -24.155   7.344   6.790  1.00  0.00     0.124 S 
ATOM     88  O   UNL     1     -23.726   8.587   7.424  1.00  0.00    -0.237 OA
ATOM     89  O   UNL     1     -24.684   7.479   5.435  1.00  0.00    -0.237 OA
ATOM     90  O   UNL     1     -24.897   6.427   7.652  1.00  0.00    -0.744 OA
ENDBRANCH  86  87
ENDBRANCH  60  81
ENDBRANCH  34  35
ENDBRANCH  26  29
ENDBRANCH  24  25
ENDBRANCH  23  24
ENDBRANCH  22  23
ENDBRANCH   1  22
TORSDOF 21
