REMARK SMILES Nc1nccc(N2CCC[C@@](Cc3ccc(F)cc3F)(C(=O)NCCCCNC(=O)c3ccc(-c4c5nc(c(-c6ccc(S(=O)(=O)[O-])cc6)c6ccc([nH]6)c(-c6ccc(S(=O)(=O)[O-])cc6)c6nc(c(-c7ccc(S(=O)(=O)[O-])cc7)c7ccc4[nH]7)C=C6)C=C5)cc3)C2)n1
REMARK SMILES IDX 26 1 25 2 24 3 23 4 21 5 22 6 11 8 7 9 8 10 91 11 9 12 10 13
REMARK SMILES IDX 6 14 2 15 3 16 92 17 4 18 5 19 1 20 12 23 13 24 14 25 19 26
REMARK SMILES IDX 15 27 18 28 20 29 16 30 17 31 27 32 28 33 29 34 30 36 31 37
REMARK SMILES IDX 32 38 90 39 33 40 89 41 34 42 35 43 36 44 83 45 37 46 88 47
REMARK SMILES IDX 82 48 84 49 38 50 87 51 81 52 80 53 39 55 69 56 50 57 68 58
REMARK SMILES IDX 51 59 54 60 67 61 85 62 52 63 53 64 66 66 86 67 55 68 40 69
REMARK SMILES IDX 41 70 49 71 42 72 48 73 43 74 44 75 45 76 46 77 47 78 70 79
REMARK SMILES IDX 71 80 79 81 72 82 78 83 73 84 74 85 75 86 76 87 77 88 56 89
REMARK SMILES IDX 57 90 65 91 58 92 64 93 59 94 60 95 61 96 62 97 63 98
REMARK H PARENT 23 7 1 21 1 22 28 35 84 54 54 65
REMARK Flexibility Score: inf
ROOT
ATOM      1  C   UNL     1       5.483  -8.299  -3.741  1.00  0.00     0.023 C 
ENDROOT
BRANCH   1   2
ATOM      2  C   UNL     1       5.453  -7.292  -2.590  1.00  0.00     0.023 C 
BRANCH   2   3
ATOM      3  C   UNL     1       4.970  -5.900  -2.971  1.00  0.00     0.116 C 
BRANCH   3   4
ATOM      4  N   UNL     1       3.532  -5.789  -3.102  1.00  0.00    -0.356 N 
ATOM      5  C   UNL     1       2.641  -4.860  -2.654  1.00  0.00     0.228 C 
ATOM      6  O   UNL     1       1.510  -4.937  -3.149  1.00  0.00    -0.274 OA
ATOM      7  H   UNL     1       3.120  -6.525  -3.610  1.00  0.00     0.163 HD
BRANCH   5   8
ATOM      8  C   UNL     1       2.977  -3.763  -1.616  1.00  0.00     0.071 C 
ATOM      9  N   UNL     1       1.827  -2.263  -0.032  1.00  0.00    -0.355 N 
ATOM     10  C   UNL     1       2.353  -2.834   1.193  1.00  0.00     0.118 C 
ATOM     11  C   UNL     1       1.585  -3.204  -1.127  1.00  0.00     0.135 C 
ATOM     12  C   UNL     1       3.709  -3.443   0.871  1.00  0.00     0.023 C 
ATOM     13  C   UNL     1       3.670  -4.362  -0.356  1.00  0.00     0.021 C 
BRANCH   9  14
ATOM     14  C   UNL     1       1.057  -1.120   0.068  1.00  0.00     0.134 A 
ATOM     15  C   UNL     1      -0.959  -0.044   0.003  1.00  0.00     0.221 A 
ATOM     16  N   UNL     1      -0.426   1.162   0.226  1.00  0.00    -0.222 NA
ATOM     17  N   UNL     1      -0.271  -1.185  -0.103  1.00  0.00    -0.196 NA
ATOM     18  C   UNL     1       0.906   1.199   0.367  1.00  0.00     0.119 A 
ATOM     19  C   UNL     1       1.696   0.080   0.316  1.00  0.00     0.067 A 
BRANCH  15  20
ATOM     20  N   UNL     1      -2.316  -0.109  -0.118  1.00  0.00    -0.368 N 
ATOM     21  H   UNL     1      -2.857   0.711  -0.046  1.00  0.00     0.159 HD
ATOM     22  H   UNL     1      -2.756  -0.975  -0.277  1.00  0.00     0.159 HD
ENDBRANCH  15  20
ENDBRANCH   9  14
BRANCH   8  23
ATOM     23  C   UNL     1       3.694  -2.539  -2.275  1.00  0.00     0.057 C 
BRANCH  23  24
ATOM     24  C   UNL     1       5.022  -2.696  -2.969  1.00  0.00    -0.011 A 
ATOM     25  C   UNL     1       5.080  -2.873  -4.362  1.00  0.00     0.010 A 
ATOM     26  C   UNL     1       6.225  -2.635  -2.253  1.00  0.00     0.129 A 
ATOM     27  C   UNL     1       6.312  -3.026  -5.001  1.00  0.00     0.040 A 
ATOM     28  C   UNL     1       7.454  -2.791  -2.882  1.00  0.00     0.078 A 
ATOM     29  F   UNL     1       6.205  -2.441  -0.928  1.00  0.00    -0.207 F 
ATOM     30  C   UNL     1       7.484  -2.990  -4.254  1.00  0.00     0.126 A 
ATOM     31  F   UNL     1       8.662  -3.153  -4.868  1.00  0.00    -0.207 F 
ENDBRANCH  23  24
ENDBRANCH   8  23
ENDBRANCH   5   8
ENDBRANCH   3   4
ENDBRANCH   2   3
ENDBRANCH   1   2
BRANCH   1  32
ATOM     32  C   UNL     1       6.200  -7.846  -5.012  1.00  0.00     0.116 C 
BRANCH  32  33
ATOM     33  N   UNL     1       7.559  -7.364  -4.793  1.00  0.00    -0.352 N 
ATOM     34  C   UNL     1       8.648  -7.516  -5.622  1.00  0.00     0.251 C 
ATOM     35  H   UNL     1       7.716  -6.871  -3.955  1.00  0.00     0.163 HD
ATOM     36  O   UNL     1       9.758  -7.113  -5.291  1.00  0.00    -0.269 OA
BRANCH  34  37
ATOM     37  C   UNL     1       8.456  -8.227  -6.901  1.00  0.00     0.039 A 
ATOM     38  C   UNL     1       9.144  -9.423  -7.119  1.00  0.00     0.014 A 
ATOM     39  C   UNL     1       7.500  -7.771  -7.812  1.00  0.00     0.014 A 
ATOM     40  C   UNL     1       8.799 -10.221  -8.212  1.00  0.00     0.010 A 
ATOM     41  C   UNL     1       7.125  -8.592  -8.870  1.00  0.00     0.010 A 
ATOM     42  C   UNL     1       7.752  -9.836  -9.063  1.00  0.00    -0.014 A 
BRANCH  42  43
ATOM     43  C   UNL     1       7.248 -10.726 -10.139  1.00  0.00     0.031 A 
ATOM     44  C   UNL     1       7.370 -10.302 -11.574  1.00  0.00     0.074 A 
ATOM     45  C   UNL     1       6.569 -11.845  -9.816  1.00  0.00     0.049 A 
ATOM     46  N   UNL     1       6.829 -10.834 -12.638  1.00  0.00    -0.248 NA
ATOM     47  C   UNL     1       8.181  -9.103 -11.844  1.00  0.00     0.031 C 
ATOM     48  C   UNL     1       6.345 -12.344  -8.455  1.00  0.00     0.029 A 
ATOM     49  N   UNL     1       5.909 -12.751 -10.610  1.00  0.00    -0.354 N 
ATOM     50  C   UNL     1       7.195 -10.013 -13.697  1.00  0.00     0.074 A 
ATOM     51  C   UNL     1       7.996  -8.941 -13.147  1.00  0.00     0.031 C 
ATOM     52  C   UNL     1       5.598 -13.459  -8.511  1.00  0.00     0.029 A 
ATOM     53  C   UNL     1       5.254 -13.733  -9.902  1.00  0.00     0.049 A 
ATOM     54  H   UNL     1       5.905 -12.703 -11.593  1.00  0.00     0.167 HD
ATOM     55  C   UNL     1       6.892 -10.144 -15.009  1.00  0.00     0.031 A 
ATOM     56  C   UNL     1       4.446 -14.726 -10.323  1.00  0.00     0.031 A 
ATOM     57  C   UNL     1       6.133 -11.234 -15.559  1.00  0.00     0.049 A 
ATOM     58  C   UNL     1       4.157 -14.869 -11.793  1.00  0.00     0.074 A 
ATOM     59  C   UNL     1       5.843 -11.493 -16.887  1.00  0.00     0.029 A 
ATOM     60  N   UNL     1       5.551 -12.247 -14.814  1.00  0.00    -0.354 N 
ATOM     61  N   UNL     1       4.567 -14.118 -12.786  1.00  0.00    -0.248 NA
ATOM     62  C   UNL     1       3.301 -15.993 -12.200  1.00  0.00     0.031 C 
ATOM     63  C   UNL     1       5.059 -12.649 -16.944  1.00  0.00     0.029 A 
ATOM     64  C   UNL     1       4.894 -13.127 -15.654  1.00  0.00     0.049 A 
ATOM     65  H   UNL     1       5.599 -12.328 -13.834  1.00  0.00     0.167 HD
ATOM     66  C   UNL     1       4.045 -14.698 -13.937  1.00  0.00     0.074 A 
ATOM     67  C   UNL     1       3.293 -15.862 -13.520  1.00  0.00     0.031 C 
ATOM     68  C   UNL     1       4.177 -14.299 -15.224  1.00  0.00     0.031 A 
BRANCH  55  69
ATOM     69  C   UNL     1       7.377  -9.079 -15.951  1.00  0.00    -0.014 A 
ATOM     70  C   UNL     1       8.726  -9.015 -16.339  1.00  0.00     0.010 A 
ATOM     71  C   UNL     1       6.455  -8.176 -16.512  1.00  0.00     0.010 A 
ATOM     72  C   UNL     1       9.150  -8.051 -17.257  1.00  0.00     0.020 A 
ATOM     73  C   UNL     1       6.872  -7.224 -17.445  1.00  0.00     0.020 A 
ATOM     74  C   UNL     1       8.221  -7.160 -17.802  1.00  0.00     0.054 A 
BRANCH  74  75
ATOM     75  S   UNL     1       8.787  -5.950 -19.029  1.00  0.00     0.124 S 
ATOM     76  O   UNL     1       9.453  -4.959 -18.187  1.00  0.00    -0.237 OA
ATOM     77  O   UNL     1       9.670  -6.743 -19.881  1.00  0.00    -0.237 OA
ATOM     78  O   UNL     1       7.553  -5.499 -19.666  1.00  0.00    -0.744 OA
ENDBRANCH  74  75
ENDBRANCH  55  69
BRANCH  56  79
ATOM     79  C   UNL     1       3.833 -15.663  -9.342  1.00  0.00    -0.014 A 
ATOM     80  C   UNL     1       4.279 -16.993  -9.253  1.00  0.00     0.010 A 
ATOM     81  C   UNL     1       2.783 -15.235  -8.510  1.00  0.00     0.010 A 
ATOM     82  C   UNL     1       3.665 -17.888  -8.373  1.00  0.00     0.020 A 
ATOM     83  C   UNL     1       2.182 -16.121  -7.612  1.00  0.00     0.020 A 
ATOM     84  C   UNL     1       2.615 -17.448  -7.562  1.00  0.00     0.054 A 
BRANCH  84  85
ATOM     85  S   UNL     1       1.841 -18.616  -6.409  1.00  0.00     0.124 S 
ATOM     86  O   UNL     1       0.934 -19.349  -7.286  1.00  0.00    -0.237 OA
ATOM     87  O   UNL     1       2.983 -19.373  -5.904  1.00  0.00    -0.237 OA
ATOM     88  O   UNL     1       1.200 -17.744  -5.427  1.00  0.00    -0.744 OA
ENDBRANCH  84  85
ENDBRANCH  56  79
BRANCH  68  89
ATOM     89  C   UNL     1       3.548 -15.150 -16.290  1.00  0.00    -0.014 A 
ATOM     90  C   UNL     1       2.169 -15.085 -16.550  1.00  0.00     0.010 A 
ATOM     91  C   UNL     1       4.369 -15.946 -17.109  1.00  0.00     0.010 A 
ATOM     92  C   UNL     1       1.620 -15.807 -17.612  1.00  0.00     0.020 A 
ATOM     93  C   UNL     1       3.826 -16.654 -18.183  1.00  0.00     0.020 A 
ATOM     94  C   UNL     1       2.453 -16.584 -18.425  1.00  0.00     0.054 A 
BRANCH  94  95
ATOM     95  S   UNL     1       1.733 -17.441 -19.853  1.00  0.00     0.124 S 
ATOM     96  O   UNL     1       1.096 -18.594 -19.226  1.00  0.00    -0.237 OA
ATOM     97  O   UNL     1       0.822 -16.441 -20.405  1.00  0.00    -0.237 OA
ATOM     98  O   UNL     1       2.891 -17.746 -20.691  1.00  0.00    -0.744 OA
ENDBRANCH  94  95
ENDBRANCH  68  89
ENDBRANCH  42  43
ENDBRANCH  34  37
ENDBRANCH  32  33
ENDBRANCH   1  32
TORSDOF 18
