REMARK SMILES Cn1cc(S(=O)(=O)N2CCC(C(=O)NCCCCNC(=O)c3ccc(-c4c5nc(c(-c6ccc(S(=O)(=O)[O-])cc6)c6ccc([nH]6)c(-c6ccc(S(=O)(=O)[O-])cc6)c6nc(c(-c7ccc(S(=O)(=O)[O-])cc7)c7ccc4[nH]7)C=C6)C=C5)cc3)CC2)cc1C(=O)N1CCCCC1
REMARK SMILES IDX 16 1 15 2 14 3 12 4 13 5 11 7 8 8 9 9 83 10 10 11 82 12 5 13
REMARK SMILES IDX 6 14 7 15 4 16 1 17 2 18 3 19 85 20 84 21 86 22 87 23 88 24
REMARK SMILES IDX 89 25 93 26 90 27 92 28 91 29 17 30 18 31 19 32 20 33 21 35
REMARK SMILES IDX 22 36 23 37 81 38 24 39 80 40 25 41 26 42 27 43 74 44 28 45
REMARK SMILES IDX 79 46 73 47 75 48 29 49 78 50 72 51 71 52 30 54 60 55 41 56
REMARK SMILES IDX 59 57 42 58 45 59 58 60 76 61 43 62 44 63 57 65 77 66 46 67
REMARK SMILES IDX 31 68 32 69 40 70 33 71 39 72 34 73 35 74 36 75 37 76 38 77
REMARK SMILES IDX 61 78 62 79 70 80 63 81 69 82 64 83 65 84 66 85 67 86 68 87
REMARK SMILES IDX 47 88 48 89 56 90 49 91 55 92 50 93 51 94 52 95 53 96 54 97
REMARK H PARENT 14 6 19 34 75 53 45 64
REMARK Flexibility Score: inf
ROOT
ATOM      1  C   UNL     1      -8.883   0.292  -1.696  1.00  0.00     0.023 C 
ENDROOT
BRANCH   1   2
ATOM      2  C   UNL     1      -8.395  -0.206  -0.339  1.00  0.00     0.116 C 
BRANCH   2   3
ATOM      3  N   UNL     1      -8.258  -1.651  -0.310  1.00  0.00    -0.356 N 
ATOM      4  C   UNL     1      -7.155  -2.443  -0.238  1.00  0.00     0.223 C 
ATOM      5  O   UNL     1      -7.320  -3.665  -0.238  1.00  0.00    -0.275 OA
ATOM      6  H   UNL     1      -9.110  -2.143  -0.350  1.00  0.00     0.163 HD
BRANCH   4   7
ATOM      7  C   UNL     1      -5.754  -1.866  -0.131  1.00  0.00     0.081 C 
ATOM      8  N   UNL     1      -3.914   0.330   0.099  1.00  0.00    -0.198 NA
ATOM      9  C   UNL     1      -3.987  -0.406  -1.188  1.00  0.00     0.103 C 
ATOM     10  C   UNL     1      -4.170  -0.504   1.294  1.00  0.00     0.103 C 
ATOM     11  C   UNL     1      -5.360  -1.036  -1.354  1.00  0.00     0.030 C 
ATOM     12  C   UNL     1      -5.544  -1.147   1.204  1.00  0.00     0.030 C 
BRANCH   8  13
ATOM     13  S   UNL     1      -2.622   1.435   0.239  1.00  0.00     0.244 S 
ATOM     14  O   UNL     1      -2.643   2.026   1.559  1.00  0.00    -0.207 OA
ATOM     15  O   UNL     1      -2.586   2.249  -0.958  1.00  0.00    -0.207 OA
BRANCH  13  16
ATOM     16  C   UNL     1      -1.107   0.594   0.192  1.00  0.00     0.101 A 
ATOM     17  C   UNL     1       2.429   0.486  -0.509  1.00  0.00     0.150 C 
ATOM     18  N   UNL     1       1.063   0.197  -0.131  1.00  0.00    -0.345 N 
ATOM     19  C   UNL     1       0.133   1.187   0.080  1.00  0.00     0.107 A 
ATOM     20  C   UNL     1       0.449  -1.042  -0.101  1.00  0.00     0.108 A 
ATOM     21  C   UNL     1      -0.894  -0.801   0.160  1.00  0.00     0.055 A 
BRANCH  20  22
ATOM     22  C   UNL     1       0.985  -2.334  -0.498  1.00  0.00     0.270 C 
ATOM     23  O   UNL     1       0.320  -3.080  -1.217  1.00  0.00    -0.267 OA
ATOM     24  N   UNL     1       2.266  -2.693  -0.100  1.00  0.00    -0.337 N 
ATOM     25  C   UNL     1       2.998  -3.655  -0.916  1.00  0.00     0.120 C 
ATOM     26  C   UNL     1       2.903  -2.274   1.147  1.00  0.00     0.120 C 
ATOM     27  C   UNL     1       3.418  -4.877  -0.112  1.00  0.00     0.022 C 
ATOM     28  C   UNL     1       3.349  -3.483   1.973  1.00  0.00     0.022 C 
ATOM     29  C   UNL     1       4.184  -4.455   1.139  1.00  0.00     0.004 C 
ENDBRANCH  20  22
ENDBRANCH  13  16
ENDBRANCH   8  13
ENDBRANCH   4   7
ENDBRANCH   2   3
ENDBRANCH   1   2
BRANCH   1  30
ATOM     30  C   UNL     1     -10.330  -0.070  -2.026  1.00  0.00     0.023 C 
BRANCH  30  31
ATOM     31  C   UNL     1     -11.355   0.314  -0.965  1.00  0.00     0.116 C 
BRANCH  31  32
ATOM     32  N   UNL     1     -11.302   1.719  -0.591  1.00  0.00    -0.352 N 
ATOM     33  C   UNL     1     -12.343   2.559  -0.278  1.00  0.00     0.251 C 
ATOM     34  H   UNL     1     -10.403   2.120  -0.559  1.00  0.00     0.163 HD
ATOM     35  O   UNL     1     -12.139   3.751  -0.071  1.00  0.00    -0.269 OA
BRANCH  33  36
ATOM     36  C   UNL     1     -13.716   2.017  -0.238  1.00  0.00     0.039 A 
ATOM     37  C   UNL     1     -14.711   2.655  -0.981  1.00  0.00     0.014 A 
ATOM     38  C   UNL     1     -14.002   0.857   0.487  1.00  0.00     0.014 A 
ATOM     39  C   UNL     1     -15.983   2.086  -1.056  1.00  0.00     0.010 A 
ATOM     40  C   UNL     1     -15.252   0.260   0.362  1.00  0.00     0.010 A 
ATOM     41  C   UNL     1     -16.251   0.865  -0.415  1.00  0.00    -0.014 A 
BRANCH  41  42
ATOM     42  C   UNL     1     -17.566   0.197  -0.556  1.00  0.00     0.031 A 
ATOM     43  C   UNL     1     -18.463   0.042   0.640  1.00  0.00     0.074 A 
ATOM     44  C   UNL     1     -17.918  -0.338  -1.741  1.00  0.00     0.049 A 
ATOM     45  N   UNL     1     -19.612  -0.577   0.732  1.00  0.00    -0.248 NA
ATOM     46  C   UNL     1     -17.993   0.636   1.901  1.00  0.00     0.031 C 
ATOM     47  C   UNL     1     -17.113  -0.295  -2.965  1.00  0.00     0.029 A 
ATOM     48  N   UNL     1     -19.042  -1.033  -2.108  1.00  0.00    -0.354 N 
ATOM     49  C   UNL     1     -19.990  -0.469   2.065  1.00  0.00     0.074 A 
ATOM     50  C   UNL     1     -18.932   0.243   2.749  1.00  0.00     0.031 C 
ATOM     51  C   UNL     1     -17.780  -0.915  -3.951  1.00  0.00     0.029 A 
ATOM     52  C   UNL     1     -19.042  -1.425  -3.425  1.00  0.00     0.049 A 
ATOM     53  H   UNL     1     -19.779  -1.231  -1.487  1.00  0.00     0.167 HD
ATOM     54  C   UNL     1     -21.122  -0.911   2.663  1.00  0.00     0.031 A 
ATOM     55  C   UNL     1     -19.955  -2.120  -4.130  1.00  0.00     0.031 A 
ATOM     56  C   UNL     1     -22.182  -1.599   1.979  1.00  0.00     0.049 A 
ATOM     57  C   UNL     1     -21.216  -2.576  -3.453  1.00  0.00     0.074 A 
ATOM     58  C   UNL     1     -23.394  -2.035   2.484  1.00  0.00     0.029 A 
ATOM     59  N   UNL     1     -22.157  -1.951   0.638  1.00  0.00    -0.354 N 
ATOM     60  N   UNL     1     -21.581  -2.417  -2.204  1.00  0.00    -0.248 NA
ATOM     61  C   UNL     1     -22.191  -3.296  -4.284  1.00  0.00     0.031 C 
ATOM     62  C   UNL     1     -24.092  -2.675   1.452  1.00  0.00     0.029 A 
ATOM     63  C   UNL     1     -23.327  -2.607   0.299  1.00  0.00     0.049 A 
ATOM     64  H   UNL     1     -21.416  -1.761   0.018  1.00  0.00     0.167 HD
ATOM     65  C   UNL     1     -22.838  -3.001  -2.102  1.00  0.00     0.074 A 
ATOM     66  C   UNL     1     -23.174  -3.507  -3.417  1.00  0.00     0.031 C 
ATOM     67  C   UNL     1     -23.642  -3.106  -1.016  1.00  0.00     0.031 A 
BRANCH  54  68
ATOM     68  C   UNL     1     -21.254  -0.663   4.140  1.00  0.00    -0.014 A 
ATOM     69  C   UNL     1     -21.503   0.630   4.637  1.00  0.00     0.010 A 
ATOM     70  C   UNL     1     -21.123  -1.732   5.044  1.00  0.00     0.010 A 
ATOM     71  C   UNL     1     -21.563   0.858   6.013  1.00  0.00     0.020 A 
ATOM     72  C   UNL     1     -21.205  -1.511   6.421  1.00  0.00     0.020 A 
ATOM     73  C   UNL     1     -21.401  -0.212   6.898  1.00  0.00     0.054 A 
BRANCH  73  74
ATOM     74  S   UNL     1     -21.470   0.107   8.682  1.00  0.00     0.124 S 
ATOM     75  O   UNL     1     -20.133   0.632   8.944  1.00  0.00    -0.237 OA
ATOM     76  O   UNL     1     -22.558   1.075   8.798  1.00  0.00    -0.237 OA
ATOM     77  O   UNL     1     -21.748  -1.208   9.256  1.00  0.00    -0.744 OA
ENDBRANCH  73  74
ENDBRANCH  54  68
BRANCH  55  78
ATOM     78  C   UNL     1     -19.718  -2.394  -5.571  1.00  0.00    -0.014 A 
ATOM     79  C   UNL     1     -20.395  -1.650  -6.552  1.00  0.00     0.010 A 
ATOM     80  C   UNL     1     -18.788  -3.371  -5.969  1.00  0.00     0.010 A 
ATOM     81  C   UNL     1     -20.151  -1.881  -7.909  1.00  0.00     0.020 A 
ATOM     82  C   UNL     1     -18.527  -3.592  -7.325  1.00  0.00     0.020 A 
ATOM     83  C   UNL     1     -19.217  -2.849  -8.287  1.00  0.00     0.054 A 
BRANCH  83  84
ATOM     84  S   UNL     1     -18.858  -3.082 -10.050  1.00  0.00     0.124 S 
ATOM     85  O   UNL     1     -19.994  -3.888 -10.487  1.00  0.00    -0.237 OA
ATOM     86  O   UNL     1     -18.823  -1.711 -10.553  1.00  0.00    -0.237 OA
ATOM     87  O   UNL     1     -17.567  -3.767 -10.046  1.00  0.00    -0.744 OA
ENDBRANCH  83  84
ENDBRANCH  55  78
BRANCH  67  88
ATOM     88  C   UNL     1     -24.974  -3.774  -1.210  1.00  0.00    -0.014 A 
ATOM     89  C   UNL     1     -25.074  -5.173  -1.307  1.00  0.00     0.010 A 
ATOM     90  C   UNL     1     -26.144  -2.994  -1.243  1.00  0.00     0.010 A 
ATOM     91  C   UNL     1     -26.323  -5.780  -1.459  1.00  0.00     0.020 A 
ATOM     92  C   UNL     1     -27.395  -3.600  -1.376  1.00  0.00     0.020 A 
ATOM     93  C   UNL     1     -27.476  -4.990  -1.496  1.00  0.00     0.054 A 
BRANCH  93  94
ATOM     94  S   UNL     1     -29.092  -5.800  -1.645  1.00  0.00     0.124 S 
ATOM     95  O   UNL     1     -29.154  -6.092  -3.074  1.00  0.00    -0.237 OA
ATOM     96  O   UNL     1     -28.955  -6.963  -0.771  1.00  0.00    -0.237 OA
ATOM     97  O   UNL     1     -30.030  -4.784  -1.174  1.00  0.00    -0.744 OA
ENDBRANCH  93  94
ENDBRANCH  67  88
ENDBRANCH  41  42
ENDBRANCH  33  36
ENDBRANCH  31  32
ENDBRANCH  30  31
ENDBRANCH   1  30
TORSDOF 17
