REMARK SMILES CC[NH+](CC)C[C@H](C)NC(=O)N[C@H]1C=C[C@@H](C(=O)NCCCCNC(=O)c2ccc(-c3c4nc(c(-c5ccc(S(=O)(=O)[O-])cc5)c5ccc([nH]5)c(-c5ccc(S(=O)(=O)[O-])cc5)c5nc(c(-c6ccc(S(=O)(=O)[O-])cc6)c6ccc3[nH]6)C=C5)C=C4)cc2)C1
REMARK SMILES IDX 20 1 19 2 17 3 18 4 16 6 13 7 14 8 87 9 15 10 12 11 9 12
REMARK SMILES IDX 10 13 11 15 7 17 8 18 6 19 3 20 2 22 1 23 4 24 5 25 21 26
REMARK SMILES IDX 22 27 23 28 24 29 25 30 26 32 27 33 28 34 86 35 29 36 85 37
REMARK SMILES IDX 30 38 31 39 32 40 79 41 33 42 84 43 78 44 80 45 34 46 83 47
REMARK SMILES IDX 77 48 76 49 35 51 65 52 46 53 64 54 47 55 50 56 63 57 81 58
REMARK SMILES IDX 48 59 49 60 62 62 82 63 51 64 36 65 37 66 45 67 38 68 44 69
REMARK SMILES IDX 39 70 40 71 41 72 42 73 43 74 66 75 67 76 75 77 68 78 74 79
REMARK SMILES IDX 69 80 70 81 71 82 72 83 73 84 52 85 53 86 61 87 54 88 60 89
REMARK SMILES IDX 55 90 56 91 57 92 58 93 59 94
REMARK H PARENT 19 5 9 14 12 16 3 21 24 31 80 50 50 61
REMARK Flexibility Score: inf
ROOT
ATOM      1  C   UNL     1       3.928   6.995   2.588  1.00  0.00     0.116 C 
ENDROOT
BRANCH   1   2
ATOM      2  N   UNL     1       2.646   7.652   2.689  1.00  0.00    -0.356 N 
ATOM      3  C   UNL     1       1.491   7.203   2.110  1.00  0.00     0.227 C 
ATOM      4  O   UNL     1       0.513   7.104   2.866  1.00  0.00    -0.274 OA
ATOM      5  H   UNL     1       2.599   8.484   3.213  1.00  0.00     0.163 HD
BRANCH   3   6
ATOM      6  C   UNL     1       1.298   6.927   0.599  1.00  0.00     0.103 C 
ATOM      7  C   UNL     1       2.366   5.790  -1.358  1.00  0.00     0.107 C 
ATOM      8  C   UNL     1       1.289   4.986  -0.750  1.00  0.00    -0.006 C 
ATOM      9  C   UNL     1       2.372   7.083  -0.484  1.00  0.00     0.047 C 
ATOM     10  C   UNL     1       0.733   5.564   0.320  1.00  0.00    -0.016 C 
BRANCH   7  11
ATOM     11  N   UNL     1       3.711   5.215  -1.415  1.00  0.00    -0.332 N 
ATOM     12  N   UNL     1       4.087   2.847  -1.328  1.00  0.00    -0.330 N 
ATOM     13  C   UNL     1       4.418   4.106  -1.589  1.00  0.00     0.315 C 
ATOM     14  H   UNL     1       4.845   2.242  -1.496  1.00  0.00     0.165 HD
ATOM     15  O   UNL     1       5.581   4.284  -1.977  1.00  0.00    -0.249 OA
ATOM     16  H   UNL     1       4.350   5.948  -1.261  1.00  0.00     0.165 HD
BRANCH  12  17
ATOM     17  C   UNL     1       2.922   2.105  -0.863  1.00  0.00     0.135 C 
ATOM     18  C   UNL     1       2.386   1.304  -2.055  1.00  0.00     0.037 C 
BRANCH  17  19
ATOM     19  C   UNL     1       3.188   1.100   0.312  1.00  0.00     0.287 C 
BRANCH  19  20
ATOM     20  N   UNL     1       3.681   1.534   1.627  1.00  0.00    -0.334 N 
ATOM     21  H   UNL     1       3.283   0.835   2.254  1.00  0.00     0.348 HD
BRANCH  20  22
ATOM     22  C   UNL     1       5.126   1.406   1.833  1.00  0.00     0.258 C 
ATOM     23  C   UNL     1       5.534  -0.035   2.092  1.00  0.00     0.071 C 
ENDBRANCH  20  22
BRANCH  20  24
ATOM     24  C   UNL     1       3.141   2.806   2.086  1.00  0.00     0.258 C 
ATOM     25  C   UNL     1       3.991   3.994   1.697  1.00  0.00     0.071 C 
ENDBRANCH  20  24
ENDBRANCH  19  20
ENDBRANCH  17  19
ENDBRANCH  12  17
ENDBRANCH   7  11
ENDBRANCH   3   6
ENDBRANCH   1   2
BRANCH   1  26
ATOM     26  C   UNL     1       5.118   7.709   3.219  1.00  0.00     0.023 C 
BRANCH  26  27
ATOM     27  C   UNL     1       5.371   7.388   4.696  1.00  0.00     0.023 C 
BRANCH  27  28
ATOM     28  C   UNL     1       5.490   5.910   5.087  1.00  0.00     0.116 C 
BRANCH  28  29
ATOM     29  N   UNL     1       6.601   5.199   4.468  1.00  0.00    -0.352 N 
ATOM     30  C   UNL     1       7.707   4.597   5.035  1.00  0.00     0.251 C 
ATOM     31  H   UNL     1       6.557   5.139   3.486  1.00  0.00     0.163 HD
ATOM     32  O   UNL     1       8.541   4.058   4.321  1.00  0.00    -0.269 OA
BRANCH  30  33
ATOM     33  C   UNL     1       7.917   4.655   6.500  1.00  0.00     0.039 A 
ATOM     34  C   UNL     1       9.152   5.100   6.980  1.00  0.00     0.014 A 
ATOM     35  C   UNL     1       6.900   4.324   7.396  1.00  0.00     0.014 A 
ATOM     36  C   UNL     1       9.323   5.330   8.348  1.00  0.00     0.010 A 
ATOM     37  C   UNL     1       7.041   4.639   8.746  1.00  0.00     0.010 A 
ATOM     38  C   UNL     1       8.246   5.165   9.236  1.00  0.00    -0.014 A 
BRANCH  38  39
ATOM     39  C   UNL     1       8.349   5.585  10.661  1.00  0.00     0.031 A 
ATOM     40  C   UNL     1       8.163   4.587  11.772  1.00  0.00     0.074 A 
ATOM     41  C   UNL     1       8.523   6.889  10.959  1.00  0.00     0.049 A 
ATOM     42  N   UNL     1       8.154   4.786  13.066  1.00  0.00    -0.248 NA
ATOM     43  C   UNL     1       7.924   3.190  11.378  1.00  0.00     0.031 C 
ATOM     44  C   UNL     1       8.647   7.975   9.982  1.00  0.00     0.029 A 
ATOM     45  N   UNL     1       8.613   7.529  12.172  1.00  0.00    -0.354 N 
ATOM     46  C   UNL     1       7.889   3.547  13.638  1.00  0.00     0.074 A 
ATOM     47  C   UNL     1       7.691   2.616  12.548  1.00  0.00     0.031 C 
ATOM     48  C   UNL     1       8.820   9.137  10.631  1.00  0.00     0.029 A 
ATOM     49  C   UNL     1       8.782   8.890  12.069  1.00  0.00     0.049 A 
ATOM     50  H   UNL     1       8.562   7.056  13.034  1.00  0.00     0.167 HD
ATOM     51  C   UNL     1       7.834   3.208  14.949  1.00  0.00     0.031 A 
ATOM     52  C   UNL     1       8.889   9.839  13.020  1.00  0.00     0.031 A 
ATOM     53  C   UNL     1       8.040   4.130  16.035  1.00  0.00     0.049 A 
ATOM     54  C   UNL     1       8.853   9.438  14.468  1.00  0.00     0.074 A 
ATOM     55  C   UNL     1       8.068   3.869  17.394  1.00  0.00     0.029 A 
ATOM     56  N   UNL     1       8.250   5.493  15.886  1.00  0.00    -0.354 N 
ATOM     57  N   UNL     1       8.681   8.246  14.987  1.00  0.00    -0.248 NA
ATOM     58  C   UNL     1       9.044  10.507  15.457  1.00  0.00     0.031 C 
ATOM     59  C   UNL     1       8.251   5.081  18.069  1.00  0.00     0.029 A 
ATOM     60  C   UNL     1       8.389   6.090  17.129  1.00  0.00     0.049 A 
ATOM     61  H   UNL     1       8.293   5.967  15.025  1.00  0.00     0.167 HD
ATOM     62  C   UNL     1       8.760   8.418  16.364  1.00  0.00     0.074 A 
ATOM     63  C   UNL     1       9.016   9.826  16.595  1.00  0.00     0.031 C 
ATOM     64  C   UNL     1       8.633   7.494  17.348  1.00  0.00     0.031 A 
BRANCH  51  65
ATOM     65  C   UNL     1       7.532   1.767  15.273  1.00  0.00    -0.014 A 
ATOM     66  C   UNL     1       8.462   0.750  14.991  1.00  0.00     0.010 A 
ATOM     67  C   UNL     1       6.306   1.425  15.871  1.00  0.00     0.010 A 
ATOM     68  C   UNL     1       8.148  -0.588  15.243  1.00  0.00     0.020 A 
ATOM     69  C   UNL     1       6.000   0.090  16.153  1.00  0.00     0.020 A 
ATOM     70  C   UNL     1       6.913  -0.910  15.813  1.00  0.00     0.054 A 
BRANCH  70  71
ATOM     71  S   UNL     1       6.525  -2.655  16.120  1.00  0.00     0.124 S 
ATOM     72  O   UNL     1       6.229  -3.138  14.773  1.00  0.00    -0.237 OA
ATOM     73  O   UNL     1       7.762  -3.162  16.710  1.00  0.00    -0.237 OA
ATOM     74  O   UNL     1       5.382  -2.602  17.028  1.00  0.00    -0.744 OA
ENDBRANCH  70  71
ENDBRANCH  51  65
BRANCH  52  75
ATOM     75  C   UNL     1       9.060  11.264  12.623  1.00  0.00    -0.014 A 
ATOM     76  C   UNL     1      10.302  11.903  12.773  1.00  0.00     0.010 A 
ATOM     77  C   UNL     1       7.986  11.977  12.059  1.00  0.00     0.010 A 
ATOM     78  C   UNL     1      10.467  13.234  12.375  1.00  0.00     0.020 A 
ATOM     79  C   UNL     1       8.154  13.299  11.636  1.00  0.00     0.020 A 
ATOM     80  C   UNL     1       9.392  13.922  11.804  1.00  0.00     0.054 A 
BRANCH  80  81
ATOM     81  S   UNL     1       9.648  15.623  11.225  1.00  0.00     0.124 S 
ATOM     82  O   UNL     1       9.673  16.370  12.477  1.00  0.00    -0.237 OA
ATOM     83  O   UNL     1      10.924  15.527  10.518  1.00  0.00    -0.237 OA
ATOM     84  O   UNL     1       8.489  15.869  10.369  1.00  0.00    -0.744 OA
ENDBRANCH  80  81
ENDBRANCH  52  75
BRANCH  64  85
ATOM     85  C   UNL     1       8.790   7.971  18.767  1.00  0.00    -0.014 A 
ATOM     86  C   UNL     1       7.799   8.752  19.388  1.00  0.00     0.010 A 
ATOM     87  C   UNL     1       9.931   7.601  19.502  1.00  0.00     0.010 A 
ATOM     88  C   UNL     1       7.964   9.187  20.706  1.00  0.00     0.020 A 
ATOM     89  C   UNL     1      10.087   8.011  20.829  1.00  0.00     0.020 A 
ATOM     90  C   UNL     1       9.110   8.816  21.417  1.00  0.00     0.054 A 
BRANCH  90  91
ATOM     91  S   UNL     1       9.290   9.368  23.136  1.00  0.00     0.124 S 
ATOM     92  O   UNL     1       9.650  10.773  22.967  1.00  0.00    -0.237 OA
ATOM     93  O   UNL     1       7.962   9.123  23.694  1.00  0.00    -0.237 OA
ATOM     94  O   UNL     1      10.349   8.512  23.665  1.00  0.00    -0.744 OA
ENDBRANCH  90  91
ENDBRANCH  64  85
ENDBRANCH  38  39
ENDBRANCH  30  33
ENDBRANCH  28  29
ENDBRANCH  27  28
ENDBRANCH  26  27
ENDBRANCH   1  26
TORSDOF 20
