REMARK SMILES CC[C@]1(C(=O)NCCCCNC(=O)c2ccc(-c3c4nc(c(-c5ccc(S(=O)(=O)[O-])cc5)c5ccc([nH]5)c(-c5ccc(S(=O)(=O)[O-])cc5)c5nc(c(-c6ccc(S(=O)(=O)[O-])cc6)c6ccc3[nH]6)C=C5)C=C4)cc2)CC[N@@H+](Cc2ccc(CC(C)C)cc2)C1
REMARK SMILES IDX 8 1 7 2 6 3 4 4 5 5 3 7 74 8 88 9 75 10 76 11 2 13 1 14
REMARK SMILES IDX 77 15 78 16 79 17 87 18 80 19 86 20 81 21 82 22 83 23 84 24
REMARK SMILES IDX 85 25 9 26 10 27 11 28 12 29 13 31 14 32 15 33 73 34 16 35
REMARK SMILES IDX 72 36 17 37 18 38 19 39 66 40 20 41 71 42 65 43 67 44 21 45
REMARK SMILES IDX 70 46 64 47 63 48 22 50 52 51 33 52 51 53 34 54 37 55 50 56
REMARK SMILES IDX 68 57 35 58 36 59 49 61 69 62 38 63 23 64 24 65 32 66 25 67
REMARK SMILES IDX 31 68 26 69 27 70 28 71 29 72 30 73 53 74 54 75 62 76 55 77
REMARK SMILES IDX 61 78 56 79 57 80 58 81 59 82 60 83 39 84 40 85 48 86 41 87
REMARK SMILES IDX 47 88 42 89 43 90 44 91 45 92 46 93
REMARK H PARENT 6 6 76 12 11 30 67 49 37 60
REMARK Flexibility Score: inf
ROOT
ATOM      1  C   UNL     1       3.018  -0.147   5.940  1.00  0.00     0.023 C 
ENDROOT
BRANCH   1   2
ATOM      2  C   UNL     1       2.984  -1.153   4.775  1.00  0.00     0.116 C 
BRANCH   2   3
ATOM      3  N   UNL     1       1.659  -1.483   4.246  1.00  0.00    -0.355 N 
ATOM      4  C   UNL     1       0.876  -1.232   3.168  1.00  0.00     0.232 C 
ATOM      5  O   UNL     1      -0.177  -1.895   3.175  1.00  0.00    -0.274 OA
ATOM      6  H   UNL     1       1.186  -2.076   4.874  1.00  0.00     0.163 HD
BRANCH   4   7
ATOM      7  C   UNL     1       1.101  -0.235   1.989  1.00  0.00     0.103 C 
ATOM      8  C   UNL     1      -0.123   0.733   1.843  1.00  0.00     0.084 C 
ATOM      9  C   UNL     1       2.284   0.734   2.105  1.00  0.00     0.279 C 
ATOM     10  C   UNL     1       0.447   2.144   1.721  1.00  0.00     0.263 C 
ATOM     11  N   UNL     1       1.763   2.087   2.321  1.00  0.00    -0.330 N 
ATOM     12  H   UNL     1       2.392   2.733   1.844  1.00  0.00     0.348 HD
BRANCH   7  13
ATOM     13  C   UNL     1       1.121  -1.155   0.724  1.00  0.00     0.020 C 
ATOM     14  C   UNL     1       1.225  -0.483  -0.642  1.00  0.00     0.005 C 
ENDBRANCH   7  13
BRANCH  11  15
ATOM     15  C   UNL     1       1.943   2.734   3.631  1.00  0.00     0.299 C 
BRANCH  15  16
ATOM     16  C   UNL     1       0.886   2.618   4.723  1.00  0.00     0.006 A 
ATOM     17  C   UNL     1       0.681   3.633   5.662  1.00  0.00     0.010 A 
ATOM     18  C   UNL     1       0.173   1.448   4.947  1.00  0.00     0.010 A 
ATOM     19  C   UNL     1      -0.170   3.438   6.771  1.00  0.00     0.004 A 
ATOM     20  C   UNL     1      -0.699   1.244   6.009  1.00  0.00     0.004 A 
ATOM     21  C   UNL     1      -0.827   2.218   6.982  1.00  0.00    -0.048 A 
BRANCH  21  22
ATOM     22  C   UNL     1      -1.592   1.874   8.238  1.00  0.00     0.038 C 
BRANCH  22  23
ATOM     23  C   UNL     1      -0.702   1.647   9.482  1.00  0.00    -0.013 C 
ATOM     24  C   UNL     1      -0.123   2.955  10.021  1.00  0.00     0.008 C 
ATOM     25  C   UNL     1      -1.508   0.945  10.580  1.00  0.00     0.008 C 
ENDBRANCH  22  23
ENDBRANCH  21  22
ENDBRANCH  15  16
ENDBRANCH  11  15
ENDBRANCH   4   7
ENDBRANCH   2   3
ENDBRANCH   1   2
BRANCH   1  26
ATOM     26  C   UNL     1       2.092  -0.489   7.113  1.00  0.00     0.023 C 
BRANCH  26  27
ATOM     27  C   UNL     1       2.772  -0.436   8.468  1.00  0.00     0.116 C 
BRANCH  27  28
ATOM     28  N   UNL     1       3.221   0.884   8.885  1.00  0.00    -0.352 N 
ATOM     29  C   UNL     1       3.462   1.343  10.164  1.00  0.00     0.251 C 
ATOM     30  H   UNL     1       3.371   1.534   8.161  1.00  0.00     0.163 HD
ATOM     31  O   UNL     1       3.777   2.522  10.338  1.00  0.00    -0.269 OA
BRANCH  29  32
ATOM     32  C   UNL     1       3.293   0.442  11.334  1.00  0.00     0.039 A 
ATOM     33  C   UNL     1       2.817   0.957  12.543  1.00  0.00     0.014 A 
ATOM     34  C   UNL     1       3.580  -0.920  11.244  1.00  0.00     0.014 A 
ATOM     35  C   UNL     1       2.589   0.098  13.625  1.00  0.00     0.010 A 
ATOM     36  C   UNL     1       3.201  -1.789  12.253  1.00  0.00     0.010 A 
ATOM     37  C   UNL     1       2.755  -1.288  13.478  1.00  0.00    -0.014 A 
BRANCH  37  38
ATOM     38  C   UNL     1       2.559  -2.239  14.601  1.00  0.00     0.031 A 
ATOM     39  C   UNL     1       3.707  -3.123  15.032  1.00  0.00     0.074 A 
ATOM     40  C   UNL     1       1.347  -2.356  15.176  1.00  0.00     0.049 A 
ATOM     41  N   UNL     1       3.729  -4.065  15.939  1.00  0.00    -0.248 NA
ATOM     42  C   UNL     1       4.986  -2.964  14.314  1.00  0.00     0.031 C 
ATOM     43  C   UNL     1       0.146  -1.610  14.788  1.00  0.00     0.029 A 
ATOM     44  N   UNL     1       0.924  -3.145  16.214  1.00  0.00    -0.354 N 
ATOM     45  C   UNL     1       5.002  -4.625  15.869  1.00  0.00     0.074 A 
ATOM     46  C   UNL     1       5.693  -3.981  14.779  1.00  0.00     0.031 C 
ATOM     47  C   UNL     1      -0.861  -1.935  15.616  1.00  0.00     0.029 A 
ATOM     48  C   UNL     1      -0.391  -2.940  16.562  1.00  0.00     0.049 A 
ATOM     49  H   UNL     1       1.506  -3.796  16.667  1.00  0.00     0.167 HD
ATOM     50  C   UNL     1       5.564  -5.562  16.669  1.00  0.00     0.031 A 
ATOM     51  C   UNL     1      -1.126  -3.495  17.544  1.00  0.00     0.031 A 
ATOM     52  C   UNL     1       4.882  -6.154  17.786  1.00  0.00     0.049 A 
ATOM     53  C   UNL     1      -0.468  -4.497  18.453  1.00  0.00     0.074 A 
ATOM     54  C   UNL     1       5.370  -7.051  18.718  1.00  0.00     0.029 A 
ATOM     55  N   UNL     1       3.563  -5.892  18.127  1.00  0.00    -0.354 N 
ATOM     56  N   UNL     1       0.761  -4.958  18.420  1.00  0.00    -0.248 NA
ATOM     57  C   UNL     1      -1.289  -5.041  19.542  1.00  0.00     0.031 C 
ATOM     58  C   UNL     1       4.328  -7.369  19.596  1.00  0.00     0.029 A 
ATOM     59  C   UNL     1       3.212  -6.625  19.245  1.00  0.00     0.049 A 
ATOM     60  H   UNL     1       2.966  -5.276  17.645  1.00  0.00     0.167 HD
ATOM     61  C   UNL     1       0.867  -5.832  19.496  1.00  0.00     0.074 A 
ATOM     62  C   UNL     1      -0.415  -5.812  20.174  1.00  0.00     0.031 C 
ATOM     63  C   UNL     1       1.923  -6.587  19.889  1.00  0.00     0.031 A 
BRANCH  50  64
ATOM     64  C   UNL     1       6.982  -5.980  16.370  1.00  0.00    -0.014 A 
ATOM     65  C   UNL     1       8.057  -5.083  16.526  1.00  0.00     0.010 A 
ATOM     66  C   UNL     1       7.251  -7.293  15.943  1.00  0.00     0.010 A 
ATOM     67  C   UNL     1       9.361  -5.473  16.212  1.00  0.00     0.020 A 
ATOM     68  C   UNL     1       8.560  -7.699  15.661  1.00  0.00     0.020 A 
ATOM     69  C   UNL     1       9.605  -6.779  15.779  1.00  0.00     0.054 A 
BRANCH  69  70
ATOM     70  S   UNL     1      11.311  -7.264  15.401  1.00  0.00     0.124 S 
ATOM     71  O   UNL     1      11.557  -6.551  14.150  1.00  0.00    -0.237 OA
ATOM     72  O   UNL     1      12.048  -6.770  16.561  1.00  0.00    -0.237 OA
ATOM     73  O   UNL     1      11.242  -8.719  15.284  1.00  0.00    -0.744 OA
ENDBRANCH  69  70
ENDBRANCH  50  64
BRANCH  51  74
ATOM     74  C   UNL     1      -2.544  -3.081  17.740  1.00  0.00    -0.014 A 
ATOM     75  C   UNL     1      -2.917  -2.320  18.862  1.00  0.00     0.010 A 
ATOM     76  C   UNL     1      -3.526  -3.423  16.793  1.00  0.00     0.010 A 
ATOM     77  C   UNL     1      -4.247  -1.926  19.044  1.00  0.00     0.020 A 
ATOM     78  C   UNL     1      -4.851  -3.007  16.955  1.00  0.00     0.020 A 
ATOM     79  C   UNL     1      -5.206  -2.270  18.087  1.00  0.00     0.054 A 
BRANCH  79  80
ATOM     80  S   UNL     1      -6.915  -1.706  18.319  1.00  0.00     0.124 S 
ATOM     81  O   UNL     1      -7.371  -2.559  19.412  1.00  0.00    -0.237 OA
ATOM     82  O   UNL     1      -6.738  -0.294  18.648  1.00  0.00    -0.237 OA
ATOM     83  O   UNL     1      -7.538  -1.962  17.022  1.00  0.00    -0.744 OA
ENDBRANCH  79  80
ENDBRANCH  51  74
BRANCH  63  84
ATOM     84  C   UNL     1       1.736  -7.435  21.116  1.00  0.00    -0.014 A 
ATOM     85  C   UNL     1       0.912  -8.574  21.093  1.00  0.00     0.010 A 
ATOM     86  C   UNL     1       2.431  -7.111  22.296  1.00  0.00     0.010 A 
ATOM     87  C   UNL     1       0.751  -9.349  22.242  1.00  0.00     0.020 A 
ATOM     88  C   UNL     1       2.298  -7.904  23.437  1.00  0.00     0.020 A 
ATOM     89  C   UNL     1       1.444  -9.007  23.408  1.00  0.00     0.054 A 
BRANCH  89  90
ATOM     90  S   UNL     1       1.237 -10.046  24.878  1.00  0.00     0.124 S 
ATOM     91  O   UNL     1      -0.106  -9.682  25.320  1.00  0.00    -0.237 OA
ATOM     92  O   UNL     1       1.377 -11.396  24.339  1.00  0.00    -0.237 OA
ATOM     93  O   UNL     1       2.321  -9.618  25.760  1.00  0.00    -0.744 OA
ENDBRANCH  89  90
ENDBRANCH  63  84
ENDBRANCH  37  38
ENDBRANCH  29  32
ENDBRANCH  27  28
ENDBRANCH  26  27
ENDBRANCH   1  26
TORSDOF 19
