REMARK SMILES Cc1ccc(NC(=O)COc2ccc(Cl)cc2C=C2SC(=S)N(CC(=O)NCCCCNC(=O)c3ccc(-c4c5nc(c(-c6ccc(S(=O)(=O)[O-])cc6)c6ccc([nH]6)c(-c6ccc(S(=O)(=O)[O-])cc6)c6nc(c(-c7ccc(S(=O)(=O)[O-])cc7)c7ccc4[nH]7)C=C6)C=C5)cc3)C2=O)cc1
REMARK SMILES IDX 28 1 27 2 25 3 26 4 24 6 23 7 18 8 19 9 20 10 95 11 21 12
REMARK SMILES IDX 96 13 22 14 17 15 11 16 12 17 13 18 16 19 14 20 15 21 10 22
REMARK SMILES IDX 9 23 7 24 6 25 8 27 5 28 1 29 2 30 3 31 98 32 4 33 97 34
REMARK SMILES IDX 29 35 30 36 31 37 32 38 33 39 34 41 35 42 36 43 94 44 37 45
REMARK SMILES IDX 93 46 38 47 39 48 40 49 87 50 41 51 92 52 86 53 88 54 42 55
REMARK SMILES IDX 91 56 85 57 84 58 43 60 73 61 54 62 72 63 55 64 58 65 71 66
REMARK SMILES IDX 89 67 56 68 57 69 70 71 90 72 59 73 44 74 45 75 53 76 46 77
REMARK SMILES IDX 52 78 47 79 48 80 49 81 50 82 51 83 74 84 75 85 83 86 76 87
REMARK SMILES IDX 82 88 77 89 78 90 79 91 80 92 81 93 60 94 61 95 69 96 62 97
REMARK SMILES IDX 68 98 63 99 64 100 65 101 66 102 67 103
REMARK H PARENT 27 5 6 26 32 40 88 59 58 70
REMARK Flexibility Score: inf
ROOT
ATOM      1  C   UNL     1       1.926  -2.155   3.113  1.00  0.00     0.116 C 
ENDROOT
BRANCH   1   2
ATOM      2  N   UNL     1       1.018  -1.324   3.895  1.00  0.00    -0.355 N 
ATOM      3  C   UNL     1      -0.293  -1.497   4.249  1.00  0.00     0.240 C 
ATOM      4  O   UNL     1      -0.741  -0.828   5.185  1.00  0.00    -0.273 OA
ATOM      5  H   UNL     1       1.419  -0.489   4.228  1.00  0.00     0.163 HD
BRANCH   3   6
ATOM      6  C   UNL     1      -1.183  -2.528   3.548  1.00  0.00     0.227 C 
BRANCH   6   7
ATOM      7  N   UNL     1      -1.285  -2.437   2.095  1.00  0.00    -0.283 N 
ATOM      8  C   UNL     1      -2.711  -2.581  -0.848  1.00  0.00     0.033 C 
ATOM      9  C   UNL     1      -1.761  -3.200  -0.132  1.00  0.00     0.081 C 
ATOM     10  S   UNL     1      -0.288  -2.254  -0.186  1.00  0.00    -0.054 SA
ATOM     11  C   UNL     1      -2.079  -3.306   1.370  1.00  0.00     0.266 C 
ATOM     12  C   UNL     1      -0.770  -1.456   1.312  1.00  0.00     0.148 C 
ATOM     13  O   UNL     1      -2.974  -3.986   1.816  1.00  0.00    -0.268 OA
ATOM     14  S   UNL     1      -0.853   0.182   1.591  1.00  0.00    -0.052 S 
BRANCH   8  15
ATOM     15  C   UNL     1      -3.220  -3.001  -2.166  1.00  0.00     0.019 A 
ATOM     16  C   UNL     1      -4.551  -3.381  -2.139  1.00  0.00     0.127 A 
ATOM     17  C   UNL     1      -5.093  -4.153  -3.160  1.00  0.00     0.048 A 
ATOM     18  C   UNL     1      -4.436  -4.185  -4.387  1.00  0.00     0.024 A 
ATOM     19  C   UNL     1      -2.599  -2.947  -3.418  1.00  0.00     0.032 A 
ATOM     20  C   UNL     1      -3.262  -3.452  -4.541  1.00  0.00     0.041 A 
ATOM     21  Cl  UNL     1      -2.686  -3.105  -6.126  1.00  0.00    -0.084 Cl
BRANCH  16  22
ATOM     22  O   UNL     1      -5.299  -2.959  -1.080  1.00  0.00    -0.483 OA
BRANCH  22  23
ATOM     23  C   UNL     1      -5.615  -1.568  -1.156  1.00  0.00     0.329 C 
BRANCH  23  24
ATOM     24  C   UNL     1      -5.139  -0.038  -0.841  1.00  0.00     0.262 C 
ATOM     25  N   UNL     1      -4.069   0.775  -0.979  1.00  0.00    -0.323 N 
ATOM     26  H   UNL     1      -4.353   1.632  -0.587  1.00  0.00     0.170 HD
ATOM     27  O   UNL     1      -6.075   0.644  -0.342  1.00  0.00    -0.271 OA
BRANCH  25  28
ATOM     28  C   UNL     1      -2.737   1.000  -1.413  1.00  0.00     0.041 A 
ATOM     29  C   UNL     1       1.525   1.781  -2.064  1.00  0.00     0.044 C 
ATOM     30  C   UNL     1       0.041   1.588  -1.918  1.00  0.00    -0.051 A 
ATOM     31  C   UNL     1      -0.552   0.403  -2.345  1.00  0.00     0.005 A 
ATOM     32  C   UNL     1      -0.783   2.531  -1.315  1.00  0.00     0.005 A 
ATOM     33  C   UNL     1      -1.925   0.147  -2.119  1.00  0.00     0.026 A 
ATOM     34  C   UNL     1      -2.146   2.238  -1.068  1.00  0.00     0.026 A 
ENDBRANCH  25  28
ENDBRANCH  23  24
ENDBRANCH  22  23
ENDBRANCH  16  22
ENDBRANCH   8  15
ENDBRANCH   6   7
ENDBRANCH   3   6
ENDBRANCH   1   2
BRANCH   1  35
ATOM     35  C   UNL     1       2.548  -1.549   1.838  1.00  0.00     0.023 C 
BRANCH  35  36
ATOM     36  C   UNL     1       2.740  -0.039   1.789  1.00  0.00     0.023 C 
BRANCH  36  37
ATOM     37  C   UNL     1       4.088   0.372   1.218  1.00  0.00     0.116 C 
BRANCH  37  38
ATOM     38  N   UNL     1       4.171   0.505  -0.234  1.00  0.00    -0.352 N 
ATOM     39  C   UNL     1       5.128   1.218  -0.952  1.00  0.00     0.251 C 
ATOM     40  H   UNL     1       3.478   0.043  -0.760  1.00  0.00     0.163 HD
ATOM     41  O   UNL     1       5.011   1.510  -2.135  1.00  0.00    -0.269 OA
BRANCH  39  42
ATOM     42  C   UNL     1       6.375   1.539  -0.220  1.00  0.00     0.039 A 
ATOM     43  C   UNL     1       7.365   0.551  -0.291  1.00  0.00     0.014 A 
ATOM     44  C   UNL     1       6.253   2.369   0.889  1.00  0.00     0.014 A 
ATOM     45  C   UNL     1       8.022   0.172   0.870  1.00  0.00     0.010 A 
ATOM     46  C   UNL     1       6.823   1.916   2.064  1.00  0.00     0.010 A 
ATOM     47  C   UNL     1       7.631   0.764   2.067  1.00  0.00    -0.014 A 
BRANCH  47  48
ATOM     48  C   UNL     1       7.896   0.177   3.377  1.00  0.00     0.031 A 
ATOM     49  C   UNL     1       8.772   0.913   4.314  1.00  0.00     0.074 A 
ATOM     50  C   UNL     1       7.279  -0.962   3.783  1.00  0.00     0.049 A 
ATOM     51  N   UNL     1       9.348   0.381   5.337  1.00  0.00    -0.248 NA
ATOM     52  C   UNL     1       9.144   2.315   4.118  1.00  0.00     0.031 C 
ATOM     53  C   UNL     1       7.179  -1.454   5.158  1.00  0.00     0.029 A 
ATOM     54  N   UNL     1       6.787  -2.028   3.021  1.00  0.00    -0.354 N 
ATOM     55  C   UNL     1       9.834   1.413   6.104  1.00  0.00     0.074 A 
ATOM     56  C   UNL     1       9.827   2.562   5.238  1.00  0.00     0.031 C 
ATOM     57  C   UNL     1       6.969  -2.779   5.132  1.00  0.00     0.029 A 
ATOM     58  C   UNL     1       7.070  -3.200   3.747  1.00  0.00     0.049 A 
ATOM     59  H   UNL     1       6.331  -1.969   2.150  1.00  0.00     0.167 HD
ATOM     60  C   UNL     1      10.017   1.213   7.437  1.00  0.00     0.031 A 
ATOM     61  C   UNL     1       7.860  -4.219   3.294  1.00  0.00     0.031 A 
ATOM     62  C   UNL     1       9.962  -0.209   7.775  1.00  0.00     0.049 A 
ATOM     63  C   UNL     1       9.057  -4.489   4.186  1.00  0.00     0.074 A 
ATOM     64  C   UNL     1       9.052  -1.001   8.452  1.00  0.00     0.029 A 
ATOM     65  N   UNL     1      10.848  -1.078   7.146  1.00  0.00    -0.354 N 
ATOM     66  N   UNL     1       9.425  -3.706   5.162  1.00  0.00    -0.248 NA
ATOM     67  C   UNL     1       9.966  -5.621   4.021  1.00  0.00     0.031 C 
ATOM     68  C   UNL     1       9.342  -2.360   8.140  1.00  0.00     0.029 A 
ATOM     69  C   UNL     1      10.453  -2.389   7.315  1.00  0.00     0.049 A 
ATOM     70  H   UNL     1      11.650  -0.796   6.649  1.00  0.00     0.167 HD
ATOM     71  C   UNL     1      10.594  -4.159   5.714  1.00  0.00     0.074 A 
ATOM     72  C   UNL     1      10.880  -5.378   4.980  1.00  0.00     0.031 C 
ATOM     73  C   UNL     1      11.230  -3.467   6.707  1.00  0.00     0.031 A 
BRANCH  60  74
ATOM     74  C   UNL     1       9.995   2.326   8.467  1.00  0.00    -0.014 A 
ATOM     75  C   UNL     1      10.025   2.003   9.839  1.00  0.00     0.010 A 
ATOM     76  C   UNL     1       9.817   3.692   8.164  1.00  0.00     0.010 A 
ATOM     77  C   UNL     1       9.847   2.976  10.839  1.00  0.00     0.020 A 
ATOM     78  C   UNL     1       9.665   4.677   9.148  1.00  0.00     0.020 A 
ATOM     79  C   UNL     1       9.660   4.310  10.485  1.00  0.00     0.054 A 
BRANCH  79  80
ATOM     80  S   UNL     1       9.383   5.554  11.770  1.00  0.00     0.124 S 
ATOM     81  O   UNL     1       8.107   5.131  12.341  1.00  0.00    -0.237 OA
ATOM     82  O   UNL     1      10.550   5.386  12.631  1.00  0.00    -0.237 OA
ATOM     83  O   UNL     1       9.339   6.814  11.029  1.00  0.00    -0.744 OA
ENDBRANCH  79  80
ENDBRANCH  60  74
BRANCH  61  84
ATOM     84  C   UNL     1       7.825  -4.412   1.819  1.00  0.00    -0.014 A 
ATOM     85  C   UNL     1       6.638  -4.945   1.274  1.00  0.00     0.010 A 
ATOM     86  C   UNL     1       8.691  -3.680   0.988  1.00  0.00     0.010 A 
ATOM     87  C   UNL     1       6.227  -4.587  -0.010  1.00  0.00     0.020 A 
ATOM     88  C   UNL     1       8.280  -3.321  -0.304  1.00  0.00     0.020 A 
ATOM     89  C   UNL     1       7.019  -3.718  -0.760  1.00  0.00     0.054 A 
BRANCH  89  90
ATOM     90  S   UNL     1       6.257  -2.928  -2.211  1.00  0.00     0.124 S 
ATOM     91  O   UNL     1       5.981  -4.069  -3.076  1.00  0.00    -0.237 OA
ATOM     92  O   UNL     1       5.085  -2.289  -1.612  1.00  0.00    -0.237 OA
ATOM     93  O   UNL     1       7.297  -2.017  -2.679  1.00  0.00    -0.744 OA
ENDBRANCH  89  90
ENDBRANCH  61  84
BRANCH  73  94
ATOM     94  C   UNL     1      12.619  -3.731   7.253  1.00  0.00    -0.014 A 
ATOM     95  C   UNL     1      13.602  -4.502   6.615  1.00  0.00     0.010 A 
ATOM     96  C   UNL     1      13.014  -3.064   8.442  1.00  0.00     0.010 A 
ATOM     97  C   UNL     1      14.889  -4.647   7.162  1.00  0.00     0.020 A 
ATOM     98  C   UNL     1      14.305  -3.161   8.969  1.00  0.00     0.020 A 
ATOM     99  C   UNL     1      15.230  -3.978   8.338  1.00  0.00     0.054 A 
BRANCH  99 100
ATOM    100  S   UNL     1      16.906  -4.129   9.006  1.00  0.00     0.124 S 
ATOM    101  O   UNL     1      16.805  -5.354   9.795  1.00  0.00    -0.237 OA
ATOM    102  O   UNL     1      17.730  -4.224   7.803  1.00  0.00    -0.237 OA
ATOM    103  O   UNL     1      17.080  -2.900   9.775  1.00  0.00    -0.744 OA
ENDBRANCH  99 100
ENDBRANCH  73  94
ENDBRANCH  47  48
ENDBRANCH  39  42
ENDBRANCH  37  38
ENDBRANCH  36  37
ENDBRANCH  35  36
ENDBRANCH   1  35
TORSDOF 20
