REMARK SMILES COc1cc(C)cc2c1O[C@H](C(F)(F)F)C(C(=O)NCCCCNC(=O)c1ccc(-c3c4nc(c(-c5ccc(S(=O)(=O)[O-])cc5)c5ccc([nH]5)c(-c5ccc(S(=O)(=O)[O-])cc5)c5nc(c(-c6ccc(S(=O)(=O)[O-])cc6)c6ccc3[nH]6)C=C5)C=C4)cc1)=C2
REMARK SMILES IDX 22 1 21 2 20 3 19 4 17 5 18 6 16 8 3 9 4 10 9 11 5 12 8 13
REMARK SMILES IDX 10 14 6 15 7 16 87 17 11 18 2 19 1 20 12 21 13 22 14 23
REMARK SMILES IDX 15 24 23 25 24 26 25 27 26 29 27 30 28 31 86 32 29 33 85 34
REMARK SMILES IDX 30 35 31 36 32 37 79 38 33 39 84 40 78 41 80 42 34 43 83 44
REMARK SMILES IDX 77 45 76 46 35 48 65 49 46 50 64 51 47 52 50 53 63 54 81 55
REMARK SMILES IDX 48 56 49 57 62 59 82 60 51 61 36 62 37 63 45 64 38 65 44 66
REMARK SMILES IDX 39 67 40 68 41 69 42 70 43 71 66 72 67 73 75 74 68 75 74 76
REMARK SMILES IDX 69 77 70 78 71 79 72 80 73 81 52 82 53 83 61 84 54 85 60 86
REMARK SMILES IDX 55 87 56 88 57 89 58 90 59 91
REMARK H PARENT 19 7 24 28 80 47 50 58
REMARK Flexibility Score: inf
ROOT
ATOM      1  C   UNL     1      -7.391   2.892   3.493  1.00  0.00     0.023 C 
ENDROOT
BRANCH   1   2
ATOM      2  C   UNL     1      -6.034   2.731   2.804  1.00  0.00     0.023 C 
BRANCH   2   3
ATOM      3  C   UNL     1      -5.294   4.043   2.559  1.00  0.00     0.116 C 
BRANCH   3   4
ATOM      4  N   UNL     1      -4.519   4.458   3.716  1.00  0.00    -0.352 N 
ATOM      5  C   UNL     1      -3.224   4.406   4.106  1.00  0.00     0.251 C 
ATOM      6  O   UNL     1      -2.989   4.894   5.217  1.00  0.00    -0.270 OA
ATOM      7  H   UNL     1      -5.086   4.890   4.395  1.00  0.00     0.163 HD
BRANCH   5   8
ATOM      8  C   UNL     1      -2.104   3.820   3.311  1.00  0.00     0.067 C 
ATOM      9  C   UNL     1       1.139   2.046   1.318  1.00  0.00     0.161 A 
ATOM     10  C   UNL     1       2.427   2.158   1.843  1.00  0.00     0.054 A 
ATOM     11  C   UNL     1       0.047   2.588   1.999  1.00  0.00     0.169 A 
ATOM     12  C   UNL     1       2.627   2.776   3.083  1.00  0.00    -0.047 A 
ATOM     13  C   UNL     1       0.233   3.209   3.234  1.00  0.00     0.021 A 
ATOM     14  O   UNL     1      -1.196   2.433   1.450  1.00  0.00    -0.471 OA
ATOM     15  C   UNL     1       4.002   2.898   3.670  1.00  0.00     0.044 C 
ATOM     16  C   UNL     1       1.522   3.297   3.775  1.00  0.00     0.015 A 
ATOM     17  C   UNL     1      -0.923   3.731   3.953  1.00  0.00     0.025 C 
ATOM     18  C   UNL     1      -2.208   3.386   1.875  1.00  0.00     0.314 C 
BRANCH   9  19
ATOM     19  O   UNL     1       0.946   1.478   0.085  1.00  0.00    -0.493 OA
ATOM     20  C   UNL     1       1.082   0.060   0.159  1.00  0.00     0.278 C 
ENDBRANCH   9  19
BRANCH  18  21
ATOM     21  C   UNL     1      -2.237   4.573   0.894  1.00  0.00     0.429 C 
ATOM     22  F   UNL     1      -2.648   4.165  -0.333  1.00  0.00    -0.167 F 
ATOM     23  F   UNL     1      -3.099   5.543   1.281  1.00  0.00    -0.167 F 
ATOM     24  F   UNL     1      -1.028   5.160   0.744  1.00  0.00    -0.167 F 
ENDBRANCH  18  21
ENDBRANCH   5   8
ENDBRANCH   3   4
ENDBRANCH   2   3
ENDBRANCH   1   2
BRANCH   1  25
ATOM     25  C   UNL     1      -8.379   3.824   2.794  1.00  0.00     0.116 C 
BRANCH  25  26
ATOM     26  N   UNL     1      -8.599   3.520   1.386  1.00  0.00    -0.352 N 
ATOM     27  C   UNL     1      -9.725   3.777   0.633  1.00  0.00     0.251 C 
ATOM     28  H   UNL     1      -7.855   3.079   0.916  1.00  0.00     0.163 HD
ATOM     29  O   UNL     1      -9.797   3.403  -0.533  1.00  0.00    -0.269 OA
BRANCH  27  30
ATOM     30  C   UNL     1     -10.864   4.459   1.280  1.00  0.00     0.039 A 
ATOM     31  C   UNL     1     -10.659   5.647   1.981  1.00  0.00     0.014 A 
ATOM     32  C   UNL     1     -12.118   3.842   1.272  1.00  0.00     0.014 A 
ATOM     33  C   UNL     1     -11.659   6.122   2.821  1.00  0.00     0.010 A 
ATOM     34  C   UNL     1     -13.146   4.368   2.058  1.00  0.00     0.010 A 
ATOM     35  C   UNL     1     -12.906   5.477   2.884  1.00  0.00    -0.014 A 
BRANCH  35  36
ATOM     36  C   UNL     1     -13.928   5.973   3.841  1.00  0.00     0.031 A 
ATOM     37  C   UNL     1     -14.348   5.137   5.021  1.00  0.00     0.074 A 
ATOM     38  C   UNL     1     -14.410   7.222   3.692  1.00  0.00     0.049 A 
ATOM     39  N   UNL     1     -15.178   5.442   5.987  1.00  0.00    -0.248 NA
ATOM     40  C   UNL     1     -13.766   3.789   5.139  1.00  0.00     0.031 C 
ATOM     41  C   UNL     1     -14.052   8.133   2.603  1.00  0.00     0.029 A 
ATOM     42  N   UNL     1     -15.263   7.956   4.476  1.00  0.00    -0.354 N 
ATOM     43  C   UNL     1     -15.227   4.327   6.816  1.00  0.00     0.074 A 
ATOM     44  C   UNL     1     -14.365   3.326   6.228  1.00  0.00     0.031 C 
ATOM     45  C   UNL     1     -14.619   9.327   2.828  1.00  0.00     0.029 A 
ATOM     46  C   UNL     1     -15.432   9.248   4.038  1.00  0.00     0.049 A 
ATOM     47  H   UNL     1     -15.710   7.593   5.274  1.00  0.00     0.167 HD
ATOM     48  C   UNL     1     -15.920   4.159   7.967  1.00  0.00     0.031 A 
ATOM     49  C   UNL     1     -16.159  10.262   4.548  1.00  0.00     0.031 A 
ATOM     50  C   UNL     1     -16.768   5.164   8.554  1.00  0.00     0.049 A 
ATOM     51  C   UNL     1     -16.947  10.039   5.804  1.00  0.00     0.074 A 
ATOM     52  C   UNL     1     -17.512   5.083   9.719  1.00  0.00     0.029 A 
ATOM     53  N   UNL     1     -16.977   6.432   8.034  1.00  0.00    -0.354 N 
ATOM     54  N   UNL     1     -17.001   8.967   6.557  1.00  0.00    -0.248 NA
ATOM     55  C   UNL     1     -17.778  11.155   6.276  1.00  0.00     0.031 C 
ATOM     56  C   UNL     1     -18.209   6.284   9.877  1.00  0.00     0.029 A 
ATOM     57  C   UNL     1     -17.854   7.135   8.842  1.00  0.00     0.049 A 
ATOM     58  H   UNL     1     -16.563   6.781   7.212  1.00  0.00     0.167 HD
ATOM     59  C   UNL     1     -17.877   9.275   7.590  1.00  0.00     0.074 A 
ATOM     60  C   UNL     1     -18.307  10.643   7.381  1.00  0.00     0.031 C 
ATOM     61  C   UNL     1     -18.292   8.489   8.612  1.00  0.00     0.031 A 
BRANCH  48  62
ATOM     62  C   UNL     1     -15.805   2.838   8.681  1.00  0.00    -0.014 A 
ATOM     63  C   UNL     1     -16.907   1.963   8.713  1.00  0.00     0.010 A 
ATOM     64  C   UNL     1     -14.647   2.508   9.408  1.00  0.00     0.010 A 
ATOM     65  C   UNL     1     -16.862   0.792   9.475  1.00  0.00     0.020 A 
ATOM     66  C   UNL     1     -14.591   1.326  10.153  1.00  0.00     0.020 A 
ATOM     67  C   UNL     1     -15.707   0.486  10.198  1.00  0.00     0.054 A 
BRANCH  67  68
ATOM     68  S   UNL     1     -15.664  -1.036  11.187  1.00  0.00     0.124 S 
ATOM     69  O   UNL     1     -16.409  -0.648  12.380  1.00  0.00    -0.237 OA
ATOM     70  O   UNL     1     -16.325  -2.005  10.315  1.00  0.00    -0.237 OA
ATOM     71  O   UNL     1     -14.235  -1.269  11.387  1.00  0.00    -0.744 OA
ENDBRANCH  67  68
ENDBRANCH  48  62
BRANCH  49  72
ATOM     72  C   UNL     1     -16.142  11.576   3.853  1.00  0.00    -0.014 A 
ATOM     73  C   UNL     1     -16.745  11.717   2.589  1.00  0.00     0.010 A 
ATOM     74  C   UNL     1     -15.430  12.658   4.398  1.00  0.00     0.010 A 
ATOM     75  C   UNL     1     -16.581  12.892   1.853  1.00  0.00     0.020 A 
ATOM     76  C   UNL     1     -15.288  13.847   3.675  1.00  0.00     0.020 A 
ATOM     77  C   UNL     1     -15.836  13.942   2.393  1.00  0.00     0.054 A 
BRANCH  77  78
ATOM     78  S   UNL     1     -15.577  15.435   1.396  1.00  0.00     0.124 S 
ATOM     79  O   UNL     1     -14.482  15.023   0.523  1.00  0.00    -0.237 OA
ATOM     80  O   UNL     1     -16.870  15.616   0.742  1.00  0.00    -0.237 OA
ATOM     81  O   UNL     1     -15.238  16.451   2.389  1.00  0.00    -0.744 OA
ENDBRANCH  77  78
ENDBRANCH  49  72
BRANCH  61  82
ATOM     82  C   UNL     1     -19.281   9.068   9.585  1.00  0.00    -0.014 A 
ATOM     83  C   UNL     1     -18.879   9.371  10.899  1.00  0.00     0.010 A 
ATOM     84  C   UNL     1     -20.634   9.209   9.230  1.00  0.00     0.010 A 
ATOM     85  C   UNL     1     -19.817   9.782  11.849  1.00  0.00     0.020 A 
ATOM     86  C   UNL     1     -21.571   9.642  10.172  1.00  0.00     0.020 A 
ATOM     87  C   UNL     1     -21.159   9.904  11.481  1.00  0.00     0.054 A 
BRANCH  87  88
ATOM     88  S   UNL     1     -22.369  10.425  12.729  1.00  0.00     0.124 S 
ATOM     89  O   UNL     1     -22.620   9.181  13.450  1.00  0.00    -0.237 OA
ATOM     90  O   UNL     1     -21.644  11.451  13.476  1.00  0.00    -0.237 OA
ATOM     91  O   UNL     1     -23.488  10.923  11.931  1.00  0.00    -0.744 OA
ENDBRANCH  87  88
ENDBRANCH  61  82
ENDBRANCH  35  36
ENDBRANCH  27  30
ENDBRANCH  25  26
ENDBRANCH   1  25
TORSDOF 16
