REMARK SMILES CC[C@](C)(NC(=O)N(C)Cc1cccc(C)c1)C(=O)NCCCCNC(=O)c1ccc(-c2c3nc(c(-c4ccc(S(=O)(=O)[O-])cc4)c4ccc([nH]4)c(-c4ccc(S(=O)(=O)[O-])cc4)c4nc(c(-c5ccc(S(=O)(=O)[O-])cc5)c5ccc2[nH]5)C=C4)C=C3)cc1
REMARK SMILES IDX 22 1 21 2 20 3 18 4 19 5 3 7 4 8 2 9 1 10 5 11 6 12 7 14
REMARK SMILES IDX 8 15 9 16 10 17 11 18 12 19 17 20 13 21 15 22 14 23 16 24
REMARK SMILES IDX 23 25 24 26 25 27 26 28 27 30 28 31 29 32 87 33 30 34 86 35
REMARK SMILES IDX 31 36 32 37 33 38 80 39 34 40 85 41 79 42 81 43 35 44 84 45
REMARK SMILES IDX 78 46 77 47 36 49 66 50 47 51 65 52 48 53 51 54 64 55 82 56
REMARK SMILES IDX 49 57 50 58 63 60 83 61 52 62 37 63 38 64 46 65 39 66 45 67
REMARK SMILES IDX 40 68 41 69 42 70 43 71 44 72 67 73 68 74 76 75 69 76 75 77
REMARK SMILES IDX 70 78 71 79 72 80 73 81 74 82 53 83 54 84 62 85 55 86 61 87
REMARK SMILES IDX 56 88 57 89 58 90 59 91 60 92
REMARK H PARENT 20 6 5 13 25 29 81 48 51 59
REMARK Flexibility Score: inf
ROOT
ATOM      1  C   UNL     1       2.476   3.849   4.772  1.00  0.00     0.023 C 
ENDROOT
BRANCH   1   2
ATOM      2  C   UNL     1       2.226   4.086   3.279  1.00  0.00     0.116 C 
BRANCH   2   3
ATOM      3  N   UNL     1       2.858   3.169   2.330  1.00  0.00    -0.354 N 
ATOM      4  C   UNL     1       2.443   2.037   1.685  1.00  0.00     0.245 C 
ATOM      5  O   UNL     1       3.153   1.644   0.749  1.00  0.00    -0.272 OA
ATOM      6  H   UNL     1       3.784   3.422   2.107  1.00  0.00     0.163 HD
BRANCH   4   7
ATOM      7  C   UNL     1       1.107   1.307   2.010  1.00  0.00     0.117 C 
ATOM      8  C   UNL     1       0.986  -0.100   1.381  1.00  0.00     0.045 C 
BRANCH   7   9
ATOM      9  C   UNL     1      -0.045   2.187   1.411  1.00  0.00     0.035 C 
ATOM     10  C   UNL     1      -0.238   2.085  -0.102  1.00  0.00     0.007 C 
ENDBRANCH   7   9
BRANCH   7  11
ATOM     11  N   UNL     1       0.897   1.173   3.464  1.00  0.00    -0.324 N 
ATOM     12  C   UNL     1       1.520   0.607   4.511  1.00  0.00     0.318 C 
ATOM     13  H   UNL     1       0.069   1.624   3.745  1.00  0.00     0.166 HD
ATOM     14  O   UNL     1       0.797   0.490   5.509  1.00  0.00    -0.249 OA
BRANCH  12  15
ATOM     15  N   UNL     1       2.844   0.275   4.548  1.00  0.00    -0.324 N 
ATOM     16  C   UNL     1       3.800   0.112   3.457  1.00  0.00     0.149 C 
BRANCH  15  17
ATOM     17  C   UNL     1       3.434   0.137   5.890  1.00  0.00     0.156 C 
BRANCH  17  18
ATOM     18  C   UNL     1       3.890  -1.265   6.219  1.00  0.00    -0.028 A 
ATOM     19  C   UNL     1       4.929  -1.459   7.139  1.00  0.00     0.005 A 
ATOM     20  C   UNL     1       3.310  -2.382   5.603  1.00  0.00     0.009 A 
ATOM     21  C   UNL     1       5.412  -2.742   7.392  1.00  0.00     0.001 A 
ATOM     22  C   UNL     1       3.824  -3.663   5.808  1.00  0.00    -0.051 A 
ATOM     23  C   UNL     1       4.871  -3.838   6.718  1.00  0.00     0.003 A 
ATOM     24  C   UNL     1       3.252  -4.824   5.054  1.00  0.00     0.044 C 
ENDBRANCH  17  18
ENDBRANCH  15  17
ENDBRANCH  12  15
ENDBRANCH   7  11
ENDBRANCH   4   7
ENDBRANCH   2   3
ENDBRANCH   1   2
BRANCH   1  25
ATOM     25  C   UNL     1       3.903   3.525   5.190  1.00  0.00     0.023 C 
BRANCH  25  26
ATOM     26  C   UNL     1       4.857   4.701   5.132  1.00  0.00     0.116 C 
BRANCH  26  27
ATOM     27  N   UNL     1       5.261   5.174   6.452  1.00  0.00    -0.352 N 
ATOM     28  C   UNL     1       6.301   6.043   6.752  1.00  0.00     0.251 C 
ATOM     29  H   UNL     1       4.737   4.839   7.216  1.00  0.00     0.163 HD
ATOM     30  O   UNL     1       6.710   6.248   7.873  1.00  0.00    -0.269 OA
BRANCH  28  31
ATOM     31  C   UNL     1       6.817   6.817   5.605  1.00  0.00     0.039 A 
ATOM     32  C   UNL     1       6.334   8.124   5.474  1.00  0.00     0.014 A 
ATOM     33  C   UNL     1       7.383   6.131   4.536  1.00  0.00     0.014 A 
ATOM     34  C   UNL     1       6.241   8.681   4.205  1.00  0.00     0.010 A 
ATOM     35  C   UNL     1       7.181   6.639   3.270  1.00  0.00     0.010 A 
ATOM     36  C   UNL     1       6.568   7.890   3.105  1.00  0.00    -0.014 A 
BRANCH  36  37
ATOM     37  C   UNL     1       6.290   8.281   1.730  1.00  0.00     0.031 A 
ATOM     38  C   UNL     1       7.420   8.755   0.898  1.00  0.00     0.074 A 
ATOM     39  C   UNL     1       5.047   8.165   1.210  1.00  0.00     0.049 A 
ATOM     40  N   UNL     1       7.303   9.513  -0.137  1.00  0.00    -0.248 NA
ATOM     41  C   UNL     1       8.810   8.447   1.225  1.00  0.00     0.031 C 
ATOM     42  C   UNL     1       4.673   8.306  -0.196  1.00  0.00     0.029 A 
ATOM     43  N   UNL     1       3.817   8.115   1.876  1.00  0.00    -0.354 N 
ATOM     44  C   UNL     1       8.523   9.525  -0.778  1.00  0.00     0.074 A 
ATOM     45  C   UNL     1       9.446   8.931   0.156  1.00  0.00     0.031 C 
ATOM     46  C   UNL     1       3.377   8.650  -0.262  1.00  0.00     0.029 A 
ATOM     47  C   UNL     1       2.930   8.883   1.101  1.00  0.00     0.049 A 
ATOM     48  H   UNL     1       3.615   7.640   2.714  1.00  0.00     0.167 HD
ATOM     49  C   UNL     1       8.586   9.898  -2.088  1.00  0.00     0.031 A 
ATOM     50  C   UNL     1       2.337  10.032   1.542  1.00  0.00     0.031 A 
ATOM     51  C   UNL     1       7.295  10.402  -2.554  1.00  0.00     0.049 A 
ATOM     52  C   UNL     1       2.676  11.236   0.679  1.00  0.00     0.074 A 
ATOM     53  C   UNL     1       6.274   9.839  -3.302  1.00  0.00     0.029 A 
ATOM     54  N   UNL     1       6.770  11.551  -1.972  1.00  0.00    -0.354 N 
ATOM     55  N   UNL     1       3.671  11.273  -0.165  1.00  0.00    -0.248 NA
ATOM     56  C   UNL     1       1.941  12.498   0.715  1.00  0.00     0.031 C 
ATOM     57  C   UNL     1       5.100  10.612  -3.089  1.00  0.00     0.029 A 
ATOM     58  C   UNL     1       5.420  11.662  -2.245  1.00  0.00     0.049 A 
ATOM     59  H   UNL     1       7.288  12.196  -1.439  1.00  0.00     0.167 HD
ATOM     60  C   UNL     1       3.715  12.495  -0.788  1.00  0.00     0.074 A 
ATOM     61  C   UNL     1       2.606  13.226  -0.201  1.00  0.00     0.031 C 
ATOM     62  C   UNL     1       4.657  12.795  -1.732  1.00  0.00     0.031 A 
BRANCH  49  63
ATOM     63  C   UNL     1       9.729   9.525  -3.010  1.00  0.00    -0.014 A 
ATOM     64  C   UNL     1       9.494   9.405  -4.396  1.00  0.00     0.010 A 
ATOM     65  C   UNL     1      11.032   9.207  -2.581  1.00  0.00     0.010 A 
ATOM     66  C   UNL     1      10.465   8.905  -5.280  1.00  0.00     0.020 A 
ATOM     67  C   UNL     1      12.003   8.674  -3.444  1.00  0.00     0.020 A 
ATOM     68  C   UNL     1      11.708   8.514  -4.792  1.00  0.00     0.054 A 
BRANCH  68  69
ATOM     69  S   UNL     1      12.928   7.803  -5.927  1.00  0.00     0.124 S 
ATOM     70  O   UNL     1      12.214   6.653  -6.477  1.00  0.00    -0.237 OA
ATOM     71  O   UNL     1      13.168   8.902  -6.858  1.00  0.00    -0.237 OA
ATOM     72  O   UNL     1      14.056   7.468  -5.059  1.00  0.00    -0.744 OA
ENDBRANCH  68  69
ENDBRANCH  49  63
BRANCH  50  73
ATOM     73  C   UNL     1       2.072  10.066   3.008  1.00  0.00    -0.014 A 
ATOM     74  C   UNL     1       1.095   9.178   3.512  1.00  0.00     0.010 A 
ATOM     75  C   UNL     1       3.013  10.610   3.897  1.00  0.00     0.010 A 
ATOM     76  C   UNL     1       1.166   8.710   4.827  1.00  0.00     0.020 A 
ATOM     77  C   UNL     1       3.081  10.147   5.221  1.00  0.00     0.020 A 
ATOM     78  C   UNL     1       2.199   9.151   5.652  1.00  0.00     0.054 A 
BRANCH  78  79
ATOM     79  S   UNL     1       2.481   8.266   7.217  1.00  0.00     0.124 S 
ATOM     80  O   UNL     1       1.228   8.487   7.930  1.00  0.00    -0.237 OA
ATOM     81  O   UNL     1       2.710   6.899   6.752  1.00  0.00    -0.237 OA
ATOM     82  O   UNL     1       3.652   8.935   7.773  1.00  0.00    -0.744 OA
ENDBRANCH  78  79
ENDBRANCH  50  73
BRANCH  62  83
ATOM     83  C   UNL     1       4.931  14.154  -2.347  1.00  0.00    -0.014 A 
ATOM     84  C   UNL     1       4.516  15.378  -1.804  1.00  0.00     0.010 A 
ATOM     85  C   UNL     1       5.769  14.224  -3.491  1.00  0.00     0.010 A 
ATOM     86  C   UNL     1       4.870  16.601  -2.399  1.00  0.00     0.020 A 
ATOM     87  C   UNL     1       6.169  15.434  -4.063  1.00  0.00     0.020 A 
ATOM     88  C   UNL     1       5.693  16.621  -3.526  1.00  0.00     0.054 A 
BRANCH  88  89
ATOM     89  S   UNL     1       6.198  18.204  -4.243  1.00  0.00     0.124 S 
ATOM     90  O   UNL     1       5.074  18.506  -5.126  1.00  0.00    -0.237 OA
ATOM     91  O   UNL     1       6.323  19.068  -3.071  1.00  0.00    -0.237 OA
ATOM     92  O   UNL     1       7.457  17.892  -4.913  1.00  0.00    -0.744 OA
ENDBRANCH  88  89
ENDBRANCH  62  83
ENDBRANCH  36  37
ENDBRANCH  28  31
ENDBRANCH  26  27
ENDBRANCH  25  26
ENDBRANCH   1  25
TORSDOF 19
