REMARK SMILES COCC[NH2+]CC(=O)N1C[C@H](OC)C[C@@H]1C(=O)NCCCCNC(=O)c1ccc(-c2c3nc(c(-c4ccc(S(=O)(=O)[O-])cc4)c4ccc([nH]4)c(-c4ccc(S(=O)(=O)[O-])cc4)c4nc(c(-c5ccc(S(=O)(=O)[O-])cc5)c5ccc2[nH]5)C=C4)C=C3)cc1
REMARK SMILES IDX 19 1 18 2 16 3 17 4 15 6 9 7 10 8 11 9 14 10 7 11 8 12 6 13
REMARK SMILES IDX 5 14 4 17 3 18 2 19 1 20 12 21 13 22 20 23 21 24 22 25 23 26
REMARK SMILES IDX 24 27 25 29 26 30 27 31 85 32 28 33 84 34 29 35 30 36 31 37
REMARK SMILES IDX 78 38 32 39 83 40 77 41 79 42 33 43 82 44 76 45 75 46 34 48
REMARK SMILES IDX 64 49 45 50 63 51 46 52 49 53 62 54 80 55 47 56 48 57 61 59
REMARK SMILES IDX 81 60 50 61 35 62 36 63 44 64 37 65 43 66 38 67 39 68 40 69
REMARK SMILES IDX 41 70 42 71 65 72 66 73 74 74 67 75 73 76 68 77 69 78 70 79
REMARK SMILES IDX 71 80 72 81 51 82 52 83 60 84 53 85 59 86 54 87 55 88 56 89
REMARK SMILES IDX 57 90 58 91
REMARK H PARENT 18 5 5 15 5 16 23 28 79 47 49 58
REMARK Flexibility Score: inf
ROOT
ATOM      1  C   UNL     1      -1.192   7.137  -0.109  1.00  0.00     0.116 C 
ENDROOT
BRANCH   1   2
ATOM      2  N   UNL     1      -2.340   7.079   0.759  1.00  0.00    -0.354 N 
ATOM      3  C   UNL     1      -3.170   6.024   1.008  1.00  0.00     0.242 C 
ATOM      4  O   UNL     1      -4.084   6.209   1.819  1.00  0.00    -0.273 OA
ATOM      5  H   UNL     1      -2.555   7.912   1.238  1.00  0.00     0.163 HD
BRANCH   3   6
ATOM      6  C   UNL     1      -3.104   4.704   0.202  1.00  0.00     0.177 C 
ATOM      7  N   UNL     1      -1.827   3.982   0.124  1.00  0.00    -0.323 N 
ATOM      8  C   UNL     1      -1.824   3.292  -1.149  1.00  0.00     0.152 C 
ATOM      9  C   UNL     1      -2.433   4.272  -2.131  1.00  0.00     0.139 C 
ATOM     10  C   UNL     1      -3.526   4.933  -1.276  1.00  0.00     0.069 C 
BRANCH   7  11
ATOM     11  C   UNL     1      -1.318   3.301   1.226  1.00  0.00     0.278 C 
ATOM     12  O   UNL     1      -2.029   2.652   1.990  1.00  0.00    -0.268 OA
BRANCH  11  13
ATOM     13  C   UNL     1       0.208   3.429   1.428  1.00  0.00     0.362 C 
BRANCH  13  14
ATOM     14  N   UNL     1       0.979   2.195   1.135  1.00  0.00    -0.337 N 
ATOM     15  H   UNL     1       1.941   2.325   1.446  1.00  0.00     0.346 HD
ATOM     16  H   UNL     1       0.535   1.420   1.628  1.00  0.00     0.346 HD
BRANCH  14  17
ATOM     17  C   UNL     1       0.982   1.880  -0.295  1.00  0.00     0.289 C 
BRANCH  17  18
ATOM     18  C   UNL     1       1.999   0.850  -0.800  1.00  0.00     0.221 C 
BRANCH  18  19
ATOM     19  O   UNL     1       1.429  -0.454  -0.937  1.00  0.00    -0.379 OA
ATOM     20  C   UNL     1       1.208  -1.095   0.308  1.00  0.00     0.195 C 
ENDBRANCH  18  19
ENDBRANCH  17  18
ENDBRANCH  14  17
ENDBRANCH  13  14
ENDBRANCH  11  13
ENDBRANCH   7  11
BRANCH   9  21
ATOM     21  O   UNL     1      -1.548   5.285  -2.632  1.00  0.00    -0.380 OA
ATOM     22  C   UNL     1      -0.162   4.959  -2.715  1.00  0.00     0.195 C 
ENDBRANCH   9  21
ENDBRANCH   3   6
ENDBRANCH   1   2
BRANCH   1  23
ATOM     23  C   UNL     1      -1.325   8.168  -1.230  1.00  0.00     0.023 C 
BRANCH  23  24
ATOM     24  C   UNL     1      -0.717   9.532  -0.916  1.00  0.00     0.023 C 
BRANCH  24  25
ATOM     25  C   UNL     1       0.735   9.511  -0.455  1.00  0.00     0.116 C 
BRANCH  25  26
ATOM     26  N   UNL     1       1.662   8.900  -1.395  1.00  0.00    -0.352 N 
ATOM     27  C   UNL     1       2.949   9.302  -1.710  1.00  0.00     0.251 C 
ATOM     28  H   UNL     1       1.333   8.101  -1.867  1.00  0.00     0.163 HD
ATOM     29  O   UNL     1       3.592   8.719  -2.558  1.00  0.00    -0.269 OA
BRANCH  27  30
ATOM     30  C   UNL     1       3.496  10.498  -1.024  1.00  0.00     0.039 A 
ATOM     31  C   UNL     1       4.010  11.541  -1.797  1.00  0.00     0.014 A 
ATOM     32  C   UNL     1       3.396  10.628   0.362  1.00  0.00     0.014 A 
ATOM     33  C   UNL     1       4.341  12.751  -1.182  1.00  0.00     0.010 A 
ATOM     34  C   UNL     1       3.626  11.865   0.954  1.00  0.00     0.010 A 
ATOM     35  C   UNL     1       4.106  12.941   0.191  1.00  0.00    -0.014 A 
BRANCH  35  36
ATOM     36  C   UNL     1       4.365  14.251   0.844  1.00  0.00     0.031 A 
ATOM     37  C   UNL     1       5.377  14.354   1.955  1.00  0.00     0.074 A 
ATOM     38  C   UNL     1       3.659  15.340   0.476  1.00  0.00     0.049 A 
ATOM     39  N   UNL     1       5.741  15.404   2.645  1.00  0.00    -0.248 NA
ATOM     40  C   UNL     1       6.046  13.108   2.365  1.00  0.00     0.031 C 
ATOM     41  C   UNL     1       2.606  15.367  -0.543  1.00  0.00     0.029 A 
ATOM     42  N   UNL     1       3.728  16.640   0.913  1.00  0.00    -0.354 N 
ATOM     43  C   UNL     1       6.666  14.943   3.575  1.00  0.00     0.074 A 
ATOM     44  C   UNL     1       6.751  13.509   3.410  1.00  0.00     0.031 C 
ATOM     45  C   UNL     1       2.166  16.628  -0.689  1.00  0.00     0.029 A 
ATOM     46  C   UNL     1       2.878  17.493   0.247  1.00  0.00     0.049 A 
ATOM     47  H   UNL     1       4.329  16.934   1.635  1.00  0.00     0.167 HD
ATOM     48  C   UNL     1       7.405  15.646   4.465  1.00  0.00     0.031 A 
ATOM     49  C   UNL     1       2.703  18.824   0.364  1.00  0.00     0.031 A 
ATOM     50  C   UNL     1       7.331  17.073   4.623  1.00  0.00     0.049 A 
ATOM     51  C   UNL     1       3.543  19.590   1.349  1.00  0.00     0.074 A 
ATOM     52  C   UNL     1       8.069  17.888   5.463  1.00  0.00     0.029 A 
ATOM     53  N   UNL     1       6.467  17.900   3.920  1.00  0.00    -0.354 N 
ATOM     54  N   UNL     1       4.460  19.144   2.175  1.00  0.00    -0.248 NA
ATOM     55  C   UNL     1       3.339  21.044   1.401  1.00  0.00     0.031 C 
ATOM     56  C   UNL     1       7.622  19.204   5.298  1.00  0.00     0.029 A 
ATOM     57  C   UNL     1       6.645  19.215   4.314  1.00  0.00     0.049 A 
ATOM     58  H   UNL     1       5.822  17.596   3.241  1.00  0.00     0.167 HD
ATOM     59  C   UNL     1       4.966  20.267   2.821  1.00  0.00     0.074 A 
ATOM     60  C   UNL     1       4.261  21.412   2.280  1.00  0.00     0.031 C 
ATOM     61  C   UNL     1       5.933  20.344   3.770  1.00  0.00     0.031 A 
BRANCH  48  62
ATOM     62  C   UNL     1       8.360  14.865   5.331  1.00  0.00    -0.014 A 
ATOM     63  C   UNL     1       9.489  14.233   4.777  1.00  0.00     0.010 A 
ATOM     64  C   UNL     1       8.124  14.753   6.713  1.00  0.00     0.010 A 
ATOM     65  C   UNL     1      10.327  13.450   5.574  1.00  0.00     0.020 A 
ATOM     66  C   UNL     1       8.980  13.998   7.521  1.00  0.00     0.020 A 
ATOM     67  C   UNL     1      10.061  13.330   6.941  1.00  0.00     0.054 A 
BRANCH  67  68
ATOM     68  S   UNL     1      11.158  12.299   7.952  1.00  0.00     0.124 S 
ATOM     69  O   UNL     1      10.749  10.953   7.560  1.00  0.00    -0.237 OA
ATOM     70  O   UNL     1      12.487  12.707   7.503  1.00  0.00    -0.237 OA
ATOM     71  O   UNL     1      10.823  12.678   9.323  1.00  0.00    -0.744 OA
ENDBRANCH  67  68
ENDBRANCH  48  62
BRANCH  49  72
ATOM     72  C   UNL     1       1.732  19.527  -0.520  1.00  0.00    -0.014 A 
ATOM     73  C   UNL     1       2.192  20.355  -1.561  1.00  0.00     0.010 A 
ATOM     74  C   UNL     1       0.347  19.360  -0.342  1.00  0.00     0.010 A 
ATOM     75  C   UNL     1       1.285  21.012  -2.398  1.00  0.00     0.020 A 
ATOM     76  C   UNL     1      -0.562  19.995  -1.193  1.00  0.00     0.020 A 
ATOM     77  C   UNL     1      -0.087  20.825  -2.211  1.00  0.00     0.054 A 
BRANCH  77  78
ATOM     78  S   UNL     1      -1.243  21.639  -3.349  1.00  0.00     0.124 S 
ATOM     79  O   UNL     1      -1.170  23.030  -2.914  1.00  0.00    -0.237 OA
ATOM     80  O   UNL     1      -0.655  21.352  -4.654  1.00  0.00    -0.237 OA
ATOM     81  O   UNL     1      -2.513  20.965  -3.085  1.00  0.00    -0.744 OA
ENDBRANCH  77  78
ENDBRANCH  49  72
BRANCH  61  82
ATOM     82  C   UNL     1       6.316  21.718   4.253  1.00  0.00    -0.014 A 
ATOM     83  C   UNL     1       5.455  22.478   5.064  1.00  0.00     0.010 A 
ATOM     84  C   UNL     1       7.576  22.242   3.910  1.00  0.00     0.010 A 
ATOM     85  C   UNL     1       5.828  23.758   5.483  1.00  0.00     0.020 A 
ATOM     86  C   UNL     1       7.964  23.509   4.351  1.00  0.00     0.020 A 
ATOM     87  C   UNL     1       7.079  24.267   5.118  1.00  0.00     0.054 A 
BRANCH  87  88
ATOM     88  S   UNL     1       7.548  25.924   5.686  1.00  0.00     0.124 S 
ATOM     89  O   UNL     1       6.756  26.781   4.808  1.00  0.00    -0.237 OA
ATOM     90  O   UNL     1       7.139  25.912   7.089  1.00  0.00    -0.237 OA
ATOM     91  O   UNL     1       8.992  25.970   5.466  1.00  0.00    -0.744 OA
ENDBRANCH  87  88
ENDBRANCH  61  82
ENDBRANCH  35  36
ENDBRANCH  27  30
ENDBRANCH  25  26
ENDBRANCH  24  25
ENDBRANCH  23  24
ENDBRANCH   1  23
TORSDOF 21
