REMARK SMILES CCCc1n[nH]c(C(=O)NC2(CC(=O)NCCCCNC(=O)c3ccc(-c4c5nc(c(-c6ccc(S(=O)(=O)[O-])cc6)c6ccc([nH]6)c(-c6ccc(S(=O)(=O)[O-])cc6)c6nc(c(-c7ccc(S(=O)(=O)[O-])cc7)c7ccc4[nH]7)C=C6)C=C5)cc3)CCC2)n1
REMARK SMILES IDX 16 1 15 2 13 3 14 4 12 6 11 7 83 8 85 9 84 10 10 11 8 12
REMARK SMILES IDX 9 13 7 15 4 16 5 17 86 18 6 19 3 21 2 22 1 23 17 24 18 25
REMARK SMILES IDX 19 26 20 27 21 28 22 30 23 31 24 32 82 33 25 34 81 35 26 36
REMARK SMILES IDX 27 37 28 38 75 39 29 40 80 41 74 42 76 43 30 44 79 45 73 46
REMARK SMILES IDX 72 47 31 49 61 50 42 51 60 52 43 53 46 54 59 55 77 56 44 57
REMARK SMILES IDX 45 58 58 60 78 61 47 62 32 63 33 64 41 65 34 66 40 67 35 68
REMARK SMILES IDX 36 69 37 70 38 71 39 72 62 73 63 74 71 75 64 76 70 77 65 78
REMARK SMILES IDX 66 79 67 80 68 81 69 82 48 83 49 84 57 85 50 86 56 87 51 88
REMARK SMILES IDX 52 89 53 90 54 91 55 92
REMARK H PARENT 15 5 10 14 6 20 20 29 76 48 46 59
REMARK Flexibility Score: inf
ROOT
ATOM      1  C   UNL     1       6.335  -5.802  -2.893  1.00  0.00     0.116 C 
ENDROOT
BRANCH   1   2
ATOM      2  N   UNL     1       5.272  -6.324  -3.727  1.00  0.00    -0.356 N 
ATOM      3  C   UNL     1       4.091  -5.747  -4.080  1.00  0.00     0.222 C 
ATOM      4  O   UNL     1       3.232  -6.457  -4.605  1.00  0.00    -0.275 OA
ATOM      5  H   UNL     1       5.426  -7.226  -4.090  1.00  0.00     0.163 HD
BRANCH   3   6
ATOM      6  C   UNL     1       3.843  -4.272  -3.834  1.00  0.00     0.128 C 
BRANCH   6   7
ATOM      7  C   UNL     1       3.078  -3.914  -2.546  1.00  0.00     0.049 C 
ATOM      8  C   UNL     1       3.025  -2.372  -2.290  1.00  0.00     0.029 C 
ATOM      9  C   UNL     1       3.838  -3.928  -1.166  1.00  0.00     0.029 C 
ATOM     10  C   UNL     1       4.319  -2.504  -1.477  1.00  0.00     0.005 C 
BRANCH   7  11
ATOM     11  N   UNL     1       1.852  -4.750  -2.457  1.00  0.00    -0.343 N 
ATOM     12  C   UNL     1       0.496  -4.522  -2.543  1.00  0.00     0.289 C 
ATOM     13  O   UNL     1      -0.244  -5.494  -2.362  1.00  0.00    -0.266 OA
ATOM     14  H   UNL     1       2.060  -5.699  -2.296  1.00  0.00     0.164 HD
BRANCH  12  15
ATOM     15  C   UNL     1      -0.054  -3.212  -2.747  1.00  0.00     0.214 A 
ATOM     16  C   UNL     1      -0.343  -1.131  -2.878  1.00  0.00     0.151 A 
ATOM     17  N   UNL     1      -1.537  -1.557  -2.446  1.00  0.00    -0.158 NA
ATOM     18  N   UNL     1       0.538  -2.127  -3.194  1.00  0.00    -0.207 NA
ATOM     19  N   UNL     1      -1.340  -2.890  -2.415  1.00  0.00    -0.255 N 
ATOM     20  H   UNL     1      -2.034  -3.548  -2.182  1.00  0.00     0.192 HD
BRANCH  16  21
ATOM     21  C   UNL     1       0.090   0.290  -2.849  1.00  0.00     0.079 C 
BRANCH  21  22
ATOM     22  C   UNL     1       0.014   0.928  -1.455  1.00  0.00     0.005 C 
ATOM     23  C   UNL     1       0.866   0.231  -0.399  1.00  0.00     0.004 C 
ENDBRANCH  21  22
ENDBRANCH  16  21
ENDBRANCH  12  15
ENDBRANCH   7  11
ENDBRANCH   6   7
ENDBRANCH   3   6
ENDBRANCH   1   2
BRANCH   1  24
ATOM     24  C   UNL     1       6.244  -6.391  -1.484  1.00  0.00     0.023 C 
BRANCH  24  25
ATOM     25  C   UNL     1       6.949  -7.720  -1.278  1.00  0.00     0.023 C 
BRANCH  25  26
ATOM     26  C   UNL     1       8.442  -7.703  -1.556  1.00  0.00     0.116 C 
BRANCH  26  27
ATOM     27  N   UNL     1       9.165  -6.645  -0.861  1.00  0.00    -0.352 N 
ATOM     28  C   UNL     1      10.407  -6.710  -0.272  1.00  0.00     0.251 C 
ATOM     29  H   UNL     1       8.708  -5.775  -0.807  1.00  0.00     0.163 HD
ATOM     30  O   UNL     1      10.862  -5.749   0.338  1.00  0.00    -0.269 OA
BRANCH  28  31
ATOM     31  C   UNL     1      11.153  -7.981  -0.348  1.00  0.00     0.039 A 
ATOM     32  C   UNL     1      11.604  -8.572   0.833  1.00  0.00     0.014 A 
ATOM     33  C   UNL     1      11.292  -8.636  -1.574  1.00  0.00     0.014 A 
ATOM     34  C   UNL     1      12.111  -9.872   0.795  1.00  0.00     0.010 A 
ATOM     35  C   UNL     1      11.710  -9.959  -1.595  1.00  0.00     0.010 A 
ATOM     36  C   UNL     1      12.117 -10.592  -0.411  1.00  0.00    -0.014 A 
BRANCH  36  37
ATOM     37  C   UNL     1      12.540 -12.012  -0.468  1.00  0.00     0.031 A 
ATOM     38  C   UNL     1      13.720 -12.402  -1.314  1.00  0.00     0.074 A 
ATOM     39  C   UNL     1      11.807 -12.957   0.155  1.00  0.00     0.049 A 
ATOM     40  N   UNL     1      14.171 -13.595  -1.599  1.00  0.00    -0.248 NA
ATOM     41  C   UNL     1      14.465 -11.307  -1.959  1.00  0.00     0.031 C 
ATOM     42  C   UNL     1      10.601 -12.714   0.953  1.00  0.00     0.029 A 
ATOM     43  N   UNL     1      11.963 -14.319   0.202  1.00  0.00    -0.354 N 
ATOM     44  C   UNL     1      15.222 -13.397  -2.486  1.00  0.00     0.074 A 
ATOM     45  C   UNL     1      15.317 -11.973  -2.723  1.00  0.00     0.031 C 
ATOM     46  C   UNL     1      10.146 -13.884   1.431  1.00  0.00     0.029 A 
ATOM     47  C   UNL     1      11.003 -14.961   0.948  1.00  0.00     0.049 A 
ATOM     48  H   UNL     1      12.695 -14.793  -0.256  1.00  0.00     0.167 HD
ATOM     49  C   UNL     1      16.048 -14.315  -3.040  1.00  0.00     0.031 A 
ATOM     50  C   UNL     1      10.833 -16.270   1.212  1.00  0.00     0.031 A 
ATOM     51  C   UNL     1      15.985 -15.723  -2.764  1.00  0.00     0.049 A 
ATOM     52  C   UNL     1      11.806 -17.264   0.644  1.00  0.00     0.074 A 
ATOM     53  C   UNL     1      16.820 -16.729  -3.217  1.00  0.00     0.029 A 
ATOM     54  N   UNL     1      15.040 -16.323  -1.946  1.00  0.00    -0.354 N 
ATOM     55  N   UNL     1      12.828 -17.051  -0.150  1.00  0.00    -0.248 NA
ATOM     56  C   UNL     1      11.613 -18.672   1.019  1.00  0.00     0.031 C 
ATOM     57  C   UNL     1      16.368 -17.942  -2.687  1.00  0.00     0.029 A 
ATOM     58  C   UNL     1      15.271 -17.685  -1.880  1.00  0.00     0.049 A 
ATOM     59  H   UNL     1      14.312 -15.850  -1.482  1.00  0.00     0.167 HD
ATOM     60  C   UNL     1      13.412 -18.295  -0.353  1.00  0.00     0.074 A 
ATOM     61  C   UNL     1      12.638 -19.253   0.410  1.00  0.00     0.031 C 
ATOM     62  C   UNL     1      14.493 -18.617  -1.105  1.00  0.00     0.031 A 
BRANCH  49  63
ATOM     63  C   UNL     1      17.095 -13.812  -3.994  1.00  0.00    -0.014 A 
ATOM     64  C   UNL     1      18.211 -13.093  -3.529  1.00  0.00     0.010 A 
ATOM     65  C   UNL     1      16.968 -14.067  -5.371  1.00  0.00     0.010 A 
ATOM     66  C   UNL     1      19.157 -12.597  -4.428  1.00  0.00     0.020 A 
ATOM     67  C   UNL     1      17.925 -13.594  -6.272  1.00  0.00     0.020 A 
ATOM     68  C   UNL     1      19.003 -12.843  -5.796  1.00  0.00     0.054 A 
BRANCH  68  69
ATOM     69  S   UNL     1      20.248 -12.196  -6.945  1.00  0.00     0.124 S 
ATOM     70  O   UNL     1      19.854 -10.794  -7.054  1.00  0.00    -0.237 OA
ATOM     71  O   UNL     1      21.502 -12.442  -6.237  1.00  0.00    -0.237 OA
ATOM     72  O   UNL     1      20.051 -12.996  -8.152  1.00  0.00    -0.744 OA
ENDBRANCH  68  69
ENDBRANCH  49  63
BRANCH  50  73
ATOM     73  C   UNL     1       9.713 -16.713   2.084  1.00  0.00    -0.014 A 
ATOM     74  C   UNL     1       9.964 -17.107   3.410  1.00  0.00     0.010 A 
ATOM     75  C   UNL     1       8.393 -16.730   1.601  1.00  0.00     0.010 A 
ATOM     76  C   UNL     1       8.917 -17.527   4.234  1.00  0.00     0.020 A 
ATOM     77  C   UNL     1       7.340 -17.131   2.429  1.00  0.00     0.020 A 
ATOM     78  C   UNL     1       7.611 -17.538   3.738  1.00  0.00     0.054 A 
BRANCH  78  79
ATOM     79  S   UNL     1       6.255 -18.034   4.839  1.00  0.00     0.124 S 
ATOM     80  O   UNL     1       6.353 -19.489   4.802  1.00  0.00    -0.237 OA
ATOM     81  O   UNL     1       6.625 -17.406   6.105  1.00  0.00    -0.237 OA
ATOM     82  O   UNL     1       5.073 -17.466   4.195  1.00  0.00    -0.744 OA
ENDBRANCH  78  79
ENDBRANCH  50  73
BRANCH  62  83
ATOM     83  C   UNL     1      14.923 -20.055  -1.112  1.00  0.00    -0.014 A 
ATOM     84  C   UNL     1      14.231 -21.013  -1.872  1.00  0.00     0.010 A 
ATOM     85  C   UNL     1      16.072 -20.438  -0.397  1.00  0.00     0.010 A 
ATOM     86  C   UNL     1      14.669 -22.339  -1.899  1.00  0.00     0.020 A 
ATOM     87  C   UNL     1      16.523 -21.759  -0.437  1.00  0.00     0.020 A 
ATOM     88  C   UNL     1      15.811 -22.704  -1.179  1.00  0.00     0.054 A 
BRANCH  88  89
ATOM     89  S   UNL     1      16.396 -24.419  -1.269  1.00  0.00     0.124 S 
ATOM     90  O   UNL     1      15.498 -25.094  -0.337  1.00  0.00    -0.237 OA
ATOM     91  O   UNL     1      16.206 -24.753  -2.679  1.00  0.00    -0.237 OA
ATOM     92  O   UNL     1      17.790 -24.330  -0.841  1.00  0.00    -0.744 OA
ENDBRANCH  88  89
ENDBRANCH  62  83
ENDBRANCH  36  37
ENDBRANCH  28  31
ENDBRANCH  26  27
ENDBRANCH  25  26
ENDBRANCH  24  25
ENDBRANCH   1  24
TORSDOF 19
