REMARK SMILES COc1ccc(/C=C/C(=O)NCCCCNC(=O)c2ccc(-c3c4nc(c(-c5ccc(S(=O)(=O)[O-])cc5)c5ccc([nH]5)c(-c5ccc(S(=O)(=O)[O-])cc5)c5nc(c(-c6ccc(S(=O)(=O)[O-])cc6)c6ccc3[nH]6)C=C5)C=C4)cc2)cc1S(=O)(=O)Nc1ccc(F)cc1F
REMARK SMILES IDX 13 1 12 2 11 3 9 4 10 5 8 7 7 8 6 9 3 10 4 11 80 12 5 13
REMARK SMILES IDX 79 14 2 15 1 16 81 17 82 18 83 19 84 20 85 22 86 23 91 24
REMARK SMILES IDX 87 25 90 26 92 27 88 28 89 29 14 30 15 31 16 32 17 33 18 35
REMARK SMILES IDX 19 36 20 37 78 38 21 39 77 40 22 41 23 42 24 43 71 44 25 45
REMARK SMILES IDX 76 46 70 47 72 48 26 49 75 50 69 51 68 52 27 54 57 55 38 56
REMARK SMILES IDX 56 57 39 58 42 59 55 60 73 61 40 62 41 63 54 65 74 66 43 67
REMARK SMILES IDX 28 68 29 69 37 70 30 71 36 72 31 73 32 74 33 75 34 76 35 77
REMARK SMILES IDX 58 78 59 79 67 80 60 81 66 82 61 83 62 84 63 85 64 86 65 87
REMARK SMILES IDX 44 88 45 89 53 90 46 91 52 92 47 93 48 94 49 95 50 96 51 97
REMARK H PARENT 11 6 84 21 16 34 72 53 42 64
REMARK Flexibility Score: inf
ROOT
ATOM      1  C   UNL     1       5.040   7.577  -2.854  1.00  0.00     0.023 C 
ENDROOT
BRANCH   1   2
ATOM      2  C   UNL     1       3.885   7.925  -1.918  1.00  0.00     0.116 C 
BRANCH   2   3
ATOM      3  N   UNL     1       2.796   8.537  -2.659  1.00  0.00    -0.353 N 
ATOM      4  C   UNL     1       1.572   8.040  -2.977  1.00  0.00     0.243 C 
ATOM      5  O   UNL     1       0.756   8.725  -3.586  1.00  0.00    -0.270 OA
ATOM      6  H   UNL     1       2.971   9.451  -2.979  1.00  0.00     0.163 HD
BRANCH   4   7
ATOM      7  C   UNL     1       1.168   6.720  -2.454  1.00  0.00     0.072 C 
ATOM      8  C   UNL     1       1.781   5.556  -2.729  1.00  0.00     0.014 C 
BRANCH   8   9
ATOM      9  C   UNL     1       1.373   4.298  -2.079  1.00  0.00    -0.024 A 
ATOM     10  C   UNL     1       0.725   2.081  -0.479  1.00  0.00     0.139 A 
ATOM     11  C   UNL     1      -0.266   2.984  -0.864  1.00  0.00     0.048 A 
ATOM     12  C   UNL     1       1.992   2.171  -1.047  1.00  0.00     0.130 A 
ATOM     13  C   UNL     1       0.053   4.074  -1.671  1.00  0.00     0.012 A 
ATOM     14  C   UNL     1       2.323   3.301  -1.823  1.00  0.00     0.034 A 
BRANCH  10  15
ATOM     15  O   UNL     1       0.334   1.134   0.421  1.00  0.00    -0.495 OA
ATOM     16  C   UNL     1       0.894   1.369   1.714  1.00  0.00     0.278 C 
ENDBRANCH  10  15
BRANCH  12  17
ATOM     17  S   UNL     1       3.230   0.907  -0.913  1.00  0.00     0.265 S 
ATOM     18  O   UNL     1       3.948   0.858  -2.174  1.00  0.00    -0.201 OA
ATOM     19  O   UNL     1       3.943   1.177   0.319  1.00  0.00    -0.201 OA
BRANCH  17  20
ATOM     20  N   UNL     1       2.531  -0.606  -0.675  1.00  0.00    -0.277 N 
ATOM     21  H   UNL     1       3.022  -1.262  -0.129  1.00  0.00     0.180 HD
BRANCH  20  22
ATOM     22  C   UNL     1       1.268  -0.994  -1.217  1.00  0.00     0.085 A 
ATOM     23  C   UNL     1       0.467  -1.806  -0.399  1.00  0.00     0.033 A 
ATOM     24  C   UNL     1       0.770  -0.587  -2.460  1.00  0.00     0.150 A 
ATOM     25  C   UNL     1      -0.851  -2.087  -0.760  1.00  0.00     0.041 A 
ATOM     26  C   UNL     1      -0.543  -0.869  -2.827  1.00  0.00     0.080 A 
ATOM     27  F   UNL     1       1.516   0.144  -3.297  1.00  0.00    -0.205 F 
ATOM     28  C   UNL     1      -1.348  -1.596  -1.961  1.00  0.00     0.126 A 
ATOM     29  F   UNL     1      -2.629  -1.824  -2.281  1.00  0.00    -0.207 F 
ENDBRANCH  20  22
ENDBRANCH  17  20
ENDBRANCH  12  17
ENDBRANCH   8   9
ENDBRANCH   4   7
ENDBRANCH   2   3
ENDBRANCH   1   2
BRANCH   1  30
ATOM     30  C   UNL     1       5.846   8.791  -3.331  1.00  0.00     0.023 C 
BRANCH  30  31
ATOM     31  C   UNL     1       6.557   9.573  -2.228  1.00  0.00     0.116 C 
BRANCH  31  32
ATOM     32  N   UNL     1       7.479   8.757  -1.453  1.00  0.00    -0.352 N 
ATOM     33  C   UNL     1       8.676   9.121  -0.886  1.00  0.00     0.251 C 
ATOM     34  H   UNL     1       7.209   7.820  -1.317  1.00  0.00     0.163 HD
ATOM     35  O   UNL     1       9.388   8.274  -0.356  1.00  0.00    -0.269 OA
BRANCH  33  36
ATOM     36  C   UNL     1       9.117  10.529  -0.953  1.00  0.00     0.039 A 
ATOM     37  C   UNL     1      10.410  10.809  -1.401  1.00  0.00     0.014 A 
ATOM     38  C   UNL     1       8.253  11.567  -0.594  1.00  0.00     0.014 A 
ATOM     39  C   UNL     1      10.818  12.136  -1.549  1.00  0.00     0.010 A 
ATOM     40  C   UNL     1       8.641  12.889  -0.797  1.00  0.00     0.010 A 
ATOM     41  C   UNL     1       9.925  13.185  -1.278  1.00  0.00    -0.014 A 
BRANCH  41  42
ATOM     42  C   UNL     1      10.312  14.601  -1.494  1.00  0.00     0.031 A 
ATOM     43  C   UNL     1      10.423  15.539  -0.324  1.00  0.00     0.074 A 
ATOM     44  C   UNL     1      10.488  15.061  -2.748  1.00  0.00     0.049 A 
ATOM     45  N   UNL     1      10.666  16.824  -0.317  1.00  0.00    -0.248 NA
ATOM     46  C   UNL     1      10.206  14.959   1.012  1.00  0.00     0.031 C 
ATOM     47  C   UNL     1      10.371  14.260  -3.969  1.00  0.00     0.029 A 
ATOM     48  N   UNL     1      10.793  16.318  -3.204  1.00  0.00    -0.354 N 
ATOM     49  C   UNL     1      10.607  17.212   1.016  1.00  0.00     0.074 A 
ATOM     50  C   UNL     1      10.267  16.033   1.785  1.00  0.00     0.031 C 
ATOM     51  C   UNL     1      10.622  15.041  -5.033  1.00  0.00     0.029 A 
ATOM     52  C   UNL     1      10.882  16.402  -4.574  1.00  0.00     0.049 A 
ATOM     53  H   UNL     1      10.935  17.088  -2.607  1.00  0.00     0.167 HD
ATOM     54  C   UNL     1      10.828  18.435   1.555  1.00  0.00     0.031 A 
ATOM     55  C   UNL     1      11.139  17.456  -5.371  1.00  0.00     0.031 A 
ATOM     56  C   UNL     1      11.184  19.601   0.791  1.00  0.00     0.049 A 
ATOM     57  C   UNL     1      11.393  18.802  -4.751  1.00  0.00     0.074 A 
ATOM     58  C   UNL     1      11.487  20.871   1.248  1.00  0.00     0.029 A 
ATOM     59  N   UNL     1      11.286  19.638  -0.592  1.00  0.00    -0.354 N 
ATOM     60  N   UNL     1      11.387  19.138  -3.483  1.00  0.00    -0.248 NA
ATOM     61  C   UNL     1      11.697  19.909  -5.669  1.00  0.00     0.031 C 
ATOM     62  C   UNL     1      11.736  21.687   0.139  1.00  0.00     0.029 A 
ATOM     63  C   UNL     1      11.631  20.913  -1.006  1.00  0.00     0.049 A 
ATOM     64  H   UNL     1      11.134  18.871  -1.190  1.00  0.00     0.167 HD
ATOM     65  C   UNL     1      11.710  20.489  -3.449  1.00  0.00     0.074 A 
ATOM     66  C   UNL     1      11.915  20.906  -4.822  1.00  0.00     0.031 C 
ATOM     67  C   UNL     1      11.830  21.310  -2.377  1.00  0.00     0.031 A 
BRANCH  54  68
ATOM     68  C   UNL     1      10.680  18.568   3.047  1.00  0.00    -0.014 A 
ATOM     69  C   UNL     1      11.620  17.997   3.923  1.00  0.00     0.010 A 
ATOM     70  C   UNL     1       9.593  19.285   3.580  1.00  0.00     0.010 A 
ATOM     71  C   UNL     1      11.447  18.093   5.306  1.00  0.00     0.020 A 
ATOM     72  C   UNL     1       9.431  19.407   4.963  1.00  0.00     0.020 A 
ATOM     73  C   UNL     1      10.348  18.790   5.817  1.00  0.00     0.054 A 
BRANCH  73  74
ATOM     74  S   UNL     1      10.144  18.900   7.616  1.00  0.00     0.124 S 
ATOM     75  O   UNL     1       9.639  17.569   7.943  1.00  0.00    -0.237 OA
ATOM     76  O   UNL     1      11.500  19.188   8.079  1.00  0.00    -0.237 OA
ATOM     77  O   UNL     1       9.187  19.990   7.790  1.00  0.00    -0.744 OA
ENDBRANCH  73  74
ENDBRANCH  54  68
BRANCH  55  78
ATOM     78  C   UNL     1      11.195  17.271  -6.846  1.00  0.00    -0.014 A 
ATOM     79  C   UNL     1      12.432  17.282  -7.513  1.00  0.00     0.010 A 
ATOM     80  C   UNL     1      10.018  17.057  -7.585  1.00  0.00     0.010 A 
ATOM     81  C   UNL     1      12.492  17.092  -8.896  1.00  0.00     0.020 A 
ATOM     82  C   UNL     1      10.076  16.845  -8.966  1.00  0.00     0.020 A 
ATOM     83  C   UNL     1      11.312  16.872  -9.614  1.00  0.00     0.054 A 
BRANCH  83  84
ATOM     84  S   UNL     1      11.418  16.563 -11.399  1.00  0.00     0.124 S 
ATOM     85  O   UNL     1      11.658  17.903 -11.925  1.00  0.00    -0.237 OA
ATOM     86  O   UNL     1      12.542  15.634 -11.494  1.00  0.00    -0.237 OA
ATOM     87  O   UNL     1      10.115  15.985 -11.722  1.00  0.00    -0.744 OA
ENDBRANCH  83  84
ENDBRANCH  55  78
BRANCH  67  88
ATOM     88  C   UNL     1      12.228  22.736  -2.641  1.00  0.00    -0.014 A 
ATOM     89  C   UNL     1      11.312  23.660  -3.173  1.00  0.00     0.010 A 
ATOM     90  C   UNL     1      13.522  23.169  -2.298  1.00  0.00     0.010 A 
ATOM     91  C   UNL     1      11.692  24.989  -3.381  1.00  0.00     0.020 A 
ATOM     92  C   UNL     1      13.898  24.502  -2.484  1.00  0.00     0.020 A 
ATOM     93  C   UNL     1      12.983  25.401  -3.037  1.00  0.00     0.054 A 
BRANCH  93  94
ATOM     94  S   UNL     1      13.439  27.141  -3.270  1.00  0.00     0.124 S 
ATOM     95  O   UNL     1      13.660  27.206  -4.712  1.00  0.00    -0.237 OA
ATOM     96  O   UNL     1      12.260  27.852  -2.782  1.00  0.00    -0.237 OA
ATOM     97  O   UNL     1      14.637  27.297  -2.447  1.00  0.00    -0.744 OA
ENDBRANCH  93  94
ENDBRANCH  67  88
ENDBRANCH  41  42
ENDBRANCH  33  36
ENDBRANCH  31  32
ENDBRANCH  30  31
ENDBRANCH   1  30
TORSDOF 19
