REMARK SMILES C[C@@H](C(=O)NCCCCNC(=O)c1ccc(-c2c3nc(c(-c4ccc(S(=O)(=O)[O-])cc4)c4ccc([nH]4)c(-c4ccc(S(=O)(=O)[O-])cc4)c4nc(c(-c5ccc(S(=O)(=O)[O-])cc5)c5ccc2[nH]5)C=C4)C=C3)cc1)c1ccc(-c2ccn(C(F)F)c(=O)c2)cc1
REMARK SMILES IDX 7 1 6 2 5 3 3 4 4 5 2 7 1 8 73 9 74 10 88 11 75 12 87 13
REMARK SMILES IDX 76 14 77 15 78 16 86 17 79 18 84 19 80 20 85 21 81 22 82 23
REMARK SMILES IDX 83 24 8 25 9 26 10 27 11 28 12 30 13 31 14 32 72 33 15 34
REMARK SMILES IDX 71 35 16 36 17 37 18 38 65 39 19 40 70 41 64 42 66 43 20 44
REMARK SMILES IDX 69 45 63 46 62 47 21 49 51 50 32 51 50 52 33 53 36 54 49 55
REMARK SMILES IDX 67 56 34 57 35 58 48 60 68 61 37 62 22 63 23 64 31 65 24 66
REMARK SMILES IDX 30 67 25 68 26 69 27 70 28 71 29 72 52 73 53 74 61 75 54 76
REMARK SMILES IDX 60 77 55 78 56 79 57 80 58 81 59 82 38 83 39 84 47 85 40 86
REMARK SMILES IDX 46 87 41 88 42 89 43 90 44 91 45 92
REMARK H PARENT 5 6 10 29 66 48 36 59
REMARK Flexibility Score: inf
ROOT
ATOM      1  C   UNL     1       4.154   0.957   0.630  1.00  0.00     0.023 C 
ENDROOT
BRANCH   1   2
ATOM      2  C   UNL     1       3.401   0.231   1.746  1.00  0.00     0.116 C 
BRANCH   2   3
ATOM      3  N   UNL     1       2.404   1.090   2.348  1.00  0.00    -0.356 N 
ATOM      4  C   UNL     1       1.048   1.112   2.204  1.00  0.00     0.227 C 
ATOM      5  O   UNL     1       0.457   2.003   2.816  1.00  0.00    -0.274 OA
ATOM      6  H   UNL     1       2.763   1.770   2.962  1.00  0.00     0.163 HD
BRANCH   4   7
ATOM      7  C   UNL     1       0.343   0.033   1.359  1.00  0.00     0.105 C 
ATOM      8  C   UNL     1       0.650   0.137  -0.137  1.00  0.00     0.023 C 
BRANCH   7   9
ATOM      9  C   UNL     1      -1.177   0.009   1.512  1.00  0.00    -0.036 A 
ATOM     10  C   UNL     1      -1.945   1.181   1.433  1.00  0.00     0.005 A 
ATOM     11  C   UNL     1      -1.842  -1.221   1.630  1.00  0.00     0.005 A 
ATOM     12  C   UNL     1      -3.337   1.132   1.495  1.00  0.00     0.009 A 
ATOM     13  C   UNL     1      -3.238  -1.272   1.670  1.00  0.00     0.009 A 
ATOM     14  C   UNL     1      -3.995  -0.097   1.597  1.00  0.00    -0.018 A 
BRANCH  14  15
ATOM     15  C   UNL     1      -5.467  -0.166   1.591  1.00  0.00    -0.011 A 
ATOM     16  C   UNL     1      -6.231  -0.766   2.666  1.00  0.00     0.027 A 
ATOM     17  C   UNL     1      -6.115   0.316   0.516  1.00  0.00     0.080 A 
ATOM     18  C   UNL     1      -7.562  -0.871   2.575  1.00  0.00     0.095 A 
ATOM     19  C   UNL     1      -7.595   0.220   0.407  1.00  0.00     0.255 A 
ATOM     20  N   UNL     1      -8.239  -0.399   1.466  1.00  0.00    -0.258 N 
ATOM     21  O   UNL     1      -8.139   0.669  -0.597  1.00  0.00    -0.269 OA
BRANCH  20  22
ATOM     22  C   UNL     1      -9.664  -0.560   1.354  1.00  0.00     0.451 C 
ATOM     23  F   UNL     1     -10.287   0.633   1.197  1.00  0.00    -0.185 F 
ATOM     24  F   UNL     1      -9.980  -1.341   0.292  1.00  0.00    -0.185 F 
ENDBRANCH  20  22
ENDBRANCH  14  15
ENDBRANCH   7   9
ENDBRANCH   4   7
ENDBRANCH   2   3
ENDBRANCH   1   2
BRANCH   1  25
ATOM     25  C   UNL     1       4.928   2.198   1.082  1.00  0.00     0.023 C 
BRANCH  25  26
ATOM     26  C   UNL     1       5.909   1.965   2.221  1.00  0.00     0.116 C 
BRANCH  26  27
ATOM     27  N   UNL     1       6.905   0.956   1.901  1.00  0.00    -0.352 N 
ATOM     28  C   UNL     1       8.256   0.976   2.133  1.00  0.00     0.251 C 
ATOM     29  H   UNL     1       6.562   0.147   1.456  1.00  0.00     0.163 HD
ATOM     30  O   UNL     1       8.969   0.099   1.647  1.00  0.00    -0.269 OA
BRANCH  28  31
ATOM     31  C   UNL     1       8.853   2.058   2.945  1.00  0.00     0.039 A 
ATOM     32  C   UNL     1      10.060   2.624   2.531  1.00  0.00     0.014 A 
ATOM     33  C   UNL     1       8.235   2.503   4.118  1.00  0.00     0.014 A 
ATOM     34  C   UNL     1      10.633   3.655   3.279  1.00  0.00     0.010 A 
ATOM     35  C   UNL     1       8.759   3.590   4.810  1.00  0.00     0.010 A 
ATOM     36  C   UNL     1       9.980   4.156   4.418  1.00  0.00    -0.014 A 
BRANCH  36  37
ATOM     37  C   UNL     1      10.593   5.230   5.240  1.00  0.00     0.031 A 
ATOM     38  C   UNL     1      10.990   4.948   6.667  1.00  0.00     0.074 A 
ATOM     39  C   UNL     1      10.767   6.461   4.720  1.00  0.00     0.049 A 
ATOM     40  N   UNL     1      11.544   5.747   7.543  1.00  0.00    -0.248 NA
ATOM     41  C   UNL     1      10.703   3.601   7.188  1.00  0.00     0.031 C 
ATOM     42  C   UNL     1      10.388   6.871   3.365  1.00  0.00     0.029 A 
ATOM     43  N   UNL     1      11.315   7.594   5.267  1.00  0.00    -0.354 N 
ATOM     44  C   UNL     1      11.649   5.008   8.716  1.00  0.00     0.074 A 
ATOM     45  C   UNL     1      11.049   3.719   8.460  1.00  0.00     0.031 C 
ATOM     46  C   UNL     1      10.757   8.148   3.174  1.00  0.00     0.029 A 
ATOM     47  C   UNL     1      11.361   8.660   4.400  1.00  0.00     0.049 A 
ATOM     48  H   UNL     1      11.644   7.639   6.194  1.00  0.00     0.167 HD
ATOM     49  C   UNL     1      12.216   5.360   9.895  1.00  0.00     0.031 A 
ATOM     50  C   UNL     1      11.844   9.906   4.570  1.00  0.00     0.031 A 
ATOM     51  C   UNL     1      12.827   6.639  10.141  1.00  0.00     0.049 A 
ATOM     52  C   UNL     1      12.471  10.273   5.888  1.00  0.00     0.074 A 
ATOM     53  C   UNL     1      13.485   7.074  11.278  1.00  0.00     0.029 A 
ATOM     54  N   UNL     1      12.855   7.689   9.235  1.00  0.00    -0.354 N 
ATOM     55  N   UNL     1      12.626   9.537   6.963  1.00  0.00    -0.248 NA
ATOM     56  C   UNL     1      13.010  11.634   6.006  1.00  0.00     0.031 C 
ATOM     57  C   UNL     1      13.856   8.408  11.082  1.00  0.00     0.029 A 
ATOM     58  C   UNL     1      13.497   8.780   9.796  1.00  0.00     0.049 A 
ATOM     59  H   UNL     1      12.474   7.663   8.328  1.00  0.00     0.167 HD
ATOM     60  C   UNL     1      13.321  10.332   7.870  1.00  0.00     0.074 A 
ATOM     61  C   UNL     1      13.561  11.600   7.212  1.00  0.00     0.031 C 
ATOM     62  C   UNL     1      13.732  10.035   9.128  1.00  0.00     0.031 A 
BRANCH  49  63
ATOM     63  C   UNL     1      12.185   4.349  11.014  1.00  0.00    -0.014 A 
ATOM     64  C   UNL     1      12.923   3.152  10.943  1.00  0.00     0.010 A 
ATOM     65  C   UNL     1      11.425   4.612  12.168  1.00  0.00     0.010 A 
ATOM     66  C   UNL     1      12.860   2.217  11.979  1.00  0.00     0.020 A 
ATOM     67  C   UNL     1      11.386   3.695  13.222  1.00  0.00     0.020 A 
ATOM     68  C   UNL     1      12.088   2.494  13.112  1.00  0.00     0.054 A 
BRANCH  68  69
ATOM     69  S   UNL     1      12.035   1.268  14.447  1.00  0.00     0.124 S 
ATOM     70  O   UNL     1      11.226   0.208  13.851  1.00  0.00    -0.237 OA
ATOM     71  O   UNL     1      13.446   0.946  14.642  1.00  0.00    -0.237 OA
ATOM     72  O   UNL     1      11.404   1.985  15.553  1.00  0.00    -0.744 OA
ENDBRANCH  68  69
ENDBRANCH  49  63
BRANCH  50  73
ATOM     73  C   UNL     1      11.794  10.885   3.449  1.00  0.00    -0.014 A 
ATOM     74  C   UNL     1      12.977  11.294   2.807  1.00  0.00     0.010 A 
ATOM     75  C   UNL     1      10.565  11.412   3.013  1.00  0.00     0.010 A 
ATOM     76  C   UNL     1      12.934  12.228   1.767  1.00  0.00     0.020 A 
ATOM     77  C   UNL     1      10.515  12.322   1.953  1.00  0.00     0.020 A 
ATOM     78  C   UNL     1      11.702  12.734   1.345  1.00  0.00     0.054 A 
BRANCH  78  79
ATOM     79  S   UNL     1      11.668  13.910  -0.037  1.00  0.00     0.124 S 
ATOM     80  O   UNL     1      12.230  15.111   0.572  1.00  0.00    -0.237 OA
ATOM     81  O   UNL     1      12.510  13.250  -1.032  1.00  0.00    -0.237 OA
ATOM     82  O   UNL     1      10.251  13.988  -0.384  1.00  0.00    -0.744 OA
ENDBRANCH  78  79
ENDBRANCH  50  73
BRANCH  62  83
ATOM     83  C   UNL     1      14.542  11.077   9.856  1.00  0.00    -0.014 A 
ATOM     84  C   UNL     1      13.973  12.284  10.299  1.00  0.00     0.010 A 
ATOM     85  C   UNL     1      15.899  10.820  10.130  1.00  0.00     0.010 A 
ATOM     86  C   UNL     1      14.758  13.236  10.955  1.00  0.00     0.020 A 
ATOM     87  C   UNL     1      16.678  11.753  10.817  1.00  0.00     0.020 A 
ATOM     88  C   UNL     1      16.108  12.966  11.206  1.00  0.00     0.054 A 
BRANCH  88  89
ATOM     89  S   UNL     1      17.103  14.210  12.071  1.00  0.00     0.124 S 
ATOM     90  O   UNL     1      17.274  15.231  11.041  1.00  0.00    -0.237 OA
ATOM     91  O   UNL     1      16.244  14.585  13.192  1.00  0.00    -0.237 OA
ATOM     92  O   UNL     1      18.318  13.487  12.440  1.00  0.00    -0.744 OA
ENDBRANCH  88  89
ENDBRANCH  62  83
ENDBRANCH  36  37
ENDBRANCH  28  31
ENDBRANCH  26  27
ENDBRANCH  25  26
ENDBRANCH   1  25
TORSDOF 17
