REMARK SMILES C[C@@H](C(=O)NCCCCNC(=O)c1ccc(-c2c3nc(c(-c4ccc(S(=O)(=O)[O-])cc4)c4ccc([nH]4)c(-c4ccc(S(=O)(=O)[O-])cc4)c4nc(c(-c5ccc(S(=O)(=O)[O-])cc5)c5ccc2[nH]5)C=C4)C=C3)cc1)c1ccc(=O)n(C(F)F)c1
REMARK SMILES IDX 8 1 7 2 6 3 5 4 3 5 4 6 2 8 1 9 73 10 74 11 82 12 75 13
REMARK SMILES IDX 78 14 76 15 77 16 79 17 80 18 81 19 9 20 10 21 11 22 12 24
REMARK SMILES IDX 13 25 14 26 72 27 15 28 71 29 16 30 17 31 18 32 65 33 19 34
REMARK SMILES IDX 70 35 64 36 66 37 20 38 69 39 63 40 62 41 21 43 51 44 32 45
REMARK SMILES IDX 50 46 33 47 36 48 49 49 67 50 34 51 35 52 48 54 68 55 37 56
REMARK SMILES IDX 22 57 23 58 31 59 24 60 30 61 25 62 26 63 27 64 28 65 29 66
REMARK SMILES IDX 52 67 53 68 61 69 54 70 60 71 55 72 56 73 57 74 58 75 59 76
REMARK SMILES IDX 38 77 39 78 47 79 40 80 46 81 41 82 42 83 43 84 44 85 45 86
REMARK H PARENT 5 7 10 23 66 42 36 53
REMARK Flexibility Score: inf
ROOT
ATOM      1  C   UNL     1       4.970   2.382   0.131  1.00  0.00     0.023 C 
ENDROOT
BRANCH   1   2
ATOM      2  C   UNL     1       4.195   1.063   0.180  1.00  0.00     0.023 C 
BRANCH   2   3
ATOM      3  C   UNL     1       3.401   0.826   1.467  1.00  0.00     0.116 C 
BRANCH   3   4
ATOM      4  N   UNL     1       2.413   1.864   1.678  1.00  0.00    -0.356 N 
ATOM      5  C   UNL     1       1.060   1.867   1.514  1.00  0.00     0.227 C 
ATOM      6  O   UNL     1       0.501   2.942   1.746  1.00  0.00    -0.274 OA
ATOM      7  H   UNL     1       2.785   2.719   1.995  1.00  0.00     0.163 HD
BRANCH   5   8
ATOM      8  C   UNL     1       0.304   0.569   1.121  1.00  0.00     0.107 C 
ATOM      9  C   UNL     1       0.673   0.088  -0.286  1.00  0.00     0.023 C 
BRANCH   8  10
ATOM     10  C   UNL     1      -1.227   0.631   1.192  1.00  0.00    -0.019 A 
ATOM     11  C   UNL     1      -1.919  -0.642   1.345  1.00  0.00     0.012 A 
ATOM     12  C   UNL     1      -1.983   1.735   1.050  1.00  0.00     0.099 A 
ATOM     13  C   UNL     1      -3.253  -0.722   1.276  1.00  0.00     0.072 A 
ATOM     14  N   UNL     1      -3.367   1.689   1.036  1.00  0.00    -0.258 N 
ATOM     15  C   UNL     1      -4.075   0.503   1.087  1.00  0.00     0.254 A 
ATOM     16  O   UNL     1      -5.292   0.382   0.993  1.00  0.00    -0.269 OA
BRANCH  14  17
ATOM     17  C   UNL     1      -4.122   2.906   0.877  1.00  0.00     0.451 C 
ATOM     18  F   UNL     1      -4.709   2.950  -0.344  1.00  0.00    -0.185 F 
ATOM     19  F   UNL     1      -5.100   3.006   1.812  1.00  0.00    -0.185 F 
ENDBRANCH  14  17
ENDBRANCH   8  10
ENDBRANCH   5   8
ENDBRANCH   3   4
ENDBRANCH   2   3
ENDBRANCH   1   2
BRANCH   1  20
ATOM     20  C   UNL     1       5.937   2.611   1.285  1.00  0.00     0.116 C 
BRANCH  20  21
ATOM     21  N   UNL     1       6.947   1.569   1.383  1.00  0.00    -0.352 N 
ATOM     22  C   UNL     1       8.303   1.697   1.560  1.00  0.00     0.251 C 
ATOM     23  H   UNL     1       6.612   0.646   1.315  1.00  0.00     0.163 HD
ATOM     24  O   UNL     1       9.026   0.708   1.469  1.00  0.00    -0.269 OA
BRANCH  22  25
ATOM     25  C   UNL     1       8.886   3.028   1.828  1.00  0.00     0.039 A 
ATOM     26  C   UNL     1      10.026   3.422   1.122  1.00  0.00     0.014 A 
ATOM     27  C   UNL     1       8.303   3.891   2.759  1.00  0.00     0.014 A 
ATOM     28  C   UNL     1      10.545   4.705   1.309  1.00  0.00     0.010 A 
ATOM     29  C   UNL     1       8.774   5.194   2.885  1.00  0.00     0.010 A 
ATOM     30  C   UNL     1       9.904   5.613   2.167  1.00  0.00    -0.014 A 
BRANCH  30  31
ATOM     31  C   UNL     1      10.405   7.002   2.334  1.00  0.00     0.031 A 
ATOM     32  C   UNL     1      10.903   7.470   3.675  1.00  0.00     0.074 A 
ATOM     33  C   UNL     1      10.354   7.861   1.296  1.00  0.00     0.049 A 
ATOM     34  N   UNL     1      11.332   8.655   4.028  1.00  0.00    -0.248 NA
ATOM     35  C   UNL     1      10.893   6.485   4.768  1.00  0.00     0.031 C 
ATOM     36  C   UNL     1       9.858   7.541  -0.045  1.00  0.00     0.029 A 
ATOM     37  N   UNL     1      10.720   9.180   1.208  1.00  0.00    -0.354 N 
ATOM     38  C   UNL     1      11.625   8.562   5.384  1.00  0.00     0.074 A 
ATOM     39  C   UNL     1      11.271   7.223   5.801  1.00  0.00     0.031 C 
ATOM     40  C   UNL     1       9.982   8.624  -0.829  1.00  0.00     0.029 A 
ATOM     41  C   UNL     1      10.523   9.726  -0.039  1.00  0.00     0.049 A 
ATOM     42  H   UNL     1      11.090   9.688   1.966  1.00  0.00     0.167 HD
ATOM     43  C   UNL     1      12.158   9.498   6.205  1.00  0.00     0.031 A 
ATOM     44  C   UNL     1      10.748  10.973  -0.496  1.00  0.00     0.031 A 
ATOM     45  C   UNL     1      12.510  10.829   5.785  1.00  0.00     0.049 A 
ATOM     46  C   UNL     1      11.323  12.004   0.437  1.00  0.00     0.074 A 
ATOM     47  C   UNL     1      13.105  11.835   6.525  1.00  0.00     0.029 A 
ATOM     48  N   UNL     1      12.294  11.342   4.514  1.00  0.00    -0.354 N 
ATOM     49  N   UNL     1      11.656  11.878   1.700  1.00  0.00    -0.248 NA
ATOM     50  C   UNL     1      11.565  13.341  -0.121  1.00  0.00     0.031 C 
ATOM     51  C   UNL     1      13.195  12.975   5.719  1.00  0.00     0.029 A 
ATOM     52  C   UNL     1      12.719  12.659   4.457  1.00  0.00     0.049 A 
ATOM     53  H   UNL     1      11.897  10.843   3.764  1.00  0.00     0.167 HD
ATOM     54  C   UNL     1      12.175  13.111   2.079  1.00  0.00     0.074 A 
ATOM     55  C   UNL     1      12.122  13.964   0.909  1.00  0.00     0.031 C 
ATOM     56  C   UNL     1      12.656  13.499   3.286  1.00  0.00     0.031 A 
BRANCH  43  57
ATOM     57  C   UNL     1      12.375   9.113   7.646  1.00  0.00    -0.014 A 
ATOM     58  C   UNL     1      13.336   8.150   8.008  1.00  0.00     0.010 A 
ATOM     59  C   UNL     1      11.616   9.732   8.657  1.00  0.00     0.010 A 
ATOM     60  C   UNL     1      13.491   7.771   9.344  1.00  0.00     0.020 A 
ATOM     61  C   UNL     1      11.792   9.380   9.998  1.00  0.00     0.020 A 
ATOM     62  C   UNL     1      12.713   8.384  10.330  1.00  0.00     0.054 A 
BRANCH  62  63
ATOM     63  S   UNL     1      12.932   7.868  12.055  1.00  0.00     0.124 S 
ATOM     64  O   UNL     1      12.309   6.546  12.054  1.00  0.00    -0.237 OA
ATOM     65  O   UNL     1      14.384   7.877  12.210  1.00  0.00    -0.237 OA
ATOM     66  O   UNL     1      12.220   8.891  12.817  1.00  0.00    -0.744 OA
ENDBRANCH  62  63
ENDBRANCH  43  57
BRANCH  44  67
ATOM     67  C   UNL     1      10.452  11.304  -1.917  1.00  0.00    -0.014 A 
ATOM     68  C   UNL     1      11.498  11.527  -2.829  1.00  0.00     0.010 A 
ATOM     69  C   UNL     1       9.122  11.366  -2.374  1.00  0.00     0.010 A 
ATOM     70  C   UNL     1      11.222  11.813  -4.169  1.00  0.00     0.020 A 
ATOM     71  C   UNL     1       8.842  11.624  -3.719  1.00  0.00     0.020 A 
ATOM     72  C   UNL     1       9.895  11.853  -4.607  1.00  0.00     0.054 A 
BRANCH  72  73
ATOM     73  S   UNL     1       9.565  12.156  -6.365  1.00  0.00     0.124 S 
ATOM     74  O   UNL     1       9.898  13.571  -6.499  1.00  0.00    -0.237 OA
ATOM     75  O   UNL     1      10.480  11.225  -7.021  1.00  0.00    -0.237 OA
ATOM     76  O   UNL     1       8.148  11.829  -6.508  1.00  0.00    -0.744 OA
ENDBRANCH  72  73
ENDBRANCH  44  67
BRANCH  56  77
ATOM     77  C   UNL     1      13.201  14.899   3.400  1.00  0.00    -0.014 A 
ATOM     78  C   UNL     1      12.353  16.020   3.380  1.00  0.00     0.010 A 
ATOM     79  C   UNL     1      14.583  15.089   3.585  1.00  0.00     0.010 A 
ATOM     80  C   UNL     1      12.881  17.308   3.513  1.00  0.00     0.020 A 
ATOM     81  C   UNL     1      15.111  16.372   3.749  1.00  0.00     0.020 A 
ATOM     82  C   UNL     1      14.257  17.475   3.698  1.00  0.00     0.054 A 
BRANCH  82  83
ATOM     83  S   UNL     1      14.912  19.153   3.913  1.00  0.00     0.124 S 
ATOM     84  O   UNL     1      14.803  19.697   2.562  1.00  0.00    -0.237 OA
ATOM     85  O   UNL     1      14.000  19.728   4.899  1.00  0.00    -0.237 OA
ATOM     86  O   UNL     1      16.276  18.935   4.388  1.00  0.00    -0.744 OA
ENDBRANCH  82  83
ENDBRANCH  56  77
ENDBRANCH  30  31
ENDBRANCH  22  25
ENDBRANCH  20  21
ENDBRANCH   1  20
TORSDOF 16
