REMARK SMILES O=C(NCCCCNC(=O)[C@@H](Cc1ccccc1)Nc1ccc(Cl)c(Br)c1)c1ccc(-c2c3nc(c(-c4ccc(S(=O)(=O)[O-])cc4)c4ccc([nH]4)c(-c4ccc(S(=O)(=O)[O-])cc4)c4nc(c(-c5ccc(S(=O)(=O)[O-])cc5)c5ccc2[nH]5)C=C4)C=C3)cc1
REMARK SMILES IDX 5 1 4 2 3 3 1 4 2 5 28 7 29 8 87 9 30 10 86 11 31 12 32 13
REMARK SMILES IDX 33 14 80 15 34 16 85 17 79 18 81 19 35 20 84 21 78 22 77 23
REMARK SMILES IDX 36 25 66 26 47 27 65 28 48 29 51 30 64 31 82 32 49 33 50 34
REMARK SMILES IDX 63 36 83 37 52 38 37 39 38 40 46 41 39 42 45 43 40 44 41 45
REMARK SMILES IDX 42 46 43 47 44 48 67 49 68 50 76 51 69 52 75 53 70 54 71 55
REMARK SMILES IDX 72 56 73 57 74 58 53 59 54 60 62 61 55 62 61 63 56 64 57 65
REMARK SMILES IDX 58 66 59 67 60 68 6 69 7 70 8 71 9 72 10 74 11 75 12 76
REMARK SMILES IDX 13 77 14 78 18 79 15 80 17 81 16 82 19 83 20 85 21 86 27 87
REMARK SMILES IDX 22 88 25 89 23 90 26 91 24 92
REMARK H PARENT 3 6 81 24 51 35 8 73 19 84
REMARK Flexibility Score: inf
ROOT
ATOM      1  C   UNL     1       5.621   2.273  -0.561  1.00  0.00     0.023 C 
ENDROOT
BRANCH   1   2
ATOM      2  C   UNL     1       4.952   0.965  -0.162  1.00  0.00     0.116 C 
BRANCH   2   3
ATOM      3  N   UNL     1       3.502   1.045  -0.043  1.00  0.00    -0.352 N 
ATOM      4  O   UNL     1       1.386   0.250  -0.247  1.00  0.00    -0.269 OA
ATOM      5  C   UNL     1       2.587   0.050  -0.330  1.00  0.00     0.251 C 
ATOM      6  H   UNL     1       3.135   1.900   0.278  1.00  0.00     0.163 HD
BRANCH   5   7
ATOM      7  C   UNL     1       3.113  -1.255  -0.792  1.00  0.00     0.039 A 
ATOM      8  C   UNL     1       4.109  -1.900  -0.057  1.00  0.00     0.014 A 
ATOM      9  C   UNL     1       2.696  -1.765  -2.024  1.00  0.00     0.014 A 
ATOM     10  C   UNL     1       4.804  -2.955  -0.630  1.00  0.00     0.010 A 
ATOM     11  C   UNL     1       3.337  -2.888  -2.556  1.00  0.00     0.010 A 
ATOM     12  C   UNL     1       4.422  -3.469  -1.882  1.00  0.00    -0.014 A 
BRANCH  12  13
ATOM     13  C   UNL     1       5.135  -4.657  -2.420  1.00  0.00     0.031 A 
ATOM     14  C   UNL     1       5.937  -4.591  -3.692  1.00  0.00     0.074 A 
ATOM     15  C   UNL     1       5.077  -5.803  -1.713  1.00  0.00     0.049 A 
ATOM     16  N   UNL     1       6.619  -5.543  -4.278  1.00  0.00    -0.248 NA
ATOM     17  C   UNL     1       5.981  -3.303  -4.404  1.00  0.00     0.031 C 
ATOM     18  C   UNL     1       4.320  -5.988  -0.469  1.00  0.00     0.029 A 
ATOM     19  N   UNL     1       5.674  -7.019  -1.919  1.00  0.00    -0.354 N 
ATOM     20  C   UNL     1       7.143  -4.985  -5.439  1.00  0.00     0.074 A 
ATOM     21  C   UNL     1       6.701  -3.608  -5.478  1.00  0.00     0.031 C 
ATOM     22  C   UNL     1       4.540  -7.223   0.002  1.00  0.00     0.029 A 
ATOM     23  C   UNL     1       5.388  -7.941  -0.940  1.00  0.00     0.049 A 
ATOM     24  H   UNL     1       6.251  -7.213  -2.692  1.00  0.00     0.167 HD
ATOM     25  C   UNL     1       7.917  -5.572  -6.383  1.00  0.00     0.031 A 
ATOM     26  C   UNL     1       5.741  -9.234  -0.822  1.00  0.00     0.031 A 
ATOM     27  C   UNL     1       8.373  -6.938  -6.324  1.00  0.00     0.049 A 
ATOM     28  C   UNL     1       6.589  -9.856  -1.889  1.00  0.00     0.074 A 
ATOM     29  C   UNL     1       9.207  -7.604  -7.207  1.00  0.00     0.029 A 
ATOM     30  N   UNL     1       8.031  -7.848  -5.336  1.00  0.00    -0.354 N 
ATOM     31  N   UNL     1       7.100  -9.297  -2.959  1.00  0.00    -0.248 NA
ATOM     32  C   UNL     1       6.898 -11.284  -1.740  1.00  0.00     0.031 C 
ATOM     33  C   UNL     1       9.330  -8.930  -6.779  1.00  0.00     0.029 A 
ATOM     34  C   UNL     1       8.610  -9.078  -5.605  1.00  0.00     0.049 A 
ATOM     35  H   UNL     1       7.462  -7.650  -4.557  1.00  0.00     0.167 HD
ATOM     36  C   UNL     1       7.785 -10.309  -3.618  1.00  0.00     0.074 A 
ATOM     37  C   UNL     1       7.654 -11.503  -2.807  1.00  0.00     0.031 C 
ATOM     38  C   UNL     1       8.452 -10.258  -4.796  1.00  0.00     0.031 A 
BRANCH  25  39
ATOM     39  C   UNL     1       8.313  -4.762  -7.589  1.00  0.00    -0.014 A 
ATOM     40  C   UNL     1       9.338  -3.803  -7.521  1.00  0.00     0.010 A 
ATOM     41  C   UNL     1       7.727  -5.049  -8.837  1.00  0.00     0.010 A 
ATOM     42  C   UNL     1       9.763  -3.139  -8.676  1.00  0.00     0.020 A 
ATOM     43  C   UNL     1       8.161  -4.400  -9.997  1.00  0.00     0.020 A 
ATOM     44  C   UNL     1       9.173  -3.443  -9.908  1.00  0.00     0.054 A 
BRANCH  44  45
ATOM     45  S   UNL     1       9.789  -2.615 -11.401  1.00  0.00     0.124 S 
ATOM     46  O   UNL     1       9.228  -1.274 -11.253  1.00  0.00    -0.237 OA
ATOM     47  O   UNL     1      11.238  -2.709 -11.247  1.00  0.00    -0.237 OA
ATOM     48  O   UNL     1       9.229  -3.406 -12.494  1.00  0.00    -0.744 OA
ENDBRANCH  44  45
ENDBRANCH  25  39
BRANCH  26  49
ATOM     49  C   UNL     1       5.234 -10.032   0.325  1.00  0.00    -0.014 A 
ATOM     50  C   UNL     1       6.101 -10.459   1.345  1.00  0.00     0.010 A 
ATOM     51  C   UNL     1       3.865 -10.346   0.409  1.00  0.00     0.010 A 
ATOM     52  C   UNL     1       5.608 -11.199   2.423  1.00  0.00     0.020 A 
ATOM     53  C   UNL     1       3.364 -11.059   1.499  1.00  0.00     0.020 A 
ATOM     54  C   UNL     1       4.242 -11.494   2.493  1.00  0.00     0.054 A 
BRANCH  54  55
ATOM     55  S   UNL     1       3.606 -12.408   3.925  1.00  0.00     0.124 S 
ATOM     56  O   UNL     1       3.930 -13.786   3.571  1.00  0.00    -0.237 OA
ATOM     57  O   UNL     1       4.372 -11.841   5.033  1.00  0.00    -0.237 OA
ATOM     58  O   UNL     1       2.183 -12.076   3.931  1.00  0.00    -0.744 OA
ENDBRANCH  54  55
ENDBRANCH  26  49
BRANCH  38  59
ATOM     59  C   UNL     1       9.083 -11.534  -5.272  1.00  0.00    -0.014 A 
ATOM     60  C   UNL     1       8.294 -12.566  -5.812  1.00  0.00     0.010 A 
ATOM     61  C   UNL     1      10.477 -11.697  -5.201  1.00  0.00     0.010 A 
ATOM     62  C   UNL     1       8.886 -13.755  -6.240  1.00  0.00     0.020 A 
ATOM     63  C   UNL     1      11.076 -12.877  -5.649  1.00  0.00     0.020 A 
ATOM     64  C   UNL     1      10.274 -13.905  -6.151  1.00  0.00     0.054 A 
BRANCH  64  65
ATOM     65  S   UNL     1      11.026 -15.447  -6.738  1.00  0.00     0.124 S 
ATOM     66  O   UNL     1      10.732 -16.364  -5.640  1.00  0.00    -0.237 OA
ATOM     67  O   UNL     1      10.306 -15.706  -7.982  1.00  0.00    -0.237 OA
ATOM     68  O   UNL     1      12.436 -15.102  -6.902  1.00  0.00    -0.744 OA
ENDBRANCH  64  65
ENDBRANCH  38  59
ENDBRANCH  12  13
ENDBRANCH   5   7
ENDBRANCH   2   3
ENDBRANCH   1   2
BRANCH   1  69
ATOM     69  C   UNL     1       5.482   3.380   0.476  1.00  0.00     0.023 C 
BRANCH  69  70
ATOM     70  C   UNL     1       6.172   3.086   1.809  1.00  0.00     0.116 C 
BRANCH  70  71
ATOM     71  N   UNL     1       7.342   3.917   1.976  1.00  0.00    -0.354 N 
ATOM     72  C   UNL     1       7.493   5.146   2.532  1.00  0.00     0.242 C 
ATOM     73  H   UNL     1       8.174   3.524   1.625  1.00  0.00     0.163 HD
ATOM     74  O   UNL     1       8.595   5.686   2.364  1.00  0.00    -0.273 OA
BRANCH  72  75
ATOM     75  C   UNL     1       6.404   5.862   3.368  1.00  0.00     0.173 C 
BRANCH  75  76
ATOM     76  C   UNL     1       5.243   6.503   2.578  1.00  0.00     0.070 C 
BRANCH  76  77
ATOM     77  C   UNL     1       3.954   5.806   2.184  1.00  0.00    -0.045 A 
ATOM     78  C   UNL     1       3.274   6.283   1.045  1.00  0.00     0.004 A 
ATOM     79  C   UNL     1       3.342   4.787   2.922  1.00  0.00     0.004 A 
ATOM     80  C   UNL     1       2.073   5.710   0.619  1.00  0.00     0.000 A 
ATOM     81  C   UNL     1       2.153   4.191   2.481  1.00  0.00     0.000 A 
ATOM     82  C   UNL     1       1.522   4.647   1.327  1.00  0.00     0.000 A 
ENDBRANCH  76  77
ENDBRANCH  75  76
BRANCH  75  83
ATOM     83  N   UNL     1       6.021   5.093   4.561  1.00  0.00    -0.373 N 
ATOM     84  H   UNL     1       5.842   4.132   4.448  1.00  0.00     0.161 HD
BRANCH  83  85
ATOM     85  C   UNL     1       5.894   5.627   5.833  1.00  0.00     0.036 A 
ATOM     86  C   UNL     1       5.666   4.756   6.907  1.00  0.00     0.027 A 
ATOM     87  C   UNL     1       5.935   6.998   6.115  1.00  0.00     0.043 A 
ATOM     88  C   UNL     1       5.550   5.229   8.220  1.00  0.00     0.024 A 
ATOM     89  C   UNL     1       5.832   7.482   7.428  1.00  0.00     0.038 A 
ATOM     90  C   UNL     1       5.646   6.593   8.486  1.00  0.00     0.055 A 
ATOM     91  Br  UNL     1       5.968   9.362   7.679  1.00  0.00    -0.049 Br
ATOM     92  Cl  UNL     1       5.526   7.104  10.131  1.00  0.00    -0.083 Cl
ENDBRANCH  83  85
ENDBRANCH  75  83
ENDBRANCH  72  75
ENDBRANCH  70  71
ENDBRANCH  69  70
ENDBRANCH   1  69
TORSDOF 18
