REMARK SMILES C[C@@H](C(=O)NCCCCNC(=O)c1ccc(-c2c3nc(c(-c4ccc(S(=O)(=O)[O-])cc4)c4ccc([nH]4)c(-c4ccc(S(=O)(=O)[O-])cc4)c4nc(c(-c5ccc(S(=O)(=O)[O-])cc5)c5ccc2[nH]5)C=C4)C=C3)cc1)c1ccc(-c2ccccc2)c(F)c1
REMARK SMILES IDX 8 1 7 2 6 3 5 4 3 5 4 6 2 8 1 9 73 10 74 11 85 12 75 13
REMARK SMILES IDX 83 14 76 15 84 16 77 17 78 18 82 19 79 20 81 21 80 22 9 23
REMARK SMILES IDX 10 24 11 25 12 27 13 28 14 29 72 30 15 31 71 32 16 33 17 34
REMARK SMILES IDX 18 35 65 36 19 37 70 38 64 39 66 40 20 41 69 42 63 43 62 44
REMARK SMILES IDX 21 46 51 47 32 48 50 49 33 50 36 51 49 52 67 53 34 54 35 55
REMARK SMILES IDX 48 57 68 58 37 59 22 60 23 61 31 62 24 63 30 64 25 65 26 66
REMARK SMILES IDX 27 67 28 68 29 69 52 70 53 71 61 72 54 73 60 74 55 75 56 76
REMARK SMILES IDX 57 77 58 78 59 79 38 80 39 81 47 82 40 83 46 84 41 85 42 86
REMARK SMILES IDX 43 87 44 88 45 89
REMARK H PARENT 5 7 10 26 66 45 36 56
REMARK Flexibility Score: inf
ROOT
ATOM      1  C   UNL     1       4.937   2.458   0.713  1.00  0.00     0.023 C 
ENDROOT
BRANCH   1   2
ATOM      2  C   UNL     1       4.170   1.161   0.443  1.00  0.00     0.023 C 
BRANCH   2   3
ATOM      3  C   UNL     1       3.415   0.600   1.649  1.00  0.00     0.116 C 
BRANCH   3   4
ATOM      4  N   UNL     1       2.417   1.533   2.124  1.00  0.00    -0.356 N 
ATOM      5  C   UNL     1       1.060   1.526   1.995  1.00  0.00     0.227 C 
ATOM      6  O   UNL     1       0.473   2.487   2.497  1.00  0.00    -0.274 OA
ATOM      7  H   UNL     1       2.777   2.300   2.624  1.00  0.00     0.163 HD
BRANCH   5   8
ATOM      8  C   UNL     1       0.348   0.344   1.304  1.00  0.00     0.105 C 
ATOM      9  C   UNL     1       0.657   0.249  -0.193  1.00  0.00     0.023 C 
BRANCH   8  10
ATOM     10  C   UNL     1      -1.172   0.332   1.454  1.00  0.00    -0.033 A 
ATOM     11  C   UNL     1      -1.943   1.495   1.320  1.00  0.00     0.005 A 
ATOM     12  C   UNL     1      -1.845  -0.886   1.626  1.00  0.00     0.044 A 
ATOM     13  C   UNL     1      -3.336   1.450   1.405  1.00  0.00     0.012 A 
ATOM     14  C   UNL     1      -3.241  -0.926   1.683  1.00  0.00     0.131 A 
ATOM     15  C   UNL     1      -4.017   0.236   1.579  1.00  0.00     0.017 A 
ATOM     16  F   UNL     1      -3.829  -2.126   1.819  1.00  0.00    -0.206 F 
BRANCH  15  17
ATOM     17  C   UNL     1      -5.487   0.221   1.645  1.00  0.00    -0.015 A 
ATOM     18  C   UNL     1      -6.255   0.905   0.685  1.00  0.00     0.009 A 
ATOM     19  C   UNL     1      -6.166  -0.427   2.688  1.00  0.00     0.009 A 
ATOM     20  C   UNL     1      -7.648   0.957   0.775  1.00  0.00     0.001 A 
ATOM     21  C   UNL     1      -7.559  -0.377   2.780  1.00  0.00     0.001 A 
ATOM     22  C   UNL     1      -8.299   0.320   1.827  1.00  0.00     0.000 A 
ENDBRANCH  15  17
ENDBRANCH   8  10
ENDBRANCH   5   8
ENDBRANCH   3   4
ENDBRANCH   2   3
ENDBRANCH   1   2
BRANCH   1  23
ATOM     23  C   UNL     1       5.911   2.398   1.880  1.00  0.00     0.116 C 
BRANCH  23  24
ATOM     24  N   UNL     1       6.912   1.356   1.718  1.00  0.00    -0.352 N 
ATOM     25  C   UNL     1       8.265   1.424   1.934  1.00  0.00     0.251 C 
ATOM     26  H   UNL     1       6.573   0.484   1.412  1.00  0.00     0.163 HD
ATOM     27  O   UNL     1       8.985   0.489   1.592  1.00  0.00    -0.269 OA
BRANCH  25  28
ATOM     28  C   UNL     1       8.851   2.631   2.556  1.00  0.00     0.039 A 
ATOM     29  C   UNL     1      10.031   3.159   2.028  1.00  0.00     0.014 A 
ATOM     30  C   UNL     1       8.238   3.239   3.655  1.00  0.00     0.014 A 
ATOM     31  C   UNL     1      10.577   4.317   2.584  1.00  0.00     0.010 A 
ATOM     32  C   UNL     1       8.733   4.442   4.146  1.00  0.00     0.010 A 
ATOM     33  C   UNL     1       9.923   4.979   3.636  1.00  0.00    -0.014 A 
BRANCH  33  34
ATOM     34  C   UNL     1      10.496   6.204   4.249  1.00  0.00     0.031 A 
ATOM     35  C   UNL     1      10.920   6.190   5.695  1.00  0.00     0.074 A 
ATOM     36  C   UNL     1      10.600   7.335   3.525  1.00  0.00     0.049 A 
ATOM     37  N   UNL     1      11.432   7.155   6.415  1.00  0.00    -0.248 NA
ATOM     38  C   UNL     1      10.714   4.935   6.438  1.00  0.00     0.031 C 
ATOM     39  C   UNL     1      10.192   7.488   2.126  1.00  0.00     0.029 A 
ATOM     40  N   UNL     1      11.088   8.572   3.865  1.00  0.00    -0.354 N 
ATOM     41  C   UNL     1      11.585   6.631   7.695  1.00  0.00     0.074 A 
ATOM     42  C   UNL     1      11.057   5.287   7.667  1.00  0.00     0.031 C 
ATOM     43  C   UNL     1      10.488   8.732   1.716  1.00  0.00     0.029 A 
ATOM     44  C   UNL     1      11.067   9.477   2.830  1.00  0.00     0.049 A 
ATOM     45  H   UNL     1      11.421   8.791   4.765  1.00  0.00     0.167 HD
ATOM     46  C   UNL     1      12.136   7.208   8.790  1.00  0.00     0.031 A 
ATOM     47  C   UNL     1      11.475  10.760   2.781  1.00  0.00     0.031 A 
ATOM     48  C   UNL     1      12.671   8.543   8.808  1.00  0.00     0.049 A 
ATOM     49  C   UNL     1      12.080  11.383   4.011  1.00  0.00     0.074 A 
ATOM     50  C   UNL     1      13.307   9.201   9.846  1.00  0.00     0.029 A 
ATOM     51  N   UNL     1      12.629   9.427   7.740  1.00  0.00    -0.354 N 
ATOM     52  N   UNL     1      12.281  10.850   5.193  1.00  0.00    -0.248 NA
ATOM     53  C   UNL     1      12.532  12.775   3.891  1.00  0.00     0.031 C 
ATOM     54  C   UNL     1      13.592  10.504   9.425  1.00  0.00     0.029 A 
ATOM     55  C   UNL     1      13.204  10.634   8.101  1.00  0.00     0.049 A 
ATOM     56  H   UNL     1      12.246   9.226   6.855  1.00  0.00     0.167 HD
ATOM     57  C   UNL     1      12.923  11.829   5.945  1.00  0.00     0.074 A 
ATOM     58  C   UNL     1      13.081  12.981   5.080  1.00  0.00     0.031 C 
ATOM     59  C   UNL     1      13.354  11.773   7.230  1.00  0.00     0.031 A 
BRANCH  46  60
ATOM     60  C   UNL     1      12.164   6.398  10.062  1.00  0.00    -0.014 A 
ATOM     61  C   UNL     1      12.952   5.238  10.179  1.00  0.00     0.010 A 
ATOM     62  C   UNL     1      11.393   6.810  11.164  1.00  0.00     0.010 A 
ATOM     63  C   UNL     1      12.922   4.474  11.348  1.00  0.00     0.020 A 
ATOM     64  C   UNL     1      11.387   6.069  12.349  1.00  0.00     0.020 A 
ATOM     65  C   UNL     1      12.134   4.891  12.425  1.00  0.00     0.054 A 
BRANCH  65  66
ATOM     66  S   UNL     1      12.111   3.880  13.929  1.00  0.00     0.124 S 
ATOM     67  O   UNL     1      11.336   2.718  13.498  1.00  0.00    -0.237 OA
ATOM     68  O   UNL     1      13.530   3.633  14.171  1.00  0.00    -0.237 OA
ATOM     69  O   UNL     1      11.453   4.735  14.914  1.00  0.00    -0.744 OA
ENDBRANCH  65  66
ENDBRANCH  46  60
BRANCH  47  70
ATOM     70  C   UNL     1      11.369  11.525   1.508  1.00  0.00    -0.014 A 
ATOM     71  C   UNL     1      12.527  11.867   0.786  1.00  0.00     0.010 A 
ATOM     72  C   UNL     1      10.113  11.899   0.998  1.00  0.00     0.010 A 
ATOM     73  C   UNL     1      12.433  12.580  -0.412  1.00  0.00     0.020 A 
ATOM     74  C   UNL     1      10.012  12.587  -0.215  1.00  0.00     0.020 A 
ATOM     75  C   UNL     1      11.174  12.931  -0.908  1.00  0.00     0.054 A 
BRANCH  75  76
ATOM     76  S   UNL     1      11.075  13.803  -2.496  1.00  0.00     0.124 S 
ATOM     77  O   UNL     1      11.589  15.124  -2.151  1.00  0.00    -0.237 OA
ATOM     78  O   UNL     1      11.936  12.992  -3.353  1.00  0.00    -0.237 OA
ATOM     79  O   UNL     1       9.653  13.751  -2.827  1.00  0.00    -0.744 OA
ENDBRANCH  75  76
ENDBRANCH  47  70
BRANCH  59  80
ATOM     80  C   UNL     1      14.094  12.972   7.767  1.00  0.00    -0.014 A 
ATOM     81  C   UNL     1      13.445  14.194   8.014  1.00  0.00     0.010 A 
ATOM     82  C   UNL     1      15.464  12.853   8.065  1.00  0.00     0.010 A 
ATOM     83  C   UNL     1      14.164  15.289   8.503  1.00  0.00     0.020 A 
ATOM     84  C   UNL     1      16.178  13.934   8.587  1.00  0.00     0.020 A 
ATOM     85  C   UNL     1      15.527  15.152   8.784  1.00  0.00     0.054 A 
BRANCH  85  86
ATOM     86  S   UNL     1      16.433  16.579   9.439  1.00  0.00     0.124 S 
ATOM     87  O   UNL     1      16.533  17.441   8.264  1.00  0.00    -0.237 OA
ATOM     88  O   UNL     1      15.550  17.061  10.498  1.00  0.00    -0.237 OA
ATOM     89  O   UNL     1      17.696  16.007   9.902  1.00  0.00    -0.744 OA
ENDBRANCH  85  86
ENDBRANCH  59  80
ENDBRANCH  33  34
ENDBRANCH  25  28
ENDBRANCH  23  24
ENDBRANCH   1  23
TORSDOF 16
