REMARK SMILES Cc1c(C(=O)N[C@H]2C=C[C@@H](C(=O)NCCCCNC(=O)c3ccc(-c4c5nc(c(-c6ccc(S(=O)(=O)[O-])cc6)c6ccc([nH]6)c(-c6ccc(S(=O)(=O)[O-])cc6)c6nc(c(-c7ccc(S(=O)(=O)[O-])cc7)c7ccc4[nH]7)C=C6)C=C5)cc3)C2)oc2ccccc12
REMARK SMILES IDX 16 1 15 2 14 3 13 4 11 5 12 6 10 8 7 9 8 10 81 11 9 12 6 13
REMARK SMILES IDX 4 14 5 15 3 17 1 18 2 19 88 20 82 21 83 22 87 23 84 24 86 25
REMARK SMILES IDX 85 26 17 27 18 28 19 29 20 31 21 32 22 33 80 34 23 35 79 36
REMARK SMILES IDX 24 37 25 38 26 39 73 40 27 41 78 42 72 43 74 44 28 45 77 46
REMARK SMILES IDX 71 47 70 48 29 50 59 51 40 52 58 53 41 54 44 55 57 56 75 57
REMARK SMILES IDX 42 58 43 59 56 61 76 62 45 63 30 64 31 65 39 66 32 67 38 68
REMARK SMILES IDX 33 69 34 70 35 71 36 72 37 73 60 74 61 75 69 76 62 77 68 78
REMARK SMILES IDX 63 79 64 80 65 81 66 82 67 83 46 84 47 85 55 86 48 87 54 88
REMARK SMILES IDX 49 89 50 90 51 91 52 92 53 93
REMARK H PARENT 13 7 6 16 18 30 74 49 44 60
REMARK Flexibility Score: inf
ROOT
ATOM      1  C   UNL     1       9.115  -2.293   3.342  1.00  0.00     0.023 C 
ENDROOT
BRANCH   1   2
ATOM      2  C   UNL     1       8.027  -1.687   2.467  1.00  0.00     0.023 C 
BRANCH   2   3
ATOM      3  C   UNL     1       7.498  -2.641   1.409  1.00  0.00     0.116 C 
BRANCH   3   4
ATOM      4  N   UNL     1       6.684  -3.684   1.996  1.00  0.00    -0.356 N 
ATOM      5  C   UNL     1       5.386  -4.000   1.745  1.00  0.00     0.227 C 
ATOM      6  O   UNL     1       4.860  -4.896   2.408  1.00  0.00    -0.274 OA
ATOM      7  H   UNL     1       7.133  -4.242   2.671  1.00  0.00     0.163 HD
BRANCH   5   8
ATOM      8  C   UNL     1       4.584  -3.248   0.693  1.00  0.00     0.103 C 
ATOM      9  C   UNL     1       4.043  -1.153  -0.264  1.00  0.00     0.106 C 
ATOM     10  C   UNL     1       5.069  -1.806  -1.114  1.00  0.00    -0.006 C 
ATOM     11  C   UNL     1       4.260  -1.808   1.094  1.00  0.00     0.047 C 
ATOM     12  C   UNL     1       5.269  -3.051  -0.644  1.00  0.00    -0.016 C 
BRANCH   9  13
ATOM     13  N   UNL     1       4.008   0.255  -0.224  1.00  0.00    -0.343 N 
ATOM     14  C   UNL     1       2.870   1.026  -0.061  1.00  0.00     0.287 C 
ATOM     15  O   UNL     1       3.102   2.237   0.040  1.00  0.00    -0.266 OA
ATOM     16  H   UNL     1       4.865   0.731  -0.321  1.00  0.00     0.164 HD
BRANCH  14  17
ATOM     17  C   UNL     1       1.486   0.493  -0.031  1.00  0.00     0.195 A 
ATOM     18  C   UNL     1       1.138  -2.168  -0.114  1.00  0.00     0.049 C 
ATOM     19  C   UNL     1       0.766  -0.724  -0.062  1.00  0.00     0.008 A 
ATOM     20  C   UNL     1      -0.626  -0.384  -0.041  1.00  0.00     0.024 A 
ATOM     21  O   UNL     1       0.545   1.514   0.044  1.00  0.00    -0.451 OA
ATOM     22  C   UNL     1      -0.698   0.988   0.035  1.00  0.00     0.135 A 
ATOM     23  C   UNL     1      -1.823  -1.125  -0.076  1.00  0.00     0.012 A 
ATOM     24  C   UNL     1      -1.892   1.701   0.090  1.00  0.00     0.048 A 
ATOM     25  C   UNL     1      -3.041  -0.446  -0.024  1.00  0.00     0.001 A 
ATOM     26  C   UNL     1      -3.072   0.946   0.060  1.00  0.00     0.004 A 
ENDBRANCH  14  17
ENDBRANCH   9  13
ENDBRANCH   5   8
ENDBRANCH   3   4
ENDBRANCH   2   3
ENDBRANCH   1   2
BRANCH   1  27
ATOM     27  C   UNL     1      10.222  -2.992   2.564  1.00  0.00     0.116 C 
BRANCH  27  28
ATOM     28  N   UNL     1      10.761  -2.176   1.484  1.00  0.00    -0.352 N 
ATOM     29  C   UNL     1      12.071  -2.026   1.091  1.00  0.00     0.251 C 
ATOM     30  H   UNL     1      10.099  -1.664   0.965  1.00  0.00     0.163 HD
ATOM     31  O   UNL     1      12.378  -1.216   0.240  1.00  0.00    -0.269 OA
BRANCH  29  32
ATOM     32  C   UNL     1      13.090  -2.852   1.767  1.00  0.00     0.039 A 
ATOM     33  C   UNL     1      14.187  -2.215   2.343  1.00  0.00     0.014 A 
ATOM     34  C   UNL     1      12.902  -4.230   1.903  1.00  0.00     0.014 A 
ATOM     35  C   UNL     1      15.073  -2.962   3.115  1.00  0.00     0.010 A 
ATOM     36  C   UNL     1      13.736  -4.953   2.745  1.00  0.00     0.010 A 
ATOM     37  C   UNL     1      14.832  -4.326   3.355  1.00  0.00    -0.014 A 
BRANCH  37  38
ATOM     38  C   UNL     1      15.725  -5.104   4.246  1.00  0.00     0.031 A 
ATOM     39  C   UNL     1      16.525  -6.251   3.693  1.00  0.00     0.074 A 
ATOM     40  C   UNL     1      15.796  -4.785   5.554  1.00  0.00     0.049 A 
ATOM     41  N   UNL     1      17.366  -7.037   4.312  1.00  0.00    -0.248 NA
ATOM     42  C   UNL     1      16.342  -6.573   2.267  1.00  0.00     0.031 C 
ATOM     43  C   UNL     1      15.023  -3.728   6.214  1.00  0.00     0.029 A 
ATOM     44  N   UNL     1      16.559  -5.313   6.563  1.00  0.00    -0.354 N 
ATOM     45  C   UNL     1      17.816  -7.938   3.354  1.00  0.00     0.074 A 
ATOM     46  C   UNL     1      17.103  -7.649   2.130  1.00  0.00     0.031 C 
ATOM     47  C   UNL     1      15.383  -3.660   7.506  1.00  0.00     0.029 A 
ATOM     48  C   UNL     1      16.381  -4.689   7.776  1.00  0.00     0.049 A 
ATOM     49  H   UNL     1      17.177  -6.069   6.432  1.00  0.00     0.167 HD
ATOM     50  C   UNL     1      18.763  -8.896   3.472  1.00  0.00     0.031 A 
ATOM     51  C   UNL     1      16.961  -4.919   8.969  1.00  0.00     0.031 A 
ATOM     52  C   UNL     1      19.476  -9.175   4.689  1.00  0.00     0.049 A 
ATOM     53  C   UNL     1      18.001  -6.003   9.073  1.00  0.00     0.074 A 
ATOM     54  C   UNL     1      20.477 -10.106   4.905  1.00  0.00     0.029 A 
ATOM     55  N   UNL     1      19.271  -8.520   5.893  1.00  0.00    -0.354 N 
ATOM     56  N   UNL     1      18.458  -6.801   8.136  1.00  0.00    -0.248 NA
ATOM     57  C   UNL     1      18.616  -6.205  10.392  1.00  0.00     0.031 C 
ATOM     58  C   UNL     1      20.845 -10.045   6.253  1.00  0.00     0.029 A 
ATOM     59  C   UNL     1      20.116  -9.036   6.861  1.00  0.00     0.049 A 
ATOM     60  H   UNL     1      18.621  -7.795   6.039  1.00  0.00     0.167 HD
ATOM     61  C   UNL     1      19.433  -7.580   8.748  1.00  0.00     0.074 A 
ATOM     62  C   UNL     1      19.519  -7.137  10.125  1.00  0.00     0.031 C 
ATOM     63  C   UNL     1      20.187  -8.578   8.224  1.00  0.00     0.031 A 
BRANCH  50  64
ATOM     64  C   UNL     1      19.104  -9.698   2.244  1.00  0.00    -0.014 A 
ATOM     65  C   UNL     1      19.803  -9.108   1.175  1.00  0.00     0.010 A 
ATOM     66  C   UNL     1      18.790 -11.067   2.185  1.00  0.00     0.010 A 
ATOM     67  C   UNL     1      20.166  -9.867   0.061  1.00  0.00     0.020 A 
ATOM     68  C   UNL     1      19.177 -11.838   1.084  1.00  0.00     0.020 A 
ATOM     69  C   UNL     1      19.856 -11.230   0.025  1.00  0.00     0.054 A 
BRANCH  69  70
ATOM     70  S   UNL     1      20.400 -12.203  -1.405  1.00  0.00     0.124 S 
ATOM     71  O   UNL     1      19.519 -11.707  -2.460  1.00  0.00    -0.237 OA
ATOM     72  O   UNL     1      21.805 -11.825  -1.532  1.00  0.00    -0.237 OA
ATOM     73  O   UNL     1      20.163 -13.585  -0.996  1.00  0.00    -0.744 OA
ENDBRANCH  69  70
ENDBRANCH  50  64
BRANCH  51  74
ATOM     74  C   UNL     1      16.579  -4.116  10.164  1.00  0.00    -0.014 A 
ATOM     75  C   UNL     1      17.501  -3.243  10.771  1.00  0.00     0.010 A 
ATOM     76  C   UNL     1      15.297  -4.252  10.727  1.00  0.00     0.010 A 
ATOM     77  C   UNL     1      17.166  -2.563  11.945  1.00  0.00     0.020 A 
ATOM     78  C   UNL     1      14.947  -3.547  11.882  1.00  0.00     0.020 A 
ATOM     79  C   UNL     1      15.892  -2.725  12.497  1.00  0.00     0.054 A 
BRANCH  79  80
ATOM     80  S   UNL     1      15.477  -1.839  14.025  1.00  0.00     0.124 S 
ATOM     81  O   UNL     1      16.213  -2.603  15.027  1.00  0.00    -0.237 OA
ATOM     82  O   UNL     1      15.981  -0.494  13.757  1.00  0.00    -0.237 OA
ATOM     83  O   UNL     1      14.022  -1.948  14.096  1.00  0.00    -0.744 OA
ENDBRANCH  79  80
ENDBRANCH  51  74
BRANCH  63  84
ATOM     84  C   UNL     1      21.192  -9.230   9.135  1.00  0.00    -0.014 A 
ATOM     85  C   UNL     1      20.786 -10.060  10.195  1.00  0.00     0.010 A 
ATOM     86  C   UNL     1      22.566  -9.027   8.909  1.00  0.00     0.010 A 
ATOM     87  C   UNL     1      21.734 -10.634  11.044  1.00  0.00     0.020 A 
ATOM     88  C   UNL     1      23.518  -9.627   9.736  1.00  0.00     0.020 A 
ATOM     89  C   UNL     1      23.095 -10.410  10.812  1.00  0.00     0.054 A 
BRANCH  89  90
ATOM     90  S   UNL     1      24.306 -11.180  11.920  1.00  0.00     0.124 S 
ATOM     91  O   UNL     1      24.173 -10.368  13.126  1.00  0.00    -0.237 OA
ATOM     92  O   UNL     1      23.816 -12.552  12.028  1.00  0.00    -0.237 OA
ATOM     93  O   UNL     1      25.572 -11.032  11.205  1.00  0.00    -0.744 OA
ENDBRANCH  89  90
ENDBRANCH  63  84
ENDBRANCH  37  38
ENDBRANCH  29  32
ENDBRANCH  27  28
ENDBRANCH   1  27
TORSDOF 16
