REMARK SMILES C[C@@H]1C[C@](Nc2ccccc2F)(C(=O)NCCCCNC(=O)c2ccc(-c3c4nc(c(-c5ccc(S(=O)(=O)[O-])cc5)c5ccc([nH]5)c(-c5ccc(S(=O)(=O)[O-])cc5)c5nc(c(-c6ccc(S(=O)(=O)[O-])cc6)c6ccc3[nH]6)C=C5)C=C4)cc2)CS1
REMARK SMILES IDX 18 1 17 2 16 3 15 4 13 5 14 6 4 8 1 9 2 10 3 11 84 12 83 13
REMARK SMILES IDX 5 14 6 16 7 17 11 18 8 19 10 20 12 21 9 22 19 23 20 24 21 25
REMARK SMILES IDX 22 27 23 28 24 29 82 30 25 31 81 32 26 33 27 34 28 35 75 36
REMARK SMILES IDX 29 37 80 38 74 39 76 40 30 41 79 42 73 43 72 44 31 46 61 47
REMARK SMILES IDX 42 48 60 49 43 50 46 51 59 52 77 53 44 54 45 55 58 57 78 58
REMARK SMILES IDX 47 59 32 60 33 61 41 62 34 63 40 64 35 65 36 66 37 67 38 68
REMARK SMILES IDX 39 69 62 70 63 71 71 72 64 73 70 74 65 75 66 76 67 77 68 78
REMARK SMILES IDX 69 79 48 80 49 81 57 82 50 83 56 84 51 85 52 86 53 87 54 88
REMARK SMILES IDX 55 89
REMARK H PARENT 15 7 5 15 20 26 76 45 46 56
REMARK Flexibility Score: inf
ROOT
ATOM      1  C   UNL     1       1.448   6.014  -4.332  1.00  0.00     0.023 C 
ENDROOT
BRANCH   1   2
ATOM      2  C   UNL     1       0.362   5.404  -3.447  1.00  0.00     0.023 C 
BRANCH   2   3
ATOM      3  C   UNL     1       0.817   4.258  -2.550  1.00  0.00     0.116 C 
BRANCH   3   4
ATOM      4  N   UNL     1       1.842   4.658  -1.604  1.00  0.00    -0.354 N 
ATOM      5  C   UNL     1       2.005   4.356  -0.276  1.00  0.00     0.246 C 
ATOM      6  O   UNL     1       3.053   4.753   0.240  1.00  0.00    -0.272 OA
ATOM      7  H   UNL     1       2.538   5.245  -1.979  1.00  0.00     0.163 HD
BRANCH   5   8
ATOM      8  C   UNL     1       0.869   3.618   0.531  1.00  0.00     0.127 C 
ATOM      9  C   UNL     1       0.979  -0.219   0.169  1.00  0.00     0.019 C 
ATOM     10  C   UNL     1       0.654   1.105   0.843  1.00  0.00     0.046 C 
ATOM     11  C   UNL     1       0.568   2.255  -0.154  1.00  0.00     0.053 C 
ATOM     12  S   UNL     1       1.968   1.617   1.962  1.00  0.00    -0.156 SA
ATOM     13  C   UNL     1       1.397   3.339   1.958  1.00  0.00     0.108 C 
BRANCH   8  14
ATOM     14  N   UNL     1      -0.305   4.542   0.522  1.00  0.00    -0.368 N 
ATOM     15  H   UNL     1      -0.151   5.455   0.187  1.00  0.00     0.161 HD
BRANCH  14  16
ATOM     16  C   UNL     1      -1.589   4.236   0.941  1.00  0.00     0.071 A 
ATOM     17  C   UNL     1      -2.592   4.044  -0.020  1.00  0.00     0.029 A 
ATOM     18  C   UNL     1      -1.970   4.136   2.287  1.00  0.00     0.146 A 
ATOM     19  C   UNL     1      -3.903   3.715   0.349  1.00  0.00     0.002 A 
ATOM     20  C   UNL     1      -3.269   3.799   2.665  1.00  0.00     0.041 A 
ATOM     21  F   UNL     1      -1.106   4.439   3.267  1.00  0.00    -0.205 F 
ATOM     22  C   UNL     1      -4.239   3.579   1.693  1.00  0.00     0.003 A 
ENDBRANCH  14  16
ENDBRANCH   8  14
ENDBRANCH   5   8
ENDBRANCH   3   4
ENDBRANCH   2   3
ENDBRANCH   1   2
BRANCH   1  23
ATOM     23  C   UNL     1       2.208   5.029  -5.215  1.00  0.00     0.116 C 
BRANCH  23  24
ATOM     24  N   UNL     1       1.346   4.319  -6.146  1.00  0.00    -0.352 N 
ATOM     25  C   UNL     1       1.430   4.218  -7.517  1.00  0.00     0.251 C 
ATOM     26  H   UNL     1       0.591   3.838  -5.735  1.00  0.00     0.163 HD
ATOM     27  O   UNL     1       0.523   3.689  -8.144  1.00  0.00    -0.269 OA
BRANCH  25  28
ATOM     28  C   UNL     1       2.602   4.780  -8.228  1.00  0.00     0.039 A 
ATOM     29  C   UNL     1       2.389   5.559  -9.368  1.00  0.00     0.014 A 
ATOM     30  C   UNL     1       3.900   4.554  -7.766  1.00  0.00     0.014 A 
ATOM     31  C   UNL     1       3.474   6.177  -9.996  1.00  0.00     0.010 A 
ATOM     32  C   UNL     1       4.970   5.232  -8.346  1.00  0.00     0.010 A 
ATOM     33  C   UNL     1       4.769   6.054  -9.465  1.00  0.00    -0.014 A 
BRANCH  33  34
ATOM     34  C   UNL     1       5.920   6.789 -10.054  1.00  0.00     0.031 A 
ATOM     35  C   UNL     1       7.082   6.034 -10.643  1.00  0.00     0.074 A 
ATOM     36  C   UNL     1       5.952   8.136  -9.997  1.00  0.00     0.049 A 
ATOM     37  N   UNL     1       8.198   6.499 -11.142  1.00  0.00    -0.248 NA
ATOM     38  C   UNL     1       6.988   4.565 -10.647  1.00  0.00     0.031 C 
ATOM     39  C   UNL     1       4.910   8.986  -9.414  1.00  0.00     0.029 A 
ATOM     40  N   UNL     1       6.903   9.029 -10.427  1.00  0.00    -0.354 N 
ATOM     41  C   UNL     1       8.945   5.383 -11.503  1.00  0.00     0.074 A 
ATOM     42  C   UNL     1       8.177   4.219 -11.120  1.00  0.00     0.031 C 
ATOM     43  C   UNL     1       5.266  10.274  -9.548  1.00  0.00     0.029 A 
ATOM     44  C   UNL     1       6.578  10.343 -10.184  1.00  0.00     0.049 A 
ATOM     45  H   UNL     1       7.739   8.754 -10.868  1.00  0.00     0.167 HD
ATOM     46  C   UNL     1      10.153   5.331 -12.115  1.00  0.00     0.031 A 
ATOM     47  C   UNL     1       7.259  11.478 -10.436  1.00  0.00     0.031 A 
ATOM     48  C   UNL     1      10.912   6.490 -12.505  1.00  0.00     0.049 A 
ATOM     49  C   UNL     1       8.603  11.394 -11.108  1.00  0.00     0.074 A 
ATOM     50  C   UNL     1      12.118   6.540 -13.181  1.00  0.00     0.029 A 
ATOM     51  N   UNL     1      10.541   7.802 -12.251  1.00  0.00    -0.354 N 
ATOM     52  N   UNL     1       9.261  10.330 -11.503  1.00  0.00    -0.248 NA
ATOM     53  C   UNL     1       9.290  12.664 -11.379  1.00  0.00     0.031 C 
ATOM     54  C   UNL     1      12.503   7.880 -13.289  1.00  0.00     0.029 A 
ATOM     55  C   UNL     1      11.507   8.668 -12.735  1.00  0.00     0.049 A 
ATOM     56  H   UNL     1       9.714   8.077 -11.793  1.00  0.00     0.167 HD
ATOM     57  C   UNL     1      10.427  10.805 -12.094  1.00  0.00     0.074 A 
ATOM     58  C   UNL     1      10.376  12.251 -12.018  1.00  0.00     0.031 C 
ATOM     59  C   UNL     1      11.446  10.106 -12.652  1.00  0.00     0.031 A 
BRANCH  46  60
ATOM     60  C   UNL     1      10.733   3.969 -12.396  1.00  0.00    -0.014 A 
ATOM     61  C   UNL     1      10.163   3.122 -13.365  1.00  0.00     0.010 A 
ATOM     62  C   UNL     1      11.886   3.544 -11.712  1.00  0.00     0.010 A 
ATOM     63  C   UNL     1      10.709   1.860 -13.613  1.00  0.00     0.020 A 
ATOM     64  C   UNL     1      12.454   2.294 -11.979  1.00  0.00     0.020 A 
ATOM     65  C   UNL     1      11.850   1.453 -12.915  1.00  0.00     0.054 A 
BRANCH  65  66
ATOM     66  S   UNL     1      12.549  -0.182 -13.273  1.00  0.00     0.124 S 
ATOM     67  O   UNL     1      11.570  -1.070 -12.649  1.00  0.00    -0.237 OA
ATOM     68  O   UNL     1      12.577  -0.206 -14.733  1.00  0.00    -0.237 OA
ATOM     69  O   UNL     1      13.859  -0.149 -12.627  1.00  0.00    -0.744 OA
ENDBRANCH  65  66
ENDBRANCH  46  60
BRANCH  47  70
ATOM     70  C   UNL     1       6.673  12.796 -10.064  1.00  0.00    -0.014 A 
ATOM     71  C   UNL     1       6.226  13.684 -11.058  1.00  0.00     0.010 A 
ATOM     72  C   UNL     1       6.549  13.164  -8.712  1.00  0.00     0.010 A 
ATOM     73  C   UNL     1       5.681  14.923 -10.708  1.00  0.00     0.020 A 
ATOM     74  C   UNL     1       5.979  14.390  -8.357  1.00  0.00     0.020 A 
ATOM     75  C   UNL     1       5.559  15.267  -9.359  1.00  0.00     0.054 A 
BRANCH  75  76
ATOM     76  S   UNL     1       4.800  16.858  -8.927  1.00  0.00     0.124 S 
ATOM     77  O   UNL     1       5.853  17.804  -9.285  1.00  0.00    -0.237 OA
ATOM     78  O   UNL     1       3.612  16.881  -9.777  1.00  0.00    -0.237 OA
ATOM     79  O   UNL     1       4.531  16.731  -7.497  1.00  0.00    -0.744 OA
ENDBRANCH  75  76
ENDBRANCH  47  70
BRANCH  59  80
ATOM     80  C   UNL     1      12.577  10.892 -13.260  1.00  0.00    -0.014 A 
ATOM     81  C   UNL     1      13.505  11.578 -12.457  1.00  0.00     0.010 A 
ATOM     82  C   UNL     1      12.745  10.896 -14.657  1.00  0.00     0.010 A 
ATOM     83  C   UNL     1      14.562  12.280 -13.043  1.00  0.00     0.020 A 
ATOM     84  C   UNL     1      13.817  11.572 -15.245  1.00  0.00     0.020 A 
ATOM     85  C   UNL     1      14.712  12.272 -14.433  1.00  0.00     0.054 A 
BRANCH  85  86
ATOM     86  S   UNL     1      16.118  13.152 -15.166  1.00  0.00     0.124 S 
ATOM     87  O   UNL     1      15.717  14.548 -15.012  1.00  0.00    -0.237 OA
ATOM     88  O   UNL     1      17.236  12.723 -14.329  1.00  0.00    -0.237 OA
ATOM     89  O   UNL     1      16.155  12.663 -16.542  1.00  0.00    -0.744 OA
ENDBRANCH  85  86
ENDBRANCH  59  80
ENDBRANCH  33  34
ENDBRANCH  25  28
ENDBRANCH  23  24
ENDBRANCH   1  23
TORSDOF 16
