REMARK SMILES CN1C(=O)[C@@H]2CC=CC[C@]2(C(=O)NCCCCNC(=O)c2ccc(-c3c4nc(c(-c5ccc(S(=O)(=O)[O-])cc5)c5ccc([nH]5)c(-c5ccc(S(=O)(=O)[O-])cc5)c5nc(c(-c6ccc(S(=O)(=O)[O-])cc6)c6ccc3[nH]6)C=C5)C=C4)cc2)[C@H]1c1ccccc1
REMARK SMILES IDX 16 1 15 2 14 3 13 4 11 5 12 6 10 8 1 9 2 10 3 11 81 12 4 13
REMARK SMILES IDX 5 14 6 15 9 16 7 17 8 18 82 19 83 20 87 21 84 22 86 23 85 24
REMARK SMILES IDX 17 25 18 26 19 27 20 29 21 30 22 31 80 32 23 33 79 34 24 35
REMARK SMILES IDX 25 36 26 37 73 38 27 39 78 40 72 41 74 42 28 43 77 44 71 45
REMARK SMILES IDX 70 46 29 48 59 49 40 50 58 51 41 52 44 53 57 54 75 55 42 56
REMARK SMILES IDX 43 57 56 59 76 60 45 61 30 62 31 63 39 64 32 65 38 66 33 67
REMARK SMILES IDX 34 68 35 69 36 70 37 71 60 72 61 73 69 74 62 75 68 76 63 77
REMARK SMILES IDX 64 78 65 79 66 80 67 81 46 82 47 83 55 84 48 85 54 86 49 87
REMARK SMILES IDX 50 88 51 89 52 90 53 91
REMARK H PARENT 13 7 18 28 74 47 44 58
REMARK Flexibility Score: inf
ROOT
ATOM      1  C   UNL     1      -4.080   3.316   3.234  1.00  0.00     0.023 C 
ENDROOT
BRANCH   1   2
ATOM      2  C   UNL     1      -3.281   2.083   2.822  1.00  0.00     0.023 C 
BRANCH   2   3
ATOM      3  C   UNL     1      -1.839   1.999   3.310  1.00  0.00     0.116 C 
BRANCH   3   4
ATOM      4  N   UNL     1      -1.469   1.156   4.449  1.00  0.00    -0.356 N 
ATOM      5  C   UNL     1      -0.551   0.107   4.539  1.00  0.00     0.229 C 
ATOM      6  O   UNL     1      -0.029  -0.110   5.635  1.00  0.00    -0.274 OA
ATOM      7  H   UNL     1      -1.944   1.362   5.286  1.00  0.00     0.163 HD
BRANCH   5   8
ATOM      8  C   UNL     1      -0.314  -0.852   3.341  1.00  0.00     0.089 C 
ATOM      9  C   UNL     1       1.262  -0.672  -0.076  1.00  0.00     0.147 C 
ATOM     10  N   UNL     1       0.930  -0.964   1.302  1.00  0.00    -0.337 N 
ATOM     11  C   UNL     1       1.323  -2.081   1.998  1.00  0.00     0.227 C 
ATOM     12  C   UNL     1       0.252  -0.017   2.132  1.00  0.00     0.131 C 
ATOM     13  O   UNL     1       1.998  -2.983   1.539  1.00  0.00    -0.275 OA
ATOM     14  C   UNL     1       0.817  -1.949   3.441  1.00  0.00     0.101 C 
ATOM     15  C   UNL     1       0.535  -3.344   3.999  1.00  0.00     0.041 C 
ATOM     16  C   UNL     1      -1.716  -1.521   3.162  1.00  0.00     0.047 C 
ATOM     17  C   UNL     1      -0.897  -3.708   4.110  1.00  0.00    -0.030 C 
ATOM     18  C   UNL     1      -1.893  -2.903   3.734  1.00  0.00    -0.030 C 
BRANCH  12  19
ATOM     19  C   UNL     1       1.189   1.163   2.489  1.00  0.00    -0.024 A 
ATOM     20  C   UNL     1       2.210   1.062   3.450  1.00  0.00     0.006 A 
ATOM     21  C   UNL     1       0.949   2.441   1.954  1.00  0.00     0.006 A 
ATOM     22  C   UNL     1       2.809   2.196   4.002  1.00  0.00     0.000 A 
ATOM     23  C   UNL     1       1.533   3.582   2.518  1.00  0.00     0.000 A 
ATOM     24  C   UNL     1       2.437   3.459   3.568  1.00  0.00     0.000 A 
ENDBRANCH  12  19
ENDBRANCH   5   8
ENDBRANCH   3   4
ENDBRANCH   2   3
ENDBRANCH   1   2
BRANCH   1  25
ATOM     25  C   UNL     1      -3.342   4.651   3.290  1.00  0.00     0.116 C 
BRANCH  25  26
ATOM     26  N   UNL     1      -2.690   5.077   2.057  1.00  0.00    -0.352 N 
ATOM     27  C   UNL     1      -2.471   6.378   1.638  1.00  0.00     0.251 C 
ATOM     28  H   UNL     1      -2.372   4.363   1.459  1.00  0.00     0.163 HD
ATOM     29  O   UNL     1      -1.920   6.608   0.567  1.00  0.00    -0.269 OA
BRANCH  27  30
ATOM     30  C   UNL     1      -2.970   7.486   2.485  1.00  0.00     0.039 A 
ATOM     31  C   UNL     1      -3.861   8.410   1.937  1.00  0.00     0.014 A 
ATOM     32  C   UNL     1      -2.664   7.521   3.848  1.00  0.00     0.014 A 
ATOM     33  C   UNL     1      -4.526   9.302   2.782  1.00  0.00     0.010 A 
ATOM     34  C   UNL     1      -3.401   8.342   4.697  1.00  0.00     0.010 A 
ATOM     35  C   UNL     1      -4.347   9.236   4.176  1.00  0.00    -0.014 A 
BRANCH  35  36
ATOM     36  C   UNL     1      -5.176  10.071   5.087  1.00  0.00     0.031 A 
ATOM     37  C   UNL     1      -4.535  11.085   5.997  1.00  0.00     0.074 A 
ATOM     38  C   UNL     1      -6.512   9.886   5.124  1.00  0.00     0.049 A 
ATOM     39  N   UNL     1      -5.106  11.936   6.810  1.00  0.00    -0.248 NA
ATOM     40  C   UNL     1      -3.064  11.133   6.017  1.00  0.00     0.031 C 
ATOM     41  C   UNL     1      -7.250   8.880   4.354  1.00  0.00     0.029 A 
ATOM     42  N   UNL     1      -7.491  10.541   5.829  1.00  0.00    -0.354 N 
ATOM     43  C   UNL     1      -4.069  12.615   7.439  1.00  0.00     0.074 A 
ATOM     44  C   UNL     1      -2.835  12.031   6.964  1.00  0.00     0.031 C 
ATOM     45  C   UNL     1      -8.565   9.022   4.587  1.00  0.00     0.029 A 
ATOM     46  C   UNL     1      -8.765  10.101   5.548  1.00  0.00     0.049 A 
ATOM     47  H   UNL     1      -7.300  11.260   6.475  1.00  0.00     0.167 HD
ATOM     48  C   UNL     1      -4.134  13.649   8.312  1.00  0.00     0.031 A 
ATOM     49  C   UNL     1      -9.961  10.524   6.003  1.00  0.00     0.031 A 
ATOM     50  C   UNL     1      -5.365  14.227   8.784  1.00  0.00     0.049 A 
ATOM     51  C   UNL     1     -10.010  11.682   6.961  1.00  0.00     0.074 A 
ATOM     52  C   UNL     1      -5.539  15.319   9.616  1.00  0.00     0.029 A 
ATOM     53  N   UNL     1      -6.632  13.755   8.475  1.00  0.00    -0.354 N 
ATOM     54  N   UNL     1      -9.018  12.378   7.464  1.00  0.00    -0.248 NA
ATOM     55  C   UNL     1     -11.341  12.123   7.398  1.00  0.00     0.031 C 
ATOM     56  C   UNL     1      -6.908  15.466   9.863  1.00  0.00     0.029 A 
ATOM     57  C   UNL     1      -7.592  14.512   9.128  1.00  0.00     0.049 A 
ATOM     58  H   UNL     1      -6.822  12.994   7.880  1.00  0.00     0.167 HD
ATOM     59  C   UNL     1      -9.607  13.352   8.264  1.00  0.00     0.074 A 
ATOM     60  C   UNL     1     -11.040  13.172   8.150  1.00  0.00     0.031 C 
ATOM     61  C   UNL     1      -9.015  14.306   9.026  1.00  0.00     0.031 A 
BRANCH  48  62
ATOM     62  C   UNL     1      -2.832  14.217   8.816  1.00  0.00    -0.014 A 
ATOM     63  C   UNL     1      -1.958  14.910   7.958  1.00  0.00     0.010 A 
ATOM     64  C   UNL     1      -2.492  14.087  10.175  1.00  0.00     0.010 A 
ATOM     65  C   UNL     1      -0.750  15.423   8.439  1.00  0.00     0.020 A 
ATOM     66  C   UNL     1      -1.300  14.627  10.667  1.00  0.00     0.020 A 
ATOM     67  C   UNL     1      -0.428  15.277   9.791  1.00  0.00     0.054 A 
BRANCH  67  68
ATOM     68  S   UNL     1       1.135  15.975  10.391  1.00  0.00     0.124 S 
ATOM     69  O   UNL     1       2.116  15.073   9.791  1.00  0.00    -0.237 OA
ATOM     70  O   UNL     1       1.111  17.329   9.844  1.00  0.00    -0.237 OA
ATOM     71  O   UNL     1       1.018  15.890  11.844  1.00  0.00    -0.744 OA
ENDBRANCH  67  68
ENDBRANCH  48  62
BRANCH  49  72
ATOM     72  C   UNL     1     -11.212   9.862   5.534  1.00  0.00    -0.014 A 
ATOM     73  C   UNL     1     -12.114  10.539   4.694  1.00  0.00     0.010 A 
ATOM     74  C   UNL     1     -11.500   8.539   5.918  1.00  0.00     0.010 A 
ATOM     75  C   UNL     1     -13.286   9.912   4.259  1.00  0.00     0.020 A 
ATOM     76  C   UNL     1     -12.655   7.898   5.460  1.00  0.00     0.020 A 
ATOM     77  C   UNL     1     -13.546   8.593   4.641  1.00  0.00     0.054 A 
BRANCH  77  78
ATOM     78  S   UNL     1     -15.042   7.778   4.014  1.00  0.00     0.124 S 
ATOM     79  O   UNL     1     -16.094   8.449   4.771  1.00  0.00    -0.237 OA
ATOM     80  O   UNL     1     -14.992   8.085   2.587  1.00  0.00    -0.237 OA
ATOM     81  O   UNL     1     -14.829   6.371   4.348  1.00  0.00    -0.744 OA
ENDBRANCH  77  78
ENDBRANCH  49  72
BRANCH  61  82
ATOM     82  C   UNL     1      -9.925  15.237   9.786  1.00  0.00    -0.014 A 
ATOM     83  C   UNL     1     -10.705  14.778  10.863  1.00  0.00     0.010 A 
ATOM     84  C   UNL     1      -9.990  16.596   9.425  1.00  0.00     0.010 A 
ATOM     85  C   UNL     1     -11.577  15.647  11.525  1.00  0.00     0.020 A 
ATOM     86  C   UNL     1     -10.833  17.475  10.108  1.00  0.00     0.020 A 
ATOM     87  C   UNL     1     -11.640  16.989  11.138  1.00  0.00     0.054 A 
BRANCH  87  88
ATOM     88  S   UNL     1     -12.780  18.095  12.012  1.00  0.00     0.124 S 
ATOM     89  O   UNL     1     -14.077  17.657  11.503  1.00  0.00    -0.237 OA
ATOM     90  O   UNL     1     -12.518  17.783  13.415  1.00  0.00    -0.237 OA
ATOM     91  O   UNL     1     -12.362  19.430  11.588  1.00  0.00    -0.744 OA
ENDBRANCH  87  88
ENDBRANCH  61  82
ENDBRANCH  35  36
ENDBRANCH  27  30
ENDBRANCH  25  26
ENDBRANCH   1  25
TORSDOF 15
