REMARK SMILES C/C(=N/[NH+]=C1\NC(=O)[C@H](CC(=O)NCCCCNC(=O)c2ccc(-c3c4nc(c(-c5ccc(S(=O)(=O)[O-])cc5)c5ccc([nH]5)c(-c5ccc(S(=O)(=O)[O-])cc5)c5nc(c(-c6ccc(S(=O)(=O)[O-])cc6)c6ccc3[nH]6)C=C5)C=C4)cc2)S1)c1ccc(OC(C)C)cc1
REMARK SMILES IDX 14 1 13 2 11 3 12 4 10 6 9 7 4 8 5 9 6 11 81 12 7 13 8 15
REMARK SMILES IDX 3 16 1 17 2 18 82 19 83 20 91 21 84 22 90 23 85 24 86 25
REMARK SMILES IDX 87 26 88 27 89 28 15 29 16 30 17 31 18 32 19 33 20 35 21 36
REMARK SMILES IDX 22 37 80 38 23 39 79 40 24 41 25 42 26 43 73 44 27 45 78 46
REMARK SMILES IDX 72 47 74 48 28 49 77 50 71 51 70 52 29 54 59 55 40 56 58 57
REMARK SMILES IDX 41 58 44 59 57 60 75 61 42 62 43 63 56 65 76 66 45 67 30 68
REMARK SMILES IDX 31 69 39 70 32 71 38 72 33 73 34 74 35 75 36 76 37 77 60 78
REMARK SMILES IDX 61 79 69 80 62 81 68 82 63 83 64 84 65 85 66 86 67 87 46 88
REMARK SMILES IDX 47 89 55 90 48 91 54 92 49 93 50 94 51 95 52 96 53 97
REMARK H PARENT 13 5 4 10 6 14 18 34 74 53 44 64
REMARK Flexibility Score: inf
ROOT
ATOM      1  C   UNL     1       3.975   4.886  -0.037  1.00  0.00     0.116 C 
ENDROOT
BRANCH   1   2
ATOM      2  N   UNL     1       4.138   6.302  -0.291  1.00  0.00    -0.356 N 
ATOM      3  C   UNL     1       3.183   7.273  -0.359  1.00  0.00     0.221 C 
ATOM      4  O   UNL     1       3.518   8.443  -0.536  1.00  0.00    -0.275 OA
ATOM      5  H   UNL     1       5.064   6.605  -0.433  1.00  0.00     0.163 HD
BRANCH   3   6
ATOM      6  C   UNL     1       1.727   6.898  -0.215  1.00  0.00     0.127 C 
BRANCH   6   7
ATOM      7  C   UNL     1       1.071   6.618  -1.565  1.00  0.00     0.183 C 
ATOM      8  N   UNL     1      -0.806   3.366  -0.959  1.00  0.00    -0.142 N 
ATOM      9  C   UNL     1      -0.124   4.353  -1.429  1.00  0.00     0.337 C 
ATOM     10  H   UNL     1      -1.690   3.498  -0.546  1.00  0.00     0.343 HD
ATOM     11  N   UNL     1       1.064   4.282  -2.063  1.00  0.00    -0.202 N 
ATOM     12  S   UNL     1      -0.634   6.008  -1.246  1.00  0.00    -0.020 SA
ATOM     13  C   UNL     1       1.702   5.460  -2.323  1.00  0.00     0.322 C 
ATOM     14  H   UNL     1       1.454   3.417  -2.327  1.00  0.00     0.316 HD
ATOM     15  O   UNL     1       2.685   5.549  -3.045  1.00  0.00    -0.246 OA
BRANCH   8  16
ATOM     16  N   UNL     1      -0.226   2.098  -1.064  1.00  0.00    -0.090 NA
ATOM     17  C   UNL     1       0.909   0.225  -0.069  1.00  0.00     0.071 C 
ATOM     18  C   UNL     1       0.419   1.658  -0.014  1.00  0.00     0.088 C 
BRANCH  18  19
ATOM     19  C   UNL     1       0.801   2.459   1.195  1.00  0.00    -0.000 A 
ATOM     20  C   UNL     1      -0.068   3.393   1.754  1.00  0.00     0.014 A 
ATOM     21  C   UNL     1       2.111   2.380   1.688  1.00  0.00     0.014 A 
ATOM     22  C   UNL     1       0.409   4.328   2.675  1.00  0.00     0.047 A 
ATOM     23  C   UNL     1       2.577   3.307   2.637  1.00  0.00     0.047 A 
ATOM     24  C   UNL     1       1.744   4.321   3.094  1.00  0.00     0.119 A 
BRANCH  24  25
ATOM     25  O   UNL     1       2.059   5.371   3.895  1.00  0.00    -0.491 OA
BRANCH  25  26
ATOM     26  C   UNL     1       3.332   5.609   4.501  1.00  0.00     0.167 C 
ATOM     27  C   UNL     1       3.755   4.526   5.484  1.00  0.00     0.052 C 
ATOM     28  C   UNL     1       4.430   6.018   3.527  1.00  0.00     0.052 C 
ENDBRANCH  25  26
ENDBRANCH  24  25
ENDBRANCH  18  19
ENDBRANCH   8  16
ENDBRANCH   6   7
ENDBRANCH   3   6
ENDBRANCH   1   2
BRANCH   1  29
ATOM     29  C   UNL     1       4.763   4.001  -0.995  1.00  0.00     0.023 C 
BRANCH  29  30
ATOM     30  C   UNL     1       6.262   3.961  -0.720  1.00  0.00     0.023 C 
BRANCH  30  31
ATOM     31  C   UNL     1       6.651   3.421   0.651  1.00  0.00     0.116 C 
BRANCH  31  32
ATOM     32  N   UNL     1       6.199   2.055   0.878  1.00  0.00    -0.352 N 
ATOM     33  C   UNL     1       6.941   0.944   1.216  1.00  0.00     0.251 C 
ATOM     34  H   UNL     1       5.231   1.905   0.777  1.00  0.00     0.163 HD
ATOM     35  O   UNL     1       6.423  -0.161   1.238  1.00  0.00    -0.269 OA
BRANCH  33  36
ATOM     36  C   UNL     1       8.378   1.119   1.517  1.00  0.00     0.039 A 
ATOM     37  C   UNL     1       9.319   0.349   0.830  1.00  0.00     0.014 A 
ATOM     38  C   UNL     1       8.786   2.104   2.418  1.00  0.00     0.014 A 
ATOM     39  C   UNL     1      10.679   0.629   0.987  1.00  0.00     0.010 A 
ATOM     40  C   UNL     1      10.132   2.436   2.505  1.00  0.00     0.010 A 
ATOM     41  C   UNL     1      11.094   1.703   1.791  1.00  0.00    -0.014 A 
BRANCH  41  42
ATOM     42  C   UNL     1      12.525   2.082   1.922  1.00  0.00     0.031 A 
ATOM     43  C   UNL     1      13.184   2.032   3.274  1.00  0.00     0.074 A 
ATOM     44  C   UNL     1      13.201   2.558   0.857  1.00  0.00     0.049 A 
ATOM     45  N   UNL     1      14.371   2.447   3.631  1.00  0.00    -0.248 NA
ATOM     46  C   UNL     1      12.386   1.471   4.378  1.00  0.00     0.031 C 
ATOM     47  C   UNL     1      12.668   2.692  -0.501  1.00  0.00     0.029 A 
ATOM     48  N   UNL     1      14.486   3.034   0.755  1.00  0.00    -0.354 N 
ATOM     49  C   UNL     1      14.451   2.227   5.001  1.00  0.00     0.074 A 
ATOM     50  C   UNL     1      13.175   1.690   5.420  1.00  0.00     0.031 C 
ATOM     51  C   UNL     1      13.624   3.192  -1.302  1.00  0.00     0.029 A 
ATOM     52  C   UNL     1      14.820   3.460  -0.510  1.00  0.00     0.049 A 
ATOM     53  H   UNL     1      15.110   3.066   1.516  1.00  0.00     0.167 HD
ATOM     54  C   UNL     1      15.498   2.433   5.835  1.00  0.00     0.031 A 
ATOM     55  C   UNL     1      15.956   4.014  -0.977  1.00  0.00     0.031 A 
ATOM     56  C   UNL     1      16.773   2.943   5.411  1.00  0.00     0.049 A 
ATOM     57  C   UNL     1      17.107   4.234  -0.032  1.00  0.00     0.074 A 
ATOM     58  C   UNL     1      17.916   3.137   6.168  1.00  0.00     0.029 A 
ATOM     59  N   UNL     1      17.078   3.334   4.117  1.00  0.00    -0.354 N 
ATOM     60  N   UNL     1      17.180   3.974   1.252  1.00  0.00    -0.248 NA
ATOM     61  C   UNL     1      18.333   4.813  -0.600  1.00  0.00     0.031 C 
ATOM     62  C   UNL     1      18.898   3.688   5.339  1.00  0.00     0.029 A 
ATOM     63  C   UNL     1      18.386   3.782   4.055  1.00  0.00     0.049 A 
ATOM     64  H   UNL     1      16.456   3.298   3.354  1.00  0.00     0.167 HD
ATOM     65  C   UNL     1      18.471   4.323   1.636  1.00  0.00     0.074 A 
ATOM     66  C   UNL     1      19.145   4.806   0.449  1.00  0.00     0.031 C 
ATOM     67  C   UNL     1      19.046   4.247   2.861  1.00  0.00     0.031 A 
BRANCH  54  68
ATOM     68  C   UNL     1      15.300   2.105   7.291  1.00  0.00    -0.014 A 
ATOM     69  C   UNL     1      15.159   0.774   7.724  1.00  0.00     0.010 A 
ATOM     70  C   UNL     1      15.283   3.140   8.244  1.00  0.00     0.010 A 
ATOM     71  C   UNL     1      14.955   0.487   9.075  1.00  0.00     0.020 A 
ATOM     72  C   UNL     1      15.110   2.854   9.602  1.00  0.00     0.020 A 
ATOM     73  C   UNL     1      14.928   1.530  10.006  1.00  0.00     0.054 A 
BRANCH  73  74
ATOM     74  S   UNL     1      14.675   1.126  11.755  1.00  0.00     0.124 S 
ATOM     75  O   UNL     1      13.257   0.777  11.781  1.00  0.00    -0.237 OA
ATOM     76  O   UNL     1      15.599   0.014  11.964  1.00  0.00    -0.237 OA
ATOM     77  O   UNL     1      15.025   2.362  12.451  1.00  0.00    -0.744 OA
ENDBRANCH  73  74
ENDBRANCH  54  68
BRANCH  55  78
ATOM     78  C   UNL     1      16.071   4.385  -2.415  1.00  0.00    -0.014 A 
ATOM     79  C   UNL     1      16.910   3.654  -3.274  1.00  0.00     0.010 A 
ATOM     80  C   UNL     1      15.339   5.468  -2.936  1.00  0.00     0.010 A 
ATOM     81  C   UNL     1      17.032   4.009  -4.620  1.00  0.00     0.020 A 
ATOM     82  C   UNL     1      15.436   5.810  -4.288  1.00  0.00     0.020 A 
ATOM     83  C   UNL     1      16.293   5.085  -5.119  1.00  0.00     0.054 A 
BRANCH  83  84
ATOM     84  S   UNL     1      16.431   5.499  -6.881  1.00  0.00     0.124 S 
ATOM     85  O   UNL     1      17.754   6.113  -6.945  1.00  0.00    -0.237 OA
ATOM     86  O   UNL     1      16.308   4.192  -7.522  1.00  0.00    -0.237 OA
ATOM     87  O   UNL     1      15.307   6.404  -7.108  1.00  0.00    -0.744 OA
ENDBRANCH  83  84
ENDBRANCH  55  78
BRANCH  67  88
ATOM     88  C   UNL     1      20.494   4.643   2.978  1.00  0.00    -0.014 A 
ATOM     89  C   UNL     1      20.893   5.989   2.917  1.00  0.00     0.010 A 
ATOM     90  C   UNL     1      21.460   3.650   3.228  1.00  0.00     0.010 A 
ATOM     91  C   UNL     1      22.238   6.333   3.079  1.00  0.00     0.020 A 
ATOM     92  C   UNL     1      22.800   3.992   3.418  1.00  0.00     0.020 A 
ATOM     93  C   UNL     1      23.183   5.332   3.331  1.00  0.00     0.054 A 
BRANCH  93  94
ATOM     94  S   UNL     1      24.912   5.810   3.596  1.00  0.00     0.124 S 
ATOM     95  O   UNL     1      25.343   6.152   2.243  1.00  0.00    -0.237 OA
ATOM     96  O   UNL     1      24.796   6.934   4.522  1.00  0.00    -0.237 OA
ATOM     97  O   UNL     1      25.522   4.607   4.159  1.00  0.00    -0.744 OA
ENDBRANCH  93  94
ENDBRANCH  67  88
ENDBRANCH  41  42
ENDBRANCH  33  36
ENDBRANCH  31  32
ENDBRANCH  30  31
ENDBRANCH  29  30
ENDBRANCH   1  29
TORSDOF 19
