REMARK SMILES N#C[C@H]1CN(c2cc(C(=O)NCCCCNC(=O)c3ccc(-c4c5nc(c(-c6ccc(S(=O)(=O)[O-])cc6)c6ccc([nH]6)c(-c6ccc(S(=O)(=O)[O-])cc6)c6nc(c(-c7ccc(S(=O)(=O)[O-])cc7)c7ccc4[nH]7)C=C6)C=C5)cc3)c(N)cc2F)CCO1
REMARK SMILES IDX 14 1 13 2 12 3 11 4 9 5 10 6 8 8 6 9 7 10 82 11 81 12 83 13
REMARK SMILES IDX 79 14 5 15 3 16 4 17 86 18 85 19 84 20 2 21 1 22 80 23 15 26
REMARK SMILES IDX 16 27 17 28 18 30 19 31 20 32 78 33 21 34 77 35 22 36 23 37
REMARK SMILES IDX 24 38 71 39 25 40 76 41 70 42 72 43 26 44 75 45 69 46 68 47
REMARK SMILES IDX 27 49 57 50 38 51 56 52 39 53 42 54 55 55 73 56 40 57 41 58
REMARK SMILES IDX 54 60 74 61 43 62 28 63 29 64 37 65 30 66 36 67 31 68 32 69
REMARK SMILES IDX 33 70 34 71 35 72 58 73 59 74 67 75 60 76 66 77 61 78 62 79
REMARK SMILES IDX 63 80 64 81 65 82 44 83 45 84 53 85 46 86 52 87 47 88 48 89
REMARK SMILES IDX 49 90 50 91 51 92
REMARK H PARENT 11 7 80 24 80 25 16 29 72 48 42 59
REMARK Flexibility Score: inf
ROOT
ATOM      1  C   UNL     1       0.857   7.986  -6.685  1.00  0.00     0.023 C 
ENDROOT
BRANCH   1   2
ATOM      2  C   UNL     1       0.406   6.793  -5.851  1.00  0.00     0.023 C 
BRANCH   2   3
ATOM      3  C   UNL     1       1.188   5.502  -6.039  1.00  0.00     0.116 C 
BRANCH   3   4
ATOM      4  N   UNL     1       2.596   5.546  -5.695  1.00  0.00    -0.352 N 
ATOM      5  C   UNL     1       3.420   4.540  -5.229  1.00  0.00     0.253 C 
ATOM      6  O   UNL     1       4.611   4.805  -5.059  1.00  0.00    -0.269 OA
ATOM      7  H   UNL     1       3.029   6.423  -5.811  1.00  0.00     0.163 HD
BRANCH   5   8
ATOM      8  C   UNL     1       2.923   3.178  -4.847  1.00  0.00     0.065 A 
ATOM      9  C   UNL     1       3.228   1.301  -3.286  1.00  0.00     0.074 A 
ATOM     10  C   UNL     1       3.585   2.573  -3.748  1.00  0.00     0.045 A 
ATOM     11  C   UNL     1       2.075   0.730  -3.837  1.00  0.00     0.148 A 
ATOM     12  C   UNL     1       1.425   1.291  -4.926  1.00  0.00     0.067 A 
ATOM     13  F   UNL     1       1.606  -0.433  -3.354  1.00  0.00    -0.205 F 
ATOM     14  C   UNL     1       1.924   2.450  -5.522  1.00  0.00     0.047 A 
BRANCH   9  15
ATOM     15  N   UNL     1       4.033   0.602  -2.412  1.00  0.00    -0.363 N 
ATOM     16  C   UNL     1       3.873   0.012  -0.028  1.00  0.00     0.240 C 
ATOM     17  C   UNL     1       4.369   1.059  -1.060  1.00  0.00     0.164 C 
ATOM     18  O   UNL     1       4.358  -1.319  -0.348  1.00  0.00    -0.360 OA
ATOM     19  C   UNL     1       3.909  -1.726  -1.652  1.00  0.00     0.183 C 
ATOM     20  C   UNL     1       4.428  -0.776  -2.735  1.00  0.00     0.145 C 
BRANCH  16  21
ATOM     21  C   UNL     1       4.324   0.388   1.326  1.00  0.00     0.096 C 
ATOM     22  N   UNL     1       4.668   0.689   2.391  1.00  0.00    -0.195 NA
ENDBRANCH  16  21
ENDBRANCH   9  15
BRANCH  14  23
ATOM     23  N   UNL     1       1.422   2.781  -6.774  1.00  0.00    -0.398 N 
ATOM     24  H   UNL     1       1.743   3.590  -7.235  1.00  0.00     0.156 HD
ATOM     25  H   UNL     1       0.746   2.207  -7.201  1.00  0.00     0.156 HD
ENDBRANCH  14  23
ENDBRANCH   5   8
ENDBRANCH   3   4
ENDBRANCH   2   3
ENDBRANCH   1   2
BRANCH   1  26
ATOM     26  C   UNL     1       1.064   7.727  -8.173  1.00  0.00     0.116 C 
BRANCH  26  27
ATOM     27  N   UNL     1      -0.146   7.308  -8.872  1.00  0.00    -0.352 N 
ATOM     28  C   UNL     1      -0.837   7.936  -9.886  1.00  0.00     0.251 C 
ATOM     29  H   UNL     1      -0.526   6.450  -8.575  1.00  0.00     0.163 HD
ATOM     30  O   UNL     1      -1.909   7.483 -10.273  1.00  0.00    -0.269 OA
BRANCH  28  31
ATOM     31  C   UNL     1      -0.295   9.179 -10.478  1.00  0.00     0.039 A 
ATOM     32  C   UNL     1      -1.128  10.292 -10.616  1.00  0.00     0.014 A 
ATOM     33  C   UNL     1       1.049   9.258 -10.844  1.00  0.00     0.014 A 
ATOM     34  C   UNL     1      -0.585  11.513 -11.028  1.00  0.00     0.010 A 
ATOM     35  C   UNL     1       1.606  10.495 -11.151  1.00  0.00     0.010 A 
ATOM     36  C   UNL     1       0.797  11.638 -11.249  1.00  0.00    -0.014 A 
BRANCH  36  37
ATOM     37  C   UNL     1       1.424  12.940 -11.601  1.00  0.00     0.031 A 
ATOM     38  C   UNL     1       2.173  13.078 -12.902  1.00  0.00     0.074 A 
ATOM     39  C   UNL     1       1.385  13.972 -10.732  1.00  0.00     0.049 A 
ATOM     40  N   UNL     1       2.880  14.085 -13.344  1.00  0.00    -0.248 NA
ATOM     41  C   UNL     1       2.146  11.921 -13.814  1.00  0.00     0.031 C 
ATOM     42  C   UNL     1       0.718  13.961  -9.426  1.00  0.00     0.029 A 
ATOM     43  N   UNL     1       1.928  15.232 -10.810  1.00  0.00    -0.354 N 
ATOM     44  C   UNL     1       3.387  13.680 -14.573  1.00  0.00     0.074 A 
ATOM     45  C   UNL     1       2.964  12.314 -14.779  1.00  0.00     0.031 C 
ATOM     46  C   UNL     1       0.869  15.162  -8.843  1.00  0.00     0.029 A 
ATOM     47  C   UNL     1       1.688  16.012  -9.702  1.00  0.00     0.049 A 
ATOM     48  H   UNL     1       2.442  15.548 -11.589  1.00  0.00     0.167 HD
ATOM     49  C   UNL     1       4.114  14.390 -15.467  1.00  0.00     0.031 A 
ATOM     50  C   UNL     1       2.094  17.262  -9.402  1.00  0.00     0.031 A 
ATOM     51  C   UNL     1       4.524  15.754 -15.268  1.00  0.00     0.049 A 
ATOM     52  C   UNL     1       2.948  18.011 -10.395  1.00  0.00     0.074 A 
ATOM     53  C   UNL     1       5.236  16.569 -16.131  1.00  0.00     0.029 A 
ATOM     54  N   UNL     1       4.257  16.505 -14.134  1.00  0.00    -0.354 N 
ATOM     55  N   UNL     1       3.373  17.625 -11.574  1.00  0.00    -0.248 NA
ATOM     56  C   UNL     1       3.367  19.370 -10.021  1.00  0.00     0.031 C 
ATOM     57  C   UNL     1       5.452  17.793 -15.493  1.00  0.00     0.029 A 
ATOM     58  C   UNL     1       4.805  17.768 -14.268  1.00  0.00     0.049 A 
ATOM     59  H   UNL     1       3.752  16.187 -13.351  1.00  0.00     0.167 HD
ATOM     60  C   UNL     1       4.066  18.712 -12.101  1.00  0.00     0.074 A 
ATOM     61  C   UNL     1       3.994  19.771 -11.118  1.00  0.00     0.031 C 
ATOM     62  C   UNL     1       4.701  18.823 -13.293  1.00  0.00     0.031 A 
BRANCH  49  63
ATOM     63  C   UNL     1       4.505  13.713 -16.754  1.00  0.00    -0.014 A 
ATOM     64  C   UNL     1       3.538  13.402 -17.728  1.00  0.00     0.010 A 
ATOM     65  C   UNL     1       5.860  13.458 -17.030  1.00  0.00     0.010 A 
ATOM     66  C   UNL     1       3.917  12.832 -18.945  1.00  0.00     0.020 A 
ATOM     67  C   UNL     1       6.247  12.918 -18.260  1.00  0.00     0.020 A 
ATOM     68  C   UNL     1       5.271  12.601 -19.207  1.00  0.00     0.054 A 
BRANCH  68  69
ATOM     69  S   UNL     1       5.734  11.924 -20.824  1.00  0.00     0.124 S 
ATOM     70  O   UNL     1       5.202  10.565 -20.745  1.00  0.00    -0.237 OA
ATOM     71  O   UNL     1       5.043  12.816 -21.751  1.00  0.00    -0.237 OA
ATOM     72  O   UNL     1       7.191  12.020 -20.837  1.00  0.00    -0.744 OA
ENDBRANCH  68  69
ENDBRANCH  49  63
BRANCH  50  73
ATOM     73  C   UNL     1       1.719  17.896  -8.104  1.00  0.00    -0.014 A 
ATOM     74  C   UNL     1       0.904  19.043  -8.072  1.00  0.00     0.010 A 
ATOM     75  C   UNL     1       2.218  17.386  -6.891  1.00  0.00     0.010 A 
ATOM     76  C   UNL     1       0.641  19.696  -6.863  1.00  0.00     0.020 A 
ATOM     77  C   UNL     1       1.925  18.012  -5.676  1.00  0.00     0.020 A 
ATOM     78  C   UNL     1       1.158  19.178  -5.673  1.00  0.00     0.054 A 
BRANCH  78  79
ATOM     79  S   UNL     1       0.808  20.043  -4.117  1.00  0.00     0.124 S 
ATOM     80  O   UNL     1       1.616  21.251  -4.255  1.00  0.00    -0.237 OA
ATOM     81  O   UNL     1      -0.638  20.236  -4.183  1.00  0.00    -0.237 OA
ATOM     82  O   UNL     1       1.259  19.102  -3.094  1.00  0.00    -0.744 OA
ENDBRANCH  78  79
ENDBRANCH  50  73
BRANCH  62  83
ATOM     83  C   UNL     1       5.307  20.157 -13.647  1.00  0.00    -0.014 A 
ATOM     84  C   UNL     1       6.448  20.650 -12.991  1.00  0.00     0.010 A 
ATOM     85  C   UNL     1       4.758  20.894 -14.714  1.00  0.00     0.010 A 
ATOM     86  C   UNL     1       7.012  21.869 -13.379  1.00  0.00     0.020 A 
ATOM     87  C   UNL     1       5.341  22.093 -15.128  1.00  0.00     0.020 A 
ATOM     88  C   UNL     1       6.459  22.579 -14.449  1.00  0.00     0.054 A 
BRANCH  88  89
ATOM     89  S   UNL     1       7.249  24.126 -14.971  1.00  0.00     0.124 S 
ATOM     90  O   UNL     1       6.935  25.019 -13.859  1.00  0.00    -0.237 OA
ATOM     91  O   UNL     1       8.653  23.741 -15.091  1.00  0.00    -0.237 OA
ATOM     92  O   UNL     1       6.586  24.447 -16.233  1.00  0.00    -0.744 OA
ENDBRANCH  88  89
ENDBRANCH  62  83
ENDBRANCH  36  37
ENDBRANCH  28  31
ENDBRANCH  26  27
ENDBRANCH   1  26
TORSDOF 17
