REMARK SMILES COc1cc(OC)cc(-n2nnc(C(=O)NCCCCNC(=O)c3ccc(-c4c5nc(c(-c6ccc(S(=O)(=O)[O-])cc6)c6ccc([nH]6)c(-c6ccc(S(=O)(=O)[O-])cc6)c6nc(c(-c7ccc(S(=O)(=O)[O-])cc7)c7ccc4[nH]7)C=C6)C=C5)cc3)c2C(C)(C)C)c1
REMARK SMILES IDX 19 1 18 2 17 3 16 4 14 5 15 6 13 8 10 9 11 10 84 11 12 12
REMARK SMILES IDX 9 13 3 14 4 15 89 16 5 17 8 18 2 19 1 20 6 21 7 22 85 23
REMARK SMILES IDX 86 24 87 25 88 26 20 27 21 28 22 29 23 31 24 32 25 33 83 34
REMARK SMILES IDX 26 35 82 36 27 37 28 38 29 39 76 40 30 41 81 42 75 43 77 44
REMARK SMILES IDX 31 45 80 46 74 47 73 48 32 50 62 51 43 52 61 53 44 54 47 55
REMARK SMILES IDX 60 56 78 57 45 58 46 59 59 61 79 62 48 63 33 64 34 65 42 66
REMARK SMILES IDX 35 67 41 68 36 69 37 70 38 71 39 72 40 73 63 74 64 75 72 76
REMARK SMILES IDX 65 77 71 78 66 79 67 80 68 81 69 82 70 83 49 84 50 85 58 86
REMARK SMILES IDX 51 87 57 88 52 89 53 90 54 91 55 92 56 93
REMARK H PARENT 16 7 21 30 77 49 47 60
REMARK Flexibility Score: inf
ROOT
ATOM      1  C   UNL     1       7.714  -6.167   4.178  1.00  0.00     0.023 C 
ENDROOT
BRANCH   1   2
ATOM      2  C   UNL     1       7.035  -6.139   2.803  1.00  0.00     0.023 C 
BRANCH   2   3
ATOM      3  C   UNL     1       7.424  -4.966   1.883  1.00  0.00     0.116 C 
BRANCH   3   4
ATOM      4  N   UNL     1       7.581  -5.324   0.471  1.00  0.00    -0.351 N 
ATOM      5  C   UNL     1       7.032  -5.190  -0.784  1.00  0.00     0.273 C 
ATOM      6  O   UNL     1       7.817  -5.631  -1.638  1.00  0.00    -0.267 OA
ATOM      7  H   UNL     1       8.394  -5.873   0.388  1.00  0.00     0.163 HD
BRANCH   5   8
ATOM      8  C   UNL     1       5.714  -4.681  -1.250  1.00  0.00     0.174 A 
ATOM      9  N   UNL     1       3.690  -3.997  -1.810  1.00  0.00    -0.216 N 
ATOM     10  N   UNL     1       4.260  -4.494  -2.915  1.00  0.00    -0.061 NA
ATOM     11  C   UNL     1       4.526  -4.153  -0.701  1.00  0.00     0.083 A 
ATOM     12  N   UNL     1       5.497  -4.825  -2.617  1.00  0.00    -0.124 NA
BRANCH   9  13
ATOM     13  C   UNL     1       2.316  -3.703  -1.829  1.00  0.00     0.074 A 
ATOM     14  C   UNL     1       0.578  -2.209  -1.116  1.00  0.00     0.124 A 
ATOM     15  C   UNL     1      -0.309  -3.296  -1.115  1.00  0.00     0.093 A 
ATOM     16  C   UNL     1       1.896  -2.406  -1.520  1.00  0.00     0.075 A 
ATOM     17  C   UNL     1       0.100  -4.578  -1.509  1.00  0.00     0.124 A 
ATOM     18  C   UNL     1       1.421  -4.780  -1.897  1.00  0.00     0.075 A 
BRANCH  14  19
ATOM     19  O   UNL     1       0.070  -1.048  -0.601  1.00  0.00    -0.497 OA
ATOM     20  C   UNL     1       0.980   0.032  -0.405  1.00  0.00     0.278 C 
ENDBRANCH  14  19
BRANCH  17  21
ATOM     21  O   UNL     1      -0.855  -5.552  -1.398  1.00  0.00    -0.497 OA
ATOM     22  C   UNL     1      -0.420  -6.897  -1.571  1.00  0.00     0.278 C 
ENDBRANCH  17  21
ENDBRANCH   9  13
BRANCH  11  23
ATOM     23  C   UNL     1       4.135  -3.918   0.745  1.00  0.00     0.007 C 
ATOM     24  C   UNL     1       4.218  -5.303   1.410  1.00  0.00     0.017 C 
ATOM     25  C   UNL     1       5.021  -2.764   1.258  1.00  0.00     0.017 C 
ATOM     26  C   UNL     1       2.719  -3.480   1.160  1.00  0.00     0.017 C 
ENDBRANCH  11  23
ENDBRANCH   5   8
ENDBRANCH   3   4
ENDBRANCH   2   3
ENDBRANCH   1   2
BRANCH   1  27
ATOM     27  C   UNL     1       7.584  -4.893   5.008  1.00  0.00     0.116 C 
BRANCH  27  28
ATOM     28  N   UNL     1       6.261  -4.660   5.578  1.00  0.00    -0.352 N 
ATOM     29  C   UNL     1       5.889  -3.553   6.345  1.00  0.00     0.251 C 
ATOM     30  H   UNL     1       5.571  -5.341   5.407  1.00  0.00     0.163 HD
ATOM     31  O   UNL     1       4.922  -3.568   7.067  1.00  0.00    -0.269 OA
BRANCH  29  32
ATOM     32  C   UNL     1       6.748  -2.354   6.229  1.00  0.00     0.039 A 
ATOM     33  C   UNL     1       7.425  -1.841   7.335  1.00  0.00     0.014 A 
ATOM     34  C   UNL     1       6.995  -1.873   4.946  1.00  0.00     0.014 A 
ATOM     35  C   UNL     1       8.454  -0.920   7.124  1.00  0.00     0.010 A 
ATOM     36  C   UNL     1       8.077  -1.044   4.734  1.00  0.00     0.010 A 
ATOM     37  C   UNL     1       8.816  -0.555   5.815  1.00  0.00    -0.014 A 
BRANCH  37  38
ATOM     38  C   UNL     1      10.048   0.211   5.577  1.00  0.00     0.031 A 
ATOM     39  C   UNL     1      11.296  -0.296   6.233  1.00  0.00     0.074 A 
ATOM     40  C   UNL     1      10.176   1.172   4.636  1.00  0.00     0.049 A 
ATOM     41  N   UNL     1      12.028   0.294   7.122  1.00  0.00    -0.248 NA
ATOM     42  C   UNL     1      11.759  -1.651   5.891  1.00  0.00     0.031 C 
ATOM     43  C   UNL     1       9.194   1.614   3.640  1.00  0.00     0.029 A 
ATOM     44  N   UNL     1      11.291   1.877   4.291  1.00  0.00    -0.354 N 
ATOM     45  C   UNL     1      13.142  -0.522   7.326  1.00  0.00     0.074 A 
ATOM     46  C   UNL     1      12.858  -1.760   6.641  1.00  0.00     0.031 C 
ATOM     47  C   UNL     1       9.822   2.303   2.662  1.00  0.00     0.029 A 
ATOM     48  C   UNL     1      11.199   2.518   3.063  1.00  0.00     0.049 A 
ATOM     49  H   UNL     1      12.091   1.928   4.863  1.00  0.00     0.167 HD
ATOM     50  C   UNL     1      14.299  -0.059   7.885  1.00  0.00     0.031 A 
ATOM     51  C   UNL     1      12.185   3.171   2.407  1.00  0.00     0.031 A 
ATOM     52  C   UNL     1      14.126   1.232   8.496  1.00  0.00     0.049 A 
ATOM     53  C   UNL     1      13.209   3.546   3.406  1.00  0.00     0.074 A 
ATOM     54  C   UNL     1      13.332   1.746   9.503  1.00  0.00     0.029 A 
ATOM     55  N   UNL     1      14.608   2.322   7.811  1.00  0.00    -0.354 N 
ATOM     56  N   UNL     1      12.996   4.402   4.365  1.00  0.00    -0.248 NA
ATOM     57  C   UNL     1      14.371   2.692   3.582  1.00  0.00     0.031 C 
ATOM     58  C   UNL     1      12.985   3.058   9.062  1.00  0.00     0.029 A 
ATOM     59  C   UNL     1      13.628   3.279   7.841  1.00  0.00     0.049 A 
ATOM     60  H   UNL     1      15.490   2.400   7.381  1.00  0.00     0.167 HD
ATOM     61  C   UNL     1      13.719   3.917   5.443  1.00  0.00     0.074 A 
ATOM     62  C   UNL     1      14.645   2.947   4.864  1.00  0.00     0.031 C 
ATOM     63  C   UNL     1      13.310   4.147   6.727  1.00  0.00     0.031 A 
BRANCH  50  64
ATOM     64  C   UNL     1      15.680  -0.600   7.580  1.00  0.00    -0.014 A 
ATOM     65  C   UNL     1      16.791  -0.086   8.286  1.00  0.00     0.010 A 
ATOM     66  C   UNL     1      15.960  -1.381   6.441  1.00  0.00     0.010 A 
ATOM     67  C   UNL     1      18.103  -0.275   7.829  1.00  0.00     0.020 A 
ATOM     68  C   UNL     1      17.268  -1.615   6.002  1.00  0.00     0.020 A 
ATOM     69  C   UNL     1      18.329  -1.024   6.675  1.00  0.00     0.054 A 
BRANCH  69  70
ATOM     70  S   UNL     1      20.011  -1.152   6.013  1.00  0.00     0.124 S 
ATOM     71  O   UNL     1      20.258   0.214   5.562  1.00  0.00    -0.237 OA
ATOM     72  O   UNL     1      20.775  -1.583   7.180  1.00  0.00    -0.237 OA
ATOM     73  O   UNL     1      19.884  -2.151   4.954  1.00  0.00    -0.744 OA
ENDBRANCH  69  70
ENDBRANCH  50  64
BRANCH  51  74
ATOM     74  C   UNL     1      12.407   3.281   0.948  1.00  0.00    -0.014 A 
ATOM     75  C   UNL     1      13.312   4.225   0.432  1.00  0.00     0.010 A 
ATOM     76  C   UNL     1      11.953   2.259   0.088  1.00  0.00     0.010 A 
ATOM     77  C   UNL     1      13.813   4.101  -0.872  1.00  0.00     0.020 A 
ATOM     78  C   UNL     1      12.442   2.135  -1.216  1.00  0.00     0.020 A 
ATOM     79  C   UNL     1      13.396   3.038  -1.678  1.00  0.00     0.054 A 
BRANCH  79  80
ATOM     80  S   UNL     1      14.221   2.757  -3.273  1.00  0.00     0.124 S 
ATOM     81  O   UNL     1      13.703   3.853  -4.086  1.00  0.00    -0.237 OA
ATOM     82  O   UNL     1      15.634   2.846  -2.917  1.00  0.00    -0.237 OA
ATOM     83  O   UNL     1      13.767   1.424  -3.663  1.00  0.00    -0.744 OA
ENDBRANCH  79  80
ENDBRANCH  51  74
BRANCH  63  84
ATOM     84  C   UNL     1      12.248   5.198   6.964  1.00  0.00    -0.014 A 
ATOM     85  C   UNL     1      10.962   5.151   6.390  1.00  0.00     0.010 A 
ATOM     86  C   UNL     1      12.519   6.207   7.906  1.00  0.00     0.010 A 
ATOM     87  C   UNL     1       9.991   6.109   6.715  1.00  0.00     0.020 A 
ATOM     88  C   UNL     1      11.549   7.154   8.251  1.00  0.00     0.020 A 
ATOM     89  C   UNL     1      10.294   7.109   7.643  1.00  0.00     0.054 A 
BRANCH  89  90
ATOM     90  S   UNL     1       9.023   8.327   8.083  1.00  0.00     0.124 S 
ATOM     91  O   UNL     1       8.906   9.119   6.862  1.00  0.00    -0.237 OA
ATOM     92  O   UNL     1       7.868   7.491   8.403  1.00  0.00    -0.237 OA
ATOM     93  O   UNL     1       9.600   9.034   9.226  1.00  0.00    -0.744 OA
ENDBRANCH  89  90
ENDBRANCH  63  84
ENDBRANCH  37  38
ENDBRANCH  29  32
ENDBRANCH  27  28
ENDBRANCH   1  27
TORSDOF 18
