REMARK SMILES O=C(NCCCCNC(=O)[C@@H]1C[NH2+]C[C@H]1c1ccncc1)c1ccc(-c2c3nc(c(-c4ccc(S(=O)(=O)[O-])cc4)c4ccc([nH]4)c(-c4ccc(S(=O)(=O)[O-])cc4)c4nc(c(-c5ccc(S(=O)(=O)[O-])cc5)c5ccc2[nH]5)C=C4)C=C3)cc1
REMARK SMILES IDX 4 1 3 2 1 3 2 4 22 6 23 7 81 8 24 9 80 10 25 11 26 12 27 13
REMARK SMILES IDX 74 14 28 15 79 16 73 17 75 18 29 19 78 20 72 21 71 22 30 24
REMARK SMILES IDX 60 25 41 26 59 27 42 28 45 29 58 30 76 31 43 32 44 33 57 35
REMARK SMILES IDX 77 36 46 37 31 38 32 39 40 40 33 41 39 42 34 43 35 44 36 45
REMARK SMILES IDX 37 46 38 47 61 48 62 49 70 50 63 51 69 52 64 53 65 54 66 55
REMARK SMILES IDX 67 56 68 57 47 58 48 59 56 60 49 61 55 62 50 63 51 64 52 65
REMARK SMILES IDX 53 66 54 67 5 68 6 69 7 70 8 71 9 72 10 74 11 75 12 76 15 77
REMARK SMILES IDX 13 78 14 79 16 82 17 83 21 84 18 85 20 86 19 87
REMARK H PARENT 3 5 75 23 45 34 8 73 13 80 13 81
REMARK Flexibility Score: inf
ROOT
ATOM      1  C   UNL     1       4.461   0.536  -1.446  1.00  0.00     0.116 C 
ENDROOT
BRANCH   1   2
ATOM      2  N   UNL     1       3.054   0.638  -1.091  1.00  0.00    -0.352 N 
ATOM      3  O   UNL     1       1.159   0.096   0.012  1.00  0.00    -0.269 OA
ATOM      4  C   UNL     1       2.379  -0.009  -0.081  1.00  0.00     0.251 C 
ATOM      5  H   UNL     1       2.515   1.248  -1.645  1.00  0.00     0.163 HD
BRANCH   4   6
ATOM      6  C   UNL     1       3.132  -0.859   0.869  1.00  0.00     0.039 A 
ATOM      7  C   UNL     1       4.318  -0.396   1.442  1.00  0.00     0.014 A 
ATOM      8  C   UNL     1       2.661  -2.141   1.167  1.00  0.00     0.014 A 
ATOM      9  C   UNL     1       5.104  -1.263   2.190  1.00  0.00     0.010 A 
ATOM     10  C   UNL     1       3.415  -2.985   1.991  1.00  0.00     0.010 A 
ATOM     11  C   UNL     1       4.660  -2.565   2.481  1.00  0.00    -0.014 A 
BRANCH  11  12
ATOM     12  C   UNL     1       5.504  -3.426   3.350  1.00  0.00     0.031 A 
ATOM     13  C   UNL     1       6.160  -4.674   2.824  1.00  0.00     0.074 A 
ATOM     14  C   UNL     1       5.738  -3.020   4.614  1.00  0.00     0.049 A 
ATOM     15  N   UNL     1       7.006  -5.470   3.429  1.00  0.00    -0.248 NA
ATOM     16  C   UNL     1       5.825  -5.088   1.453  1.00  0.00     0.031 C 
ATOM     17  C   UNL     1       5.139  -1.837   5.242  1.00  0.00     0.029 A 
ATOM     18  N   UNL     1       6.566  -3.524   5.582  1.00  0.00    -0.354 N 
ATOM     19  C   UNL     1       7.297  -6.482   2.522  1.00  0.00     0.074 A 
ATOM     20  C   UNL     1       6.517  -6.214   1.332  1.00  0.00     0.031 C 
ATOM     21  C   UNL     1       5.670  -1.670   6.461  1.00  0.00     0.029 A 
ATOM     22  C   UNL     1       6.604  -2.759   6.723  1.00  0.00     0.049 A 
ATOM     23  H   UNL     1       7.084  -4.354   5.470  1.00  0.00     0.167 HD
ATOM     24  C   UNL     1       8.140  -7.534   2.665  1.00  0.00     0.031 A 
ATOM     25  C   UNL     1       7.310  -2.911   7.859  1.00  0.00     0.031 A 
ATOM     26  C   UNL     1       8.914  -7.799   3.852  1.00  0.00     0.049 A 
ATOM     27  C   UNL     1       8.249  -4.074   7.983  1.00  0.00     0.074 A 
ATOM     28  C   UNL     1       9.795  -8.840   4.092  1.00  0.00     0.029 A 
ATOM     29  N   UNL     1       8.904  -7.015   4.996  1.00  0.00    -0.354 N 
ATOM     30  N   UNL     1       8.513  -5.012   7.106  1.00  0.00    -0.248 NA
ATOM     31  C   UNL     1       8.984  -4.197   9.247  1.00  0.00     0.031 C 
ATOM     32  C   UNL     1      10.293  -8.703   5.393  1.00  0.00     0.029 A 
ATOM     33  C   UNL     1       9.756  -7.553   5.947  1.00  0.00     0.049 A 
ATOM     34  H   UNL     1       8.371  -6.196   5.114  1.00  0.00     0.167 HD
ATOM     35  C   UNL     1       9.443  -5.843   7.716  1.00  0.00     0.074 A 
ATOM     36  C   UNL     1       9.724  -5.273   9.019  1.00  0.00     0.031 C 
ATOM     37  C   UNL     1      10.005  -6.984   7.246  1.00  0.00     0.031 A 
BRANCH  24  38
ATOM     38  C   UNL     1       8.266  -8.492   1.510  1.00  0.00    -0.014 A 
ATOM     39  C   UNL     1       8.990  -8.143   0.356  1.00  0.00     0.010 A 
ATOM     40  C   UNL     1       7.709  -9.781   1.604  1.00  0.00     0.010 A 
ATOM     41  C   UNL     1       9.133  -9.055  -0.693  1.00  0.00     0.020 A 
ATOM     42  C   UNL     1       7.867 -10.703   0.565  1.00  0.00     0.020 A 
ATOM     43  C   UNL     1       8.567 -10.329  -0.584  1.00  0.00     0.054 A 
BRANCH  43  44
ATOM     44  S   UNL     1       8.796 -11.506  -1.946  1.00  0.00     0.124 S 
ATOM     45  O   UNL     1       7.865 -10.990  -2.948  1.00  0.00    -0.237 OA
ATOM     46  O   UNL     1      10.212 -11.354  -2.269  1.00  0.00    -0.237 OA
ATOM     47  O   UNL     1       8.429 -12.792  -1.359  1.00  0.00    -0.744 OA
ENDBRANCH  43  44
ENDBRANCH  24  38
BRANCH  25  48
ATOM     48  C   UNL     1       7.134  -1.939   8.969  1.00  0.00    -0.014 A 
ATOM     49  C   UNL     1       8.148  -1.022   9.292  1.00  0.00     0.010 A 
ATOM     50  C   UNL     1       5.925  -1.909   9.689  1.00  0.00     0.010 A 
ATOM     51  C   UNL     1       7.963  -0.101  10.327  1.00  0.00     0.020 A 
ATOM     52  C   UNL     1       5.726  -0.972  10.704  1.00  0.00     0.020 A 
ATOM     53  C   UNL     1       6.752  -0.082  11.026  1.00  0.00     0.054 A 
BRANCH  53  54
ATOM     54  S   UNL     1       6.499   1.158  12.326  1.00  0.00     0.124 S 
ATOM     55  O   UNL     1       7.191   0.553  13.459  1.00  0.00    -0.237 OA
ATOM     56  O   UNL     1       7.130   2.349  11.760  1.00  0.00    -0.237 OA
ATOM     57  O   UNL     1       5.045   1.233  12.443  1.00  0.00    -0.744 OA
ENDBRANCH  53  54
ENDBRANCH  25  48
BRANCH  37  58
ATOM     58  C   UNL     1      10.975  -7.683   8.157  1.00  0.00    -0.014 A 
ATOM     59  C   UNL     1      10.520  -8.390   9.285  1.00  0.00     0.010 A 
ATOM     60  C   UNL     1      12.353  -7.633   7.885  1.00  0.00     0.010 A 
ATOM     61  C   UNL     1      11.432  -8.996  10.152  1.00  0.00     0.020 A 
ATOM     62  C   UNL     1      13.266  -8.257   8.738  1.00  0.00     0.020 A 
ATOM     63  C   UNL     1      12.800  -8.917   9.878  1.00  0.00     0.054 A 
BRANCH  63  64
ATOM     64  S   UNL     1      13.969  -9.713  11.014  1.00  0.00     0.124 S 
ATOM     65  O   UNL     1      14.032  -8.748  12.108  1.00  0.00    -0.237 OA
ATOM     66  O   UNL     1      13.307 -10.977  11.328  1.00  0.00    -0.237 OA
ATOM     67  O   UNL     1      15.190  -9.837  10.220  1.00  0.00    -0.744 OA
ENDBRANCH  63  64
ENDBRANCH  37  58
ENDBRANCH  11  12
ENDBRANCH   4   6
ENDBRANCH   1   2
BRANCH   1  68
ATOM     68  C   UNL     1       4.705   0.514  -2.950  1.00  0.00     0.023 C 
BRANCH  68  69
ATOM     69  C   UNL     1       4.243   1.761  -3.710  1.00  0.00     0.023 C 
BRANCH  69  70
ATOM     70  C   UNL     1       4.809   3.078  -3.182  1.00  0.00     0.116 C 
BRANCH  70  71
ATOM     71  N   UNL     1       6.256   3.122  -3.302  1.00  0.00    -0.356 N 
ATOM     72  C   UNL     1       7.050   3.826  -4.155  1.00  0.00     0.229 C 
ATOM     73  H   UNL     1       6.741   2.551  -2.663  1.00  0.00     0.163 HD
ATOM     74  O   UNL     1       8.269   3.678  -4.063  1.00  0.00    -0.275 OA
BRANCH  72  75
ATOM     75  C   UNL     1       6.435   4.802  -5.138  1.00  0.00     0.146 C 
ATOM     76  C   UNL     1       7.047   4.618  -6.518  1.00  0.00     0.274 C 
ATOM     77  C   UNL     1       6.805   6.259  -4.809  1.00  0.00     0.092 C 
ATOM     78  N   UNL     1       6.708   5.867  -7.216  1.00  0.00    -0.345 N 
ATOM     79  C   UNL     1       6.882   6.925  -6.202  1.00  0.00     0.269 C 
ATOM     80  H   UNL     1       5.743   5.842  -7.547  1.00  0.00     0.346 HD
ATOM     81  H   UNL     1       7.293   6.020  -8.037  1.00  0.00     0.346 HD
BRANCH  77  82
ATOM     82  C   UNL     1       5.916   6.878  -3.745  1.00  0.00    -0.035 A 
ATOM     83  C   UNL     1       6.096   6.487  -2.408  1.00  0.00     0.024 A 
ATOM     84  C   UNL     1       4.923   7.827  -4.001  1.00  0.00     0.024 A 
ATOM     85  C   UNL     1       5.288   7.028  -1.419  1.00  0.00     0.111 A 
ATOM     86  C   UNL     1       4.175   8.327  -2.941  1.00  0.00     0.111 A 
ATOM     87  N   UNL     1       4.328   7.942  -1.658  1.00  0.00    -0.265 NA
ENDBRANCH  77  82
ENDBRANCH  72  75
ENDBRANCH  70  71
ENDBRANCH  69  70
ENDBRANCH  68  69
ENDBRANCH   1  68
TORSDOF 15
