REMARK SMILES Cc1c(NC(=O)c2cccc(-c3cc4ccccc4oc3=O)c2)cccc1C(=O)NCCCCNC(=O)c1ccc(-c2c3nc(c(-c4ccc(S(=O)(=O)[O-])cc4)c4ccc([nH]4)c(-c4ccc(S(=O)(=O)[O-])cc4)c4nc(c(-c5ccc(S(=O)(=O)[O-])cc5)c5ccc2[nH]5)C=C4)C=C3)cc1
REMARK SMILES IDX 32 1 31 2 30 3 28 4 29 5 27 7 1 8 2 9 3 10 24 11 26 12 25 13
REMARK SMILES IDX 4 14 5 15 6 17 7 18 8 19 23 20 9 21 11 22 10 23 12 24 13 25
REMARK SMILES IDX 21 26 14 27 20 28 22 29 15 30 19 31 16 32 18 33 17 34 33 35
REMARK SMILES IDX 34 36 35 37 36 38 37 40 38 41 39 42 97 43 40 44 96 45 41 46
REMARK SMILES IDX 42 47 43 48 90 49 44 50 95 51 89 52 91 53 45 54 94 55 88 56
REMARK SMILES IDX 87 57 46 59 76 60 57 61 75 62 58 63 61 64 74 65 92 66 59 67
REMARK SMILES IDX 60 68 73 70 93 71 62 72 47 73 48 74 56 75 49 76 55 77 50 78
REMARK SMILES IDX 51 79 52 80 53 81 54 82 77 83 78 84 86 85 79 86 85 87 80 88
REMARK SMILES IDX 81 89 82 90 83 91 84 92 63 93 64 94 72 95 65 96 71 97 66 98
REMARK SMILES IDX 67 99 68 100 69 101 70 102
REMARK H PARENT 30 6 4 16 35 39 91 58 61 69
REMARK Flexibility Score: inf
ROOT
ATOM      1  C   UNL     1       4.258   1.261  -0.951  1.00  0.00     0.023 C 
ENDROOT
BRANCH   1   2
ATOM      2  C   UNL     1       3.670   1.776   0.379  1.00  0.00     0.116 C 
BRANCH   2   3
ATOM      3  N   UNL     1       2.382   2.424   0.186  1.00  0.00    -0.352 N 
ATOM      4  C   UNL     1       1.053   2.126   0.294  1.00  0.00     0.251 C 
ATOM      5  O   UNL     1       0.334   3.099   0.010  1.00  0.00    -0.269 OA
ATOM      6  H   UNL     1       2.505   3.354  -0.111  1.00  0.00     0.163 HD
BRANCH   4   7
ATOM      7  C   UNL     1       0.338   0.838   0.661  1.00  0.00     0.044 A 
ATOM      8  C   UNL     1       2.158  -0.940   0.315  1.00  0.00     0.047 C 
ATOM      9  C   UNL     1       0.764  -0.514   0.650  1.00  0.00    -0.015 A 
ATOM     10  C   UNL     1      -0.187  -1.558   0.882  1.00  0.00     0.045 A 
ATOM     11  C   UNL     1      -1.532  -1.274   1.118  1.00  0.00     0.026 A 
ATOM     12  C   UNL     1      -1.040   1.065   0.931  1.00  0.00     0.014 A 
ATOM     13  C   UNL     1      -1.961   0.039   1.143  1.00  0.00     0.003 A 
BRANCH  10  14
ATOM     14  N   UNL     1       0.254  -2.896   0.904  1.00  0.00    -0.322 N 
ATOM     15  C   UNL     1      -0.343  -4.067   0.503  1.00  0.00     0.255 C 
ATOM     16  H   UNL     1       1.157  -3.013   1.276  1.00  0.00     0.170 HD
ATOM     17  O   UNL     1       0.123  -5.135   0.905  1.00  0.00    -0.269 OA
BRANCH  15  18
ATOM     18  C   UNL     1      -1.446  -4.113  -0.500  1.00  0.00     0.040 A 
ATOM     19  C   UNL     1      -2.235  -5.269  -0.544  1.00  0.00     0.014 A 
ATOM     20  C   UNL     1      -1.628  -3.131  -1.484  1.00  0.00     0.022 A 
ATOM     21  C   UNL     1      -3.215  -5.423  -1.524  1.00  0.00     0.001 A 
ATOM     22  C   UNL     1      -2.621  -3.264  -2.470  1.00  0.00    -0.010 A 
ATOM     23  C   UNL     1      -3.411  -4.422  -2.475  1.00  0.00     0.009 A 
BRANCH  22  24
ATOM     24  C   UNL     1      -2.801  -2.298  -3.586  1.00  0.00     0.068 A 
ATOM     25  C   UNL     1      -2.651  -0.963  -3.438  1.00  0.00     0.028 A 
ATOM     26  C   UNL     1      -2.227  -2.753  -4.893  1.00  0.00     0.344 A 
ATOM     27  C   UNL     1      -1.236  -0.541  -3.546  1.00  0.00     0.018 A 
ATOM     28  O   UNL     1      -0.882  -2.419  -5.057  1.00  0.00    -0.422 OA
ATOM     29  O   UNL     1      -2.861  -3.429  -5.694  1.00  0.00    -0.246 OA
ATOM     30  C   UNL     1      -0.743   0.590  -2.905  1.00  0.00     0.012 A 
ATOM     31  C   UNL     1      -0.368  -1.350  -4.292  1.00  0.00     0.138 A 
ATOM     32  C   UNL     1       0.624   0.867  -2.974  1.00  0.00     0.001 A 
ATOM     33  C   UNL     1       0.998  -1.107  -4.328  1.00  0.00     0.048 A 
ATOM     34  C   UNL     1       1.494   0.006  -3.655  1.00  0.00     0.004 A 
ENDBRANCH  22  24
ENDBRANCH  15  18
ENDBRANCH  10  14
ENDBRANCH   4   7
ENDBRANCH   2   3
ENDBRANCH   1   2
BRANCH   1  35
ATOM     35  C   UNL     1       4.990   2.298  -1.804  1.00  0.00     0.023 C 
BRANCH  35  36
ATOM     36  C   UNL     1       6.316   2.708  -1.192  1.00  0.00     0.116 C 
BRANCH  36  37
ATOM     37  N   UNL     1       7.504   2.166  -1.833  1.00  0.00    -0.352 N 
ATOM     38  C   UNL     1       8.820   2.448  -1.494  1.00  0.00     0.251 C 
ATOM     39  H   UNL     1       7.361   1.540  -2.580  1.00  0.00     0.163 HD
ATOM     40  O   UNL     1       9.757   2.242  -2.256  1.00  0.00    -0.269 OA
BRANCH  38  41
ATOM     41  C   UNL     1       9.063   2.874  -0.097  1.00  0.00     0.039 A 
ATOM     42  C   UNL     1       9.668   1.937   0.749  1.00  0.00     0.014 A 
ATOM     43  C   UNL     1       8.368   3.963   0.420  1.00  0.00     0.014 A 
ATOM     44  C   UNL     1       9.393   1.970   2.113  1.00  0.00     0.010 A 
ATOM     45  C   UNL     1       7.991   3.915   1.747  1.00  0.00     0.010 A 
ATOM     46  C   UNL     1       8.461   2.891   2.586  1.00  0.00    -0.014 A 
BRANCH  46  47
ATOM     47  C   UNL     1       7.851   2.832   3.913  1.00  0.00     0.031 A 
ATOM     48  C   UNL     1       8.143   3.903   4.897  1.00  0.00     0.074 A 
ATOM     49  C   UNL     1       6.929   1.885   4.207  1.00  0.00     0.049 A 
ATOM     50  N   UNL     1       7.934   3.816   6.168  1.00  0.00    -0.248 NA
ATOM     51  C   UNL     1       8.775   5.163   4.512  1.00  0.00     0.031 C 
ATOM     52  C   UNL     1       5.979   1.912   5.318  1.00  0.00     0.029 A 
ATOM     53  N   UNL     1       6.793   0.595   3.688  1.00  0.00    -0.354 N 
ATOM     54  C   UNL     1       8.073   5.082   6.695  1.00  0.00     0.074 A 
ATOM     55  C   UNL     1       8.711   5.849   5.654  1.00  0.00     0.031 C 
ATOM     56  C   UNL     1       5.605   0.655   5.595  1.00  0.00     0.029 A 
ATOM     57  C   UNL     1       6.413  -0.224   4.767  1.00  0.00     0.049 A 
ATOM     58  H   UNL     1       6.936   0.314   2.755  1.00  0.00     0.167 HD
ATOM     59  C   UNL     1       7.486   5.382   7.890  1.00  0.00     0.031 A 
ATOM     60  C   UNL     1       7.142  -1.283   5.227  1.00  0.00     0.031 A 
ATOM     61  C   UNL     1       6.980   4.179   8.553  1.00  0.00     0.049 A 
ATOM     62  C   UNL     1       7.532  -1.149   6.685  1.00  0.00     0.074 A 
ATOM     63  C   UNL     1       5.712   3.648   8.723  1.00  0.00     0.029 A 
ATOM     64  N   UNL     1       7.877   3.180   8.919  1.00  0.00    -0.354 N 
ATOM     65  N   UNL     1       7.420  -0.041   7.365  1.00  0.00    -0.248 NA
ATOM     66  C   UNL     1       8.126  -2.224   7.478  1.00  0.00     0.031 C 
ATOM     67  C   UNL     1       5.857   2.284   9.094  1.00  0.00     0.029 A 
ATOM     68  C   UNL     1       7.208   2.001   9.185  1.00  0.00     0.049 A 
ATOM     69  H   UNL     1       8.852   3.298   8.981  1.00  0.00     0.167 HD
ATOM     70  C   UNL     1       7.917  -0.218   8.628  1.00  0.00     0.074 A 
ATOM     71  C   UNL     1       8.334  -1.608   8.657  1.00  0.00     0.031 C 
ATOM     72  C   UNL     1       7.955   0.799   9.538  1.00  0.00     0.031 A 
BRANCH  59  73
ATOM     73  C   UNL     1       7.106   6.794   8.308  1.00  0.00    -0.014 A 
ATOM     74  C   UNL     1       6.098   6.987   9.277  1.00  0.00     0.010 A 
ATOM     75  C   UNL     1       7.616   7.969   7.723  1.00  0.00     0.010 A 
ATOM     76  C   UNL     1       5.567   8.257   9.565  1.00  0.00     0.020 A 
ATOM     77  C   UNL     1       7.085   9.241   7.982  1.00  0.00     0.020 A 
ATOM     78  C   UNL     1       6.046   9.377   8.891  1.00  0.00     0.054 A 
BRANCH  78  79
ATOM     79  S   UNL     1       5.297  10.997   9.194  1.00  0.00     0.124 S 
ATOM     80  O   UNL     1       3.900  10.770   8.833  1.00  0.00    -0.237 OA
ATOM     81  O   UNL     1       5.558  11.203  10.616  1.00  0.00    -0.237 OA
ATOM     82  O   UNL     1       6.027  11.890   8.295  1.00  0.00    -0.744 OA
ENDBRANCH  78  79
ENDBRANCH  59  73
BRANCH  60  83
ATOM     83  C   UNL     1       7.942  -1.976   4.182  1.00  0.00    -0.014 A 
ATOM     84  C   UNL     1       7.225  -2.723   3.223  1.00  0.00     0.010 A 
ATOM     85  C   UNL     1       9.239  -1.529   3.871  1.00  0.00     0.010 A 
ATOM     86  C   UNL     1       7.702  -2.836   1.916  1.00  0.00     0.020 A 
ATOM     87  C   UNL     1       9.721  -1.649   2.560  1.00  0.00     0.020 A 
ATOM     88  C   UNL     1       8.910  -2.228   1.579  1.00  0.00     0.054 A 
BRANCH  88  89
ATOM     89  S   UNL     1       9.282  -2.004  -0.188  1.00  0.00     0.124 S 
ATOM     90  O   UNL     1       9.201  -3.367  -0.702  1.00  0.00    -0.237 OA
ATOM     91  O   UNL     1       8.202  -1.108  -0.601  1.00  0.00    -0.237 OA
ATOM     92  O   UNL     1      10.616  -1.412  -0.174  1.00  0.00    -0.744 OA
ENDBRANCH  88  89
ENDBRANCH  60  83
BRANCH  72  93
ATOM     93  C   UNL     1       8.640   0.754  10.881  1.00  0.00    -0.014 A 
ATOM     94  C   UNL     1       9.743  -0.062  11.176  1.00  0.00     0.010 A 
ATOM     95  C   UNL     1       8.243   1.683  11.874  1.00  0.00     0.010 A 
ATOM     96  C   UNL     1      10.381   0.002  12.424  1.00  0.00     0.020 A 
ATOM     97  C   UNL     1       8.898   1.785  13.104  1.00  0.00     0.020 A 
ATOM     98  C   UNL     1       9.952   0.923  13.382  1.00  0.00     0.054 A 
BRANCH  98  99
ATOM     99  S   UNL     1      10.820   1.050  14.966  1.00  0.00     0.124 S 
ATOM    100  O   UNL     1      10.101   0.075  15.781  1.00  0.00    -0.237 OA
ATOM    101  O   UNL     1      12.193   0.685  14.619  1.00  0.00    -0.237 OA
ATOM    102  O   UNL     1      10.633   2.447  15.346  1.00  0.00    -0.744 OA
ENDBRANCH  98  99
ENDBRANCH  72  93
ENDBRANCH  46  47
ENDBRANCH  38  41
ENDBRANCH  36  37
ENDBRANCH  35  36
ENDBRANCH   1  35
TORSDOF 17
