REMARK SMILES O=C(NCCCCNC(=O)[C@H]1CCCN1S(=O)(=O)c1ccccc1Cl)c1ccc(-c2c3nc(c(-c4ccc(S(=O)(=O)[O-])cc4)c4ccc([nH]4)c(-c4ccc(S(=O)(=O)[O-])cc4)c4nc(c(-c5ccc(S(=O)(=O)[O-])cc5)c5ccc2[nH]5)C=C4)C=C3)cc1
REMARK SMILES IDX 5 1 4 2 3 3 1 4 2 5 26 7 27 8 85 9 28 10 84 11 29 12 30 13
REMARK SMILES IDX 31 14 78 15 32 16 83 17 77 18 79 19 33 20 82 21 76 22 75 23
REMARK SMILES IDX 34 25 64 26 45 27 63 28 46 29 49 30 62 31 80 32 47 33 48 34
REMARK SMILES IDX 61 36 81 37 50 38 35 39 36 40 44 41 37 42 43 43 38 44 39 45
REMARK SMILES IDX 40 46 41 47 42 48 65 49 66 50 74 51 67 52 73 53 68 54 69 55
REMARK SMILES IDX 70 56 71 57 72 58 51 59 52 60 60 61 53 62 59 63 54 64 55 65
REMARK SMILES IDX 56 66 57 67 58 68 6 69 7 70 8 71 9 72 10 74 11 75 12 76
REMARK SMILES IDX 15 77 13 78 14 79 16 80 17 81 18 82 19 83 20 84 24 85 21 86
REMARK SMILES IDX 23 87 25 88 22 89
REMARK H PARENT 3 6 79 24 49 35 8 73
REMARK Flexibility Score: inf
ROOT
ATOM      1  C   UNL     1      10.620  -1.251  -6.366  1.00  0.00     0.023 C 
ENDROOT
BRANCH   1   2
ATOM      2  C   UNL     1      11.903  -0.436  -6.259  1.00  0.00     0.116 C 
BRANCH   2   3
ATOM      3  N   UNL     1      12.427  -0.366  -4.902  1.00  0.00    -0.352 N 
ATOM      4  O   UNL     1      13.976  -0.582  -3.274  1.00  0.00    -0.269 OA
ATOM      5  C   UNL     1      13.722  -0.546  -4.473  1.00  0.00     0.251 C 
ATOM      6  H   UNL     1      11.768  -0.163  -4.199  1.00  0.00     0.163 HD
BRANCH   5   7
ATOM      7  C   UNL     1      14.792  -0.729  -5.476  1.00  0.00     0.039 A 
ATOM      8  C   UNL     1      14.874   0.128  -6.576  1.00  0.00     0.014 A 
ATOM      9  C   UNL     1      15.690  -1.790  -5.338  1.00  0.00     0.014 A 
ATOM     10  C   UNL     1      15.751  -0.168  -7.611  1.00  0.00     0.010 A 
ATOM     11  C   UNL     1      16.633  -2.033  -6.341  1.00  0.00     0.010 A 
ATOM     12  C   UNL     1      16.648  -1.244  -7.502  1.00  0.00    -0.014 A 
BRANCH  12  13
ATOM     13  C   UNL     1      17.624  -1.480  -8.597  1.00  0.00     0.031 A 
ATOM     14  C   UNL     1      17.582  -2.732  -9.430  1.00  0.00     0.074 A 
ATOM     15  C   UNL     1      18.527  -0.516  -8.866  1.00  0.00     0.049 A 
ATOM     16  N   UNL     1      18.338  -3.067 -10.445  1.00  0.00    -0.248 NA
ATOM     17  C   UNL     1      16.566  -3.739  -9.083  1.00  0.00     0.031 C 
ATOM     18  C   UNL     1      18.665   0.741  -8.123  1.00  0.00     0.029 A 
ATOM     19  N   UNL     1      19.478  -0.424  -9.849  1.00  0.00    -0.354 N 
ATOM     20  C   UNL     1      17.901  -4.322 -10.852  1.00  0.00     0.074 A 
ATOM     21  C   UNL     1      16.831  -4.704  -9.955  1.00  0.00     0.031 C 
ATOM     22  C   UNL     1      19.604   1.498  -8.708  1.00  0.00     0.029 A 
ATOM     23  C   UNL     1      20.180   0.757  -9.823  1.00  0.00     0.049 A 
ATOM     24  H   UNL     1      19.642  -1.135 -10.509  1.00  0.00     0.167 HD
ATOM     25  C   UNL     1      18.347  -5.083 -11.882  1.00  0.00     0.031 A 
ATOM     26  C   UNL     1      21.190   1.195 -10.597  1.00  0.00     0.031 A 
ATOM     27  C   UNL     1      19.418  -4.700 -12.766  1.00  0.00     0.049 A 
ATOM     28  C   UNL     1      21.684   0.318 -11.710  1.00  0.00     0.074 A 
ATOM     29  C   UNL     1      19.943  -5.402 -13.838  1.00  0.00     0.029 A 
ATOM     30  N   UNL     1      20.129  -3.512 -12.683  1.00  0.00    -0.354 N 
ATOM     31  N   UNL     1      21.249  -0.862 -12.081  1.00  0.00    -0.248 NA
ATOM     32  C   UNL     1      22.805   0.831 -12.508  1.00  0.00     0.031 C 
ATOM     33  C   UNL     1      20.998  -4.657 -14.377  1.00  0.00     0.029 A 
ATOM     34  C   UNL     1      21.096  -3.467 -13.675  1.00  0.00     0.049 A 
ATOM     35  H   UNL     1      19.970  -2.804 -12.017  1.00  0.00     0.167 HD
ATOM     36  C   UNL     1      22.036  -1.228 -13.166  1.00  0.00     0.074 A 
ATOM     37  C   UNL     1      22.953  -0.133 -13.406  1.00  0.00     0.031 C 
ATOM     38  C   UNL     1      22.005  -2.371 -13.894  1.00  0.00     0.031 A 
BRANCH  25  39
ATOM     39  C   UNL     1      17.686  -6.419 -12.103  1.00  0.00    -0.014 A 
ATOM     40  C   UNL     1      16.385  -6.506 -12.630  1.00  0.00     0.010 A 
ATOM     41  C   UNL     1      18.395  -7.605 -11.836  1.00  0.00     0.010 A 
ATOM     42  C   UNL     1      15.792  -7.753 -12.853  1.00  0.00     0.020 A 
ATOM     43  C   UNL     1      17.815  -8.854 -12.080  1.00  0.00     0.020 A 
ATOM     44  C   UNL     1      16.510  -8.919 -12.573  1.00  0.00     0.054 A 
BRANCH  44  45
ATOM     45  S   UNL     1      15.725 -10.523 -12.895  1.00  0.00     0.124 S 
ATOM     46  O   UNL     1      14.754 -10.605 -11.806  1.00  0.00    -0.237 OA
ATOM     47  O   UNL     1      15.157 -10.342 -14.228  1.00  0.00    -0.237 OA
ATOM     48  O   UNL     1      16.831 -11.474 -12.816  1.00  0.00    -0.744 OA
ENDBRANCH  44  45
ENDBRANCH  25  39
BRANCH  26  49
ATOM     49  C   UNL     1      21.813   2.516 -10.321  1.00  0.00    -0.014 A 
ATOM     50  C   UNL     1      21.653   3.590 -11.214  1.00  0.00     0.010 A 
ATOM     51  C   UNL     1      22.561   2.709  -9.144  1.00  0.00     0.010 A 
ATOM     52  C   UNL     1      22.249   4.825 -10.945  1.00  0.00     0.020 A 
ATOM     53  C   UNL     1      23.131   3.950  -8.857  1.00  0.00     0.020 A 
ATOM     54  C   UNL     1      22.985   4.997  -9.768  1.00  0.00     0.054 A 
BRANCH  54  55
ATOM     55  S   UNL     1      23.716   6.619  -9.417  1.00  0.00     0.124 S 
ATOM     56  O   UNL     1      24.879   6.622 -10.299  1.00  0.00    -0.237 OA
ATOM     57  O   UNL     1      22.641   7.538  -9.780  1.00  0.00    -0.237 OA
ATOM     58  O   UNL     1      24.013   6.555  -7.987  1.00  0.00    -0.744 OA
ENDBRANCH  54  55
ENDBRANCH  26  49
BRANCH  38  59
ATOM     59  C   UNL     1      22.980  -2.477 -15.035  1.00  0.00    -0.014 A 
ATOM     60  C   UNL     1      24.353  -2.675 -14.802  1.00  0.00     0.010 A 
ATOM     61  C   UNL     1      22.511  -2.399 -16.359  1.00  0.00     0.010 A 
ATOM     62  C   UNL     1      25.246  -2.752 -15.873  1.00  0.00     0.020 A 
ATOM     63  C   UNL     1      23.398  -2.503 -17.433  1.00  0.00     0.020 A 
ATOM     64  C   UNL     1      24.763  -2.661 -17.182  1.00  0.00     0.054 A 
BRANCH  64  65
ATOM     65  S   UNL     1      25.937  -2.789 -18.558  1.00  0.00     0.124 S 
ATOM     66  O   UNL     1      26.579  -1.478 -18.532  1.00  0.00    -0.237 OA
ATOM     67  O   UNL     1      26.782  -3.911 -18.157  1.00  0.00    -0.237 OA
ATOM     68  O   UNL     1      25.084  -3.044 -19.718  1.00  0.00    -0.744 OA
ENDBRANCH  64  65
ENDBRANCH  38  59
ENDBRANCH  12  13
ENDBRANCH   5   7
ENDBRANCH   2   3
ENDBRANCH   1   2
BRANCH   1  69
ATOM     69  C   UNL     1       9.456  -0.745  -5.513  1.00  0.00     0.023 C 
BRANCH  69  70
ATOM     70  C   UNL     1       9.057   0.702  -5.782  1.00  0.00     0.116 C 
BRANCH  70  71
ATOM     71  N   UNL     1       8.461   0.859  -7.093  1.00  0.00    -0.355 N 
ATOM     72  C   UNL     1       7.235   1.332  -7.457  1.00  0.00     0.238 C 
ATOM     73  H   UNL     1       9.035   0.579  -7.843  1.00  0.00     0.163 HD
ATOM     74  O   UNL     1       6.977   1.347  -8.664  1.00  0.00    -0.273 OA
BRANCH  72  75
ATOM     75  C   UNL     1       6.232   1.824  -6.397  1.00  0.00     0.162 C 
ATOM     76  C   UNL     1       5.627   3.157  -6.820  1.00  0.00     0.032 C 
ATOM     77  N   UNL     1       5.065   0.891  -6.317  1.00  0.00    -0.185 NA
ATOM     78  C   UNL     1       4.480   2.783  -7.739  1.00  0.00     0.019 C 
ATOM     79  C   UNL     1       4.112   1.345  -7.386  1.00  0.00     0.103 C 
BRANCH  77  80
ATOM     80  S   UNL     1       4.317   0.694  -4.794  1.00  0.00     0.245 S 
ATOM     81  O   UNL     1       4.097   2.009  -4.226  1.00  0.00    -0.207 OA
ATOM     82  O   UNL     1       3.185  -0.187  -4.991  1.00  0.00    -0.207 OA
BRANCH  80  83
ATOM     83  C   UNL     1       5.494  -0.210  -3.814  1.00  0.00     0.101 A 
ATOM     84  C   UNL     1       5.388  -1.615  -3.841  1.00  0.00     0.023 A 
ATOM     85  C   UNL     1       6.414   0.387  -2.948  1.00  0.00     0.061 A 
ATOM     86  C   UNL     1       6.216  -2.411  -3.049  1.00  0.00     0.002 A 
ATOM     87  C   UNL     1       7.266  -0.425  -2.183  1.00  0.00     0.022 A 
ATOM     88  Cl  UNL     1       6.624   2.086  -2.726  1.00  0.00    -0.083 Cl
ATOM     89  C   UNL     1       7.168  -1.816  -2.230  1.00  0.00     0.002 A 
ENDBRANCH  80  83
ENDBRANCH  77  80
ENDBRANCH  72  75
ENDBRANCH  70  71
ENDBRANCH  69  70
ENDBRANCH   1  69
TORSDOF 16
