REMARK SMILES C[C@@H]1[C@H](C(=O)NCCCCNC(=O)c2ccc(-c3c4nc(c(-c5ccc(S(=O)(=O)[O-])cc5)c5ccc([nH]5)c(-c5ccc(S(=O)(=O)[O-])cc5)c5nc(c(-c6ccc(S(=O)(=O)[O-])cc6)c6ccc3[nH]6)C=C5)C=C4)cc2)CCN1C(=O)c1ccc([N+](=O)[O-])c(F)c1
REMARK SMILES IDX 8 1 7 2 6 3 4 4 5 5 3 7 1 8 2 9 76 10 74 11 75 12 77 13
REMARK SMILES IDX 78 14 79 15 80 16 88 17 81 18 86 19 82 20 87 21 83 22 84 23
REMARK SMILES IDX 85 24 9 25 10 26 11 27 12 28 13 30 14 31 15 32 73 33 16 34
REMARK SMILES IDX 72 35 17 36 18 37 19 38 66 39 20 40 71 41 65 42 67 43 21 44
REMARK SMILES IDX 70 45 64 46 63 47 22 49 52 50 33 51 51 52 34 53 37 54 50 55
REMARK SMILES IDX 68 56 35 57 36 58 49 60 69 61 38 62 23 63 24 64 32 65 25 66
REMARK SMILES IDX 31 67 26 68 27 69 28 70 29 71 30 72 53 73 54 74 62 75 55 76
REMARK SMILES IDX 61 77 56 78 57 79 58 80 59 81 60 82 39 83 40 84 48 85 41 86
REMARK SMILES IDX 47 87 42 88 43 89 44 90 45 91 46 92
REMARK H PARENT 6 6 11 29 67 48 37 59
REMARK Flexibility Score: inf
ROOT
ATOM      1  C   UNL     1       2.834   1.129   2.423  1.00  0.00     0.023 C 
ENDROOT
BRANCH   1   2
ATOM      2  C   UNL     1       1.376   1.463   2.102  1.00  0.00     0.116 C 
BRANCH   2   3
ATOM      3  N   UNL     1       1.249   2.393   0.994  1.00  0.00    -0.356 N 
ATOM      4  C   UNL     1       0.640   2.286  -0.216  1.00  0.00     0.225 C 
ATOM      5  O   UNL     1       0.741   3.250  -0.981  1.00  0.00    -0.275 OA
ATOM      6  H   UNL     1       1.684   3.263   1.149  1.00  0.00     0.163 HD
BRANCH   4   7
ATOM      7  C   UNL     1      -0.129   1.053  -0.672  1.00  0.00     0.102 C 
ATOM      8  C   UNL     1       2.142  -0.226  -0.651  1.00  0.00     0.032 C 
ATOM      9  C   UNL     1       0.665  -0.229  -1.009  1.00  0.00     0.094 C 
ATOM     10  N   UNL     1      -0.125  -1.326  -0.414  1.00  0.00    -0.335 N 
ATOM     11  C   UNL     1      -1.277   0.640   0.249  1.00  0.00     0.037 C 
ATOM     12  C   UNL     1      -1.421  -0.852   0.035  1.00  0.00     0.121 C 
BRANCH  10  13
ATOM     13  C   UNL     1       0.062  -2.699  -0.501  1.00  0.00     0.254 C 
ATOM     14  O   UNL     1      -0.787  -3.526  -0.182  1.00  0.00    -0.269 OA
BRANCH  13  15
ATOM     15  C   UNL     1       1.346  -3.223  -0.987  1.00  0.00     0.043 A 
ATOM     16  C   UNL     1       1.469  -3.634  -2.318  1.00  0.00     0.021 A 
ATOM     17  C   UNL     1       2.411  -3.360  -0.090  1.00  0.00     0.060 A 
ATOM     18  C   UNL     1       2.696  -4.122  -2.776  1.00  0.00     0.090 A 
ATOM     19  C   UNL     1       3.636  -3.830  -0.552  1.00  0.00     0.201 A 
ATOM     20  C   UNL     1       3.783  -4.196  -1.889  1.00  0.00     0.304 A 
ATOM     21  F   UNL     1       4.645  -3.924   0.324  1.00  0.00    -0.199 F 
BRANCH  20  22
ATOM     22  N   UNL     1       5.073  -4.655  -2.379  1.00  0.00     0.065 N 
ATOM     23  O   UNL     1       5.062  -5.452  -3.329  1.00  0.00    -0.258 OA
ATOM     24  O   UNL     1       6.095  -4.198  -1.855  1.00  0.00    -0.258 OA
ENDBRANCH  20  22
ENDBRANCH  13  15
ENDBRANCH  10  13
ENDBRANCH   4   7
ENDBRANCH   2   3
ENDBRANCH   1   2
BRANCH   1  25
ATOM     25  C   UNL     1       3.667   2.267   2.996  1.00  0.00     0.023 C 
BRANCH  25  26
ATOM     26  C   UNL     1       3.156   2.844   4.305  1.00  0.00     0.116 C 
BRANCH  26  27
ATOM     27  N   UNL     1       3.021   1.846   5.357  1.00  0.00    -0.352 N 
ATOM     28  C   UNL     1       3.506   1.873   6.646  1.00  0.00     0.251 C 
ATOM     29  H   UNL     1       2.512   1.040   5.113  1.00  0.00     0.163 HD
ATOM     30  O   UNL     1       3.406   0.887   7.362  1.00  0.00    -0.269 OA
BRANCH  28  31
ATOM     31  C   UNL     1       4.175   3.097   7.136  1.00  0.00     0.039 A 
ATOM     32  C   UNL     1       5.399   2.986   7.799  1.00  0.00     0.014 A 
ATOM     33  C   UNL     1       3.612   4.351   6.892  1.00  0.00     0.014 A 
ATOM     34  C   UNL     1       6.096   4.145   8.150  1.00  0.00     0.010 A 
ATOM     35  C   UNL     1       4.351   5.497   7.151  1.00  0.00     0.010 A 
ATOM     36  C   UNL     1       5.595   5.407   7.795  1.00  0.00    -0.014 A 
BRANCH  36  37
ATOM     37  C   UNL     1       6.327   6.658   8.113  1.00  0.00     0.031 A 
ATOM     38  C   UNL     1       5.689   7.680   9.016  1.00  0.00     0.074 A 
ATOM     39  C   UNL     1       7.516   6.911   7.532  1.00  0.00     0.049 A 
ATOM     40  N   UNL     1       6.108   8.877   9.335  1.00  0.00    -0.248 NA
ATOM     41  C   UNL     1       4.386   7.323   9.605  1.00  0.00     0.031 C 
ATOM     42  C   UNL     1       8.215   6.023   6.599  1.00  0.00     0.029 A 
ATOM     43  N   UNL     1       8.346   7.999   7.635  1.00  0.00    -0.354 N 
ATOM     44  C   UNL     1       5.108   9.425  10.130  1.00  0.00     0.074 A 
ATOM     45  C   UNL     1       4.038   8.454  10.198  1.00  0.00     0.031 C 
ATOM     46  C   UNL     1       9.381   6.588   6.243  1.00  0.00     0.029 A 
ATOM     47  C   UNL     1       9.495   7.891   6.889  1.00  0.00     0.049 A 
ATOM     48  H   UNL     1       8.137   8.784   8.192  1.00  0.00     0.167 HD
ATOM     49  C   UNL     1       5.090  10.617  10.771  1.00  0.00     0.031 A 
ATOM     50  C   UNL     1      10.526   8.747   6.744  1.00  0.00     0.031 A 
ATOM     51  C   UNL     1       6.171  11.563  10.730  1.00  0.00     0.049 A 
ATOM     52  C   UNL     1      10.502  10.052   7.492  1.00  0.00     0.074 A 
ATOM     53  C   UNL     1       6.283  12.774  11.390  1.00  0.00     0.029 A 
ATOM     54  N   UNL     1       7.337  11.395   9.997  1.00  0.00    -0.354 N 
ATOM     55  N   UNL     1       9.570  10.531   8.281  1.00  0.00    -0.248 NA
ATOM     56  C   UNL     1      11.676  10.923   7.343  1.00  0.00     0.031 C 
ATOM     57  C   UNL     1       7.503  13.355  11.028  1.00  0.00     0.029 A 
ATOM     58  C   UNL     1       8.171  12.483  10.182  1.00  0.00     0.049 A 
ATOM     59  H   UNL     1       7.540  10.617   9.429  1.00  0.00     0.167 HD
ATOM     60  C   UNL     1      10.059  11.746   8.749  1.00  0.00     0.074 A 
ATOM     61  C   UNL     1      11.372  11.922   8.160  1.00  0.00     0.031 C 
ATOM     62  C   UNL     1       9.477  12.634   9.592  1.00  0.00     0.031 A 
BRANCH  49  63
ATOM     63  C   UNL     1       3.859  10.953  11.570  1.00  0.00    -0.014 A 
ATOM     64  C   UNL     1       3.549  10.256  12.752  1.00  0.00     0.010 A 
ATOM     65  C   UNL     1       3.001  11.980  11.137  1.00  0.00     0.010 A 
ATOM     66  C   UNL     1       2.375  10.539  13.455  1.00  0.00     0.020 A 
ATOM     67  C   UNL     1       1.841  12.287  11.854  1.00  0.00     0.020 A 
ATOM     68  C   UNL     1       1.524  11.549  12.996  1.00  0.00     0.054 A 
BRANCH  68  69
ATOM     69  S   UNL     1       0.007  11.897  13.927  1.00  0.00     0.124 S 
ATOM     70  O   UNL     1      -0.844  10.773  13.545  1.00  0.00    -0.237 OA
ATOM     71  O   UNL     1       0.471  11.891  15.313  1.00  0.00    -0.237 OA
ATOM     72  O   UNL     1      -0.417  13.200  13.422  1.00  0.00    -0.744 OA
ENDBRANCH  68  69
ENDBRANCH  49  63
BRANCH  50  73
ATOM     73  C   UNL     1      11.685   8.376   5.887  1.00  0.00    -0.014 A 
ATOM     74  C   UNL     1      12.915   8.027   6.473  1.00  0.00     0.010 A 
ATOM     75  C   UNL     1      11.562   8.347   4.487  1.00  0.00     0.010 A 
ATOM     76  C   UNL     1      14.006   7.673   5.674  1.00  0.00     0.020 A 
ATOM     77  C   UNL     1      12.644   7.969   3.685  1.00  0.00     0.020 A 
ATOM     78  C   UNL     1      13.863   7.644   4.284  1.00  0.00     0.054 A 
BRANCH  78  79
ATOM     79  S   UNL     1      15.275   7.127   3.269  1.00  0.00     0.124 S 
ATOM     80  O   UNL     1      16.138   8.302   3.327  1.00  0.00    -0.237 OA
ATOM     81  O   UNL     1      15.762   5.948   3.982  1.00  0.00    -0.237 OA
ATOM     82  O   UNL     1      14.675   6.852   1.965  1.00  0.00    -0.744 OA
ENDBRANCH  78  79
ENDBRANCH  50  73
BRANCH  62  83
ATOM     83  C   UNL     1      10.271  13.854   9.966  1.00  0.00    -0.014 A 
ATOM     84  C   UNL     1      10.459  14.909   9.057  1.00  0.00     0.010 A 
ATOM     85  C   UNL     1      10.786  13.969  11.270  1.00  0.00     0.010 A 
ATOM     86  C   UNL     1      11.176  16.047   9.437  1.00  0.00     0.020 A 
ATOM     87  C   UNL     1      11.481  15.114  11.662  1.00  0.00     0.020 A 
ATOM     88  C   UNL     1      11.684  16.141  10.738  1.00  0.00     0.054 A 
BRANCH  88  89
ATOM     89  S   UNL     1      12.571  17.646  11.223  1.00  0.00     0.124 S 
ATOM     90  O   UNL     1      13.863  17.461  10.568  1.00  0.00    -0.237 OA
ATOM     91  O   UNL     1      11.732  18.707  10.671  1.00  0.00    -0.237 OA
ATOM     92  O   UNL     1      12.596  17.577  12.682  1.00  0.00    -0.744 OA
ENDBRANCH  88  89
ENDBRANCH  62  83
ENDBRANCH  36  37
ENDBRANCH  28  31
ENDBRANCH  26  27
ENDBRANCH  25  26
ENDBRANCH   1  25
TORSDOF 17
