REMARK SMILES Cc1cc(C)c2c(c1)C=C(C(=O)NCCCCNC(=O)c1ccc(-c3c4nc(c(-c5ccc(S(=O)(=O)[O-])cc5)c5ccc([nH]5)c(-c5ccc(S(=O)(=O)[O-])cc5)c5nc(c(-c6ccc(S(=O)(=O)[O-])cc6)c6ccc3[nH]6)C=C5)C=C4)cc1)[C@@H](C(F)(F)F)O2
REMARK SMILES IDX 16 1 15 2 14 3 13 4 11 5 12 6 10 8 1 9 2 10 3 11 8 12 4 13
REMARK SMILES IDX 7 14 5 15 6 16 9 17 86 18 81 19 82 20 83 21 84 22 85 23
REMARK SMILES IDX 17 24 18 25 19 26 20 28 21 29 22 30 80 31 23 32 79 33 24 34
REMARK SMILES IDX 25 35 26 36 73 37 27 38 78 39 72 40 74 41 28 42 77 43 71 44
REMARK SMILES IDX 70 45 29 47 59 48 40 49 58 50 41 51 44 52 57 53 75 54 42 55
REMARK SMILES IDX 43 56 56 58 76 59 45 60 30 61 31 62 39 63 32 64 38 65 33 66
REMARK SMILES IDX 34 67 35 68 36 69 37 70 60 71 61 72 69 73 62 74 68 75 63 76
REMARK SMILES IDX 64 77 65 78 66 79 67 80 46 81 47 82 55 83 48 84 54 85 49 86
REMARK SMILES IDX 50 87 51 88 52 89 53 90
REMARK H PARENT 13 7 18 27 74 46 44 57
REMARK Flexibility Score: inf
ROOT
ATOM      1  C   UNL     1      -1.363  10.013  -4.374  1.00  0.00     0.023 C 
ENDROOT
BRANCH   1   2
ATOM      2  C   UNL     1      -1.265   8.487  -4.452  1.00  0.00     0.023 C 
BRANCH   2   3
ATOM      3  C   UNL     1       0.165   7.955  -4.491  1.00  0.00     0.116 C 
BRANCH   3   4
ATOM      4  N   UNL     1       0.720   7.793  -3.159  1.00  0.00    -0.352 N 
ATOM      5  C   UNL     1       0.936   6.771  -2.299  1.00  0.00     0.251 C 
ATOM      6  O   UNL     1       1.445   7.091  -1.219  1.00  0.00    -0.270 OA
ATOM      7  H   UNL     1       1.016   8.653  -2.783  1.00  0.00     0.163 HD
BRANCH   5   8
ATOM      8  C   UNL     1       0.615   5.337  -2.563  1.00  0.00     0.067 C 
ATOM      9  C   UNL     1       1.104  -0.211   0.108  1.00  0.00     0.044 C 
ATOM     10  C   UNL     1       0.663   0.781  -0.927  1.00  0.00    -0.050 A 
ATOM     11  C   UNL     1       0.000   0.361  -2.088  1.00  0.00     0.010 A 
ATOM     12  C   UNL     1       0.931   2.144  -0.745  1.00  0.00     0.015 A 
ATOM     13  C   UNL     1      -0.405   1.286  -3.060  1.00  0.00    -0.008 A 
ATOM     14  C   UNL     1       0.543   3.078  -1.710  1.00  0.00     0.018 A 
ATOM     15  C   UNL     1      -1.113   0.826  -4.302  1.00  0.00     0.048 C 
ATOM     16  C   UNL     1      -0.117   2.643  -2.862  1.00  0.00     0.130 A 
ATOM     17  C   UNL     1       0.791   4.502  -1.522  1.00  0.00     0.025 C 
ATOM     18  O   UNL     1      -0.546   3.524  -3.817  1.00  0.00    -0.475 OA
ATOM     19  C   UNL     1       0.170   4.788  -3.888  1.00  0.00     0.314 C 
BRANCH  19  20
ATOM     20  C   UNL     1       1.325   4.662  -4.900  1.00  0.00     0.429 C 
ATOM     21  F   UNL     1       0.837   4.459  -6.151  1.00  0.00    -0.167 F 
ATOM     22  F   UNL     1       2.086   5.780  -4.962  1.00  0.00    -0.167 F 
ATOM     23  F   UNL     1       2.158   3.634  -4.621  1.00  0.00    -0.167 F 
ENDBRANCH  19  20
ENDBRANCH   5   8
ENDBRANCH   3   4
ENDBRANCH   2   3
ENDBRANCH   1   2
BRANCH   1  24
ATOM     24  C   UNL     1      -0.629  10.776  -5.476  1.00  0.00     0.116 C 
BRANCH  24  25
ATOM     25  N   UNL     1      -0.941  10.311  -6.820  1.00  0.00    -0.352 N 
ATOM     26  C   UNL     1      -0.986  11.047  -7.979  1.00  0.00     0.251 C 
ATOM     27  H   UNL     1      -1.143   9.352  -6.909  1.00  0.00     0.163 HD
ATOM     28  O   UNL     1      -1.340  10.531  -9.034  1.00  0.00    -0.269 OA
BRANCH  26  29
ATOM     29  C   UNL     1      -0.645  12.480  -7.920  1.00  0.00     0.039 A 
ATOM     30  C   UNL     1      -1.586  13.413  -8.358  1.00  0.00     0.014 A 
ATOM     31  C   UNL     1       0.569  12.892  -7.362  1.00  0.00     0.014 A 
ATOM     32  C   UNL     1      -1.337  14.773  -8.171  1.00  0.00     0.010 A 
ATOM     33  C   UNL     1       0.789  14.245  -7.126  1.00  0.00     0.010 A 
ATOM     34  C   UNL     1      -0.164  15.195  -7.524  1.00  0.00    -0.014 A 
BRANCH  34  35
ATOM     35  C   UNL     1       0.083  16.631  -7.260  1.00  0.00     0.031 A 
ATOM     36  C   UNL     1       1.194  17.343  -7.978  1.00  0.00     0.074 A 
ATOM     37  C   UNL     1      -0.663  17.280  -6.345  1.00  0.00     0.049 A 
ATOM     38  N   UNL     1       1.587  18.584  -7.859  1.00  0.00    -0.248 NA
ATOM     39  C   UNL     1       1.978  16.550  -8.939  1.00  0.00     0.031 C 
ATOM     40  C   UNL     1      -1.748  16.687  -5.559  1.00  0.00     0.029 A 
ATOM     41  N   UNL     1      -0.625  18.585  -5.924  1.00  0.00    -0.354 N 
ATOM     42  C   UNL     1       2.667  18.720  -8.722  1.00  0.00     0.074 A 
ATOM     43  C   UNL     1       2.899  17.423  -9.320  1.00  0.00     0.031 C 
ATOM     44  C   UNL     1      -2.295  17.634  -4.779  1.00  0.00     0.029 A 
ATOM     45  C   UNL     1      -1.582  18.891  -4.987  1.00  0.00     0.049 A 
ATOM     46  H   UNL     1       0.028  19.241  -6.261  1.00  0.00     0.167 HD
ATOM     47  C   UNL     1       3.386  19.829  -9.010  1.00  0.00     0.031 A 
ATOM     48  C   UNL     1      -1.859  20.056  -4.369  1.00  0.00     0.031 A 
ATOM     49  C   UNL     1       3.145  21.120  -8.428  1.00  0.00     0.049 A 
ATOM     50  C   UNL     1      -1.040  21.273  -4.697  1.00  0.00     0.074 A 
ATOM     51  C   UNL     1       3.792  22.315  -8.684  1.00  0.00     0.029 A 
ATOM     52  N   UNL     1       2.173  21.385  -7.475  1.00  0.00    -0.354 N 
ATOM     53  N   UNL     1      -0.047  21.390  -5.546  1.00  0.00    -0.248 NA
ATOM     54  C   UNL     1      -1.381  22.514  -3.989  1.00  0.00     0.031 C 
ATOM     55  C   UNL     1       3.232  23.299  -7.862  1.00  0.00     0.029 A 
ATOM     56  C   UNL     1       2.212  22.722  -7.121  1.00  0.00     0.049 A 
ATOM     57  H   UNL     1       1.549  20.721  -7.104  1.00  0.00     0.167 HD
ATOM     58  C   UNL     1       0.347  22.721  -5.483  1.00  0.00     0.074 A 
ATOM     59  C   UNL     1      -0.522  23.372  -4.524  1.00  0.00     0.031 C 
ATOM     60  C   UNL     1       1.341  23.348  -6.159  1.00  0.00     0.031 A 
BRANCH  47  61
ATOM     61  C   UNL     1       4.497  19.685 -10.012  1.00  0.00    -0.014 A 
ATOM     62  C   UNL     1       4.212  19.525 -11.380  1.00  0.00     0.010 A 
ATOM     63  C   UNL     1       5.837  19.721  -9.589  1.00  0.00     0.010 A 
ATOM     64  C   UNL     1       5.246  19.360 -12.303  1.00  0.00     0.020 A 
ATOM     65  C   UNL     1       6.876  19.579 -10.513  1.00  0.00     0.020 A 
ATOM     66  C   UNL     1       6.573  19.381 -11.862  1.00  0.00     0.054 A 
BRANCH  66  67
ATOM     67  S   UNL     1       7.897  19.171 -13.083  1.00  0.00     0.124 S 
ATOM     68  O   UNL     1       7.827  17.738 -13.358  1.00  0.00    -0.237 OA
ATOM     69  O   UNL     1       7.470  20.041 -14.175  1.00  0.00    -0.237 OA
ATOM     70  O   UNL     1       9.096  19.610 -12.373  1.00  0.00    -0.744 OA
ENDBRANCH  66  67
ENDBRANCH  47  61
BRANCH  48  71
ATOM     71  C   UNL     1      -2.986  20.132  -3.404  1.00  0.00    -0.014 A 
ATOM     72  C   UNL     1      -4.192  20.750  -3.777  1.00  0.00     0.010 A 
ATOM     73  C   UNL     1      -2.873  19.565  -2.122  1.00  0.00     0.010 A 
ATOM     74  C   UNL     1      -5.266  20.805  -2.884  1.00  0.00     0.020 A 
ATOM     75  C   UNL     1      -3.951  19.603  -1.232  1.00  0.00     0.020 A 
ATOM     76  C   UNL     1      -5.139  20.229  -1.617  1.00  0.00     0.054 A 
BRANCH  76  77
ATOM     77  S   UNL     1      -6.567  20.255  -0.498  1.00  0.00     0.124 S 
ATOM     78  O   UNL     1      -6.574  21.643  -0.047  1.00  0.00    -0.237 OA
ATOM     79  O   UNL     1      -7.667  19.869  -1.379  1.00  0.00    -0.237 OA
ATOM     80  O   UNL     1      -6.220  19.266   0.520  1.00  0.00    -0.744 OA
ENDBRANCH  76  77
ENDBRANCH  48  71
BRANCH  60  81
ATOM     81  C   UNL     1       1.542  24.812  -5.893  1.00  0.00    -0.014 A 
ATOM     82  C   UNL     1       2.194  25.247  -4.726  1.00  0.00     0.010 A 
ATOM     83  C   UNL     1       1.147  25.758  -6.856  1.00  0.00     0.010 A 
ATOM     84  C   UNL     1       2.439  26.606  -4.522  1.00  0.00     0.020 A 
ATOM     85  C   UNL     1       1.407  27.116  -6.663  1.00  0.00     0.020 A 
ATOM     86  C   UNL     1       2.045  27.533  -5.493  1.00  0.00     0.054 A 
BRANCH  86  87
ATOM     87  S   UNL     1       2.436  29.285  -5.236  1.00  0.00     0.124 S 
ATOM     88  O   UNL     1       1.443  29.675  -4.240  1.00  0.00    -0.237 OA
ATOM     89  O   UNL     1       3.817  29.241  -4.763  1.00  0.00    -0.237 OA
ATOM     90  O   UNL     1       2.257  29.877  -6.560  1.00  0.00    -0.744 OA
ENDBRANCH  86  87
ENDBRANCH  60  81
ENDBRANCH  34  35
ENDBRANCH  26  29
ENDBRANCH  24  25
ENDBRANCH   1  24
TORSDOF 15
