REMARK SMILES CC(C)[C@@H]([NH2+][C@H](C)C[C@@H]1CCC[NH2+]1)C(=O)NCCCCNC(=O)c1ccc(-c2c3nc(c(-c4ccc(S(=O)(=O)[O-])cc4)c4ccc([nH]4)c(-c4ccc(S(=O)(=O)[O-])cc4)c4nc(c(-c5ccc(S(=O)(=O)[O-])cc5)c5ccc2[nH]5)C=C4)C=C3)cc1
REMARK SMILES IDX 18 1 17 2 16 3 14 4 15 5 4 7 2 8 1 9 3 10 5 11 6 14 7 15
REMARK SMILES IDX 8 16 9 17 10 18 13 19 11 20 12 21 19 24 20 25 21 26 22 27
REMARK SMILES IDX 23 29 24 30 25 31 83 32 26 33 82 34 27 35 28 36 29 37 76 38
REMARK SMILES IDX 30 39 81 40 75 41 77 42 31 43 80 44 74 45 73 46 32 48 62 49
REMARK SMILES IDX 43 50 61 51 44 52 47 53 60 54 78 55 45 56 46 57 59 59 79 60
REMARK SMILES IDX 48 61 33 62 34 63 42 64 35 65 41 66 36 67 37 68 38 69 39 70
REMARK SMILES IDX 40 71 63 72 64 73 72 74 65 75 71 76 66 77 67 78 68 79 69 80
REMARK SMILES IDX 70 81 49 82 50 83 58 84 51 85 57 86 52 87 53 88 54 89 55 90
REMARK SMILES IDX 56 91
REMARK H PARENT 16 6 5 12 5 13 13 22 13 23 21 28 77 47 47 58
REMARK Flexibility Score: inf
ROOT
ATOM      1  C   UNL     1      -6.500  -2.599  -1.418  1.00  0.00     0.023 C 
ENDROOT
BRANCH   1   2
ATOM      2  C   UNL     1      -5.664  -1.924  -0.335  1.00  0.00     0.116 C 
BRANCH   2   3
ATOM      3  N   UNL     1      -4.503  -2.734  -0.018  1.00  0.00    -0.351 N 
ATOM      4  C   UNL     1      -3.179  -2.457  -0.204  1.00  0.00     0.278 C 
ATOM      5  O   UNL     1      -2.356  -3.326   0.101  1.00  0.00    -0.268 OA
ATOM      6  H   UNL     1      -4.697  -3.608   0.391  1.00  0.00     0.163 HD
BRANCH   4   7
ATOM      7  C   UNL     1      -2.717  -1.102  -0.779  1.00  0.00     0.275 C 
BRANCH   7   8
ATOM      8  C   UNL     1      -3.104  -1.022  -2.292  1.00  0.00     0.051 C 
ATOM      9  C   UNL     1      -2.669   0.285  -2.960  1.00  0.00     0.014 C 
ATOM     10  C   UNL     1      -2.506  -2.201  -3.078  1.00  0.00     0.014 C 
ENDBRANCH   7   8
BRANCH   7  11
ATOM     11  N   UNL     1      -3.236   0.041   0.031  1.00  0.00    -0.333 N 
ATOM     12  H   UNL     1      -4.250  -0.052   0.075  1.00  0.00     0.347 HD
ATOM     13  H   UNL     1      -2.894   0.875  -0.448  1.00  0.00     0.347 HD
BRANCH  11  14
ATOM     14  C   UNL     1      -2.737   0.174   1.428  1.00  0.00     0.185 C 
ATOM     15  C   UNL     1      -1.212   0.279   1.489  1.00  0.00     0.075 C 
BRANCH  14  16
ATOM     16  C   UNL     1      -3.315  -0.880   2.397  1.00  0.00     0.129 C 
BRANCH  16  17
ATOM     17  C   UNL     1      -2.913  -0.757   3.870  1.00  0.00     0.188 C 
ATOM     18  C   UNL     1      -3.509  -1.893   4.696  1.00  0.00     0.071 C 
ATOM     19  N   UNL     1      -3.422   0.444   4.549  1.00  0.00    -0.344 N 
ATOM     20  C   UNL     1      -3.341  -1.393   6.114  1.00  0.00     0.067 C 
ATOM     21  C   UNL     1      -3.414   0.123   5.988  1.00  0.00     0.260 C 
ATOM     22  H   UNL     1      -4.370   0.655   4.237  1.00  0.00     0.346 HD
ATOM     23  H   UNL     1      -2.850   1.264   4.343  1.00  0.00     0.346 HD
ENDBRANCH  16  17
ENDBRANCH  14  16
ENDBRANCH  11  14
ENDBRANCH   7  11
ENDBRANCH   4   7
ENDBRANCH   2   3
ENDBRANCH   1   2
BRANCH   1  24
ATOM     24  C   UNL     1      -7.210  -3.868  -0.946  1.00  0.00     0.023 C 
BRANCH  24  25
ATOM     25  C   UNL     1      -8.155  -3.667   0.234  1.00  0.00     0.116 C 
BRANCH  25  26
ATOM     26  N   UNL     1      -9.186  -2.679  -0.041  1.00  0.00    -0.352 N 
ATOM     27  C   UNL     1     -10.536  -2.750   0.187  1.00  0.00     0.251 C 
ATOM     28  H   UNL     1      -8.870  -1.841  -0.450  1.00  0.00     0.163 HD
ATOM     29  O   UNL     1     -11.279  -1.887  -0.276  1.00  0.00    -0.269 OA
BRANCH  27  30
ATOM     30  C   UNL     1     -11.095  -3.876   0.964  1.00  0.00     0.039 A 
ATOM     31  C   UNL     1     -12.258  -4.495   0.503  1.00  0.00     0.014 A 
ATOM     32  C   UNL     1     -10.477  -4.322   2.137  1.00  0.00     0.014 A 
ATOM     33  C   UNL     1     -12.769  -5.596   1.190  1.00  0.00     0.010 A 
ATOM     34  C   UNL     1     -10.942  -5.472   2.772  1.00  0.00     0.010 A 
ATOM     35  C   UNL     1     -12.096  -6.117   2.310  1.00  0.00    -0.014 A 
BRANCH  35  36
ATOM     36  C   UNL     1     -12.589  -7.353   2.971  1.00  0.00     0.031 A 
ATOM     37  C   UNL     1     -13.072  -7.328   4.396  1.00  0.00     0.074 A 
ATOM     38  C   UNL     1     -12.581  -8.511   2.281  1.00  0.00     0.049 A 
ATOM     39  N   UNL     1     -13.604  -8.296   5.099  1.00  0.00    -0.248 NA
ATOM     40  C   UNL     1     -12.919  -6.065   5.135  1.00  0.00     0.031 C 
ATOM     41  C   UNL     1     -12.072  -8.679   0.917  1.00  0.00     0.029 A 
ATOM     42  N   UNL     1     -13.024  -9.763   2.625  1.00  0.00    -0.354 N 
ATOM     43  C   UNL     1     -13.842  -7.763   6.361  1.00  0.00     0.074 A 
ATOM     44  C   UNL     1     -13.345  -6.404   6.344  1.00  0.00     0.031 C 
ATOM     45  C   UNL     1     -12.277  -9.945   0.523  1.00  0.00     0.029 A 
ATOM     46  C   UNL     1     -12.897 -10.688   1.615  1.00  0.00     0.049 A 
ATOM     47  H   UNL     1     -13.397  -9.979   3.510  1.00  0.00     0.167 HD
ATOM     48  C   UNL     1     -14.439  -8.344   7.430  1.00  0.00     0.031 A 
ATOM     49  C   UNL     1     -13.248 -11.988   1.566  1.00  0.00     0.031 A 
ATOM     50  C   UNL     1     -14.928  -9.699   7.441  1.00  0.00     0.049 A 
ATOM     51  C   UNL     1     -13.928 -12.605   2.756  1.00  0.00     0.074 A 
ATOM     52  C   UNL     1     -15.603 -10.361   8.451  1.00  0.00     0.029 A 
ATOM     53  N   UNL     1     -14.786 -10.602   6.398  1.00  0.00    -0.354 N 
ATOM     54  N   UNL     1     -14.227 -12.057   3.910  1.00  0.00    -0.248 NA
ATOM     55  C   UNL     1     -14.337 -14.008   2.628  1.00  0.00     0.031 C 
ATOM     56  C   UNL     1     -15.812 -11.684   8.044  1.00  0.00     0.029 A 
ATOM     57  C   UNL     1     -15.335 -11.825   6.751  1.00  0.00     0.049 A 
ATOM     58  H   UNL     1     -14.358 -10.404   5.533  1.00  0.00     0.167 HD
ATOM     59  C   UNL     1     -14.884 -13.043   4.638  1.00  0.00     0.074 A 
ATOM     60  C   UNL     1     -14.958 -14.211   3.781  1.00  0.00     0.031 C 
ATOM     61  C   UNL     1     -15.384 -12.987   5.898  1.00  0.00     0.031 A 
BRANCH  48  62
ATOM     62  C   UNL     1     -14.582  -7.518   8.684  1.00  0.00    -0.014 A 
ATOM     63  C   UNL     1     -15.442  -6.404   8.733  1.00  0.00     0.010 A 
ATOM     64  C   UNL     1     -13.875  -7.882   9.844  1.00  0.00     0.010 A 
ATOM     65  C   UNL     1     -15.556  -5.646   9.901  1.00  0.00     0.020 A 
ATOM     66  C   UNL     1     -14.011  -7.146  11.025  1.00  0.00     0.020 A 
ATOM     67  C   UNL     1     -14.838  -6.021  11.040  1.00  0.00     0.054 A 
BRANCH  67  68
ATOM     68  S   UNL     1     -15.019  -5.029  12.548  1.00  0.00     0.124 S 
ATOM     69  O   UNL     1     -14.306  -3.805  12.190  1.00  0.00    -0.237 OA
ATOM     70  O   UNL     1     -16.468  -4.897  12.672  1.00  0.00    -0.237 OA
ATOM     71  O   UNL     1     -14.379  -5.843  13.579  1.00  0.00    -0.744 OA
ENDBRANCH  67  68
ENDBRANCH  48  62
BRANCH  49  72
ATOM     72  C   UNL     1     -12.987 -12.777   0.331  1.00  0.00    -0.014 A 
ATOM     73  C   UNL     1     -14.046 -13.197  -0.493  1.00  0.00     0.010 A 
ATOM     74  C   UNL     1     -11.666 -13.085  -0.044  1.00  0.00     0.010 A 
ATOM     75  C   UNL     1     -13.790 -13.925  -1.660  1.00  0.00     0.020 A 
ATOM     76  C   UNL     1     -11.405 -13.784  -1.225  1.00  0.00     0.020 A 
ATOM     77  C   UNL     1     -12.470 -14.209  -2.021  1.00  0.00     0.054 A 
BRANCH  77  78
ATOM     78  S   UNL     1     -12.158 -15.098  -3.571  1.00  0.00     0.124 S 
ATOM     79  O   UNL     1     -12.597 -16.450  -3.241  1.00  0.00    -0.237 OA
ATOM     80  O   UNL     1     -12.996 -14.374  -4.523  1.00  0.00    -0.237 OA
ATOM     81  O   UNL     1     -10.719 -14.938  -3.773  1.00  0.00    -0.744 OA
ENDBRANCH  77  78
ENDBRANCH  49  72
BRANCH  61  82
ATOM     82  C   UNL     1     -16.084 -14.218   6.413  1.00  0.00    -0.014 A 
ATOM     83  C   UNL     1     -15.381 -15.406   6.686  1.00  0.00     0.010 A 
ATOM     84  C   UNL     1     -17.474 -14.181   6.635  1.00  0.00     0.010 A 
ATOM     85  C   UNL     1     -16.063 -16.550   7.109  1.00  0.00     0.020 A 
ATOM     86  C   UNL     1     -18.154 -15.313   7.092  1.00  0.00     0.020 A 
ATOM     87  C   UNL     1     -17.447 -16.498   7.301  1.00  0.00     0.054 A 
BRANCH  87  88
ATOM     88  S   UNL     1     -18.311 -17.997   7.843  1.00  0.00     0.124 S 
ATOM     89  O   UNL     1     -18.297 -18.810   6.630  1.00  0.00    -0.237 OA
ATOM     90  O   UNL     1     -17.466 -18.479   8.933  1.00  0.00    -0.237 OA
ATOM     91  O   UNL     1     -19.627 -17.511   8.252  1.00  0.00    -0.744 OA
ENDBRANCH  87  88
ENDBRANCH  61  82
ENDBRANCH  35  36
ENDBRANCH  27  30
ENDBRANCH  25  26
ENDBRANCH  24  25
ENDBRANCH   1  24
TORSDOF 19
