REMARK SMILES N#Cc1ccc(C(F)(F)F)nc1N1CCOC[C@H]1C(=O)NCCCCNC(=O)c1ccc(-c2c3nc(c(-c4ccc(S(=O)(=O)[O-])cc4)c4ccc([nH]4)c(-c4ccc(S(=O)(=O)[O-])cc4)c4nc(c(-c5ccc(S(=O)(=O)[O-])cc5)c5ccc2[nH]5)C=C4)C=C3)cc1
REMARK SMILES IDX 24 1 23 2 22 3 21 4 19 5 20 6 18 8 13 9 14 10 15 11 17 12
REMARK SMILES IDX 16 13 12 14 3 15 4 16 5 17 11 18 6 19 2 20 1 21 7 22 8 23
REMARK SMILES IDX 9 24 10 25 25 26 26 27 27 28 28 30 29 31 30 32 88 33 31 34
REMARK SMILES IDX 87 35 32 36 33 37 34 38 81 39 35 40 86 41 80 42 82 43 36 44
REMARK SMILES IDX 85 45 79 46 78 47 37 49 67 50 48 51 66 52 49 53 52 54 65 55
REMARK SMILES IDX 83 56 50 57 51 58 64 60 84 61 53 62 38 63 39 64 47 65 40 66
REMARK SMILES IDX 46 67 41 68 42 69 43 70 44 71 45 72 68 73 69 74 77 75 70 76
REMARK SMILES IDX 76 77 71 78 72 79 73 80 74 81 75 82 54 83 55 84 63 85 56 86
REMARK SMILES IDX 62 87 57 88 58 89 59 90 60 91 61 92
REMARK H PARENT 21 7 26 29 82 48 52 59
REMARK Flexibility Score: inf
ROOT
ATOM      1  C   UNL     1       0.324  -4.904   4.705  1.00  0.00     0.023 C 
ENDROOT
BRANCH   1   2
ATOM      2  C   UNL     1       0.743  -4.150   3.457  1.00  0.00     0.023 C 
BRANCH   2   3
ATOM      3  C   UNL     1       0.942  -5.030   2.220  1.00  0.00     0.116 C 
BRANCH   3   4
ATOM      4  N   UNL     1      -0.211  -4.995   1.348  1.00  0.00    -0.354 N 
ATOM      5  C   UNL     1      -0.511  -4.330   0.200  1.00  0.00     0.245 C 
ATOM      6  O   UNL     1      -1.617  -4.624  -0.283  1.00  0.00    -0.273 OA
ATOM      7  H   UNL     1      -0.940  -5.583   1.652  1.00  0.00     0.163 HD
BRANCH   5   8
ATOM      8  C   UNL     1       0.414  -3.359  -0.577  1.00  0.00     0.199 C 
ATOM      9  N   UNL     1       0.743  -2.057   0.054  1.00  0.00    -0.339 N 
ATOM     10  C   UNL     1       1.862  -2.051   0.986  1.00  0.00     0.147 C 
ATOM     11  C   UNL     1       3.086  -2.731   0.370  1.00  0.00     0.181 C 
ATOM     12  C   UNL     1       1.708  -4.035  -1.083  1.00  0.00     0.195 C 
ATOM     13  O   UNL     1       2.795  -4.037  -0.145  1.00  0.00    -0.377 OA
BRANCH   9  14
ATOM     14  C   UNL     1      -0.035  -0.931  -0.118  1.00  0.00     0.148 A 
ATOM     15  C   UNL     1       0.518   0.357  -0.239  1.00  0.00     0.095 A 
ATOM     16  C   UNL     1      -0.310   1.480  -0.217  1.00  0.00     0.025 A 
ATOM     17  C   UNL     1      -1.682   1.311  -0.147  1.00  0.00     0.035 A 
ATOM     18  N   UNL     1      -1.381  -1.087  -0.130  1.00  0.00    -0.225 NA
ATOM     19  C   UNL     1      -2.198   0.017  -0.142  1.00  0.00     0.146 A 
BRANCH  15  20
ATOM     20  C   UNL     1       1.920   0.580  -0.447  1.00  0.00     0.103 C 
ATOM     21  N   UNL     1       3.053   0.772  -0.594  1.00  0.00    -0.192 NA
ENDBRANCH  15  20
BRANCH  19  22
ATOM     22  C   UNL     1      -3.717  -0.156  -0.150  1.00  0.00     0.433 C 
ATOM     23  F   UNL     1      -4.180  -0.809  -1.252  1.00  0.00    -0.165 F 
ATOM     24  F   UNL     1      -4.196  -0.826   0.934  1.00  0.00    -0.165 F 
ATOM     25  F   UNL     1      -4.380   1.044  -0.148  1.00  0.00    -0.165 F 
ENDBRANCH  19  22
ENDBRANCH   9  14
ENDBRANCH   5   8
ENDBRANCH   3   4
ENDBRANCH   2   3
ENDBRANCH   1   2
BRANCH   1  26
ATOM     26  C   UNL     1       1.343  -5.931   5.166  1.00  0.00     0.116 C 
BRANCH  26  27
ATOM     27  N   UNL     1       2.650  -5.368   5.489  1.00  0.00    -0.352 N 
ATOM     28  C   UNL     1       3.468  -5.717   6.540  1.00  0.00     0.251 C 
ATOM     29  H   UNL     1       2.982  -4.661   4.891  1.00  0.00     0.163 HD
ATOM     30  O   UNL     1       4.491  -5.087   6.782  1.00  0.00    -0.269 OA
BRANCH  28  31
ATOM     31  C   UNL     1       3.053  -6.853   7.385  1.00  0.00     0.039 A 
ATOM     32  C   UNL     1       2.993  -6.696   8.769  1.00  0.00     0.014 A 
ATOM     33  C   UNL     1       2.605  -8.030   6.778  1.00  0.00     0.014 A 
ATOM     34  C   UNL     1       2.438  -7.716   9.541  1.00  0.00     0.010 A 
ATOM     35  C   UNL     1       1.924  -8.970   7.532  1.00  0.00     0.010 A 
ATOM     36  C   UNL     1       1.875  -8.849   8.927  1.00  0.00    -0.014 A 
BRANCH  36  37
ATOM     37  C   UNL     1       1.311  -9.963   9.727  1.00  0.00     0.031 A 
ATOM     38  C   UNL     1       1.922 -11.337   9.606  1.00  0.00     0.074 A 
ATOM     39  C   UNL     1       0.256  -9.752  10.537  1.00  0.00     0.049 A 
ATOM     40  N   UNL     1       1.584 -12.446  10.211  1.00  0.00    -0.248 NA
ATOM     41  C   UNL     1       3.041 -11.496   8.657  1.00  0.00     0.031 C 
ATOM     42  C   UNL     1      -0.448  -8.477  10.706  1.00  0.00     0.029 A 
ATOM     43  N   UNL     1      -0.402 -10.606  11.385  1.00  0.00    -0.354 N 
ATOM     44  C   UNL     1       2.440 -13.421   9.712  1.00  0.00     0.074 A 
ATOM     45  C   UNL     1       3.247 -12.801   8.690  1.00  0.00     0.031 C 
ATOM     46  C   UNL     1      -1.400  -8.621  11.643  1.00  0.00     0.029 A 
ATOM     47  C   UNL     1      -1.407 -10.005  12.107  1.00  0.00     0.049 A 
ATOM     48  H   UNL     1      -0.175 -11.560  11.470  1.00  0.00     0.167 HD
ATOM     49  C   UNL     1       2.579 -14.710  10.099  1.00  0.00     0.031 A 
ATOM     50  C   UNL     1      -2.233 -10.514  13.040  1.00  0.00     0.031 A 
ATOM     51  C   UNL     1       1.782 -15.322  11.126  1.00  0.00     0.049 A 
ATOM     52  C   UNL     1      -2.085 -11.963  13.426  1.00  0.00     0.074 A 
ATOM     53  C   UNL     1       1.857 -16.611  11.619  1.00  0.00     0.029 A 
ATOM     54  N   UNL     1       0.764 -14.684  11.819  1.00  0.00    -0.354 N 
ATOM     55  N   UNL     1      -1.229 -12.855  12.983  1.00  0.00    -0.248 NA
ATOM     56  C   UNL     1      -3.001 -12.466  14.457  1.00  0.00     0.031 C 
ATOM     57  C   UNL     1       0.842 -16.773  12.566  1.00  0.00     0.029 A 
ATOM     58  C   UNL     1       0.190 -15.560  12.723  1.00  0.00     0.049 A 
ATOM     59  H   UNL     1       0.492 -13.747  11.688  1.00  0.00     0.167 HD
ATOM     60  C   UNL     1      -1.476 -14.012  13.717  1.00  0.00     0.074 A 
ATOM     61  C   UNL     1      -2.543 -13.695  14.644  1.00  0.00     0.031 C 
ATOM     62  C   UNL     1      -0.872 -15.225  13.639  1.00  0.00     0.031 A 
BRANCH  49  63
ATOM     63  C   UNL     1       3.638 -15.533   9.412  1.00  0.00    -0.014 A 
ATOM     64  C   UNL     1       5.006 -15.245   9.578  1.00  0.00     0.010 A 
ATOM     65  C   UNL     1       3.264 -16.630   8.614  1.00  0.00     0.010 A 
ATOM     66  C   UNL     1       5.977 -16.013   8.932  1.00  0.00     0.020 A 
ATOM     67  C   UNL     1       4.234 -17.424   7.996  1.00  0.00     0.020 A 
ATOM     68  C   UNL     1       5.584 -17.102   8.149  1.00  0.00     0.054 A 
BRANCH  68  69
ATOM     69  S   UNL     1       6.870 -18.109   7.362  1.00  0.00     0.124 S 
ATOM     70  O   UNL     1       7.399 -17.191   6.355  1.00  0.00    -0.237 OA
ATOM     71  O   UNL     1       7.768 -18.404   8.475  1.00  0.00    -0.237 OA
ATOM     72  O   UNL     1       6.138 -19.257   6.832  1.00  0.00    -0.744 OA
ENDBRANCH  68  69
ENDBRANCH  49  63
BRANCH  50  73
ATOM     73  C   UNL     1      -3.258  -9.653  13.697  1.00  0.00    -0.014 A 
ATOM     74  C   UNL     1      -3.183  -9.367  15.073  1.00  0.00     0.010 A 
ATOM     75  C   UNL     1      -4.337  -9.138  12.955  1.00  0.00     0.010 A 
ATOM     76  C   UNL     1      -4.186  -8.622  15.701  1.00  0.00     0.020 A 
ATOM     77  C   UNL     1      -5.322  -8.360  13.571  1.00  0.00     0.020 A 
ATOM     78  C   UNL     1      -5.250  -8.124  14.945  1.00  0.00     0.054 A 
BRANCH  78  79
ATOM     79  S   UNL     1      -6.530  -7.145  15.778  1.00  0.00     0.124 S 
ATOM     80  O   UNL     1      -7.206  -8.154  16.587  1.00  0.00    -0.237 OA
ATOM     81  O   UNL     1      -5.742  -6.162  16.517  1.00  0.00    -0.237 OA
ATOM     82  O   UNL     1      -7.316  -6.600  14.673  1.00  0.00    -0.744 OA
ENDBRANCH  78  79
ENDBRANCH  50  73
BRANCH  62  83
ATOM     83  C   UNL     1      -1.306 -16.277  14.627  1.00  0.00    -0.014 A 
ATOM     84  C   UNL     1      -2.597 -16.835  14.599  1.00  0.00     0.010 A 
ATOM     85  C   UNL     1      -0.390 -16.724  15.598  1.00  0.00     0.010 A 
ATOM     86  C   UNL     1      -2.984 -17.766  15.566  1.00  0.00     0.020 A 
ATOM     87  C   UNL     1      -0.759 -17.686  16.539  1.00  0.00     0.020 A 
ATOM     88  C   UNL     1      -2.063 -18.181  16.534  1.00  0.00     0.054 A 
BRANCH  88  89
ATOM     89  S   UNL     1      -2.592 -19.385  17.781  1.00  0.00     0.124 S 
ATOM     90  O   UNL     1      -3.498 -18.590  18.605  1.00  0.00    -0.237 OA
ATOM     91  O   UNL     1      -3.226 -20.424  16.972  1.00  0.00    -0.237 OA
ATOM     92  O   UNL     1      -1.346 -19.782  18.431  1.00  0.00    -0.744 OA
ENDBRANCH  88  89
ENDBRANCH  62  83
ENDBRANCH  36  37
ENDBRANCH  28  31
ENDBRANCH  26  27
ENDBRANCH   1  26
TORSDOF 17
