REMARK SMILES Cc1ccc(-c2cnnc(-n3nc(C)c4c3NC(=O)C[C@@H]4c3ccc(C(=O)NCCCCNC(=O)c4ccc(-c5c6nc(c(-c7ccc(S(=O)(=O)[O-])cc7)c7ccc([nH]7)c(-c7ccc(S(=O)(=O)[O-])cc7)c7nc(c(-c8ccc(S(=O)(=O)[O-])cc8)c8ccc5[nH]8)C=C7)C=C6)cc4)cc3)n2)cc1
REMARK SMILES IDX 30 1 29 2 28 3 26 4 27 5 25 7 22 8 23 9 97 10 24 11 96 12
REMARK SMILES IDX 21 13 11 14 12 15 16 16 13 17 15 18 17 19 14 20 18 21 20 23
REMARK SMILES IDX 19 24 10 25 6 26 7 27 98 28 8 29 9 30 5 31 1 32 2 33 3 34
REMARK SMILES IDX 100 35 4 36 99 37 31 38 32 39 33 40 34 41 35 43 36 44 37 45
REMARK SMILES IDX 95 46 38 47 94 48 39 49 40 50 41 51 88 52 42 53 93 54 87 55
REMARK SMILES IDX 89 56 43 57 92 58 86 59 85 60 44 62 74 63 55 64 73 65 56 66
REMARK SMILES IDX 59 67 72 68 90 69 57 70 58 71 71 73 91 74 60 75 45 76 46 77
REMARK SMILES IDX 54 78 47 79 53 80 48 81 49 82 50 83 51 84 52 85 75 86 76 87
REMARK SMILES IDX 84 88 77 89 83 90 78 91 79 92 80 93 81 94 82 95 61 96 62 97
REMARK SMILES IDX 70 98 63 99 69 100 64 101 65 102 66 103 67 104 68 105
REMARK H PARENT 28 6 17 22 33 42 89 61 59 72
REMARK Flexibility Score: inf
ROOT
ATOM      1  C   UNL     1     -11.188   6.918  -5.598  1.00  0.00     0.023 C 
ENDROOT
BRANCH   1   2
ATOM      2  C   UNL     1     -11.716   5.652  -6.292  1.00  0.00     0.116 C 
BRANCH   2   3
ATOM      3  N   UNL     1     -11.518   5.657  -7.741  1.00  0.00    -0.352 N 
ATOM      4  C   UNL     1     -10.645   4.952  -8.531  1.00  0.00     0.251 C 
ATOM      5  O   UNL     1     -10.763   4.963  -9.754  1.00  0.00    -0.269 OA
ATOM      6  H   UNL     1     -12.112   6.269  -8.232  1.00  0.00     0.163 HD
BRANCH   4   7
ATOM      7  C   UNL     1      -9.581   4.127  -7.927  1.00  0.00     0.039 A 
ATOM      8  C   UNL     1      -7.741   2.438  -6.643  1.00  0.00    -0.040 A 
ATOM      9  C   UNL     1      -8.512   1.976  -7.728  1.00  0.00     0.005 A 
ATOM     10  C   UNL     1      -7.803   3.800  -6.316  1.00  0.00     0.005 A 
ATOM     11  C   UNL     1      -9.425   2.813  -8.368  1.00  0.00     0.014 A 
ATOM     12  C   UNL     1      -8.721   4.635  -6.954  1.00  0.00     0.014 A 
BRANCH   8  13
ATOM     13  C   UNL     1      -6.935   1.413  -5.878  1.00  0.00     0.064 C 
ATOM     14  N   UNL     1      -5.974   1.919  -2.424  1.00  0.00    -0.180 N 
ATOM     15  N   UNL     1      -7.293   2.200  -2.249  1.00  0.00    -0.168 NA
ATOM     16  C   UNL     1      -5.659   1.965  -3.769  1.00  0.00     0.143 A 
ATOM     17  C   UNL     1      -7.842   2.052  -3.458  1.00  0.00     0.066 A 
ATOM     18  C   UNL     1      -6.850   1.790  -4.440  1.00  0.00     0.026 A 
ATOM     19  N   UNL     1      -4.462   2.071  -4.447  1.00  0.00    -0.310 N 
ATOM     20  C   UNL     1      -9.313   2.212  -3.599  1.00  0.00     0.069 C 
ATOM     21  C   UNL     1      -4.452   1.911  -5.869  1.00  0.00     0.226 C 
ATOM     22  H   UNL     1      -3.626   2.253  -3.960  1.00  0.00     0.171 HD
ATOM     23  C   UNL     1      -5.569   1.108  -6.486  1.00  0.00     0.113 C 
ATOM     24  O   UNL     1      -3.451   2.283  -6.459  1.00  0.00    -0.275 OA
BRANCH  14  25
ATOM     25  C   UNL     1      -5.192   1.365  -1.368  1.00  0.00     0.272 A 
ATOM     26  C   UNL     1      -3.284   0.398  -0.566  1.00  0.00     0.095 A 
ATOM     27  C   UNL     1      -4.018  -0.151   0.473  1.00  0.00     0.164 A 
ATOM     28  N   UNL     1      -3.863   1.146  -1.545  1.00  0.00    -0.208 NA
ATOM     29  N   UNL     1      -5.325   0.099   0.605  1.00  0.00    -0.153 NA
ATOM     30  N   UNL     1      -5.908   0.898  -0.312  1.00  0.00    -0.109 NA
BRANCH  26  31
ATOM     31  C   UNL     1      -1.821   0.272  -0.565  1.00  0.00     0.002 A 
ATOM     32  C   UNL     1       2.455  -0.033   0.046  1.00  0.00     0.044 C 
ATOM     33  C   UNL     1       0.979   0.079  -0.195  1.00  0.00    -0.051 A 
ATOM     34  C   UNL     1       0.194  -1.075  -0.280  1.00  0.00     0.004 A 
ATOM     35  C   UNL     1       0.364   1.327  -0.329  1.00  0.00     0.004 A 
ATOM     36  C   UNL     1      -1.190  -0.980  -0.462  1.00  0.00     0.011 A 
ATOM     37  C   UNL     1      -1.018   1.421  -0.518  1.00  0.00     0.011 A 
ENDBRANCH  26  31
ENDBRANCH  14  25
ENDBRANCH   8  13
ENDBRANCH   4   7
ENDBRANCH   2   3
ENDBRANCH   1   2
BRANCH   1  38
ATOM     38  C   UNL     1     -11.742   8.237  -6.138  1.00  0.00     0.023 C 
BRANCH  38  39
ATOM     39  C   UNL     1     -13.203   8.470  -5.782  1.00  0.00     0.116 C 
BRANCH  39  40
ATOM     40  N   UNL     1     -13.415   9.498  -4.775  1.00  0.00    -0.352 N 
ATOM     41  C   UNL     1     -14.614  10.096  -4.398  1.00  0.00     0.251 C 
ATOM     42  H   UNL     1     -12.611   9.810  -4.301  1.00  0.00     0.163 HD
ATOM     43  O   UNL     1     -14.676  11.125  -3.768  1.00  0.00    -0.269 OA
BRANCH  41  44
ATOM     44  C   UNL     1     -15.843   9.300  -4.629  1.00  0.00     0.039 A 
ATOM     45  C   UNL     1     -16.500   8.842  -3.479  1.00  0.00     0.014 A 
ATOM     46  C   UNL     1     -16.101   8.746  -5.878  1.00  0.00     0.014 A 
ATOM     47  C   UNL     1     -17.230   7.664  -3.546  1.00  0.00     0.010 A 
ATOM     48  C   UNL     1     -16.718   7.516  -5.923  1.00  0.00     0.010 A 
ATOM     49  C   UNL     1     -17.221   6.954  -4.745  1.00  0.00    -0.014 A 
BRANCH  49  50
ATOM     50  C   UNL     1     -17.710   5.591  -4.853  1.00  0.00     0.031 A 
ATOM     51  C   UNL     1     -19.090   5.392  -5.329  1.00  0.00     0.074 A 
ATOM     52  C   UNL     1     -16.903   4.559  -4.527  1.00  0.00     0.049 A 
ATOM     53  N   UNL     1     -19.833   4.380  -5.045  1.00  0.00    -0.248 NA
ATOM     54  C   UNL     1     -19.775   6.417  -6.112  1.00  0.00     0.031 C 
ATOM     55  C   UNL     1     -17.162   3.139  -4.735  1.00  0.00     0.029 A 
ATOM     56  N   UNL     1     -15.774   4.585  -3.699  1.00  0.00    -0.354 N 
ATOM     57  C   UNL     1     -20.962   4.475  -5.832  1.00  0.00     0.074 A 
ATOM     58  C   UNL     1     -20.929   5.807  -6.382  1.00  0.00     0.031 C 
ATOM     59  C   UNL     1     -16.456   2.445  -3.826  1.00  0.00     0.029 A 
ATOM     60  C   UNL     1     -15.835   3.413  -2.932  1.00  0.00     0.049 A 
ATOM     61  H   UNL     1     -15.081   5.282  -3.663  1.00  0.00     0.167 HD
ATOM     62  C   UNL     1     -21.709   3.360  -6.069  1.00  0.00     0.031 A 
ATOM     63  C   UNL     1     -15.966   3.417  -1.573  1.00  0.00     0.031 A 
ATOM     64  C   UNL     1     -21.256   2.246  -5.236  1.00  0.00     0.049 A 
ATOM     65  C   UNL     1     -17.238   2.729  -1.123  1.00  0.00     0.074 A 
ATOM     66  C   UNL     1     -20.412   1.176  -5.483  1.00  0.00     0.029 A 
ATOM     67  N   UNL     1     -21.377   2.340  -3.852  1.00  0.00    -0.354 N 
ATOM     68  N   UNL     1     -18.275   2.537  -1.895  1.00  0.00    -0.248 NA
ATOM     69  C   UNL     1     -17.435   2.197   0.221  1.00  0.00     0.031 C 
ATOM     70  C   UNL     1     -19.911   0.722  -4.233  1.00  0.00     0.029 A 
ATOM     71  C   UNL     1     -20.492   1.478  -3.229  1.00  0.00     0.049 A 
ATOM     72  H   UNL     1     -22.004   2.937  -3.382  1.00  0.00     0.167 HD
ATOM     73  C   UNL     1     -19.232   1.835  -1.209  1.00  0.00     0.074 A 
ATOM     74  C   UNL     1     -18.662   1.656   0.117  1.00  0.00     0.031 C 
ATOM     75  C   UNL     1     -20.407   1.428  -1.775  1.00  0.00     0.031 A 
BRANCH  62  76
ATOM     76  C   UNL     1     -22.577   3.221  -7.306  1.00  0.00    -0.014 A 
ATOM     77  C   UNL     1     -22.774   1.948  -7.880  1.00  0.00     0.010 A 
ATOM     78  C   UNL     1     -23.135   4.304  -8.013  1.00  0.00     0.010 A 
ATOM     79  C   UNL     1     -23.382   1.784  -9.137  1.00  0.00     0.020 A 
ATOM     80  C   UNL     1     -23.704   4.163  -9.287  1.00  0.00     0.020 A 
ATOM     81  C   UNL     1     -23.812   2.900  -9.851  1.00  0.00     0.054 A 
BRANCH  81  82
ATOM     82  S   UNL     1     -24.501   2.688 -11.513  1.00  0.00     0.124 S 
ATOM     83  O   UNL     1     -23.427   1.988 -12.213  1.00  0.00    -0.237 OA
ATOM     84  O   UNL     1     -25.704   1.902 -11.253  1.00  0.00    -0.237 OA
ATOM     85  O   UNL     1     -24.740   4.057 -11.966  1.00  0.00    -0.744 OA
ENDBRANCH  81  82
ENDBRANCH  62  76
BRANCH  63  86
ATOM     86  C   UNL     1     -15.279   4.540  -0.874  1.00  0.00    -0.014 A 
ATOM     87  C   UNL     1     -13.870   4.494  -0.812  1.00  0.00     0.010 A 
ATOM     88  C   UNL     1     -15.921   5.770  -0.648  1.00  0.00     0.010 A 
ATOM     89  C   UNL     1     -13.117   5.665  -0.681  1.00  0.00     0.020 A 
ATOM     90  C   UNL     1     -15.166   6.950  -0.524  1.00  0.00     0.020 A 
ATOM     91  C   UNL     1     -13.771   6.893  -0.608  1.00  0.00     0.054 A 
BRANCH  91  92
ATOM     92  S   UNL     1     -12.774   8.411  -0.732  1.00  0.00     0.124 S 
ATOM     93  O   UNL     1     -11.646   8.125   0.152  1.00  0.00    -0.237 OA
ATOM     94  O   UNL     1     -12.450   8.444  -2.159  1.00  0.00    -0.237 OA
ATOM     95  O   UNL     1     -13.686   9.447  -0.265  1.00  0.00    -0.744 OA
ENDBRANCH  91  92
ENDBRANCH  63  86
BRANCH  75  96
ATOM     96  C   UNL     1     -21.569   0.835  -1.018  1.00  0.00    -0.014 A 
ATOM     97  C   UNL     1     -21.846   1.116   0.329  1.00  0.00     0.010 A 
ATOM     98  C   UNL     1     -22.522   0.063  -1.725  1.00  0.00     0.010 A 
ATOM     99  C   UNL     1     -22.983   0.595   0.961  1.00  0.00     0.020 A 
ATOM    100  C   UNL     1     -23.682  -0.421  -1.118  1.00  0.00     0.020 A 
ATOM    101  C   UNL     1     -23.893  -0.173   0.233  1.00  0.00     0.054 A 
BRANCH 101 102
ATOM    102  S   UNL     1     -25.394  -0.787   1.036  1.00  0.00     0.124 S 
ATOM    103  O   UNL     1     -24.940  -2.064   1.580  1.00  0.00    -0.237 OA
ATOM    104  O   UNL     1     -25.683   0.249   2.026  1.00  0.00    -0.237 OA
ATOM    105  O   UNL     1     -26.354  -0.875  -0.061  1.00  0.00    -0.744 OA
ENDBRANCH 101 102
ENDBRANCH  75  96
ENDBRANCH  49  50
ENDBRANCH  41  44
ENDBRANCH  39  40
ENDBRANCH  38  39
ENDBRANCH   1  38
TORSDOF 17
