REMARK SMILES CC(C)(C(=O)NCCCCNC(=O)c1ccc(-c2c3nc(c(-c4ccc(S(=O)(=O)[O-])cc4)c4ccc([nH]4)c(-c4ccc(S(=O)(=O)[O-])cc4)c4nc(c(-c5ccc(S(=O)(=O)[O-])cc5)c5ccc2[nH]5)C=C4)C=C3)cc1)n1nnnc1C(F)(F)C(F)F
REMARK SMILES IDX 8 1 7 2 6 3 4 4 5 5 2 7 1 8 3 9 74 10 75 11 78 12 76 13
REMARK SMILES IDX 77 14 79 15 80 16 81 17 82 18 83 19 84 20 9 21 10 22 11 23
REMARK SMILES IDX 12 24 13 26 14 27 15 28 73 29 16 30 72 31 17 32 18 33 19 34
REMARK SMILES IDX 66 35 20 36 71 37 65 38 67 39 21 40 70 41 64 42 63 43 22 45
REMARK SMILES IDX 52 46 33 47 51 48 34 49 37 50 50 51 68 52 35 53 36 54 49 56
REMARK SMILES IDX 69 57 38 58 23 59 24 60 32 61 25 62 31 63 26 64 27 65 28 66
REMARK SMILES IDX 29 67 30 68 53 69 54 70 62 71 55 72 61 73 56 74 57 75 58 76
REMARK SMILES IDX 59 77 60 78 39 79 40 80 48 81 41 82 47 83 42 84 43 85 44 86
REMARK SMILES IDX 45 87 46 88
REMARK H PARENT 6 6 11 25 67 44 37 55
REMARK Flexibility Score: inf
ROOT
ATOM      1  C   UNL     1      -1.589  -1.375   2.257  1.00  0.00     0.023 C 
ENDROOT
BRANCH   1   2
ATOM      2  C   UNL     1      -0.962  -1.906   0.971  1.00  0.00     0.116 C 
BRANCH   2   3
ATOM      3  N   UNL     1      -1.407  -1.209  -0.221  1.00  0.00    -0.354 N 
ATOM      4  C   UNL     1      -0.724  -0.649  -1.263  1.00  0.00     0.247 C 
ATOM      5  O   UNL     1      -1.396  -0.420  -2.275  1.00  0.00    -0.272 OA
ATOM      6  H   UNL     1      -2.385  -1.124  -0.292  1.00  0.00     0.163 HD
BRANCH   4   7
ATOM      7  C   UNL     1       0.796  -0.335  -1.222  1.00  0.00     0.139 C 
ATOM      8  C   UNL     1       1.135   0.501   0.050  1.00  0.00     0.047 C 
ATOM      9  C   UNL     1       1.626  -1.614  -1.129  1.00  0.00     0.047 C 
BRANCH   7  10
ATOM     10  N   UNL     1       1.111   0.502  -2.410  1.00  0.00    -0.209 N 
ATOM     11  N   UNL     1       0.865   1.833  -2.237  1.00  0.00    -0.044 NA
ATOM     12  C   UNL     1       1.619   0.336  -3.693  1.00  0.00     0.228 A 
ATOM     13  N   UNL     1       1.266   2.448  -3.324  1.00  0.00    -0.024 NA
ATOM     14  N   UNL     1       1.743   1.556  -4.215  1.00  0.00    -0.107 NA
BRANCH  12  15
ATOM     15  C   UNL     1       2.038  -0.822  -4.545  1.00  0.00     0.367 C 
ATOM     16  F   UNL     1       1.527  -0.607  -5.811  1.00  0.00    -0.191 F 
ATOM     17  F   UNL     1       3.400  -0.763  -4.736  1.00  0.00    -0.191 F 
BRANCH  15  18
ATOM     18  C   UNL     1       1.699  -2.262  -4.231  1.00  0.00     0.419 C 
ATOM     19  F   UNL     1       2.533  -2.787  -3.297  1.00  0.00    -0.203 F 
ATOM     20  F   UNL     1       0.434  -2.409  -3.775  1.00  0.00    -0.203 F 
ENDBRANCH  15  18
ENDBRANCH  12  15
ENDBRANCH   7  10
ENDBRANCH   4   7
ENDBRANCH   2   3
ENDBRANCH   1   2
BRANCH   1  21
ATOM     21  C   UNL     1      -3.092  -1.615   2.408  1.00  0.00     0.023 C 
BRANCH  21  22
ATOM     22  C   UNL     1      -3.568  -3.042   2.157  1.00  0.00     0.116 C 
BRANCH  22  23
ATOM     23  N   UNL     1      -2.875  -4.038   2.967  1.00  0.00    -0.352 N 
ATOM     24  C   UNL     1      -3.390  -5.046   3.745  1.00  0.00     0.251 C 
ATOM     25  H   UNL     1      -1.892  -3.980   2.954  1.00  0.00     0.163 HD
ATOM     26  O   UNL     1      -2.645  -5.732   4.430  1.00  0.00    -0.269 OA
BRANCH  24  27
ATOM     27  C   UNL     1      -4.854  -5.267   3.781  1.00  0.00     0.039 A 
ATOM     28  C   UNL     1      -5.489  -5.374   5.022  1.00  0.00     0.014 A 
ATOM     29  C   UNL     1      -5.598  -5.323   2.601  1.00  0.00     0.014 A 
ATOM     30  C   UNL     1      -6.882  -5.447   5.078  1.00  0.00     0.010 A 
ATOM     31  C   UNL     1      -6.988  -5.317   2.663  1.00  0.00     0.010 A 
ATOM     32  C   UNL     1      -7.645  -5.371   3.902  1.00  0.00    -0.014 A 
BRANCH  32  33
ATOM     33  C   UNL     1      -9.130  -5.327   3.943  1.00  0.00     0.031 A 
ATOM     34  C   UNL     1      -9.935  -6.425   3.302  1.00  0.00     0.074 A 
ATOM     35  C   UNL     1      -9.752  -4.261   4.485  1.00  0.00     0.049 A 
ATOM     36  N   UNL     1     -11.233  -6.522   3.166  1.00  0.00    -0.248 NA
ATOM     37  C   UNL     1      -9.184  -7.545   2.713  1.00  0.00     0.031 C 
ATOM     38  C   UNL     1      -9.085  -3.107   5.096  1.00  0.00     0.029 A 
ATOM     39  N   UNL     1     -11.088  -3.968   4.602  1.00  0.00    -0.354 N 
ATOM     40  C   UNL     1     -11.451  -7.696   2.454  1.00  0.00     0.074 A 
ATOM     41  C   UNL     1     -10.151  -8.253   2.149  1.00  0.00     0.031 C 
ATOM     42  C   UNL     1     -10.015  -2.249   5.547  1.00  0.00     0.029 A 
ATOM     43  C   UNL     1     -11.340  -2.768   5.224  1.00  0.00     0.049 A 
ATOM     44  H   UNL     1     -11.800  -4.562   4.271  1.00  0.00     0.167 HD
ATOM     45  C   UNL     1     -12.626  -8.269   2.101  1.00  0.00     0.031 A 
ATOM     46  C   UNL     1     -12.505  -2.150   5.500  1.00  0.00     0.031 A 
ATOM     47  C   UNL     1     -13.918  -7.726   2.426  1.00  0.00     0.049 A 
ATOM     48  C   UNL     1     -13.797  -2.812   5.107  1.00  0.00     0.074 A 
ATOM     49  C   UNL     1     -15.166  -8.268   2.174  1.00  0.00     0.029 A 
ATOM     50  N   UNL     1     -14.128  -6.520   3.077  1.00  0.00    -0.354 N 
ATOM     51  N   UNL     1     -13.983  -3.956   4.494  1.00  0.00    -0.248 NA
ATOM     52  C   UNL     1     -15.037  -2.103   5.454  1.00  0.00     0.031 C 
ATOM     53  C   UNL     1     -16.133  -7.367   2.634  1.00  0.00     0.029 A 
ATOM     54  C   UNL     1     -15.486  -6.290   3.217  1.00  0.00     0.049 A 
ATOM     55  H   UNL     1     -13.417  -5.917   3.392  1.00  0.00     0.167 HD
ATOM     56  C   UNL     1     -15.361  -4.118   4.406  1.00  0.00     0.074 A 
ATOM     57  C   UNL     1     -15.960  -2.961   5.039  1.00  0.00     0.031 C 
ATOM     58  C   UNL     1     -16.066  -5.135   3.853  1.00  0.00     0.031 A 
BRANCH  45  59
ATOM     59  C   UNL     1     -12.565  -9.553   1.317  1.00  0.00    -0.014 A 
ATOM     60  C   UNL     1     -12.138 -10.751   1.919  1.00  0.00     0.010 A 
ATOM     61  C   UNL     1     -12.970  -9.570  -0.030  1.00  0.00     0.010 A 
ATOM     62  C   UNL     1     -12.074 -11.932   1.176  1.00  0.00     0.020 A 
ATOM     63  C   UNL     1     -12.934 -10.756  -0.769  1.00  0.00     0.020 A 
ATOM     64  C   UNL     1     -12.468 -11.926  -0.165  1.00  0.00     0.054 A 
BRANCH  64  65
ATOM     65  S   UNL     1     -12.390 -13.477  -1.102  1.00  0.00     0.124 S 
ATOM     66  O   UNL     1     -10.954 -13.618  -1.329  1.00  0.00    -0.237 OA
ATOM     67  O   UNL     1     -12.976 -14.442  -0.175  1.00  0.00    -0.237 OA
ATOM     68  O   UNL     1     -13.186 -13.202  -2.295  1.00  0.00    -0.744 OA
ENDBRANCH  64  65
ENDBRANCH  45  59
BRANCH  46  69
ATOM     69  C   UNL     1     -12.505  -0.841   6.209  1.00  0.00    -0.014 A 
ATOM     70  C   UNL     1     -12.928  -0.759   7.547  1.00  0.00     0.010 A 
ATOM     71  C   UNL     1     -12.074   0.327   5.555  1.00  0.00     0.010 A 
ATOM     72  C   UNL     1     -12.938   0.469   8.213  1.00  0.00     0.020 A 
ATOM     73  C   UNL     1     -12.059   1.554   6.226  1.00  0.00     0.020 A 
ATOM     74  C   UNL     1     -12.503   1.619   7.548  1.00  0.00     0.054 A 
BRANCH  74  75
ATOM     75  S   UNL     1     -12.476   3.194   8.449  1.00  0.00     0.124 S 
ATOM     76  O   UNL     1     -13.890   3.550   8.479  1.00  0.00    -0.237 OA
ATOM     77  O   UNL     1     -11.890   2.815   9.732  1.00  0.00    -0.237 OA
ATOM     78  O   UNL     1     -11.630   4.047   7.616  1.00  0.00    -0.744 OA
ENDBRANCH  74  75
ENDBRANCH  46  69
BRANCH  58  79
ATOM     79  C   UNL     1     -17.567  -5.063   3.937  1.00  0.00    -0.014 A 
ATOM     80  C   UNL     1     -18.299  -4.171   3.135  1.00  0.00     0.010 A 
ATOM     81  C   UNL     1     -18.255  -5.943   4.792  1.00  0.00     0.010 A 
ATOM     82  C   UNL     1     -19.695  -4.141   3.208  1.00  0.00     0.020 A 
ATOM     83  C   UNL     1     -19.650  -5.934   4.849  1.00  0.00     0.020 A 
ATOM     84  C   UNL     1     -20.361  -5.022   4.065  1.00  0.00     0.054 A 
BRANCH  84  85
ATOM     85  S   UNL     1     -22.174  -4.999   4.107  1.00  0.00     0.124 S 
ATOM     86  O   UNL     1     -22.444  -3.790   4.880  1.00  0.00    -0.237 OA
ATOM     87  O   UNL     1     -22.528  -4.932   2.691  1.00  0.00    -0.237 OA
ATOM     88  O   UNL     1     -22.521  -6.253   4.771  1.00  0.00    -0.744 OA
ENDBRANCH  84  85
ENDBRANCH  58  79
ENDBRANCH  32  33
ENDBRANCH  24  27
ENDBRANCH  22  23
ENDBRANCH  21  22
ENDBRANCH   1  21
TORSDOF 17
