REMARK SMILES CC[C@@H](C(=O)NCCCCNC(=O)c1ccc(-c2c3nc(c(-c4ccc(S(=O)(=O)[O-])cc4)c4ccc([nH]4)c(-c4ccc(S(=O)(=O)[O-])cc4)c4nc(c(-c5ccc(S(=O)(=O)[O-])cc5)c5ccc2[nH]5)C=C4)C=C3)cc1)N1C(=O)/C(=C\c2ccc(C(=O)OC)cc2)SC1=S
REMARK SMILES IDX 8 1 7 2 6 3 4 4 5 5 3 7 2 8 1 9 74 10 75 11 90 12 76 13
REMARK SMILES IDX 77 14 89 15 91 16 78 17 79 18 80 19 88 20 81 21 87 22 82 23
REMARK SMILES IDX 83 24 84 25 85 26 86 27 9 28 10 29 11 30 12 31 13 33 14 34
REMARK SMILES IDX 15 35 73 36 16 37 72 38 17 39 18 40 19 41 66 42 20 43 71 44
REMARK SMILES IDX 65 45 67 46 21 47 70 48 64 49 63 50 22 52 52 53 33 54 51 55
REMARK SMILES IDX 34 56 37 57 50 58 68 59 35 60 36 61 49 63 69 64 38 65 23 66
REMARK SMILES IDX 24 67 32 68 25 69 31 70 26 71 27 72 28 73 29 74 30 75 53 76
REMARK SMILES IDX 54 77 62 78 55 79 61 80 56 81 57 82 58 83 59 84 60 85 39 86
REMARK SMILES IDX 40 87 48 88 41 89 47 90 42 91 43 92 44 93 45 94 46 95
REMARK H PARENT 6 6 11 32 67 51 37 62
REMARK Flexibility Score: inf
ROOT
ATOM      1  C   UNL     1       0.998  -1.345  -2.030  1.00  0.00     0.023 C 
ENDROOT
BRANCH   1   2
ATOM      2  C   UNL     1       1.715  -0.012  -2.236  1.00  0.00     0.116 C 
BRANCH   2   3
ATOM      3  N   UNL     1       0.762   1.026  -2.551  1.00  0.00    -0.354 N 
ATOM      4  C   UNL     1       0.303   2.061  -1.795  1.00  0.00     0.243 C 
ATOM      5  O   UNL     1      -0.529   2.800  -2.330  1.00  0.00    -0.273 OA
ATOM      6  H   UNL     1       0.384   0.978  -3.459  1.00  0.00     0.163 HD
BRANCH   4   7
ATOM      7  C   UNL     1       0.868   2.337  -0.377  1.00  0.00     0.181 C 
BRANCH   7   8
ATOM      8  C   UNL     1       0.389   1.406   0.766  1.00  0.00     0.032 C 
ATOM      9  C   UNL     1       1.186   0.146   1.051  1.00  0.00     0.006 C 
ENDBRANCH   7   8
BRANCH   7  10
ATOM     10  N   UNL     1       0.486   3.748  -0.076  1.00  0.00    -0.280 N 
ATOM     11  C   UNL     1      -0.783   4.007   0.416  1.00  0.00     0.266 C 
ATOM     12  C   UNL     1       1.228   4.863  -0.406  1.00  0.00     0.149 C 
ATOM     13  O   UNL     1      -1.706   3.210   0.500  1.00  0.00    -0.268 OA
ATOM     14  C   UNL     1      -0.878   5.420   0.857  1.00  0.00     0.081 C 
ATOM     15  S   UNL     1       0.384   6.326   0.123  1.00  0.00    -0.054 SA
ATOM     16  S   UNL     1       2.724   4.927  -1.142  1.00  0.00    -0.052 S 
ATOM     17  C   UNL     1      -1.725   5.888   1.785  1.00  0.00     0.029 C 
BRANCH  17  18
ATOM     18  C   UNL     1      -2.634   5.026   2.554  1.00  0.00    -0.024 A 
ATOM     19  C   UNL     1      -4.015   5.095   2.357  1.00  0.00     0.009 A 
ATOM     20  C   UNL     1      -2.115   4.084   3.456  1.00  0.00     0.009 A 
ATOM     21  C   UNL     1      -4.865   4.212   3.034  1.00  0.00     0.016 A 
ATOM     22  C   UNL     1      -2.962   3.194   4.123  1.00  0.00     0.016 A 
ATOM     23  C   UNL     1      -4.344   3.249   3.910  1.00  0.00     0.060 A 
BRANCH  23  24
ATOM     24  C   UNL     1      -5.288   2.314   4.581  1.00  0.00     0.337 C 
ATOM     25  O   UNL     1      -6.505   2.416   4.510  1.00  0.00    -0.246 OA
BRANCH  24  26
ATOM     26  O   UNL     1      -4.614   1.356   5.266  1.00  0.00    -0.465 OA
ATOM     27  C   UNL     1      -5.456   0.398   5.908  1.00  0.00     0.282 C 
ENDBRANCH  24  26
ENDBRANCH  23  24
ENDBRANCH  17  18
ENDBRANCH   7  10
ENDBRANCH   4   7
ENDBRANCH   2   3
ENDBRANCH   1   2
BRANCH   1  28
ATOM     28  C   UNL     1       0.573  -2.041  -3.317  1.00  0.00     0.023 C 
BRANCH  28  29
ATOM     29  C   UNL     1       1.722  -2.430  -4.232  1.00  0.00     0.116 C 
BRANCH  29  30
ATOM     30  N   UNL     1       2.676  -3.336  -3.605  1.00  0.00    -0.352 N 
ATOM     31  C   UNL     1       3.198  -4.506  -4.109  1.00  0.00     0.251 C 
ATOM     32  H   UNL     1       2.987  -3.079  -2.707  1.00  0.00     0.163 HD
ATOM     33  O   UNL     1       3.895  -5.232  -3.410  1.00  0.00    -0.269 OA
BRANCH  31  34
ATOM     34  C   UNL     1       2.865  -4.884  -5.497  1.00  0.00     0.039 A 
ATOM     35  C   UNL     1       2.350  -6.155  -5.754  1.00  0.00     0.014 A 
ATOM     36  C   UNL     1       2.963  -3.935  -6.517  1.00  0.00     0.014 A 
ATOM     37  C   UNL     1       1.853  -6.446  -7.025  1.00  0.00     0.010 A 
ATOM     38  C   UNL     1       2.371  -4.191  -7.746  1.00  0.00     0.010 A 
ATOM     39  C   UNL     1       1.814  -5.450  -8.016  1.00  0.00    -0.014 A 
BRANCH  39  40
ATOM     40  C   UNL     1       1.205  -5.697  -9.348  1.00  0.00     0.031 A 
ATOM     41  C   UNL     1       2.048  -5.562 -10.588  1.00  0.00     0.074 A 
ATOM     42  C   UNL     1      -0.113  -5.963  -9.448  1.00  0.00     0.049 A 
ATOM     43  N   UNL     1       1.690  -5.649 -11.842  1.00  0.00    -0.248 NA
ATOM     44  C   UNL     1       3.476  -5.254 -10.393  1.00  0.00     0.031 C 
ATOM     45  C   UNL     1      -1.047  -6.074  -8.324  1.00  0.00     0.029 A 
ATOM     46  N   UNL     1      -0.901  -6.181 -10.552  1.00  0.00    -0.354 N 
ATOM     47  C   UNL     1       2.838  -5.386 -12.581  1.00  0.00     0.074 A 
ATOM     48  C   UNL     1       3.888  -5.075 -11.638  1.00  0.00     0.031 C 
ATOM     49  C   UNL     1      -2.270  -6.371  -8.794  1.00  0.00     0.029 A 
ATOM     50  C   UNL     1      -2.222  -6.422 -10.251  1.00  0.00     0.049 A 
ATOM     51  H   UNL     1      -0.553  -6.165 -11.472  1.00  0.00     0.167 HD
ATOM     52  C   UNL     1       3.010  -5.426 -13.922  1.00  0.00     0.031 A 
ATOM     53  C   UNL     1      -3.277  -6.650 -11.058  1.00  0.00     0.031 A 
ATOM     54  C   UNL     1       1.965  -5.753 -14.854  1.00  0.00     0.049 A 
ATOM     55  C   UNL     1      -3.064  -6.674 -12.548  1.00  0.00     0.074 A 
ATOM     56  C   UNL     1       2.050  -5.879 -16.229  1.00  0.00     0.029 A 
ATOM     57  N   UNL     1       0.646  -6.003 -14.508  1.00  0.00    -0.354 N 
ATOM     58  N   UNL     1      -1.954  -6.494 -13.225  1.00  0.00    -0.248 NA
ATOM     59  C   UNL     1      -4.242  -6.943 -13.384  1.00  0.00     0.031 C 
ATOM     60  C   UNL     1       0.769  -6.145 -16.721  1.00  0.00     0.029 A 
ATOM     61  C   UNL     1      -0.100  -6.256 -15.646  1.00  0.00     0.049 A 
ATOM     62  H   UNL     1       0.292  -6.002 -13.589  1.00  0.00     0.167 HD
ATOM     63  C   UNL     1      -2.295  -6.659 -14.563  1.00  0.00     0.074 A 
ATOM     64  C   UNL     1      -3.710  -6.967 -14.598  1.00  0.00     0.031 C 
ATOM     65  C   UNL     1      -1.507  -6.566 -15.663  1.00  0.00     0.031 A 
BRANCH  52  66
ATOM     66  C   UNL     1       4.380  -5.104 -14.460  1.00  0.00    -0.014 A 
ATOM     67  C   UNL     1       5.472  -5.962 -14.234  1.00  0.00     0.010 A 
ATOM     68  C   UNL     1       4.572  -3.945 -15.234  1.00  0.00     0.010 A 
ATOM     69  C   UNL     1       6.737  -5.647 -14.736  1.00  0.00     0.020 A 
ATOM     70  C   UNL     1       5.829  -3.643 -15.766  1.00  0.00     0.020 A 
ATOM     71  C   UNL     1       6.907  -4.488 -15.499  1.00  0.00     0.054 A 
BRANCH  71  72
ATOM     72  S   UNL     1       8.555  -4.121 -16.161  1.00  0.00     0.124 S 
ATOM     73  O   UNL     1       9.288  -3.749 -14.954  1.00  0.00    -0.237 OA
ATOM     74  O   UNL     1       8.945  -5.392 -16.766  1.00  0.00    -0.237 OA
ATOM     75  O   UNL     1       8.316  -3.032 -17.105  1.00  0.00    -0.744 OA
ENDBRANCH  71  72
ENDBRANCH  52  66
BRANCH  53  76
ATOM     76  C   UNL     1      -4.628  -6.884 -10.475  1.00  0.00    -0.014 A 
ATOM     77  C   UNL     1      -5.235  -8.150 -10.559  1.00  0.00     0.010 A 
ATOM     78  C   UNL     1      -5.316  -5.842  -9.826  1.00  0.00     0.010 A 
ATOM     79  C   UNL     1      -6.510  -8.364 -10.026  1.00  0.00     0.020 A 
ATOM     80  C   UNL     1      -6.577  -6.060  -9.263  1.00  0.00     0.020 A 
ATOM     81  C   UNL     1      -7.172  -7.317  -9.379  1.00  0.00     0.054 A 
BRANCH  81  82
ATOM     82  S   UNL     1      -8.806  -7.632  -8.655  1.00  0.00     0.124 S 
ATOM     83  O   UNL     1      -9.645  -7.757  -9.843  1.00  0.00    -0.237 OA
ATOM     84  O   UNL     1      -8.584  -8.864  -7.903  1.00  0.00    -0.237 OA
ATOM     85  O   UNL     1      -9.051  -6.447  -7.836  1.00  0.00    -0.744 OA
ENDBRANCH  81  82
ENDBRANCH  53  76
BRANCH  65  86
ATOM     86  C   UNL     1      -2.142  -6.841 -17.001  1.00  0.00    -0.014 A 
ATOM     87  C   UNL     1      -3.048  -5.937 -17.582  1.00  0.00     0.010 A 
ATOM     88  C   UNL     1      -1.765  -7.992 -17.718  1.00  0.00     0.010 A 
ATOM     89  C   UNL     1      -3.586  -6.193 -18.846  1.00  0.00     0.020 A 
ATOM     90  C   UNL     1      -2.275  -8.234 -18.995  1.00  0.00     0.020 A 
ATOM     91  C   UNL     1      -3.193  -7.338 -19.547  1.00  0.00     0.054 A 
BRANCH  91  92
ATOM     92  S   UNL     1      -3.862  -7.616 -21.209  1.00  0.00     0.124 S 
ATOM     93  O   UNL     1      -5.249  -7.970 -20.923  1.00  0.00    -0.237 OA
ATOM     94  O   UNL     1      -3.664  -6.320 -21.853  1.00  0.00    -0.237 OA
ATOM     95  O   UNL     1      -3.038  -8.700 -21.738  1.00  0.00    -0.744 OA
ENDBRANCH  91  92
ENDBRANCH  65  86
ENDBRANCH  39  40
ENDBRANCH  31  34
ENDBRANCH  29  30
ENDBRANCH  28  29
ENDBRANCH   1  28
TORSDOF 19
