REMARK SMILES N#Cc1ccc(N2CCC[C@@H]2CC(=O)NCCCCNC(=O)c2ccc(-c3c4nc(c(-c5ccc(S(=O)(=O)[O-])cc5)c5ccc([nH]5)c(-c5ccc(S(=O)(=O)[O-])cc5)c5nc(c(-c6ccc(S(=O)(=O)[O-])cc6)c6ccc3[nH]6)C=C5)C=C4)cc2)cc1[N+](=O)[O-]
REMARK SMILES IDX 17 1 16 2 15 3 13 4 14 5 12 7 11 8 7 9 8 10 9 11 10 12 6 13
REMARK SMILES IDX 3 14 4 15 84 16 5 17 83 18 2 19 1 20 85 21 86 22 87 23 18 24
REMARK SMILES IDX 19 25 20 26 21 27 22 29 23 30 24 31 82 32 25 33 81 34 26 35
REMARK SMILES IDX 27 36 28 37 75 38 29 39 80 40 74 41 76 42 30 43 79 44 73 45
REMARK SMILES IDX 72 46 31 48 61 49 42 50 60 51 43 52 46 53 59 54 77 55 44 56
REMARK SMILES IDX 45 57 58 59 78 60 47 61 32 62 33 63 41 64 34 65 40 66 35 67
REMARK SMILES IDX 36 68 37 69 38 70 39 71 62 72 63 73 71 74 64 75 70 76 65 77
REMARK SMILES IDX 66 78 67 79 68 80 69 81 48 82 49 83 57 84 50 85 56 86 51 87
REMARK SMILES IDX 52 88 53 89 54 90 55 91
REMARK H PARENT 15 6 20 28 76 47 46 58
REMARK Flexibility Score: inf
ROOT
ATOM      1  C   UNL     1       8.130   0.115   2.594  1.00  0.00     0.023 C 
ENDROOT
BRANCH   1   2
ATOM      2  C   UNL     1       6.956  -0.527   3.341  1.00  0.00     0.116 C 
BRANCH   2   3
ATOM      3  N   UNL     1       6.074   0.494   3.870  1.00  0.00    -0.356 N 
ATOM      4  C   UNL     1       4.870   0.927   3.398  1.00  0.00     0.222 C 
ATOM      5  O   UNL     1       4.380   1.945   3.890  1.00  0.00    -0.275 OA
ATOM      6  H   UNL     1       6.389   0.939   4.689  1.00  0.00     0.163 HD
BRANCH   4   7
ATOM      7  C   UNL     1       4.133   0.149   2.327  1.00  0.00     0.125 C 
BRANCH   7   8
ATOM      8  C   UNL     1       4.302   0.707   0.903  1.00  0.00     0.091 C 
ATOM      9  N   UNL     1       3.463  -0.057  -0.038  1.00  0.00    -0.368 N 
ATOM     10  C   UNL     1       4.249  -0.845  -0.990  1.00  0.00     0.117 C 
ATOM     11  C   UNL     1       5.613  -0.901  -0.332  1.00  0.00     0.024 C 
ATOM     12  C   UNL     1       5.683   0.484   0.282  1.00  0.00     0.027 C 
BRANCH   9  13
ATOM     13  C   UNL     1       2.100  -0.026  -0.050  1.00  0.00     0.044 A 
ATOM     14  C   UNL     1      -0.736  -0.011  -0.032  1.00  0.00     0.130 A 
ATOM     15  C   UNL     1      -0.004   1.184   0.044  1.00  0.00     0.029 A 
ATOM     16  C   UNL     1      -0.032  -1.219  -0.111  1.00  0.00     0.289 A 
ATOM     17  C   UNL     1       1.392   1.171   0.050  1.00  0.00     0.028 A 
ATOM     18  C   UNL     1       1.372  -1.215  -0.131  1.00  0.00     0.113 A 
BRANCH  14  19
ATOM     19  C   UNL     1      -2.163   0.103  -0.013  1.00  0.00     0.106 C 
ATOM     20  N   UNL     1      -3.314   0.272   0.004  1.00  0.00    -0.192 NA
ENDBRANCH  14  19
BRANCH  16  21
ATOM     21  N   UNL     1      -0.696  -2.528  -0.163  1.00  0.00     0.064 N 
ATOM     22  O   UNL     1       0.011  -3.537  -0.020  1.00  0.00    -0.258 OA
ATOM     23  O   UNL     1      -1.914  -2.564  -0.363  1.00  0.00    -0.258 OA
ENDBRANCH  16  21
ENDBRANCH   9  13
ENDBRANCH   7   8
ENDBRANCH   4   7
ENDBRANCH   2   3
ENDBRANCH   1   2
BRANCH   1  24
ATOM     24  C   UNL     1       9.301   0.544   3.445  1.00  0.00     0.023 C 
BRANCH  24  25
ATOM     25  C   UNL     1       9.950  -0.587   4.201  1.00  0.00     0.116 C 
BRANCH  25  26
ATOM     26  N   UNL     1      10.415  -1.663   3.334  1.00  0.00    -0.352 N 
ATOM     27  C   UNL     1      11.647  -2.273   3.338  1.00  0.00     0.251 C 
ATOM     28  H   UNL     1       9.771  -1.991   2.666  1.00  0.00     0.163 HD
ATOM     29  O   UNL     1      11.961  -3.056   2.450  1.00  0.00    -0.269 OA
BRANCH  27  30
ATOM     30  C   UNL     1      12.587  -1.927   4.421  1.00  0.00     0.039 A 
ATOM     31  C   UNL     1      13.904  -1.601   4.108  1.00  0.00     0.014 A 
ATOM     32  C   UNL     1      12.115  -1.816   5.732  1.00  0.00     0.014 A 
ATOM     33  C   UNL     1      14.735  -1.109   5.113  1.00  0.00     0.010 A 
ATOM     34  C   UNL     1      12.891  -1.181   6.684  1.00  0.00     0.010 A 
ATOM     35  C   UNL     1      14.224  -0.862   6.399  1.00  0.00    -0.014 A 
BRANCH  35  36
ATOM     36  C   UNL     1      15.082  -0.326   7.481  1.00  0.00     0.031 A 
ATOM     37  C   UNL     1      15.273  -1.127   8.742  1.00  0.00     0.074 A 
ATOM     38  C   UNL     1      15.650   0.887   7.351  1.00  0.00     0.049 A 
ATOM     39  N   UNL     1      15.973  -0.834   9.806  1.00  0.00    -0.248 NA
ATOM     40  C   UNL     1      14.552  -2.409   8.837  1.00  0.00     0.031 C 
ATOM     41  C   UNL     1      15.482   1.784   6.204  1.00  0.00     0.029 A 
ATOM     42  N   UNL     1      16.485   1.576   8.192  1.00  0.00    -0.354 N 
ATOM     43  C   UNL     1      15.764  -1.884  10.693  1.00  0.00     0.074 A 
ATOM     44  C   UNL     1      14.803  -2.772  10.083  1.00  0.00     0.031 C 
ATOM     45  C   UNL     1      16.226   2.885   6.396  1.00  0.00     0.029 A 
ATOM     46  C   UNL     1      16.882   2.795   7.697  1.00  0.00     0.049 A 
ATOM     47  H   UNL     1      16.774   1.229   9.067  1.00  0.00     0.167 HD
ATOM     48  C   UNL     1      16.347  -2.111  11.893  1.00  0.00     0.031 A 
ATOM     49  C   UNL     1      17.678   3.739   8.234  1.00  0.00     0.031 A 
ATOM     50  C   UNL     1      17.296  -1.216  12.495  1.00  0.00     0.049 A 
ATOM     51  C   UNL     1      18.307   3.481   9.574  1.00  0.00     0.074 A 
ATOM     52  C   UNL     1      17.986  -1.365  13.683  1.00  0.00     0.029 A 
ATOM     53  N   UNL     1      17.680   0.006  11.958  1.00  0.00    -0.354 N 
ATOM     54  N   UNL     1      18.166   2.442  10.364  1.00  0.00    -0.248 NA
ATOM     55  C   UNL     1      19.218   4.511  10.087  1.00  0.00     0.031 C 
ATOM     56  C   UNL     1      18.728  -0.200  13.903  1.00  0.00     0.029 A 
ATOM     57  C   UNL     1      18.571   0.637  12.808  1.00  0.00     0.049 A 
ATOM     58  H   UNL     1      17.364   0.369  11.099  1.00  0.00     0.167 HD
ATOM     59  C   UNL     1      18.990   2.681  11.458  1.00  0.00     0.074 A 
ATOM     60  C   UNL     1      19.639   3.955  11.215  1.00  0.00     0.031 C 
ATOM     61  C   UNL     1      19.195   1.915  12.559  1.00  0.00     0.031 A 
BRANCH  48  62
ATOM     62  C   UNL     1      15.943  -3.365  12.628  1.00  0.00    -0.014 A 
ATOM     63  C   UNL     1      16.216  -4.645  12.105  1.00  0.00     0.010 A 
ATOM     64  C   UNL     1      15.262  -3.265  13.854  1.00  0.00     0.010 A 
ATOM     65  C   UNL     1      15.752  -5.792  12.754  1.00  0.00     0.020 A 
ATOM     66  C   UNL     1      14.834  -4.412  14.529  1.00  0.00     0.020 A 
ATOM     67  C   UNL     1      15.058  -5.667  13.960  1.00  0.00     0.054 A 
BRANCH  67  68
ATOM     68  S   UNL     1      14.453  -7.171  14.772  1.00  0.00     0.124 S 
ATOM     69  O   UNL     1      13.382  -7.589  13.871  1.00  0.00    -0.237 OA
ATOM     70  O   UNL     1      15.637  -8.026  14.779  1.00  0.00    -0.237 OA
ATOM     71  O   UNL     1      14.015  -6.705  16.085  1.00  0.00    -0.744 OA
ENDBRANCH  67  68
ENDBRANCH  48  62
BRANCH  49  72
ATOM     72  C   UNL     1      17.915   5.005   7.487  1.00  0.00    -0.014 A 
ATOM     73  C   UNL     1      19.166   5.287   6.912  1.00  0.00     0.010 A 
ATOM     74  C   UNL     1      16.856   5.913   7.296  1.00  0.00     0.010 A 
ATOM     75  C   UNL     1      19.353   6.452   6.160  1.00  0.00     0.020 A 
ATOM     76  C   UNL     1      17.029   7.059   6.519  1.00  0.00     0.020 A 
ATOM     77  C   UNL     1      18.279   7.324   5.957  1.00  0.00     0.054 A 
BRANCH  77  78
ATOM     78  S   UNL     1      18.519   8.778   4.900  1.00  0.00     0.124 S 
ATOM     79  O   UNL     1      19.402   9.606   5.715  1.00  0.00    -0.237 OA
ATOM     80  O   UNL     1      19.121   8.197   3.703  1.00  0.00    -0.237 OA
ATOM     81  O   UNL     1      17.165   9.297   4.718  1.00  0.00    -0.744 OA
ENDBRANCH  77  78
ENDBRANCH  49  72
BRANCH  61  82
ATOM     82  C   UNL     1      20.191   2.414  13.575  1.00  0.00    -0.014 A 
ATOM     83  C   UNL     1      19.938   3.553  14.359  1.00  0.00     0.010 A 
ATOM     84  C   UNL     1      21.384   1.695  13.778  1.00  0.00     0.010 A 
ATOM     85  C   UNL     1      20.880   3.989  15.296  1.00  0.00     0.020 A 
ATOM     86  C   UNL     1      22.309   2.104  14.740  1.00  0.00     0.020 A 
ATOM     87  C   UNL     1      22.059   3.260  15.480  1.00  0.00     0.054 A 
BRANCH  87  88
ATOM     88  S   UNL     1      23.250   3.830  16.722  1.00  0.00     0.124 S 
ATOM     89  O   UNL     1      23.769   5.049  16.109  1.00  0.00    -0.237 OA
ATOM     90  O   UNL     1      22.411   4.027  17.901  1.00  0.00    -0.237 OA
ATOM     91  O   UNL     1      24.205   2.728  16.820  1.00  0.00    -0.744 OA
ENDBRANCH  87  88
ENDBRANCH  61  82
ENDBRANCH  35  36
ENDBRANCH  27  30
ENDBRANCH  25  26
ENDBRANCH  24  25
ENDBRANCH   1  24
TORSDOF 18
