REMARK SMILES CCOc1ccc(N2C[C@H](C(=O)NCCCCNC(=O)c3ccc(-c4c5nc(c(-c6ccc(S(=O)(=O)[O-])cc6)c6ccc([nH]6)c(-c6ccc(S(=O)(=O)[O-])cc6)c6nc(c(-c7ccc(S(=O)(=O)[O-])cc7)c7ccc4[nH]7)C=C6)C=C5)cc3)CC2=O)cc1C(F)(F)F
REMARK SMILES IDX 15 1 14 2 13 3 11 4 12 5 10 7 8 8 9 9 82 10 81 11 83 12 7 13
REMARK SMILES IDX 4 14 5 15 85 16 6 17 84 18 3 19 2 20 1 21 86 22 87 23 88 24
REMARK SMILES IDX 89 25 16 26 17 27 18 28 19 29 20 31 21 32 22 33 80 34 23 35
REMARK SMILES IDX 79 36 24 37 25 38 26 39 73 40 27 41 78 42 72 43 74 44 28 45
REMARK SMILES IDX 77 46 71 47 70 48 29 50 59 51 40 52 58 53 41 54 44 55 57 56
REMARK SMILES IDX 75 57 42 58 43 59 56 61 76 62 45 63 30 64 31 65 39 66 32 67
REMARK SMILES IDX 38 68 33 69 34 70 35 71 36 72 37 73 60 74 61 75 69 76 62 77
REMARK SMILES IDX 68 78 63 79 64 80 65 81 66 82 67 83 46 84 47 85 55 86 48 87
REMARK SMILES IDX 54 88 49 89 50 90 51 91 52 92 53 93
REMARK H PARENT 13 6 18 30 74 49 44 60
REMARK Flexibility Score: inf
ROOT
ATOM      1  C   UNL     1       7.614  -5.725  -3.222  1.00  0.00     0.023 C 
ENDROOT
BRANCH   1   2
ATOM      2  C   UNL     1       8.837  -4.829  -3.383  1.00  0.00     0.116 C 
BRANCH   2   3
ATOM      3  N   UNL     1       8.822  -4.072  -4.622  1.00  0.00    -0.356 N 
ATOM      4  C   UNL     1       8.835  -2.759  -4.938  1.00  0.00     0.225 C 
ATOM      5  O   UNL     1       8.915  -2.499  -6.147  1.00  0.00    -0.275 OA
ATOM      6  H   UNL     1       8.797  -4.651  -5.418  1.00  0.00     0.163 HD
BRANCH   4   7
ATOM      7  C   UNL     1       8.658  -1.590  -3.981  1.00  0.00     0.107 C 
ATOM      8  N   UNL     1       6.616  -1.600  -2.810  1.00  0.00    -0.312 N 
ATOM      9  C   UNL     1       7.216  -1.111  -4.031  1.00  0.00     0.139 C 
ATOM     10  C   UNL     1       7.601  -2.046  -1.918  1.00  0.00     0.227 C 
ATOM     11  C   UNL     1       8.950  -1.715  -2.508  1.00  0.00     0.116 C 
ATOM     12  O   UNL     1       7.470  -2.579  -0.826  1.00  0.00    -0.274 OA
BRANCH   8  13
ATOM     13  C   UNL     1       5.223  -1.501  -2.546  1.00  0.00     0.044 A 
ATOM     14  C   UNL     1       2.471  -1.189  -1.974  1.00  0.00     0.131 A 
ATOM     15  C   UNL     1       2.937  -1.070  -3.284  1.00  0.00     0.049 A 
ATOM     16  C   UNL     1       3.351  -1.511  -0.943  1.00  0.00     0.100 A 
ATOM     17  C   UNL     1       4.303  -1.210  -3.563  1.00  0.00     0.030 A 
ATOM     18  C   UNL     1       4.722  -1.651  -1.246  1.00  0.00     0.043 A 
BRANCH  14  19
ATOM     19  O   UNL     1       1.132  -1.097  -1.727  1.00  0.00    -0.493 OA
BRANCH  19  20
ATOM     20  C   UNL     1       0.642   0.249  -1.760  1.00  0.00     0.226 C 
ATOM     21  C   UNL     1       0.324   0.699  -0.344  1.00  0.00     0.049 C 
ENDBRANCH  19  20
ENDBRANCH  14  19
BRANCH  16  22
ATOM     22  C   UNL     1       2.914  -1.635   0.491  1.00  0.00     0.420 C 
ATOM     23  F   UNL     1       3.673  -2.515   1.206  1.00  0.00    -0.166 F 
ATOM     24  F   UNL     1       3.027  -0.446   1.155  1.00  0.00    -0.166 F 
ATOM     25  F   UNL     1       1.628  -2.040   0.676  1.00  0.00    -0.166 F 
ENDBRANCH  16  22
ENDBRANCH   8  13
ENDBRANCH   4   7
ENDBRANCH   2   3
ENDBRANCH   1   2
BRANCH   1  26
ATOM     26  C   UNL     1       7.542  -6.909  -4.187  1.00  0.00     0.023 C 
BRANCH  26  27
ATOM     27  C   UNL     1       8.774  -7.807  -4.233  1.00  0.00     0.116 C 
BRANCH  27  28
ATOM     28  N   UNL     1       9.166  -8.333  -2.933  1.00  0.00    -0.352 N 
ATOM     29  C   UNL     1       9.583  -9.603  -2.607  1.00  0.00     0.251 C 
ATOM     30  H   UNL     1       9.128  -7.692  -2.186  1.00  0.00     0.163 HD
ATOM     31  O   UNL     1       9.800  -9.901  -1.437  1.00  0.00    -0.269 OA
BRANCH  29  32
ATOM     32  C   UNL     1       9.726 -10.617  -3.673  1.00  0.00     0.039 A 
ATOM     33  C   UNL     1       9.108 -11.859  -3.510  1.00  0.00     0.014 A 
ATOM     34  C   UNL     1      10.422 -10.322  -4.848  1.00  0.00     0.014 A 
ATOM     35  C   UNL     1       9.119 -12.778  -4.562  1.00  0.00     0.010 A 
ATOM     36  C   UNL     1      10.369 -11.209  -5.919  1.00  0.00     0.010 A 
ATOM     37  C   UNL     1       9.712 -12.443  -5.791  1.00  0.00    -0.014 A 
BRANCH  37  38
ATOM     38  C   UNL     1       9.652 -13.362  -6.956  1.00  0.00     0.031 A 
ATOM     39  C   UNL     1      10.921 -13.932  -7.530  1.00  0.00     0.074 A 
ATOM     40  C   UNL     1       8.466 -13.630  -7.539  1.00  0.00     0.049 A 
ATOM     41  N   UNL     1      11.082 -14.684  -8.588  1.00  0.00    -0.248 NA
ATOM     42  C   UNL     1      12.175 -13.591  -6.839  1.00  0.00     0.031 C 
ATOM     43  C   UNL     1       7.167 -13.111  -7.101  1.00  0.00     0.029 A 
ATOM     44  N   UNL     1       8.160 -14.402  -8.632  1.00  0.00    -0.354 N 
ATOM     45  C   UNL     1      12.452 -14.893  -8.698  1.00  0.00     0.074 A 
ATOM     46  C   UNL     1      13.081 -14.143  -7.633  1.00  0.00     0.031 C 
ATOM     47  C   UNL     1       6.205 -13.604  -7.898  1.00  0.00     0.029 A 
ATOM     48  C   UNL     1       6.817 -14.437  -8.927  1.00  0.00     0.049 A 
ATOM     49  H   UNL     1       8.839 -14.886  -9.156  1.00  0.00     0.167 HD
ATOM     50  C   UNL     1      13.127 -15.657  -9.590  1.00  0.00     0.031 A 
ATOM     51  C   UNL     1       6.154 -15.064  -9.918  1.00  0.00     0.031 A 
ATOM     52  C   UNL     1      12.499 -16.412 -10.642  1.00  0.00     0.049 A 
ATOM     53  C   UNL     1       6.927 -15.893 -10.907  1.00  0.00     0.074 A 
ATOM     54  C   UNL     1      13.091 -17.249 -11.572  1.00  0.00     0.029 A 
ATOM     55  N   UNL     1      11.137 -16.426 -10.900  1.00  0.00    -0.354 N 
ATOM     56  N   UNL     1       8.218 -16.117 -10.964  1.00  0.00    -0.248 NA
ATOM     57  C   UNL     1       6.151 -16.564 -11.960  1.00  0.00     0.031 C 
ATOM     58  C   UNL     1      12.091 -17.736 -12.419  1.00  0.00     0.029 A 
ATOM     59  C   UNL     1      10.870 -17.245 -11.984  1.00  0.00     0.049 A 
ATOM     60  H   UNL     1      10.460 -15.927 -10.389  1.00  0.00     0.167 HD
ATOM     61  C   UNL     1       8.405 -16.979 -12.039  1.00  0.00     0.074 A 
ATOM     62  C   UNL     1       7.095 -17.245 -12.596  1.00  0.00     0.031 C 
ATOM     63  C   UNL     1       9.559 -17.505 -12.521  1.00  0.00     0.031 A 
BRANCH  50  64
ATOM     64  C   UNL     1      14.626 -15.715  -9.460  1.00  0.00    -0.014 A 
ATOM     65  C   UNL     1      15.232 -16.379  -8.377  1.00  0.00     0.010 A 
ATOM     66  C   UNL     1      15.441 -15.126 -10.444  1.00  0.00     0.010 A 
ATOM     67  C   UNL     1      16.623 -16.414  -8.257  1.00  0.00     0.020 A 
ATOM     68  C   UNL     1      16.834 -15.185 -10.342  1.00  0.00     0.020 A 
ATOM     69  C   UNL     1      17.415 -15.813  -9.239  1.00  0.00     0.054 A 
BRANCH  69  70
ATOM     70  S   UNL     1      19.219 -15.890  -9.065  1.00  0.00     0.124 S 
ATOM     71  O   UNL     1      19.458 -14.933  -7.988  1.00  0.00    -0.237 OA
ATOM     72  O   UNL     1      19.449 -17.291  -8.722  1.00  0.00    -0.237 OA
ATOM     73  O   UNL     1      19.712 -15.485 -10.380  1.00  0.00    -0.744 OA
ENDBRANCH  69  70
ENDBRANCH  50  64
BRANCH  51  74
ATOM     74  C   UNL     1       4.672 -14.951 -10.017  1.00  0.00    -0.014 A 
ATOM     75  C   UNL     1       3.854 -16.060  -9.736  1.00  0.00     0.010 A 
ATOM     76  C   UNL     1       4.070 -13.738 -10.398  1.00  0.00     0.010 A 
ATOM     77  C   UNL     1       2.465 -15.967  -9.860  1.00  0.00     0.020 A 
ATOM     78  C   UNL     1       2.679 -13.633 -10.497  1.00  0.00     0.020 A 
ATOM     79  C   UNL     1       1.886 -14.754 -10.242  1.00  0.00     0.054 A 
BRANCH  79  80
ATOM     80  S   UNL     1       0.079 -14.646 -10.364  1.00  0.00     0.124 S 
ATOM     81  O   UNL     1      -0.184 -15.372 -11.603  1.00  0.00    -0.237 OA
ATOM     82  O   UNL     1      -0.362 -15.306  -9.138  1.00  0.00    -0.237 OA
ATOM     83  O   UNL     1      -0.174 -13.208 -10.415  1.00  0.00    -0.744 OA
ENDBRANCH  79  80
ENDBRANCH  51  74
BRANCH  63  84
ATOM     84  C   UNL     1       9.454 -18.457 -13.681  1.00  0.00    -0.014 A 
ATOM     85  C   UNL     1       9.157 -18.000 -14.977  1.00  0.00     0.010 A 
ATOM     86  C   UNL     1       9.716 -19.825 -13.479  1.00  0.00     0.010 A 
ATOM     87  C   UNL     1       9.094 -18.899 -16.045  1.00  0.00     0.020 A 
ATOM     88  C   UNL     1       9.681 -20.722 -14.549  1.00  0.00     0.020 A 
ATOM     89  C   UNL     1       9.356 -20.255 -15.824  1.00  0.00     0.054 A 
BRANCH  89  90
ATOM     90  S   UNL     1       9.316 -21.393 -17.235  1.00  0.00     0.124 S 
ATOM     91  O   UNL     1       7.883 -21.523 -17.480  1.00  0.00    -0.237 OA
ATOM     92  O   UNL     1      10.066 -20.666 -18.256  1.00  0.00    -0.237 OA
ATOM     93  O   UNL     1       9.974 -22.596 -16.728  1.00  0.00    -0.744 OA
ENDBRANCH  89  90
ENDBRANCH  63  84
ENDBRANCH  37  38
ENDBRANCH  29  32
ENDBRANCH  27  28
ENDBRANCH  26  27
ENDBRANCH   1  26
TORSDOF 18
