REMARK SMILES [NH3+]Cc1c(-c2ccccc2)c(C(=O)NCCCCNC(=O)c2ccc(-c3c4nc(c(-c5ccc(S(=O)(=O)[O-])cc5)c5ccc([nH]5)c(-c5ccc(S(=O)(=O)[O-])cc5)c5nc(c(-c6ccc(S(=O)(=O)[O-])cc6)c6ccc3[nH]6)C=C5)C=C4)cc2)c2ccccn12
REMARK SMILES IDX 17 1 16 2 15 3 14 4 12 5 13 6 11 8 3 9 4 10 87 11 82 12
REMARK SMILES IDX 86 13 83 14 85 15 84 16 2 17 1 18 5 22 6 23 10 24 7 25 9 26
REMARK SMILES IDX 8 27 18 28 19 29 20 30 21 32 22 33 23 34 81 35 24 36 80 37
REMARK SMILES IDX 25 38 26 39 27 40 74 41 28 42 79 43 73 44 75 45 29 46 78 47
REMARK SMILES IDX 72 48 71 49 30 51 60 52 41 53 59 54 42 55 45 56 58 57 76 58
REMARK SMILES IDX 43 59 44 60 57 62 77 63 46 64 31 65 32 66 40 67 33 68 39 69
REMARK SMILES IDX 34 70 35 71 36 72 37 73 38 74 61 75 62 76 70 77 63 78 69 79
REMARK SMILES IDX 64 80 65 81 66 82 67 83 68 84 47 85 48 86 56 87 49 88 55 89
REMARK SMILES IDX 50 90 51 91 52 92 53 93 54 94
REMARK H PARENT 14 7 1 19 1 20 1 21 19 31 75 50 45 61
REMARK Flexibility Score: inf
ROOT
ATOM      1  C   UNL     1       1.034  -6.212   7.295  1.00  0.00     0.023 C 
ENDROOT
BRANCH   1   2
ATOM      2  C   UNL     1       0.660  -4.903   6.602  1.00  0.00     0.023 C 
BRANCH   2   3
ATOM      3  C   UNL     1       1.490  -4.489   5.390  1.00  0.00     0.116 C 
BRANCH   3   4
ATOM      4  N   UNL     1       1.521  -5.439   4.296  1.00  0.00    -0.352 N 
ATOM      5  C   UNL     1       1.648  -5.241   2.934  1.00  0.00     0.254 C 
ATOM      6  O   UNL     1       1.720  -6.249   2.235  1.00  0.00    -0.269 OA
ATOM      7  H   UNL     1       1.438  -6.382   4.568  1.00  0.00     0.163 HD
BRANCH   5   8
ATOM      8  C   UNL     1       1.608  -3.895   2.349  1.00  0.00     0.073 A 
ATOM      9  C   UNL     1       1.034  -2.147   0.947  1.00  0.00     0.086 A 
ATOM     10  C   UNL     1       1.022  -3.539   1.086  1.00  0.00     0.022 A 
ATOM     11  N   UNL     1       1.650  -1.650   2.088  1.00  0.00    -0.314 N 
ATOM     12  C   UNL     1       2.206  -2.724   2.792  1.00  0.00     0.059 A 
ATOM     13  C   UNL     1       1.769  -0.336   2.562  1.00  0.00     0.092 A 
ATOM     14  C   UNL     1       3.160  -2.407   3.809  1.00  0.00     0.027 A 
ATOM     15  C   UNL     1       2.541  -0.064   3.627  1.00  0.00     0.018 A 
ATOM     16  C   UNL     1       3.304  -1.138   4.226  1.00  0.00     0.004 A 
BRANCH   9  17
ATOM     17  C   UNL     1       0.444  -1.354  -0.186  1.00  0.00     0.315 C 
BRANCH  17  18
ATOM     18  N   UNL     1       1.056  -0.064  -0.459  1.00  0.00    -0.353 N 
ATOM     19  H   UNL     1       0.578   0.381  -1.243  1.00  0.00     0.344 HD
ATOM     20  H   UNL     1       2.040  -0.197  -0.693  1.00  0.00     0.344 HD
ATOM     21  H   UNL     1       0.981   0.530   0.367  1.00  0.00     0.344 HD
ENDBRANCH  17  18
ENDBRANCH   9  17
BRANCH  10  22
ATOM     22  C   UNL     1       0.467  -4.411   0.059  1.00  0.00    -0.016 A 
ATOM     23  C   UNL     1      -0.773  -5.030   0.229  1.00  0.00     0.009 A 
ATOM     24  C   UNL     1       1.187  -4.621  -1.127  1.00  0.00     0.009 A 
ATOM     25  C   UNL     1      -1.294  -5.840  -0.784  1.00  0.00     0.001 A 
ATOM     26  C   UNL     1       0.661  -5.424  -2.140  1.00  0.00     0.001 A 
ATOM     27  C   UNL     1      -0.580  -6.033  -1.969  1.00  0.00     0.000 A 
ENDBRANCH  10  22
ENDBRANCH   5   8
ENDBRANCH   3   4
ENDBRANCH   2   3
ENDBRANCH   1   2
BRANCH   1  28
ATOM     28  C   UNL     1       2.514  -6.447   7.582  1.00  0.00     0.116 C 
BRANCH  28  29
ATOM     29  N   UNL     1       3.128  -5.432   8.425  1.00  0.00    -0.352 N 
ATOM     30  C   UNL     1       3.760  -5.541   9.644  1.00  0.00     0.251 C 
ATOM     31  H   UNL     1       3.085  -4.516   8.064  1.00  0.00     0.163 HD
ATOM     32  O   UNL     1       4.159  -4.525  10.208  1.00  0.00    -0.269 OA
BRANCH  30  33
ATOM     33  C   UNL     1       3.918  -6.859  10.302  1.00  0.00     0.039 A 
ATOM     34  C   UNL     1       3.612  -6.970  11.662  1.00  0.00     0.014 A 
ATOM     35  C   UNL     1       4.347  -7.984   9.595  1.00  0.00     0.014 A 
ATOM     36  C   UNL     1       3.636  -8.224  12.283  1.00  0.00     0.010 A 
ATOM     37  C   UNL     1       4.287  -9.243  10.191  1.00  0.00     0.010 A 
ATOM     38  C   UNL     1       3.921  -9.380  11.538  1.00  0.00    -0.014 A 
BRANCH  38  39
ATOM     39  C   UNL     1       3.818 -10.736  12.144  1.00  0.00     0.031 A 
ATOM     40  C   UNL     1       5.027 -11.629  12.230  1.00  0.00     0.074 A 
ATOM     41  C   UNL     1       2.617 -11.194  12.554  1.00  0.00     0.049 A 
ATOM     42  N   UNL     1       5.115 -12.858  12.673  1.00  0.00    -0.248 NA
ATOM     43  C   UNL     1       6.297 -11.082  11.727  1.00  0.00     0.031 C 
ATOM     44  C   UNL     1       1.354 -10.455  12.477  1.00  0.00     0.029 A 
ATOM     45  N   UNL     1       2.259 -12.397  13.112  1.00  0.00    -0.354 N 
ATOM     46  C   UNL     1       6.439 -13.236  12.483  1.00  0.00     0.074 A 
ATOM     47  C   UNL     1       7.106 -12.126  11.839  1.00  0.00     0.031 C 
ATOM     48  C   UNL     1       0.369 -11.206  12.997  1.00  0.00     0.029 A 
ATOM     49  C   UNL     1       0.919 -12.493  13.410  1.00  0.00     0.049 A 
ATOM     50  H   UNL     1       2.901 -13.123  13.284  1.00  0.00     0.167 HD
ATOM     51  C   UNL     1       7.053 -14.393  12.832  1.00  0.00     0.031 A 
ATOM     52  C   UNL     1       0.208 -13.501  13.952  1.00  0.00     0.031 A 
ATOM     53  C   UNL     1       6.396 -15.491  13.490  1.00  0.00     0.049 A 
ATOM     54  C   UNL     1       0.913 -14.771  14.342  1.00  0.00     0.074 A 
ATOM     55  C   UNL     1       6.947 -16.677  13.943  1.00  0.00     0.029 A 
ATOM     56  N   UNL     1       5.043 -15.538  13.792  1.00  0.00    -0.354 N 
ATOM     57  N   UNL     1       2.182 -15.079  14.219  1.00  0.00    -0.248 NA
ATOM     58  C   UNL     1       0.092 -15.825  14.954  1.00  0.00     0.031 C 
ATOM     59  C   UNL     1       5.920 -17.460  14.479  1.00  0.00     0.029 A 
ATOM     60  C   UNL     1       4.738 -16.741  14.406  1.00  0.00     0.049 A 
ATOM     61  H   UNL     1       4.396 -14.822  13.598  1.00  0.00     0.167 HD
ATOM     62  C   UNL     1       2.315 -16.354  14.760  1.00  0.00     0.074 A 
ATOM     63  C   UNL     1       1.002 -16.751  15.225  1.00  0.00     0.031 C 
ATOM     64  C   UNL     1       3.426 -17.125  14.861  1.00  0.00     0.031 A 
BRANCH  51  65
ATOM     65  C   UNL     1       8.517 -14.526  12.506  1.00  0.00    -0.014 A 
ATOM     66  C   UNL     1       9.484 -13.770  13.194  1.00  0.00     0.010 A 
ATOM     67  C   UNL     1       8.937 -15.438  11.521  1.00  0.00     0.010 A 
ATOM     68  C   UNL     1      10.838 -13.888  12.872  1.00  0.00     0.020 A 
ATOM     69  C   UNL     1      10.294 -15.581  11.215  1.00  0.00     0.020 A 
ATOM     70  C   UNL     1      11.234 -14.790  11.879  1.00  0.00     0.054 A 
BRANCH  70  71
ATOM     71  S   UNL     1      13.000 -14.933  11.490  1.00  0.00     0.124 S 
ATOM     72  O   UNL     1      13.242 -13.702  10.741  1.00  0.00    -0.237 OA
ATOM     73  O   UNL     1      13.617 -14.994  12.813  1.00  0.00    -0.237 OA
ATOM     74  O   UNL     1      13.084 -16.165  10.710  1.00  0.00    -0.744 OA
ENDBRANCH  70  71
ENDBRANCH  51  65
BRANCH  52  75
ATOM     75  C   UNL     1      -1.254 -13.342  14.182  1.00  0.00    -0.014 A 
ATOM     76  C   UNL     1      -1.757 -13.194  15.487  1.00  0.00     0.010 A 
ATOM     77  C   UNL     1      -2.151 -13.325  13.098  1.00  0.00     0.010 A 
ATOM     78  C   UNL     1      -3.130 -13.050  15.705  1.00  0.00     0.020 A 
ATOM     79  C   UNL     1      -3.522 -13.155  13.311  1.00  0.00     0.020 A 
ATOM     80  C   UNL     1      -4.004 -13.030  14.615  1.00  0.00     0.054 A 
BRANCH  80  81
ATOM     81  S   UNL     1      -5.777 -12.786  14.918  1.00  0.00     0.124 S 
ATOM     82  O   UNL     1      -6.180 -14.091  15.431  1.00  0.00    -0.237 OA
ATOM     83  O   UNL     1      -5.785 -11.694  15.889  1.00  0.00    -0.237 OA
ATOM     84  O   UNL     1      -6.303 -12.440  13.599  1.00  0.00    -0.744 OA
ENDBRANCH  80  81
ENDBRANCH  52  75
BRANCH  64  85
ATOM     85  C   UNL     1       3.276 -18.468  15.524  1.00  0.00    -0.014 A 
ATOM     86  C   UNL     1       2.628 -19.532  14.873  1.00  0.00     0.010 A 
ATOM     87  C   UNL     1       3.838 -18.681  16.796  1.00  0.00     0.010 A 
ATOM     88  C   UNL     1       2.515 -20.777  15.498  1.00  0.00     0.020 A 
ATOM     89  C   UNL     1       3.750 -19.931  17.412  1.00  0.00     0.020 A 
ATOM     90  C   UNL     1       3.076 -20.968  16.764  1.00  0.00     0.054 A 
BRANCH  90  91
ATOM     91  S   UNL     1       2.953 -22.605  17.537  1.00  0.00     0.124 S 
ATOM     92  O   UNL     1       1.557 -22.633  17.967  1.00  0.00    -0.237 OA
ATOM     93  O   UNL     1       3.290 -23.506  16.438  1.00  0.00    -0.237 OA
ATOM     94  O   UNL     1       3.937 -22.553  18.616  1.00  0.00    -0.744 OA
ENDBRANCH  90  91
ENDBRANCH  64  85
ENDBRANCH  38  39
ENDBRANCH  30  33
ENDBRANCH  28  29
ENDBRANCH   1  28
TORSDOF 17
