REMARK SMILES COc1ccccc1NC(=O)N[C@@](C)(C(=O)NCCCCNC(=O)c1ccc(-c2c3nc(c(-c4ccc(S(=O)(=O)[O-])cc4)c4ccc([nH]4)c(-c4ccc(S(=O)(=O)[O-])cc4)c4nc(c(-c5ccc(S(=O)(=O)[O-])cc5)c5ccc2[nH]5)C=C4)C=C3)cc1)C(F)(F)F
REMARK SMILES IDX 19 1 18 2 17 3 15 4 16 5 13 7 14 8 12 9 9 10 10 11 11 13
REMARK SMILES IDX 8 15 3 16 4 17 5 18 7 19 6 20 2 21 1 22 85 23 86 24 87 25
REMARK SMILES IDX 88 26 20 27 21 28 22 29 23 30 24 32 25 33 26 34 84 35 27 36
REMARK SMILES IDX 83 37 28 38 29 39 30 40 77 41 31 42 82 43 76 44 78 45 32 46
REMARK SMILES IDX 81 47 75 48 74 49 33 51 63 52 44 53 62 54 45 55 48 56 61 57
REMARK SMILES IDX 79 58 46 59 47 60 60 62 80 63 49 64 34 65 35 66 43 67 36 68
REMARK SMILES IDX 42 69 37 70 38 71 39 72 40 73 41 74 64 75 65 76 73 77 66 78
REMARK SMILES IDX 72 79 67 80 68 81 69 82 70 83 71 84 50 85 51 86 59 87 52 88
REMARK SMILES IDX 58 89 53 90 54 91 55 92 56 93 57 94
REMARK H PARENT 17 6 9 12 12 14 22 31 78 50 48 61
REMARK Flexibility Score: inf
ROOT
ATOM      1  C   UNL     1       8.460   3.876   2.473  1.00  0.00     0.023 C 
ENDROOT
BRANCH   1   2
ATOM      2  C   UNL     1       7.147   4.382   3.081  1.00  0.00     0.116 C 
BRANCH   2   3
ATOM      3  N   UNL     1       6.477   5.257   2.142  1.00  0.00    -0.354 N 
ATOM      4  C   UNL     1       5.348   5.249   1.402  1.00  0.00     0.255 C 
ATOM      5  O   UNL     1       5.264   6.260   0.692  1.00  0.00    -0.272 OA
ATOM      6  H   UNL     1       6.985   6.089   2.006  1.00  0.00     0.163 HD
BRANCH   4   7
ATOM      7  C   UNL     1       4.146   4.297   1.626  1.00  0.00     0.213 C 
ATOM      8  C   UNL     1       3.494   4.857   2.903  1.00  0.00     0.056 C 
BRANCH   7   9
ATOM      9  N   UNL     1       4.572   2.876   1.859  1.00  0.00    -0.316 N 
ATOM     10  N   UNL     1       2.729   1.347   1.708  1.00  0.00    -0.305 N 
ATOM     11  C   UNL     1       4.018   1.657   1.906  1.00  0.00     0.320 C 
ATOM     12  H   UNL     1       2.621   0.430   1.367  1.00  0.00     0.172 HD
ATOM     13  O   UNL     1       4.815   0.714   1.990  1.00  0.00    -0.248 OA
ATOM     14  H   UNL     1       5.541   2.825   2.025  1.00  0.00     0.166 HD
BRANCH  10  15
ATOM     15  C   UNL     1       1.496   1.995   1.863  1.00  0.00     0.085 A 
ATOM     16  C   UNL     1       0.502   1.836   0.877  1.00  0.00     0.142 A 
ATOM     17  C   UNL     1      -0.610   2.683   0.865  1.00  0.00     0.048 A 
ATOM     18  C   UNL     1      -0.798   3.606   1.893  1.00  0.00     0.004 A 
ATOM     19  C   UNL     1       1.227   2.815   2.954  1.00  0.00     0.030 A 
ATOM     20  C   UNL     1       0.094   3.636   2.962  1.00  0.00     0.002 A 
BRANCH  16  21
ATOM     21  O   UNL     1       0.666   1.041  -0.229  1.00  0.00    -0.495 OA
ATOM     22  C   UNL     1       0.633  -0.351   0.075  1.00  0.00     0.278 C 
ENDBRANCH  16  21
ENDBRANCH  10  15
ENDBRANCH   7   9
BRANCH   7  23
ATOM     23  C   UNL     1       3.337   4.536   0.320  1.00  0.00     0.420 C 
ATOM     24  F   UNL     1       4.101   4.308  -0.779  1.00  0.00    -0.168 F 
ATOM     25  F   UNL     1       2.277   3.727   0.186  1.00  0.00    -0.168 F 
ATOM     26  F   UNL     1       2.836   5.791   0.239  1.00  0.00    -0.168 F 
ENDBRANCH   7  23
ENDBRANCH   4   7
ENDBRANCH   2   3
ENDBRANCH   1   2
BRANCH   1  27
ATOM     27  C   UNL     1       9.332   4.956   1.807  1.00  0.00     0.023 C 
BRANCH  27  28
ATOM     28  C   UNL     1       9.612   6.204   2.639  1.00  0.00     0.116 C 
BRANCH  28  29
ATOM     29  N   UNL     1      10.355   5.925   3.852  1.00  0.00    -0.352 N 
ATOM     30  C   UNL     1      11.394   6.651   4.386  1.00  0.00     0.251 C 
ATOM     31  H   UNL     1      10.084   5.122   4.353  1.00  0.00     0.163 HD
ATOM     32  O   UNL     1      11.995   6.246   5.376  1.00  0.00    -0.269 OA
BRANCH  30  33
ATOM     33  C   UNL     1      11.799   7.908   3.723  1.00  0.00     0.039 A 
ATOM     34  C   UNL     1      13.114   8.041   3.272  1.00  0.00     0.014 A 
ATOM     35  C   UNL     1      10.861   8.919   3.495  1.00  0.00     0.014 A 
ATOM     36  C   UNL     1      13.479   9.171   2.535  1.00  0.00     0.010 A 
ATOM     37  C   UNL     1      11.214  10.017   2.716  1.00  0.00     0.010 A 
ATOM     38  C   UNL     1      12.524  10.152   2.226  1.00  0.00    -0.014 A 
BRANCH  38  39
ATOM     39  C   UNL     1      12.863  11.342   1.403  1.00  0.00     0.031 A 
ATOM     40  C   UNL     1      12.800  12.711   2.020  1.00  0.00     0.074 A 
ATOM     41  C   UNL     1      13.131  11.202   0.090  1.00  0.00     0.049 A 
ATOM     42  N   UNL     1      12.910  13.882   1.447  1.00  0.00    -0.248 NA
ATOM     43  C   UNL     1      12.552  12.769   3.469  1.00  0.00     0.031 C 
ATOM     44  C   UNL     1      13.211   9.930  -0.630  1.00  0.00     0.029 A 
ATOM     45  N   UNL     1      13.371  12.147  -0.876  1.00  0.00    -0.354 N 
ATOM     46  C   UNL     1      12.701  14.815   2.456  1.00  0.00     0.074 A 
ATOM     47  C   UNL     1      12.432  14.073   3.669  1.00  0.00     0.031 C 
ATOM     48  C   UNL     1      13.499  10.174  -1.920  1.00  0.00     0.029 A 
ATOM     49  C   UNL     1      13.578  11.617  -2.128  1.00  0.00     0.049 A 
ATOM     50  H   UNL     1      13.393  13.114  -0.691  1.00  0.00     0.167 HD
ATOM     51  C   UNL     1      12.736  16.167   2.382  1.00  0.00     0.031 A 
ATOM     52  C   UNL     1      13.793  12.223  -3.312  1.00  0.00     0.031 A 
ATOM     53  C   UNL     1      13.026  16.899   1.179  1.00  0.00     0.049 A 
ATOM     54  C   UNL     1      13.824  13.726  -3.374  1.00  0.00     0.074 A 
ATOM     55  C   UNL     1      13.143  18.267   1.011  1.00  0.00     0.029 A 
ATOM     56  N   UNL     1      13.247  16.321  -0.063  1.00  0.00    -0.354 N 
ATOM     57  N   UNL     1      13.663  14.593  -2.403  1.00  0.00    -0.248 NA
ATOM     58  C   UNL     1      14.070  14.332  -4.691  1.00  0.00     0.031 C 
ATOM     59  C   UNL     1      13.396  18.520  -0.342  1.00  0.00     0.029 A 
ATOM     60  C   UNL     1      13.485  17.306  -1.006  1.00  0.00     0.049 A 
ATOM     61  H   UNL     1      13.236  15.354  -0.246  1.00  0.00     0.167 HD
ATOM     62  C   UNL     1      13.823  15.846  -2.984  1.00  0.00     0.074 A 
ATOM     63  C   UNL     1      14.091  15.625  -4.391  1.00  0.00     0.031 C 
ATOM     64  C   UNL     1      13.764  17.068  -2.400  1.00  0.00     0.031 A 
BRANCH  51  65
ATOM     65  C   UNL     1      12.421  16.933   3.639  1.00  0.00    -0.014 A 
ATOM     66  C   UNL     1      13.305  16.940   4.732  1.00  0.00     0.010 A 
ATOM     67  C   UNL     1      11.214  17.651   3.729  1.00  0.00     0.010 A 
ATOM     68  C   UNL     1      12.959  17.594   5.918  1.00  0.00     0.020 A 
ATOM     69  C   UNL     1      10.877  18.331   4.903  1.00  0.00     0.020 A 
ATOM     70  C   UNL     1      11.740  18.275   5.999  1.00  0.00     0.054 A 
BRANCH  70  71
ATOM     71  S   UNL     1      11.300  19.096   7.556  1.00  0.00     0.124 S 
ATOM     72  O   UNL     1      10.888  17.965   8.384  1.00  0.00    -0.237 OA
ATOM     73  O   UNL     1      12.553  19.736   7.949  1.00  0.00    -0.237 OA
ATOM     74  O   UNL     1      10.229  20.012   7.173  1.00  0.00    -0.744 OA
ENDBRANCH  70  71
ENDBRANCH  51  65
BRANCH  52  75
ATOM     75  C   UNL     1      14.029  11.402  -4.530  1.00  0.00    -0.014 A 
ATOM     76  C   UNL     1      15.324  11.298  -5.067  1.00  0.00     0.010 A 
ATOM     77  C   UNL     1      12.978  10.689  -5.135  1.00  0.00     0.010 A 
ATOM     78  C   UNL     1      15.565  10.498  -6.187  1.00  0.00     0.020 A 
ATOM     79  C   UNL     1      13.219   9.870  -6.243  1.00  0.00     0.020 A 
ATOM     80  C   UNL     1      14.511   9.784  -6.765  1.00  0.00     0.054 A 
BRANCH  80  81
ATOM     81  S   UNL     1      14.866   8.692  -8.170  1.00  0.00     0.124 S 
ATOM     82  O   UNL     1      15.060   9.646  -9.257  1.00  0.00    -0.237 OA
ATOM     83  O   UNL     1      16.065   7.985  -7.726  1.00  0.00    -0.237 OA
ATOM     84  O   UNL     1      13.666   7.863  -8.270  1.00  0.00    -0.744 OA
ENDBRANCH  80  81
ENDBRANCH  52  75
BRANCH  64  85
ATOM     85  C   UNL     1      14.045  18.268  -3.261  1.00  0.00    -0.014 A 
ATOM     86  C   UNL     1      13.088  18.761  -4.164  1.00  0.00     0.010 A 
ATOM     87  C   UNL     1      15.255  18.968  -3.091  1.00  0.00     0.010 A 
ATOM     88  C   UNL     1      13.339  19.930  -4.888  1.00  0.00     0.020 A 
ATOM     89  C   UNL     1      15.500  20.147  -3.797  1.00  0.00     0.020 A 
ATOM     90  C   UNL     1      14.542  20.618  -4.697  1.00  0.00     0.054 A 
BRANCH  90  91
ATOM     91  S   UNL     1      14.812  22.176  -5.586  1.00  0.00     0.124 S 
ATOM     92  O   UNL     1      15.117  21.707  -6.935  1.00  0.00    -0.237 OA
ATOM     93  O   UNL     1      13.530  22.860  -5.434  1.00  0.00    -0.237 OA
ATOM     94  O   UNL     1      15.928  22.793  -4.873  1.00  0.00    -0.744 OA
ENDBRANCH  90  91
ENDBRANCH  64  85
ENDBRANCH  38  39
ENDBRANCH  30  33
ENDBRANCH  28  29
ENDBRANCH  27  28
ENDBRANCH   1  27
TORSDOF 18
