REMARK SMILES O=C(NCCCCNC(=O)[C@@H]1CCc2[nH]ncc2C1)c1ccc(-c2c3nc(c(-c4ccc(S(=O)(=O)[O-])cc4)c4ccc([nH]4)c(-c4ccc(S(=O)(=O)[O-])cc4)c4nc(c(-c5ccc(S(=O)(=O)[O-])cc5)c5ccc2[nH]5)C=C4)C=C3)cc1
REMARK SMILES IDX 4 1 3 2 1 3 2 4 20 6 21 7 79 8 22 9 78 10 23 11 24 12 25 13
REMARK SMILES IDX 72 14 26 15 77 16 71 17 73 18 27 19 76 20 70 21 69 22 28 24
REMARK SMILES IDX 58 25 39 26 57 27 40 28 43 29 56 30 74 31 41 32 42 33 55 35
REMARK SMILES IDX 75 36 44 37 29 38 30 39 38 40 31 41 37 42 32 43 33 44 34 45
REMARK SMILES IDX 35 46 36 47 59 48 60 49 68 50 61 51 67 52 62 53 63 54 64 55
REMARK SMILES IDX 65 56 66 57 45 58 46 59 54 60 47 61 53 62 48 63 49 64 50 65
REMARK SMILES IDX 51 66 52 67 5 68 6 69 7 70 8 71 9 72 10 74 11 75 12 76 19 77
REMARK SMILES IDX 13 78 18 79 14 80 17 81 15 82 16 83
REMARK H PARENT 3 5 73 23 43 34 8 73 15 84
REMARK Flexibility Score: inf
ROOT
ATOM      1  C   UNL     1       4.548  -1.329  -0.086  1.00  0.00     0.116 C 
ENDROOT
BRANCH   1   2
ATOM      2  N   UNL     1       3.117  -1.139  -0.269  1.00  0.00    -0.352 N 
ATOM      3  O   UNL     1       1.122  -0.096  -0.143  1.00  0.00    -0.269 OA
ATOM      4  C   UNL     1       2.343  -0.028  -0.024  1.00  0.00     0.251 C 
ATOM      5  H   UNL     1       2.631  -1.921  -0.619  1.00  0.00     0.163 HD
BRANCH   4   6
ATOM      6  C   UNL     1       2.978   1.231   0.422  1.00  0.00     0.039 A 
ATOM      7  C   UNL     1       4.124   1.719  -0.209  1.00  0.00     0.014 A 
ATOM      8  C   UNL     1       2.431   1.919   1.509  1.00  0.00     0.014 A 
ATOM      9  C   UNL     1       4.819   2.785   0.352  1.00  0.00     0.010 A 
ATOM     10  C   UNL     1       3.084   3.046   2.018  1.00  0.00     0.010 A 
ATOM     11  C   UNL     1       4.311   3.459   1.475  1.00  0.00    -0.014 A 
BRANCH  11  12
ATOM     12  C   UNL     1       5.072   4.600   2.048  1.00  0.00     0.031 A 
ATOM     13  C   UNL     1       5.658   4.527   3.433  1.00  0.00     0.074 A 
ATOM     14  C   UNL     1       5.272   5.696   1.290  1.00  0.00     0.049 A 
ATOM     15  N   UNL     1       6.393   5.410   4.062  1.00  0.00    -0.248 NA
ATOM     16  C   UNL     1       5.379   3.314   4.218  1.00  0.00     0.031 C 
ATOM     17  C   UNL     1       4.756   5.888  -0.067  1.00  0.00     0.029 A 
ATOM     18  N   UNL     1       5.986   6.840   1.540  1.00  0.00    -0.354 N 
ATOM     19  C   UNL     1       6.639   4.876   5.322  1.00  0.00     0.074 A 
ATOM     20  C   UNL     1       5.960   3.599   5.375  1.00  0.00     0.031 C 
ATOM     21  C   UNL     1       5.221   7.048  -0.553  1.00  0.00     0.029 A 
ATOM     22  C   UNL     1       6.018   7.709   0.475  1.00  0.00     0.049 A 
ATOM     23  H   UNL     1       6.432   7.022   2.398  1.00  0.00     0.167 HD
ATOM     24  C   UNL     1       7.365   5.399   6.341  1.00  0.00     0.031 A 
ATOM     25  C   UNL     1       6.618   8.905   0.336  1.00  0.00     0.031 A 
ATOM     26  C   UNL     1       8.049   6.664   6.284  1.00  0.00     0.049 A 
ATOM     27  C   UNL     1       7.412   9.465   1.479  1.00  0.00     0.074 A 
ATOM     28  C   UNL     1       8.838   7.262   7.253  1.00  0.00     0.029 A 
ATOM     29  N   UNL     1       8.026   7.529   5.201  1.00  0.00    -0.354 N 
ATOM     30  N   UNL     1       7.651   8.931   2.653  1.00  0.00    -0.248 NA
ATOM     31  C   UNL     1       8.018  10.787   1.277  1.00  0.00     0.031 C 
ATOM     32  C   UNL     1       9.257   8.507   6.770  1.00  0.00     0.029 A 
ATOM     33  C   UNL     1       8.769   8.664   5.482  1.00  0.00     0.049 A 
ATOM     34  H   UNL     1       7.550   7.361   4.355  1.00  0.00     0.167 HD
ATOM     35  C   UNL     1       8.453   9.845   3.325  1.00  0.00     0.074 A 
ATOM     36  C   UNL     1       8.668  10.958   2.421  1.00  0.00     0.031 C 
ATOM     37  C   UNL     1       8.967   9.767   4.577  1.00  0.00     0.031 A 
BRANCH  24  38
ATOM     38  C   UNL     1       7.423   4.611   7.625  1.00  0.00    -0.014 A 
ATOM     39  C   UNL     1       8.177   3.428   7.725  1.00  0.00     0.010 A 
ATOM     40  C   UNL     1       6.723   5.073   8.754  1.00  0.00     0.010 A 
ATOM     41  C   UNL     1       8.187   2.694   8.915  1.00  0.00     0.020 A 
ATOM     42  C   UNL     1       6.749   4.354   9.953  1.00  0.00     0.020 A 
ATOM     43  C   UNL     1       7.462   3.156  10.018  1.00  0.00     0.054 A 
BRANCH  43  44
ATOM     44  S   UNL     1       7.478   2.180  11.548  1.00  0.00     0.124 S 
ATOM     45  O   UNL     1       6.555   1.096  11.220  1.00  0.00    -0.237 OA
ATOM     46  O   UNL     1       8.881   1.793  11.671  1.00  0.00    -0.237 OA
ATOM     47  O   UNL     1       7.003   3.118  12.562  1.00  0.00    -0.744 OA
ENDBRANCH  43  44
ENDBRANCH  24  38
BRANCH  25  48
ATOM     48  C   UNL     1       6.496   9.637  -0.952  1.00  0.00    -0.014 A 
ATOM     49  C   UNL     1       7.591   9.718  -1.828  1.00  0.00     0.010 A 
ATOM     50  C   UNL     1       5.267  10.207  -1.332  1.00  0.00     0.010 A 
ATOM     51  C   UNL     1       7.460  10.355  -3.065  1.00  0.00     0.020 A 
ATOM     52  C   UNL     1       5.126  10.823  -2.578  1.00  0.00     0.020 A 
ATOM     53  C   UNL     1       6.226  10.898  -3.434  1.00  0.00     0.054 A 
BRANCH  53  54
ATOM     54  S   UNL     1       6.053  11.645  -5.079  1.00  0.00     0.124 S 
ATOM     55  O   UNL     1       6.706  12.937  -4.895  1.00  0.00    -0.237 OA
ATOM     56  O   UNL     1       6.758  10.694  -5.935  1.00  0.00    -0.237 OA
ATOM     57  O   UNL     1       4.606  11.694  -5.279  1.00  0.00    -0.744 OA
ENDBRANCH  53  54
ENDBRANCH  25  48
BRANCH  37  58
ATOM     58  C   UNL     1       9.838  10.906   5.031  1.00  0.00    -0.014 A 
ATOM     59  C   UNL     1       9.284  12.149   5.384  1.00  0.00     0.010 A 
ATOM     60  C   UNL     1      11.228  10.718   5.132  1.00  0.00     0.010 A 
ATOM     61  C   UNL     1      10.111  13.197   5.797  1.00  0.00     0.020 A 
ATOM     62  C   UNL     1      12.055  11.756   5.567  1.00  0.00     0.020 A 
ATOM     63  C   UNL     1      11.492  12.995   5.881  1.00  0.00     0.054 A 
BRANCH  63  64
ATOM     64  S   UNL     1      12.546  14.359   6.447  1.00  0.00     0.124 S 
ATOM     65  O   UNL     1      12.626  15.196   5.253  1.00  0.00    -0.237 OA
ATOM     66  O   UNL     1      11.781  14.920   7.558  1.00  0.00    -0.237 OA
ATOM     67  O   UNL     1      13.791  13.696   6.830  1.00  0.00    -0.744 OA
ENDBRANCH  63  64
ENDBRANCH  37  58
ENDBRANCH  11  12
ENDBRANCH   4   6
ENDBRANCH   1   2
BRANCH   1  68
ATOM     68  C   UNL     1       4.893  -2.511   0.811  1.00  0.00     0.023 C 
BRANCH  68  69
ATOM     69  C   UNL     1       4.418  -3.875   0.320  1.00  0.00     0.023 C 
BRANCH  69  70
ATOM     70  C   UNL     1       4.735  -4.198  -1.135  1.00  0.00     0.116 C 
BRANCH  70  71
ATOM     71  N   UNL     1       6.154  -4.147  -1.448  1.00  0.00    -0.356 N 
ATOM     72  C   UNL     1       6.939  -5.092  -2.050  1.00  0.00     0.223 C 
ATOM     73  H   UNL     1       6.615  -3.316  -1.190  1.00  0.00     0.163 HD
ATOM     74  O   UNL     1       8.109  -4.817  -2.310  1.00  0.00    -0.275 OA
BRANCH  72  75
ATOM     75  C   UNL     1       6.328  -6.442  -2.364  1.00  0.00     0.083 C 
ATOM     76  C   UNL     1       7.398  -7.537  -2.624  1.00  0.00     0.020 C 
ATOM     77  C   UNL     1       5.386  -6.345  -3.590  1.00  0.00     0.052 C 
ATOM     78  C   UNL     1       6.763  -8.942  -2.761  1.00  0.00     0.057 C 
ATOM     79  C   UNL     1       4.804  -7.687  -3.830  1.00  0.00    -0.006 A 
ATOM     80  C   UNL     1       5.453  -8.843  -3.459  1.00  0.00     0.038 A 
ATOM     81  C   UNL     1       3.575  -8.118  -4.351  1.00  0.00     0.138 A 
ATOM     82  N   UNL     1       4.613  -9.869  -3.765  1.00  0.00    -0.282 N 
ATOM     83  N   UNL     1       3.456  -9.450  -4.316  1.00  0.00    -0.184 NA
ATOM     84  H   UNL     1       4.827 -10.816  -3.602  1.00  0.00     0.190 HD
ENDBRANCH  72  75
ENDBRANCH  70  71
ENDBRANCH  69  70
ENDBRANCH  68  69
ENDBRANCH   1  68
TORSDOF 14
