REMARK SMILES C[C@H](Oc1ccccc1Cl)C(=O)N1CCC[C@@H]1C(=O)NCCCCNC(=O)c1ccc(-c2c3nc(c(-c4ccc(S(=O)(=O)[O-])cc4)c4ccc([nH]4)c(-c4ccc(S(=O)(=O)[O-])cc4)c4nc(c(-c5ccc(S(=O)(=O)[O-])cc5)c5ccc2[nH]5)C=C4)C=C3)cc1
REMARK SMILES IDX 22 1 21 2 20 3 18 4 19 5 17 7 13 8 14 9 15 10 16 11 11 12
REMARK SMILES IDX 12 13 2 14 1 15 3 16 4 17 5 18 9 19 6 20 8 21 10 22 7 23
REMARK SMILES IDX 23 24 24 25 25 26 26 27 27 29 28 30 29 31 87 32 30 33 86 34
REMARK SMILES IDX 31 35 32 36 33 37 80 38 34 39 85 40 79 41 81 42 35 43 84 44
REMARK SMILES IDX 78 45 77 46 36 48 66 49 47 50 65 51 48 52 51 53 64 54 82 55
REMARK SMILES IDX 49 56 50 57 63 59 83 60 52 61 37 62 38 63 46 64 39 65 45 66
REMARK SMILES IDX 40 67 41 68 42 69 43 70 44 71 67 72 68 73 76 74 69 75 75 76
REMARK SMILES IDX 70 77 71 78 72 79 73 80 74 81 53 82 54 83 62 84 55 85 61 86
REMARK SMILES IDX 56 87 57 88 58 89 59 90 60 91
REMARK H PARENT 20 6 25 28 81 47 51 58
REMARK Flexibility Score: inf
ROOT
ATOM      1  C   UNL     1      -0.948   1.271   5.658  1.00  0.00     0.023 C 
ENDROOT
BRANCH   1   2
ATOM      2  C   UNL     1      -0.866   0.267   4.513  1.00  0.00     0.116 C 
BRANCH   2   3
ATOM      3  N   UNL     1      -2.034  -0.582   4.435  1.00  0.00    -0.354 N 
ATOM      4  C   UNL     1      -2.943  -0.766   3.432  1.00  0.00     0.242 C 
ATOM      5  O   UNL     1      -3.927  -1.462   3.707  1.00  0.00    -0.273 OA
ATOM      6  H   UNL     1      -2.202  -1.121   5.242  1.00  0.00     0.163 HD
BRANCH   4   7
ATOM      7  C   UNL     1      -2.887   0.006   2.091  1.00  0.00     0.174 C 
ATOM      8  N   UNL     1      -1.573   0.071   1.456  1.00  0.00    -0.327 N 
ATOM      9  C   UNL     1      -1.256   1.425   1.041  1.00  0.00     0.120 C 
ATOM     10  C   UNL     1      -2.146   2.326   1.880  1.00  0.00     0.024 C 
ATOM     11  C   UNL     1      -3.337   1.460   2.273  1.00  0.00     0.037 C 
BRANCH   8  12
ATOM     12  C   UNL     1      -1.022  -1.067   0.876  1.00  0.00     0.264 C 
ATOM     13  O   UNL     1      -1.712  -2.064   0.646  1.00  0.00    -0.271 OA
BRANCH  12  14
ATOM     14  C   UNL     1       0.527  -1.158   0.792  1.00  0.00     0.259 C 
ATOM     15  C   UNL     1       0.965  -1.423   2.235  1.00  0.00     0.064 C 
BRANCH  14  16
ATOM     16  O   UNL     1       1.065  -0.029   0.115  1.00  0.00    -0.479 OA
BRANCH  16  17
ATOM     17  C   UNL     1       2.339   0.444   0.223  1.00  0.00     0.139 A 
ATOM     18  C   UNL     1       3.375  -0.123   0.963  1.00  0.00     0.048 A 
ATOM     19  C   UNL     1       2.604   1.652  -0.452  1.00  0.00     0.083 A 
ATOM     20  C   UNL     1       4.593   0.548   1.132  1.00  0.00     0.004 A 
ATOM     21  C   UNL     1       3.833   2.307  -0.315  1.00  0.00     0.024 A 
ATOM     22  Cl  UNL     1       1.419   2.386  -1.481  1.00  0.00    -0.080 Cl
ATOM     23  C   UNL     1       4.819   1.768   0.504  1.00  0.00     0.002 A 
ENDBRANCH  16  17
ENDBRANCH  14  16
ENDBRANCH  12  14
ENDBRANCH   8  12
ENDBRANCH   4   7
ENDBRANCH   2   3
ENDBRANCH   1   2
BRANCH   1  24
ATOM     24  C   UNL     1      -0.550   0.704   7.022  1.00  0.00     0.023 C 
BRANCH  24  25
ATOM     25  C   UNL     1       0.841   0.076   7.102  1.00  0.00     0.116 C 
BRANCH  25  26
ATOM     26  N   UNL     1       1.912   0.954   6.655  1.00  0.00    -0.352 N 
ATOM     27  C   UNL     1       3.208   1.026   7.117  1.00  0.00     0.251 C 
ATOM     28  H   UNL     1       1.680   1.576   5.929  1.00  0.00     0.163 HD
ATOM     29  O   UNL     1       3.968   1.881   6.691  1.00  0.00    -0.269 OA
BRANCH  27  30
ATOM     30  C   UNL     1       3.653   0.080   8.166  1.00  0.00     0.039 A 
ATOM     31  C   UNL     1       4.276   0.589   9.308  1.00  0.00     0.014 A 
ATOM     32  C   UNL     1       3.421  -1.292   8.040  1.00  0.00     0.014 A 
ATOM     33  C   UNL     1       4.604  -0.275  10.355  1.00  0.00     0.010 A 
ATOM     34  C   UNL     1       3.685  -2.140   9.114  1.00  0.00     0.010 A 
ATOM     35  C   UNL     1       4.278  -1.641  10.283  1.00  0.00    -0.014 A 
BRANCH  35  36
ATOM     36  C   UNL     1       4.543  -2.546  11.431  1.00  0.00     0.031 A 
ATOM     37  C   UNL     1       5.531  -3.676  11.302  1.00  0.00     0.074 A 
ATOM     38  C   UNL     1       3.869  -2.370  12.585  1.00  0.00     0.049 A 
ATOM     39  N   UNL     1       5.902  -4.551  12.202  1.00  0.00    -0.248 NA
ATOM     40  C   UNL     1       6.168  -3.860   9.988  1.00  0.00     0.031 C 
ATOM     41  C   UNL     1       2.845  -1.348  12.823  1.00  0.00     0.029 A 
ATOM     42  N   UNL     1       3.948  -3.040  13.781  1.00  0.00    -0.354 N 
ATOM     43  C   UNL     1       6.812  -5.387  11.565  1.00  0.00     0.074 A 
ATOM     44  C   UNL     1       6.890  -4.954  10.187  1.00  0.00     0.031 C 
ATOM     45  C   UNL     1       2.425  -1.431  14.096  1.00  0.00     0.029 A 
ATOM     46  C   UNL     1       3.124  -2.529  14.757  1.00  0.00     0.049 A 
ATOM     47  H   UNL     1       4.539  -3.814  13.926  1.00  0.00     0.167 HD
ATOM     48  C   UNL     1       7.540  -6.405  12.084  1.00  0.00     0.031 A 
ATOM     49  C   UNL     1       2.959  -2.893  16.043  1.00  0.00     0.031 A 
ATOM     50  C   UNL     1       7.469  -6.834  13.455  1.00  0.00     0.049 A 
ATOM     51  C   UNL     1       3.784  -4.024  16.595  1.00  0.00     0.074 A 
ATOM     52  C   UNL     1       8.191  -7.833  14.085  1.00  0.00     0.029 A 
ATOM     53  N   UNL     1       6.630  -6.284  14.413  1.00  0.00    -0.354 N 
ATOM     54  N   UNL     1       4.683  -4.763  15.989  1.00  0.00    -0.248 NA
ATOM     55  C   UNL     1       3.587  -4.353  18.013  1.00  0.00     0.031 C 
ATOM     56  C   UNL     1       7.761  -7.913  15.415  1.00  0.00     0.029 A 
ATOM     57  C   UNL     1       6.811  -6.928  15.626  1.00  0.00     0.049 A 
ATOM     58  H   UNL     1       5.999  -5.546  14.254  1.00  0.00     0.167 HD
ATOM     59  C   UNL     1       5.182  -5.622  16.962  1.00  0.00     0.074 A 
ATOM     60  C   UNL     1       4.500  -5.296  18.198  1.00  0.00     0.031 C 
ATOM     61  C   UNL     1       6.123  -6.593  16.846  1.00  0.00     0.031 A 
BRANCH  48  62
ATOM     62  C   UNL     1       8.494  -7.116  11.159  1.00  0.00    -0.014 A 
ATOM     63  C   UNL     1       9.658  -6.476  10.696  1.00  0.00     0.010 A 
ATOM     64  C   UNL     1       8.252  -8.450  10.784  1.00  0.00     0.010 A 
ATOM     65  C   UNL     1      10.543  -7.143   9.845  1.00  0.00     0.020 A 
ATOM     66  C   UNL     1       9.149  -9.130   9.955  1.00  0.00     0.020 A 
ATOM     67  C   UNL     1      10.282  -8.466   9.478  1.00  0.00     0.054 A 
BRANCH  67  68
ATOM     68  S   UNL     1      11.464  -9.316   8.397  1.00  0.00     0.124 S 
ATOM     69  O   UNL     1      11.204  -8.679   7.108  1.00  0.00    -0.237 OA
ATOM     70  O   UNL     1      12.750  -8.990   9.009  1.00  0.00    -0.237 OA
ATOM     71  O   UNL     1      11.071 -10.720   8.489  1.00  0.00    -0.744 OA
ENDBRANCH  67  68
ENDBRANCH  48  62
BRANCH  49  72
ATOM     72  C   UNL     1       2.000  -2.161  16.915  1.00  0.00    -0.014 A 
ATOM     73  C   UNL     1       2.469  -1.345  17.961  1.00  0.00     0.010 A 
ATOM     74  C   UNL     1       0.614  -2.292  16.720  1.00  0.00     0.010 A 
ATOM     75  C   UNL     1       1.570  -0.703  18.818  1.00  0.00     0.020 A 
ATOM     76  C   UNL     1      -0.288  -1.628  17.557  1.00  0.00     0.020 A 
ATOM     77  C   UNL     1       0.196  -0.852  18.612  1.00  0.00     0.054 A 
BRANCH  77  78
ATOM     78  S   UNL     1      -0.955   0.007  19.721  1.00  0.00     0.124 S 
ATOM     79  O   UNL     1      -0.882  -0.813  20.926  1.00  0.00    -0.237 OA
ATOM     80  O   UNL     1      -0.362   1.338  19.823  1.00  0.00    -0.237 OA
ATOM     81  O   UNL     1      -2.225  -0.047  19.000  1.00  0.00    -0.744 OA
ENDBRANCH  77  78
ENDBRANCH  49  72
BRANCH  61  82
ATOM     82  C   UNL     1       6.497  -7.337  18.101  1.00  0.00    -0.014 A 
ATOM     83  C   UNL     1       5.608  -8.242  18.709  1.00  0.00     0.010 A 
ATOM     84  C   UNL     1       7.763  -7.128  18.677  1.00  0.00     0.010 A 
ATOM     85  C   UNL     1       5.956  -8.877  19.904  1.00  0.00     0.020 A 
ATOM     86  C   UNL     1       8.127  -7.785  19.854  1.00  0.00     0.020 A 
ATOM     87  C   UNL     1       7.210  -8.637  20.474  1.00  0.00     0.054 A 
BRANCH  87  88
ATOM     88  S   UNL     1       7.641  -9.469  22.027  1.00  0.00     0.124 S 
ATOM     89  O   UNL     1       6.883  -8.693  23.005  1.00  0.00    -0.237 OA
ATOM     90  O   UNL     1       7.169 -10.833  21.804  1.00  0.00    -0.237 OA
ATOM     91  O   UNL     1       9.093  -9.324  22.105  1.00  0.00    -0.744 OA
ENDBRANCH  87  88
ENDBRANCH  61  82
ENDBRANCH  35  36
ENDBRANCH  27  30
ENDBRANCH  25  26
ENDBRANCH  24  25
ENDBRANCH   1  24
TORSDOF 18
