REMARK SMILES CCC(CC)NC(=O)NC[C@H]1CC[C@H](C(=O)NCCCCNC(=O)c2ccc(-c3c4nc(c(-c5ccc(S(=O)(=O)[O-])cc5)c5ccc([nH]5)c(-c5ccc(S(=O)(=O)[O-])cc5)c5nc(c(-c6ccc(S(=O)(=O)[O-])cc6)c6ccc3[nH]6)C=C5)C=C4)cc2)O1
REMARK SMILES IDX 19 1 18 2 17 3 15 4 16 5 14 7 11 8 12 9 85 10 13 11 10 12
REMARK SMILES IDX 9 13 6 14 7 15 8 17 3 19 2 20 1 21 4 22 5 23 20 24 21 25
REMARK SMILES IDX 22 26 23 27 24 29 25 30 26 31 84 32 27 33 83 34 28 35 29 36
REMARK SMILES IDX 30 37 77 38 31 39 82 40 76 41 78 42 32 43 81 44 75 45 74 46
REMARK SMILES IDX 33 48 63 49 44 50 62 51 45 52 48 53 61 54 79 55 46 56 47 57
REMARK SMILES IDX 60 59 80 60 49 61 34 62 35 63 43 64 36 65 42 66 37 67 38 68
REMARK SMILES IDX 39 69 40 70 41 71 64 72 65 73 73 74 66 75 72 76 67 77 68 78
REMARK SMILES IDX 69 79 70 80 71 81 50 82 51 83 59 84 52 85 58 86 53 87 54 88
REMARK SMILES IDX 55 89 56 90 57 91
REMARK H PARENT 17 6 6 16 9 18 22 28 78 47 48 58
REMARK Flexibility Score: inf
ROOT
ATOM      1  C   UNL     1       0.780   5.253  -2.086  1.00  0.00     0.023 C 
ENDROOT
BRANCH   1   2
ATOM      2  C   UNL     1       0.957   3.738  -1.987  1.00  0.00     0.116 C 
BRANCH   2   3
ATOM      3  N   UNL     1       1.201   3.136  -3.279  1.00  0.00    -0.354 N 
ATOM      4  C   UNL     1       2.385   2.815  -3.877  1.00  0.00     0.249 C 
ATOM      5  O   UNL     1       2.339   2.311  -5.004  1.00  0.00    -0.272 OA
ATOM      6  H   UNL     1       0.395   2.928  -3.804  1.00  0.00     0.163 HD
BRANCH   4   7
ATOM      7  C   UNL     1       3.746   3.142  -3.217  1.00  0.00     0.207 C 
ATOM      8  C   UNL     1       4.425   3.778  -1.061  1.00  0.00     0.138 C 
ATOM      9  C   UNL     1       4.333   5.059  -1.874  1.00  0.00     0.037 C 
ATOM     10  O   UNL     1       3.916   2.711  -1.870  1.00  0.00    -0.363 OA
ATOM     11  C   UNL     1       4.080   4.622  -3.296  1.00  0.00     0.045 C 
BRANCH   8  12
ATOM     12  C   UNL     1       5.823   3.484  -0.470  1.00  0.00     0.149 C 
BRANCH  12  13
ATOM     13  N   UNL     1       6.348   2.163  -0.761  1.00  0.00    -0.336 N 
ATOM     14  N   UNL     1       7.950   2.420  -2.478  1.00  0.00    -0.335 N 
ATOM     15  C   UNL     1       7.327   1.694  -1.541  1.00  0.00     0.315 C 
ATOM     16  H   UNL     1       8.743   1.973  -2.852  1.00  0.00     0.165 HD
ATOM     17  O   UNL     1       7.687   0.525  -1.388  1.00  0.00    -0.249 OA
ATOM     18  H   UNL     1       5.876   1.450  -0.274  1.00  0.00     0.165 HD
BRANCH  14  19
ATOM     19  C   UNL     1       7.701   3.731  -3.058  1.00  0.00     0.083 C 
BRANCH  19  20
ATOM     20  C   UNL     1       8.774   4.723  -2.591  1.00  0.00     0.021 C 
ATOM     21  C   UNL     1       8.415   6.172  -2.887  1.00  0.00     0.006 C 
ENDBRANCH  19  20
BRANCH  19  22
ATOM     22  C   UNL     1       7.521   3.628  -4.585  1.00  0.00     0.021 C 
ATOM     23  C   UNL     1       8.765   3.242  -5.370  1.00  0.00     0.006 C 
ENDBRANCH  19  22
ENDBRANCH  14  19
ENDBRANCH  12  13
ENDBRANCH   8  12
ENDBRANCH   4   7
ENDBRANCH   2   3
ENDBRANCH   1   2
BRANCH   1  24
ATOM     24  C   UNL     1      -0.655   5.715  -2.328  1.00  0.00     0.023 C 
BRANCH  24  25
ATOM     25  C   UNL     1      -1.642   5.334  -1.232  1.00  0.00     0.116 C 
BRANCH  25  26
ATOM     26  N   UNL     1      -1.246   5.780   0.099  1.00  0.00    -0.352 N 
ATOM     27  C   UNL     1      -2.060   6.033   1.176  1.00  0.00     0.251 C 
ATOM     28  H   UNL     1      -0.281   5.915   0.242  1.00  0.00     0.163 HD
ATOM     29  O   UNL     1      -1.599   6.484   2.216  1.00  0.00    -0.269 OA
BRANCH  27  30
ATOM     30  C   UNL     1      -3.511   5.803   1.028  1.00  0.00     0.039 A 
ATOM     31  C   UNL     1      -4.390   6.856   1.286  1.00  0.00     0.014 A 
ATOM     32  C   UNL     1      -3.983   4.579   0.545  1.00  0.00     0.014 A 
ATOM     33  C   UNL     1      -5.743   6.707   0.982  1.00  0.00     0.010 A 
ATOM     34  C   UNL     1      -5.317   4.458   0.177  1.00  0.00     0.010 A 
ATOM     35  C   UNL     1      -6.208   5.522   0.387  1.00  0.00    -0.014 A 
BRANCH  35  36
ATOM     36  C   UNL     1      -7.621   5.376  -0.036  1.00  0.00     0.031 A 
ATOM     37  C   UNL     1      -8.497   4.348   0.622  1.00  0.00     0.074 A 
ATOM     38  C   UNL     1      -8.086   6.105  -1.068  1.00  0.00     0.049 A 
ATOM     39  N   UNL     1      -9.730   4.016   0.341  1.00  0.00    -0.248 NA
ATOM     40  C   UNL     1      -7.897   3.571   1.717  1.00  0.00     0.031 C 
ATOM     41  C   UNL     1      -7.313   7.090  -1.829  1.00  0.00     0.029 A 
ATOM     42  N   UNL     1      -9.321   6.119  -1.665  1.00  0.00    -0.354 N 
ATOM     43  C   UNL     1     -10.047   2.979   1.209  1.00  0.00     0.074 A 
ATOM     44  C   UNL     1      -8.860   2.704   1.990  1.00  0.00     0.031 C 
ATOM     45  C   UNL     1      -8.096   7.622  -2.782  1.00  0.00     0.029 A 
ATOM     46  C   UNL     1      -9.415   6.998  -2.717  1.00  0.00     0.049 A 
ATOM     47  H   UNL     1     -10.070   5.553  -1.369  1.00  0.00     0.167 HD
ATOM     48  C   UNL     1     -11.224   2.326   1.358  1.00  0.00     0.031 A 
ATOM     49  C   UNL     1     -10.445   7.271  -3.541  1.00  0.00     0.031 A 
ATOM     50  C   UNL     1     -12.404   2.608   0.588  1.00  0.00     0.049 A 
ATOM     51  C   UNL     1     -11.753   6.562  -3.337  1.00  0.00     0.074 A 
ATOM     52  C   UNL     1     -13.661   2.040   0.695  1.00  0.00     0.029 A 
ATOM     53  N   UNL     1     -12.473   3.542  -0.435  1.00  0.00    -0.354 N 
ATOM     54  N   UNL     1     -12.054   5.628  -2.467  1.00  0.00    -0.248 NA
ATOM     55  C   UNL     1     -12.864   6.954  -4.215  1.00  0.00     0.031 C 
ATOM     56  C   UNL     1     -14.483   2.611  -0.284  1.00  0.00     0.029 A 
ATOM     57  C   UNL     1     -13.748   3.562  -0.974  1.00  0.00     0.049 A 
ATOM     58  H   UNL     1     -11.725   4.109  -0.734  1.00  0.00     0.167 HD
ATOM     59  C   UNL     1     -13.395   5.331  -2.680  1.00  0.00     0.074 A 
ATOM     60  C   UNL     1     -13.850   6.195  -3.751  1.00  0.00     0.031 C 
ATOM     61  C   UNL     1     -14.179   4.425  -2.045  1.00  0.00     0.031 A 
BRANCH  48  62
ATOM     62  C   UNL     1     -11.271   1.241   2.399  1.00  0.00    -0.014 A 
ATOM     63  C   UNL     1     -11.227   1.554   3.770  1.00  0.00     0.010 A 
ATOM     64  C   UNL     1     -11.339  -0.107   2.006  1.00  0.00     0.010 A 
ATOM     65  C   UNL     1     -11.183   0.538   4.727  1.00  0.00     0.020 A 
ATOM     66  C   UNL     1     -11.323  -1.127   2.962  1.00  0.00     0.020 A 
ATOM     67  C   UNL     1     -11.217  -0.797   4.316  1.00  0.00     0.054 A 
BRANCH  67  68
ATOM     68  S   UNL     1     -11.133  -2.101   5.574  1.00  0.00     0.124 S 
ATOM     69  O   UNL     1      -9.707  -2.120   5.889  1.00  0.00    -0.237 OA
ATOM     70  O   UNL     1     -12.002  -1.588   6.630  1.00  0.00    -0.237 OA
ATOM     71  O   UNL     1     -11.635  -3.283   4.878  1.00  0.00    -0.744 OA
ENDBRANCH  67  68
ENDBRANCH  48  62
BRANCH  49  72
ATOM     72  C   UNL     1     -10.275   8.287  -4.613  1.00  0.00    -0.014 A 
ATOM     73  C   UNL     1     -10.827   9.571  -4.469  1.00  0.00     0.010 A 
ATOM     74  C   UNL     1      -9.513   7.991  -5.758  1.00  0.00     0.010 A 
ATOM     75  C   UNL     1     -10.620  10.544  -5.451  1.00  0.00     0.020 A 
ATOM     76  C   UNL     1      -9.287   8.967  -6.732  1.00  0.00     0.020 A 
ATOM     77  C   UNL     1      -9.846  10.237  -6.574  1.00  0.00     0.054 A 
BRANCH  77  78
ATOM     78  S   UNL     1      -9.513  11.541  -7.793  1.00  0.00     0.124 S 
ATOM     79  O   UNL     1     -10.770  11.592  -8.533  1.00  0.00    -0.237 OA
ATOM     80  O   UNL     1      -9.227  12.699  -6.950  1.00  0.00    -0.237 OA
ATOM     81  O   UNL     1      -8.366  11.025  -8.536  1.00  0.00    -0.744 OA
ENDBRANCH  77  78
ENDBRANCH  49  72
BRANCH  61  82
ATOM     82  C   UNL     1     -15.615   4.334  -2.479  1.00  0.00    -0.014 A 
ATOM     83  C   UNL     1     -15.969   3.698  -3.682  1.00  0.00     0.010 A 
ATOM     84  C   UNL     1     -16.627   4.840  -1.643  1.00  0.00     0.010 A 
ATOM     85  C   UNL     1     -17.311   3.591  -4.054  1.00  0.00     0.020 A 
ATOM     86  C   UNL     1     -17.971   4.716  -2.002  1.00  0.00     0.020 A 
ATOM     87  C   UNL     1     -18.304   4.103  -3.212  1.00  0.00     0.054 A 
BRANCH  87  88
ATOM     88  S   UNL     1     -20.043   3.910  -3.691  1.00  0.00     0.124 S 
ATOM     89  O   UNL     1     -20.197   4.952  -4.702  1.00  0.00    -0.237 OA
ATOM     90  O   UNL     1     -20.091   2.538  -4.190  1.00  0.00    -0.237 OA
ATOM     91  O   UNL     1     -20.771   4.138  -2.444  1.00  0.00    -0.744 OA
ENDBRANCH  87  88
ENDBRANCH  61  82
ENDBRANCH  35  36
ENDBRANCH  27  30
ENDBRANCH  25  26
ENDBRANCH  24  25
ENDBRANCH   1  24
TORSDOF 19
