REMARK SMILES C[C@H]1[C@H](C(=O)NCCCCNC(=O)c2ccc(-c3c4nc(c(-c5ccc(S(=O)(=O)[O-])cc5)c5ccc([nH]5)c(-c5ccc(S(=O)(=O)[O-])cc5)c5nc(c(-c6ccc(S(=O)(=O)[O-])cc6)c6ccc3[nH]6)C=C5)C=C4)cc2)CCN1S(=O)(=O)C(F)(F)F
REMARK SMILES IDX 9 1 8 2 7 3 6 4 4 5 5 6 3 8 1 9 2 10 76 11 74 12 75 13 77 14
REMARK SMILES IDX 78 15 79 16 80 17 81 18 82 19 83 20 10 21 11 22 12 23 13 25
REMARK SMILES IDX 14 26 15 27 73 28 16 29 72 30 17 31 18 32 19 33 66 34 20 35
REMARK SMILES IDX 71 36 65 37 67 38 21 39 70 40 64 41 63 42 22 44 52 45 33 46
REMARK SMILES IDX 51 47 34 48 37 49 50 50 68 51 35 52 36 53 49 55 69 56 38 57
REMARK SMILES IDX 23 58 24 59 32 60 25 61 31 62 26 63 27 64 28 65 29 66 30 67
REMARK SMILES IDX 53 68 54 69 62 70 55 71 61 72 56 73 57 74 58 75 59 76 60 77
REMARK SMILES IDX 39 78 40 79 48 80 41 81 47 82 42 83 43 84 44 85 45 86 46 87
REMARK H PARENT 6 7 11 24 67 43 37 54
REMARK Flexibility Score: inf
ROOT
ATOM      1  C   UNL     1       0.131   1.037   5.372  1.00  0.00     0.023 C 
ENDROOT
BRANCH   1   2
ATOM      2  C   UNL     1       0.070   0.423   3.978  1.00  0.00     0.023 C 
BRANCH   2   3
ATOM      3  C   UNL     1      -0.939   1.075   3.031  1.00  0.00     0.116 C 
BRANCH   3   4
ATOM      4  N   UNL     1      -0.368   2.178   2.282  1.00  0.00    -0.356 N 
ATOM      5  C   UNL     1      -0.005   2.275   0.974  1.00  0.00     0.224 C 
ATOM      6  O   UNL     1       0.434   3.363   0.588  1.00  0.00    -0.275 OA
ATOM      7  H   UNL     1      -0.219   2.996   2.809  1.00  0.00     0.163 HD
BRANCH   5   8
ATOM      8  C   UNL     1      -0.100   1.115  -0.012  1.00  0.00     0.098 C 
ATOM      9  C   UNL     1       2.062  -0.148  -0.323  1.00  0.00     0.026 C 
ATOM     10  C   UNL     1       0.721  -0.106   0.410  1.00  0.00     0.082 C 
ATOM     11  N   UNL     1      -0.062  -1.313   0.004  1.00  0.00    -0.190 NA
ATOM     12  C   UNL     1      -1.499   0.599  -0.295  1.00  0.00     0.032 C 
ATOM     13  C   UNL     1      -1.281  -0.847  -0.716  1.00  0.00     0.104 C 
BRANCH  11  14
ATOM     14  S   UNL     1      -0.346  -2.561   1.151  1.00  0.00     0.314 S 
ATOM     15  O   UNL     1      -1.256  -1.992   2.131  1.00  0.00    -0.203 OA
ATOM     16  O   UNL     1      -0.802  -3.697   0.367  1.00  0.00    -0.203 OA
BRANCH  14  17
ATOM     17  C   UNL     1       1.303  -2.955   1.966  1.00  0.00     0.511 C 
ATOM     18  F   UNL     1       2.147  -3.620   1.129  1.00  0.00    -0.155 F 
ATOM     19  F   UNL     1       1.961  -1.832   2.375  1.00  0.00    -0.155 F 
ATOM     20  F   UNL     1       1.142  -3.730   3.075  1.00  0.00    -0.155 F 
ENDBRANCH  14  17
ENDBRANCH  11  14
ENDBRANCH   5   8
ENDBRANCH   3   4
ENDBRANCH   2   3
ENDBRANCH   1   2
BRANCH   1  21
ATOM     21  C   UNL     1      -1.180   1.020   6.148  1.00  0.00     0.116 C 
BRANCH  21  22
ATOM     22  N   UNL     1      -1.777  -0.301   6.291  1.00  0.00    -0.352 N 
ATOM     23  C   UNL     1      -2.467  -0.805   7.374  1.00  0.00     0.251 C 
ATOM     24  H   UNL     1      -1.675  -0.908   5.522  1.00  0.00     0.163 HD
ATOM     25  O   UNL     1      -2.849  -1.966   7.390  1.00  0.00    -0.269 OA
BRANCH  23  26
ATOM     26  C   UNL     1      -2.693   0.076   8.540  1.00  0.00     0.039 A 
ATOM     27  C   UNL     1      -2.300  -0.361   9.806  1.00  0.00     0.014 A 
ATOM     28  C   UNL     1      -3.205   1.364   8.361  1.00  0.00     0.014 A 
ATOM     29  C   UNL     1      -2.334   0.530  10.881  1.00  0.00     0.010 A 
ATOM     30  C   UNL     1      -3.159   2.272   9.412  1.00  0.00     0.010 A 
ATOM     31  C   UNL     1      -2.715   1.867  10.681  1.00  0.00    -0.014 A 
BRANCH  31  32
ATOM     32  C   UNL     1      -2.641   2.868  11.776  1.00  0.00     0.031 A 
ATOM     33  C   UNL     1      -3.892   3.554  12.254  1.00  0.00     0.074 A 
ATOM     34  C   UNL     1      -1.442   3.221  12.280  1.00  0.00     0.049 A 
ATOM     35  N   UNL     1      -4.020   4.513  13.134  1.00  0.00    -0.248 NA
ATOM     36  C   UNL     1      -5.160   3.129  11.638  1.00  0.00     0.031 C 
ATOM     37  C   UNL     1      -0.148   2.673  11.862  1.00  0.00     0.029 A 
ATOM     38  N   UNL     1      -1.113   4.137  13.249  1.00  0.00    -0.354 N 
ATOM     39  C   UNL     1      -5.374   4.824  13.158  1.00  0.00     0.074 A 
ATOM     40  C   UNL     1      -6.019   3.985  12.171  1.00  0.00     0.031 C 
ATOM     41  C   UNL     1       0.828   3.241  12.590  1.00  0.00     0.029 A 
ATOM     42  C   UNL     1       0.237   4.219  13.498  1.00  0.00     0.049 A 
ATOM     43  H   UNL     1      -1.782   4.684  13.721  1.00  0.00     0.167 HD
ATOM     44  C   UNL     1      -6.028   5.711  13.945  1.00  0.00     0.031 A 
ATOM     45  C   UNL     1       0.923   4.996  14.358  1.00  0.00     0.031 A 
ATOM     46  C   UNL     1      -5.391   6.524  14.945  1.00  0.00     0.049 A 
ATOM     47  C   UNL     1       0.173   5.956  15.240  1.00  0.00     0.074 A 
ATOM     48  C   UNL     1      -5.976   7.404  15.839  1.00  0.00     0.029 A 
ATOM     49  N   UNL     1      -4.027   6.552  15.189  1.00  0.00    -0.354 N 
ATOM     50  N   UNL     1      -1.116   6.188  15.292  1.00  0.00    -0.248 NA
ATOM     51  C   UNL     1       0.970   6.749  16.186  1.00  0.00     0.031 C 
ATOM     52  C   UNL     1      -4.959   7.992  16.599  1.00  0.00     0.029 A 
ATOM     53  C   UNL     1      -3.748   7.444  16.209  1.00  0.00     0.049 A 
ATOM     54  H   UNL     1      -3.356   6.016  14.708  1.00  0.00     0.167 HD
ATOM     55  C   UNL     1      -1.288   7.138  16.293  1.00  0.00     0.074 A 
ATOM     56  C   UNL     1       0.027   7.426  16.828  1.00  0.00     0.031 C 
ATOM     57  C   UNL     1      -2.433   7.718  16.730  1.00  0.00     0.031 A 
BRANCH  44  58
ATOM     58  C   UNL     1      -7.515   5.841  13.751  1.00  0.00    -0.014 A 
ATOM     59  C   UNL     1      -8.389   4.812  14.146  1.00  0.00     0.010 A 
ATOM     60  C   UNL     1      -8.048   7.014  13.187  1.00  0.00     0.010 A 
ATOM     61  C   UNL     1      -9.765   4.933  13.936  1.00  0.00     0.020 A 
ATOM     62  C   UNL     1      -9.426   7.150  13.000  1.00  0.00     0.020 A 
ATOM     63  C   UNL     1     -10.274   6.100  13.358  1.00  0.00     0.054 A 
BRANCH  63  64
ATOM     64  S   UNL     1     -12.065   6.236  13.106  1.00  0.00     0.124 S 
ATOM     65  O   UNL     1     -12.271   5.376  11.944  1.00  0.00    -0.237 OA
ATOM     66  O   UNL     1     -12.607   5.731  14.365  1.00  0.00    -0.237 OA
ATOM     67  O   UNL     1     -12.273   7.663  12.870  1.00  0.00    -0.744 OA
ENDBRANCH  63  64
ENDBRANCH  44  58
BRANCH  45  68
ATOM     68  C   UNL     1       2.404   4.878  14.446  1.00  0.00    -0.014 A 
ATOM     69  C   UNL     1       3.001   4.257  15.557  1.00  0.00     0.010 A 
ATOM     70  C   UNL     1       3.223   5.371  13.415  1.00  0.00     0.010 A 
ATOM     71  C   UNL     1       4.392   4.145  15.644  1.00  0.00     0.020 A 
ATOM     72  C   UNL     1       4.613   5.239  13.486  1.00  0.00     0.020 A 
ATOM     73  C   UNL     1       5.189   4.636  14.607  1.00  0.00     0.054 A 
BRANCH  73  74
ATOM     74  S   UNL     1       6.989   4.430  14.712  1.00  0.00     0.124 S 
ATOM     75  O   UNL     1       7.357   5.465  15.672  1.00  0.00    -0.237 OA
ATOM     76  O   UNL     1       7.125   3.053  15.180  1.00  0.00    -0.237 OA
ATOM     77  O   UNL     1       7.438   4.658  13.340  1.00  0.00    -0.744 OA
ENDBRANCH  73  74
ENDBRANCH  45  68
BRANCH  57  78
ATOM     78  C   UNL     1      -2.320   8.701  17.862  1.00  0.00    -0.014 A 
ATOM     79  C   UNL     1      -1.804   9.992  17.654  1.00  0.00     0.010 A 
ATOM     80  C   UNL     1      -2.789   8.345  19.140  1.00  0.00     0.010 A 
ATOM     81  C   UNL     1      -1.736  10.902  18.712  1.00  0.00     0.020 A 
ATOM     82  C   UNL     1      -2.744   9.260  20.194  1.00  0.00     0.020 A 
ATOM     83  C   UNL     1      -2.205  10.529  19.976  1.00  0.00     0.054 A 
BRANCH  83  84
ATOM     84  S   UNL     1      -2.150  11.743  21.323  1.00  0.00     0.124 S 
ATOM     85  O   UNL     1      -0.736  11.728  21.687  1.00  0.00    -0.237 OA
ATOM     86  O   UNL     1      -2.619  12.965  20.675  1.00  0.00    -0.237 OA
ATOM     87  O   UNL     1      -3.058  11.189  22.325  1.00  0.00    -0.744 OA
ENDBRANCH  83  84
ENDBRANCH  57  78
ENDBRANCH  31  32
ENDBRANCH  23  26
ENDBRANCH  21  22
ENDBRANCH   1  21
TORSDOF 16
