REMARK SMILES C[C@@H](C(=O)NCCCCNC(=O)c1ccc(-c2c3nc(c(-c4ccc(S(=O)(=O)[O-])cc4)c4ccc([nH]4)c(-c4ccc(S(=O)(=O)[O-])cc4)c4nc(c(-c5ccc(S(=O)(=O)[O-])cc5)c5ccc2[nH]5)C=C4)C=C3)cc1)c1cc(/C=C/S(C)(=O)=O)cc(C(=O)c2ccccc2)c1
REMARK SMILES IDX 7 1 6 2 5 3 3 4 4 5 2 7 1 8 73 9 74 10 92 11 75 12 83 13
REMARK SMILES IDX 82 14 76 15 77 16 78 17 79 18 80 19 81 20 84 21 85 22 86 23
REMARK SMILES IDX 87 24 91 25 88 26 90 27 89 28 8 29 9 30 10 31 11 32 12 34
REMARK SMILES IDX 13 35 14 36 72 37 15 38 71 39 16 40 17 41 18 42 65 43 19 44
REMARK SMILES IDX 70 45 64 46 66 47 20 48 69 49 63 50 62 51 21 53 51 54 32 55
REMARK SMILES IDX 50 56 33 57 36 58 49 59 67 60 34 61 35 62 48 64 68 65 37 66
REMARK SMILES IDX 22 67 23 68 31 69 24 70 30 71 25 72 26 73 27 74 28 75 29 76
REMARK SMILES IDX 52 77 53 78 61 79 54 80 60 81 55 82 56 83 57 84 58 85 59 86
REMARK SMILES IDX 38 87 39 88 47 89 40 90 46 91 41 92 42 93 43 94 44 95 45 96
REMARK H PARENT 5 6 10 33 66 52 36 63
REMARK Flexibility Score: inf
ROOT
ATOM      1  C   UNL     1       4.249   1.156  -0.617  1.00  0.00     0.023 C 
ENDROOT
BRANCH   1   2
ATOM      2  C   UNL     1       3.412   1.917   0.416  1.00  0.00     0.116 C 
BRANCH   2   3
ATOM      3  N   UNL     1       2.358   2.680  -0.225  1.00  0.00    -0.356 N 
ATOM      4  C   UNL     1       1.029   2.389  -0.364  1.00  0.00     0.227 C 
ATOM      5  O   UNL     1       0.365   3.122  -1.097  1.00  0.00    -0.274 OA
ATOM      6  H   UNL     1       2.642   3.536  -0.620  1.00  0.00     0.163 HD
BRANCH   4   7
ATOM      7  C   UNL     1       0.429   1.214   0.425  1.00  0.00     0.105 C 
ATOM      8  C   UNL     1       0.893  -0.116  -0.188  1.00  0.00     0.023 C 
BRANCH   7   9
ATOM      9  C   UNL     1      -1.094   1.281   0.608  1.00  0.00    -0.035 A 
ATOM     10  C   UNL     1      -1.750   2.487   0.913  1.00  0.00     0.012 A 
ATOM     11  C   UNL     1      -1.872   0.118   0.572  1.00  0.00     0.016 A 
ATOM     12  C   UNL     1      -3.140   2.546   1.134  1.00  0.00    -0.024 A 
ATOM     13  C   UNL     1      -3.237   0.129   0.870  1.00  0.00     0.023 A 
ATOM     14  C   UNL     1      -3.873   1.347   1.120  1.00  0.00     0.020 A 
BRANCH  12  15
ATOM     15  C   UNL     1      -3.856   3.807   1.416  1.00  0.00     0.020 C 
ATOM     16  C   UNL     1      -3.314   5.035   1.403  1.00  0.00     0.106 C 
BRANCH  16  17
ATOM     17  S   UNL     1      -4.284   6.423   1.801  1.00  0.00     0.168 S 
ATOM     18  C   UNL     1      -3.411   7.064   3.209  1.00  0.00     0.163 C 
ATOM     19  O   UNL     1      -4.151   7.399   0.736  1.00  0.00    -0.225 OA
ATOM     20  O   UNL     1      -5.595   6.014   2.267  1.00  0.00    -0.225 OA
ENDBRANCH  16  17
ENDBRANCH  12  15
BRANCH  13  21
ATOM     21  C   UNL     1      -4.003  -1.153   0.916  1.00  0.00     0.193 C 
ATOM     22  O   UNL     1      -5.227  -1.156   0.847  1.00  0.00    -0.289 OA
BRANCH  21  23
ATOM     23  C   UNL     1      -3.280  -2.449   1.024  1.00  0.00     0.022 A 
ATOM     24  C   UNL     1      -3.520  -3.433   0.062  1.00  0.00     0.012 A 
ATOM     25  C   UNL     1      -2.325  -2.663   2.028  1.00  0.00     0.012 A 
ATOM     26  C   UNL     1      -2.772  -4.613   0.078  1.00  0.00     0.001 A 
ATOM     27  C   UNL     1      -1.576  -3.841   2.035  1.00  0.00     0.001 A 
ATOM     28  C   UNL     1      -1.796  -4.811   1.056  1.00  0.00     0.000 A 
ENDBRANCH  21  23
ENDBRANCH  13  21
ENDBRANCH   7   9
ENDBRANCH   4   7
ENDBRANCH   2   3
ENDBRANCH   1   2
BRANCH   1  29
ATOM     29  C   UNL     1       5.051   2.046  -1.561  1.00  0.00     0.023 C 
BRANCH  29  30
ATOM     30  C   UNL     1       6.039   2.965  -0.865  1.00  0.00     0.116 C 
BRANCH  30  31
ATOM     31  N   UNL     1       7.040   2.236  -0.099  1.00  0.00    -0.352 N 
ATOM     32  C   UNL     1       8.396   2.465  -0.055  1.00  0.00     0.251 C 
ATOM     33  H   UNL     1       6.707   1.491   0.452  1.00  0.00     0.163 HD
ATOM     34  O   UNL     1       9.147   1.684   0.519  1.00  0.00    -0.269 OA
BRANCH  32  35
ATOM     35  C   UNL     1       8.921   3.657  -0.746  1.00  0.00     0.039 A 
ATOM     36  C   UNL     1       9.931   3.507  -1.698  1.00  0.00     0.014 A 
ATOM     37  C   UNL     1       8.327   4.901  -0.520  1.00  0.00     0.014 A 
ATOM     38  C   UNL     1      10.297   4.602  -2.483  1.00  0.00     0.010 A 
ATOM     39  C   UNL     1       8.631   5.962  -1.361  1.00  0.00     0.010 A 
ATOM     40  C   UNL     1       9.620   5.825  -2.348  1.00  0.00    -0.014 A 
BRANCH  40  41
ATOM     41  C   UNL     1       9.920   6.995  -3.210  1.00  0.00     0.031 A 
ATOM     42  C   UNL     1      10.407   8.269  -2.579  1.00  0.00     0.074 A 
ATOM     43  C   UNL     1       9.640   6.955  -4.527  1.00  0.00     0.049 A 
ATOM     44  N   UNL     1      10.564   9.451  -3.114  1.00  0.00    -0.248 NA
ATOM     45  C   UNL     1      10.720   8.211  -1.141  1.00  0.00     0.031 C 
ATOM     46  C   UNL     1       9.131   5.790  -5.253  1.00  0.00     0.029 A 
ATOM     47  N   UNL     1       9.720   7.935  -5.486  1.00  0.00    -0.354 N 
ATOM     48  C   UNL     1      10.956  10.284  -2.074  1.00  0.00     0.074 A 
ATOM     49  C   UNL     1      10.964   9.483  -0.870  1.00  0.00     0.031 C 
ATOM     50  C   UNL     1       8.949   6.120  -6.542  1.00  0.00     0.029 A 
ATOM     51  C   UNL     1       9.278   7.531  -6.724  1.00  0.00     0.049 A 
ATOM     52  H   UNL     1      10.061   8.840  -5.304  1.00  0.00     0.167 HD
ATOM     53  C   UNL     1      11.291  11.596  -2.119  1.00  0.00     0.031 A 
ATOM     54  C   UNL     1       9.128   8.223  -7.871  1.00  0.00     0.031 A 
ATOM     55  C   UNL     1      11.283  12.382  -3.323  1.00  0.00     0.049 A 
ATOM     56  C   UNL     1       9.498   9.680  -7.904  1.00  0.00     0.074 A 
ATOM     57  C   UNL     1      11.664  13.701  -3.490  1.00  0.00     0.029 A 
ATOM     58  N   UNL     1      10.865  11.924  -4.564  1.00  0.00    -0.354 N 
ATOM     59  N   UNL     1       9.928  10.440  -6.926  1.00  0.00    -0.248 NA
ATOM     60  C   UNL     1       9.376  10.369  -9.196  1.00  0.00     0.031 C 
ATOM     61  C   UNL     1      11.417  14.059  -4.819  1.00  0.00     0.029 A 
ATOM     62  C   UNL     1      10.954  12.942  -5.498  1.00  0.00     0.049 A 
ATOM     63  H   UNL     1      10.552  11.010  -4.753  1.00  0.00     0.167 HD
ATOM     64  C   UNL     1      10.159  11.690  -7.489  1.00  0.00     0.074 A 
ATOM     65  C   UNL     1       9.822  11.582  -8.895  1.00  0.00     0.031 C 
ATOM     66  C   UNL     1      10.619  12.820  -6.896  1.00  0.00     0.031 A 
BRANCH  53  67
ATOM     67  C   UNL     1      11.658  12.258  -0.816  1.00  0.00    -0.014 A 
ATOM     68  C   UNL     1      12.816  11.892  -0.105  1.00  0.00     0.010 A 
ATOM     69  C   UNL     1      10.821  13.257  -0.286  1.00  0.00     0.010 A 
ATOM     70  C   UNL     1      13.089  12.455   1.144  1.00  0.00     0.020 A 
ATOM     71  C   UNL     1      11.110  13.851   0.946  1.00  0.00     0.020 A 
ATOM     72  C   UNL     1      12.227  13.424   1.666  1.00  0.00     0.054 A 
BRANCH  72  73
ATOM     73  S   UNL     1      12.588  14.117   3.302  1.00  0.00     0.124 S 
ATOM     74  O   UNL     1      12.239  13.004   4.182  1.00  0.00    -0.237 OA
ATOM     75  O   UNL     1      14.014  14.423   3.213  1.00  0.00    -0.237 OA
ATOM     76  O   UNL     1      11.708  15.279   3.389  1.00  0.00    -0.744 OA
ENDBRANCH  72  73
ENDBRANCH  53  67
BRANCH  54  77
ATOM     77  C   UNL     1       8.611   7.524  -9.080  1.00  0.00    -0.014 A 
ATOM     78  C   UNL     1       9.472   7.206 -10.143  1.00  0.00     0.010 A 
ATOM     79  C   UNL     1       7.267   7.109  -9.140  1.00  0.00     0.010 A 
ATOM     80  C   UNL     1       9.003   6.478 -11.241  1.00  0.00     0.020 A 
ATOM     81  C   UNL     1       6.801   6.359 -10.223  1.00  0.00     0.020 A 
ATOM     82  C   UNL     1       7.673   6.048 -11.268  1.00  0.00     0.054 A 
BRANCH  82  83
ATOM     83  S   UNL     1       7.118   5.014 -12.653  1.00  0.00     0.124 S 
ATOM     84  O   UNL     1       7.082   5.972 -13.753  1.00  0.00    -0.237 OA
ATOM     85  O   UNL     1       8.168   4.002 -12.728  1.00  0.00    -0.237 OA
ATOM     86  O   UNL     1       5.817   4.518 -12.210  1.00  0.00    -0.744 OA
ENDBRANCH  82  83
ENDBRANCH  54  77
BRANCH  66  87
ATOM     87  C   UNL     1      10.842  14.030  -7.765  1.00  0.00    -0.014 A 
ATOM     88  C   UNL     1       9.768  14.787  -8.264  1.00  0.00     0.010 A 
ATOM     89  C   UNL     1      12.159  14.471  -7.999  1.00  0.00     0.010 A 
ATOM     90  C   UNL     1      10.008  15.957  -8.992  1.00  0.00     0.020 A 
ATOM     91  C   UNL     1      12.402  15.653  -8.701  1.00  0.00     0.020 A 
ATOM     92  C   UNL     1      11.324  16.386  -9.199  1.00  0.00     0.054 A 
BRANCH  92  93
ATOM     93  S   UNL     1      11.606  17.948 -10.078  1.00  0.00     0.124 S 
ATOM     94  O   UNL     1      11.258  17.592 -11.451  1.00  0.00    -0.237 OA
ATOM     95  O   UNL     1      10.682  18.861  -9.411  1.00  0.00    -0.237 OA
ATOM     96  O   UNL     1      13.022  18.225  -9.847  1.00  0.00    -0.744 OA
ENDBRANCH  92  93
ENDBRANCH  66  87
ENDBRANCH  40  41
ENDBRANCH  32  35
ENDBRANCH  30  31
ENDBRANCH  29  30
ENDBRANCH   1  29
TORSDOF 19
