REMARK SMILES CCC[C@@]1(C(=O)NCCCCNC(=O)c2ccc(-c3c4nc(c(-c5ccc(S(=O)(=O)[O-])cc5)c5ccc([nH]5)c(-c5ccc(S(=O)(=O)[O-])cc5)c5nc(c(-c6ccc(S(=O)(=O)[O-])cc6)c6ccc3[nH]6)C=C5)C=C4)cc2)CCCN(C(=O)CCn2cncn2)C1
REMARK SMILES IDX 9 1 8 2 7 3 5 4 6 5 4 7 75 8 88 9 76 10 78 11 77 12 3 13
REMARK SMILES IDX 2 14 1 15 79 16 80 17 81 18 82 19 83 20 84 21 87 22 85 23
REMARK SMILES IDX 86 24 10 25 11 26 12 27 13 28 14 30 15 31 16 32 74 33 17 34
REMARK SMILES IDX 73 35 18 36 19 37 20 38 67 39 21 40 72 41 66 42 68 43 22 44
REMARK SMILES IDX 71 45 65 46 64 47 23 49 53 50 34 51 52 52 35 53 38 54 51 55
REMARK SMILES IDX 69 56 36 57 37 58 50 60 70 61 39 62 24 63 25 64 33 65 26 66
REMARK SMILES IDX 32 67 27 68 28 69 29 70 30 71 31 72 54 73 55 74 63 75 56 76
REMARK SMILES IDX 62 77 57 78 58 79 59 80 60 81 61 82 40 83 41 84 49 85 42 86
REMARK SMILES IDX 48 87 43 88 44 89 45 90 46 91 47 92
REMARK H PARENT 7 6 12 29 68 48 38 59
REMARK Flexibility Score: inf
ROOT
ATOM      1  C   UNL     1       2.691  -5.848   1.026  1.00  0.00     0.023 C 
ENDROOT
BRANCH   1   2
ATOM      2  C   UNL     1       2.595  -4.412   1.506  1.00  0.00     0.116 C 
BRANCH   2   3
ATOM      3  N   UNL     1       1.935  -3.456   0.651  1.00  0.00    -0.356 N 
ATOM      4  C   UNL     1       1.357  -2.265   0.999  1.00  0.00     0.228 C 
ATOM      5  O   UNL     1       1.347  -1.409   0.105  1.00  0.00    -0.274 OA
ATOM      6  H   UNL     1       1.896  -3.689  -0.304  1.00  0.00     0.163 HD
BRANCH   4   7
ATOM      7  C   UNL     1       0.592  -2.014   2.334  1.00  0.00     0.067 C 
ATOM      8  C   UNL     1       0.331  -0.480   2.519  1.00  0.00     0.020 C 
ATOM      9  C   UNL     1       1.304  -2.424   3.645  1.00  0.00     0.136 C 
ATOM     10  C   UNL     1       1.606   0.315   2.834  1.00  0.00     0.023 C 
ATOM     11  N   UNL     1       2.591  -1.745   3.797  1.00  0.00    -0.342 N 
ATOM     12  C   UNL     1       2.474  -0.297   3.932  1.00  0.00     0.119 C 
BRANCH   7  13
ATOM     13  C   UNL     1      -0.769  -2.774   2.237  1.00  0.00     0.018 C 
BRANCH  13  14
ATOM     14  C   UNL     1      -1.704  -2.373   1.076  1.00  0.00    -0.002 C 
ATOM     15  C   UNL     1      -1.629  -3.303  -0.127  1.00  0.00     0.004 C 
ENDBRANCH  13  14
ENDBRANCH   7  13
BRANCH  11  16
ATOM     16  C   UNL     1       3.738  -2.491   4.010  1.00  0.00     0.224 C 
ATOM     17  O   UNL     1       3.696  -3.717   4.151  1.00  0.00    -0.275 OA
BRANCH  16  18
ATOM     18  C   UNL     1       5.096  -1.823   3.988  1.00  0.00     0.124 C 
BRANCH  18  19
ATOM     19  C   UNL     1       5.598  -1.624   2.559  1.00  0.00     0.156 C 
BRANCH  19  20
ATOM     20  N   UNL     1       5.328  -0.307   2.026  1.00  0.00    -0.252 N 
ATOM     21  C   UNL     1       4.630   0.028   0.910  1.00  0.00     0.219 A 
ATOM     22  N   UNL     1       5.812   0.790   2.642  1.00  0.00    -0.160 NA
ATOM     23  N   UNL     1       4.621   1.336   0.779  1.00  0.00    -0.224 NA
ATOM     24  C   UNL     1       5.364   1.759   1.840  1.00  0.00     0.246 A 
ENDBRANCH  19  20
ENDBRANCH  18  19
ENDBRANCH  16  18
ENDBRANCH  11  16
ENDBRANCH   4   7
ENDBRANCH   2   3
ENDBRANCH   1   2
BRANCH   1  25
ATOM     25  C   UNL     1       3.618  -6.141  -0.143  1.00  0.00     0.023 C 
BRANCH  25  26
ATOM     26  C   UNL     1       4.986  -5.471  -0.139  1.00  0.00     0.116 C 
BRANCH  26  27
ATOM     27  N   UNL     1       5.798  -5.705   1.050  1.00  0.00    -0.352 N 
ATOM     28  C   UNL     1       7.115  -6.107   1.139  1.00  0.00     0.251 C 
ATOM     29  H   UNL     1       5.342  -5.554   1.909  1.00  0.00     0.163 HD
ATOM     30  O   UNL     1       7.652  -6.233   2.236  1.00  0.00    -0.269 OA
BRANCH  28  31
ATOM     31  C   UNL     1       7.860  -6.448  -0.093  1.00  0.00     0.039 A 
ATOM     32  C   UNL     1       8.467  -7.704  -0.188  1.00  0.00     0.014 A 
ATOM     33  C   UNL     1       7.872  -5.578  -1.185  1.00  0.00     0.014 A 
ATOM     34  C   UNL     1       8.974  -8.135  -1.417  1.00  0.00     0.010 A 
ATOM     35  C   UNL     1       8.294  -6.044  -2.426  1.00  0.00     0.010 A 
ATOM     36  C   UNL     1       8.830  -7.335  -2.562  1.00  0.00    -0.014 A 
BRANCH  36  37
ATOM     37  C   UNL     1       9.192  -7.838  -3.915  1.00  0.00     0.031 A 
ATOM     38  C   UNL     1      10.246  -7.138  -4.729  1.00  0.00     0.074 A 
ATOM     39  C   UNL     1       8.508  -8.869  -4.452  1.00  0.00     0.049 A 
ATOM     40  N   UNL     1      10.642  -7.383  -5.951  1.00  0.00    -0.248 NA
ATOM     41  C   UNL     1      10.918  -5.992  -4.096  1.00  0.00     0.031 C 
ATOM     42  C   UNL     1       7.428  -9.610  -3.792  1.00  0.00     0.029 A 
ATOM     43  N   UNL     1       8.616  -9.473  -5.681  1.00  0.00    -0.354 N 
ATOM     44  C   UNL     1      11.586  -6.406  -6.245  1.00  0.00     0.074 A 
ATOM     45  C   UNL     1      11.665  -5.537  -5.090  1.00  0.00     0.031 C 
ATOM     46  C   UNL     1       7.008 -10.594  -4.604  1.00  0.00     0.029 A 
ATOM     47  C   UNL     1       7.752 -10.528  -5.858  1.00  0.00     0.049 A 
ATOM     48  H   UNL     1       9.253  -9.178  -6.371  1.00  0.00     0.167 HD
ATOM     49  C   UNL     1      12.335  -6.253  -7.363  1.00  0.00     0.031 A 
ATOM     50  C   UNL     1       7.577 -11.354  -6.908  1.00  0.00     0.031 A 
ATOM     51  C   UNL     1      12.271  -7.126  -8.504  1.00  0.00     0.049 A 
ATOM     52  C   UNL     1       8.417 -11.166  -8.141  1.00  0.00     0.074 A 
ATOM     53  C   UNL     1      13.041  -7.099  -9.654  1.00  0.00     0.029 A 
ATOM     54  N   UNL     1      11.383  -8.182  -8.642  1.00  0.00    -0.354 N 
ATOM     55  N   UNL     1       9.354 -10.279  -8.372  1.00  0.00    -0.248 NA
ATOM     56  C   UNL     1       8.177 -12.097  -9.254  1.00  0.00     0.031 C 
ATOM     57  C   UNL     1      12.587  -8.111 -10.507  1.00  0.00     0.029 A 
ATOM     58  C   UNL     1      11.568  -8.800  -9.868  1.00  0.00     0.049 A 
ATOM     59  H   UNL     1      10.719  -8.453  -7.968  1.00  0.00     0.167 HD
ATOM     60  C   UNL     1       9.838 -10.562  -9.644  1.00  0.00     0.074 A 
ATOM     61  C   UNL     1       9.093 -11.706 -10.130  1.00  0.00     0.031 C 
ATOM     62  C   UNL     1      10.816  -9.934 -10.342  1.00  0.00     0.031 A 
BRANCH  49  63
ATOM     63  C   UNL     1      13.277  -5.078  -7.400  1.00  0.00    -0.014 A 
ATOM     64  C   UNL     1      14.410  -5.026  -6.567  1.00  0.00     0.010 A 
ATOM     65  C   UNL     1      13.015  -4.002  -8.267  1.00  0.00     0.010 A 
ATOM     66  C   UNL     1      15.223  -3.890  -6.548  1.00  0.00     0.020 A 
ATOM     67  C   UNL     1      13.844  -2.876  -8.273  1.00  0.00     0.020 A 
ATOM     68  C   UNL     1      14.926  -2.816  -7.392  1.00  0.00     0.054 A 
BRANCH  68  69
ATOM     69  S   UNL     1      15.977  -1.340  -7.327  1.00  0.00     0.124 S 
ATOM     70  O   UNL     1      15.515  -0.697  -6.099  1.00  0.00    -0.237 OA
ATOM     71  O   UNL     1      17.323  -1.904  -7.271  1.00  0.00    -0.237 OA
ATOM     72  O   UNL     1      15.653  -0.630  -8.562  1.00  0.00    -0.744 OA
ENDBRANCH  68  69
ENDBRANCH  49  63
BRANCH  50  73
ATOM     73  C   UNL     1       6.596 -12.470  -6.817  1.00  0.00    -0.014 A 
ATOM     74  C   UNL     1       7.051 -13.792  -6.666  1.00  0.00     0.010 A 
ATOM     75  C   UNL     1       5.213 -12.220  -6.846  1.00  0.00     0.010 A 
ATOM     76  C   UNL     1       6.141 -14.846  -6.548  1.00  0.00     0.020 A 
ATOM     77  C   UNL     1       4.299 -13.270  -6.706  1.00  0.00     0.020 A 
ATOM     78  C   UNL     1       4.769 -14.577  -6.563  1.00  0.00     0.054 A 
BRANCH  78  79
ATOM     79  S   UNL     1       3.608 -15.953  -6.331  1.00  0.00     0.124 S 
ATOM     80  O   UNL     1       3.681 -16.634  -7.619  1.00  0.00    -0.237 OA
ATOM     81  O   UNL     1       4.192 -16.671  -5.201  1.00  0.00    -0.237 OA
ATOM     82  O   UNL     1       2.341 -15.284  -6.044  1.00  0.00    -0.744 OA
ENDBRANCH  78  79
ENDBRANCH  50  73
BRANCH  62  83
ATOM     83  C   UNL     1      11.162 -10.488 -11.698  1.00  0.00    -0.014 A 
ATOM     84  C   UNL     1      10.312 -10.298 -12.802  1.00  0.00     0.010 A 
ATOM     85  C   UNL     1      12.385 -11.160 -11.880  1.00  0.00     0.010 A 
ATOM     86  C   UNL     1      10.667 -10.795 -14.059  1.00  0.00     0.020 A 
ATOM     87  C   UNL     1      12.754 -11.637 -13.140  1.00  0.00     0.020 A 
ATOM     88  C   UNL     1      11.886 -11.462 -14.220  1.00  0.00     0.054 A 
BRANCH  88  89
ATOM     89  S   UNL     1      12.348 -12.056 -15.871  1.00  0.00     0.124 S 
ATOM     90  O   UNL     1      11.502 -13.237 -16.017  1.00  0.00    -0.237 OA
ATOM     91  O   UNL     1      12.001 -10.925 -16.729  1.00  0.00    -0.237 OA
ATOM     92  O   UNL     1      13.780 -12.323 -15.754  1.00  0.00    -0.744 OA
ENDBRANCH  88  89
ENDBRANCH  62  83
ENDBRANCH  36  37
ENDBRANCH  28  31
ENDBRANCH  26  27
ENDBRANCH  25  26
ENDBRANCH   1  25
TORSDOF 20
