REMARK SMILES Cc1c(N[C@@H]2CC[C@@H]([NH3+])C2)cccc1C(=O)NCCCCNC(=O)c1ccc(-c2c3nc(c(-c4ccc(S(=O)(=O)[O-])cc4)c4ccc([nH]4)c(-c4ccc(S(=O)(=O)[O-])cc4)c4nc(c(-c5ccc(S(=O)(=O)[O-])cc5)c5ccc2[nH]5)C=C4)C=C3)cc1
REMARK SMILES IDX 19 1 18 2 17 3 15 4 16 5 14 7 1 8 2 9 3 10 11 11 13 12 12 13
REMARK SMILES IDX 4 14 5 16 6 17 10 18 7 19 8 20 9 21 20 25 21 26 22 27 23 28
REMARK SMILES IDX 24 30 25 31 26 32 84 33 27 34 83 35 28 36 29 37 30 38 77 39
REMARK SMILES IDX 31 40 82 41 76 42 78 43 32 44 81 45 75 46 74 47 33 49 63 50
REMARK SMILES IDX 44 51 62 52 45 53 48 54 61 55 79 56 46 57 47 58 60 60 80 61
REMARK SMILES IDX 49 62 34 63 35 64 43 65 36 66 42 67 37 68 38 69 39 70 40 71
REMARK SMILES IDX 41 72 64 73 65 74 73 75 66 76 72 77 67 78 68 79 69 80 70 81
REMARK SMILES IDX 71 82 50 83 51 84 59 85 52 86 58 87 53 88 54 89 55 90 56 91
REMARK SMILES IDX 57 92
REMARK H PARENT 17 6 4 15 9 22 9 23 9 24 22 29 78 48 48 59
REMARK Flexibility Score: inf
ROOT
ATOM      1  C   UNL     1       4.288   1.245  -1.193  1.00  0.00     0.023 C 
ENDROOT
BRANCH   1   2
ATOM      2  C   UNL     1       3.418   1.712  -0.009  1.00  0.00     0.116 C 
BRANCH   2   3
ATOM      3  N   UNL     1       2.271   2.480  -0.473  1.00  0.00    -0.352 N 
ATOM      4  C   UNL     1       0.932   2.231  -0.629  1.00  0.00     0.251 C 
ATOM      5  O   UNL     1       0.260   3.166  -1.080  1.00  0.00    -0.269 OA
ATOM      6  H   UNL     1       2.515   3.396  -0.738  1.00  0.00     0.163 HD
BRANCH   4   7
ATOM      7  C   UNL     1       0.207   0.979  -0.229  1.00  0.00     0.044 A 
ATOM      8  C   UNL     1       1.821  -0.744  -1.193  1.00  0.00     0.047 C 
ATOM      9  C   UNL     1       0.640  -0.357  -0.350  1.00  0.00    -0.015 A 
ATOM     10  C   UNL     1      -0.135  -1.426   0.180  1.00  0.00     0.038 A 
ATOM     11  C   UNL     1      -1.464  -1.169   0.509  1.00  0.00     0.026 A 
ATOM     12  C   UNL     1      -1.116   1.195   0.199  1.00  0.00     0.014 A 
ATOM     13  C   UNL     1      -1.960   0.131   0.510  1.00  0.00     0.003 A 
BRANCH  10  14
ATOM     14  N   UNL     1       0.449  -2.673   0.280  1.00  0.00    -0.382 N 
ATOM     15  H   UNL     1       1.389  -2.660   0.572  1.00  0.00     0.160 HD
BRANCH  14  16
ATOM     16  C   UNL     1      -0.080  -3.995   0.029  1.00  0.00     0.085 C 
ATOM     17  C   UNL     1      -0.846  -4.130  -1.288  1.00  0.00     0.031 C 
ATOM     18  C   UNL     1      -0.969  -4.556   1.132  1.00  0.00     0.089 C 
ATOM     19  C   UNL     1      -2.127  -4.882  -0.934  1.00  0.00     0.067 C 
ATOM     20  C   UNL     1      -1.850  -5.571   0.404  1.00  0.00     0.182 C 
BRANCH  20  21
ATOM     21  N   UNL     1      -1.171  -6.853   0.211  1.00  0.00    -0.355 N 
ATOM     22  H   UNL     1      -0.305  -6.704  -0.309  1.00  0.00     0.344 HD
ATOM     23  H   UNL     1      -1.777  -7.484  -0.313  1.00  0.00     0.344 HD
ATOM     24  H   UNL     1      -0.955  -7.264   1.119  1.00  0.00     0.344 HD
ENDBRANCH  20  21
ENDBRANCH  14  16
ENDBRANCH  10  14
ENDBRANCH   4   7
ENDBRANCH   2   3
ENDBRANCH   1   2
BRANCH   1  25
ATOM     25  C   UNL     1       5.074   2.347  -1.899  1.00  0.00     0.023 C 
BRANCH  25  26
ATOM     26  C   UNL     1       6.360   2.681  -1.168  1.00  0.00     0.116 C 
BRANCH  26  27
ATOM     27  N   UNL     1       7.571   2.231  -1.844  1.00  0.00    -0.352 N 
ATOM     28  C   UNL     1       8.881   2.456  -1.456  1.00  0.00     0.251 C 
ATOM     29  H   UNL     1       7.442   1.708  -2.669  1.00  0.00     0.163 HD
ATOM     30  O   UNL     1       9.830   2.242  -2.201  1.00  0.00    -0.269 OA
BRANCH  28  31
ATOM     31  C   UNL     1       9.099   2.862  -0.052  1.00  0.00     0.039 A 
ATOM     32  C   UNL     1       9.699   1.926   0.797  1.00  0.00     0.014 A 
ATOM     33  C   UNL     1       8.400   3.951   0.457  1.00  0.00     0.014 A 
ATOM     34  C   UNL     1       9.411   1.961   2.159  1.00  0.00     0.010 A 
ATOM     35  C   UNL     1       8.003   3.900   1.776  1.00  0.00     0.010 A 
ATOM     36  C   UNL     1       8.471   2.880   2.619  1.00  0.00    -0.014 A 
BRANCH  36  37
ATOM     37  C   UNL     1       7.853   2.825   3.941  1.00  0.00     0.031 A 
ATOM     38  C   UNL     1       8.145   3.899   4.921  1.00  0.00     0.074 A 
ATOM     39  C   UNL     1       6.927   1.882   4.229  1.00  0.00     0.049 A 
ATOM     40  N   UNL     1       7.935   3.815   6.192  1.00  0.00    -0.248 NA
ATOM     41  C   UNL     1       8.780   5.156   4.534  1.00  0.00     0.031 C 
ATOM     42  C   UNL     1       5.976   1.905   5.339  1.00  0.00     0.029 A 
ATOM     43  N   UNL     1       6.789   0.595   3.702  1.00  0.00    -0.354 N 
ATOM     44  C   UNL     1       8.076   5.083   6.715  1.00  0.00     0.074 A 
ATOM     45  C   UNL     1       8.717   5.845   5.674  1.00  0.00     0.031 C 
ATOM     46  C   UNL     1       5.598   0.646   5.607  1.00  0.00     0.029 A 
ATOM     47  C   UNL     1       6.406  -0.229   4.775  1.00  0.00     0.049 A 
ATOM     48  H   UNL     1       6.932   0.320   2.768  1.00  0.00     0.167 HD
ATOM     49  C   UNL     1       7.484   5.385   7.907  1.00  0.00     0.031 A 
ATOM     50  C   UNL     1       7.141  -1.286   5.232  1.00  0.00     0.031 A 
ATOM     51  C   UNL     1       6.977   4.183   8.570  1.00  0.00     0.049 A 
ATOM     52  C   UNL     1       7.534  -1.149   6.689  1.00  0.00     0.074 A 
ATOM     53  C   UNL     1       5.709   3.649   8.734  1.00  0.00     0.029 A 
ATOM     54  N   UNL     1       7.874   3.184   8.936  1.00  0.00    -0.354 N 
ATOM     55  N   UNL     1       7.423  -0.041   7.368  1.00  0.00    -0.248 NA
ATOM     56  C   UNL     1       8.128  -2.223   7.482  1.00  0.00     0.031 C 
ATOM     57  C   UNL     1       5.855   2.283   9.097  1.00  0.00     0.029 A 
ATOM     58  C   UNL     1       7.207   2.001   9.191  1.00  0.00     0.049 A 
ATOM     59  H   UNL     1       8.848   3.303   9.004  1.00  0.00     0.167 HD
ATOM     60  C   UNL     1       7.918  -0.217   8.632  1.00  0.00     0.074 A 
ATOM     61  C   UNL     1       8.336  -1.607   8.661  1.00  0.00     0.031 C 
ATOM     62  C   UNL     1       7.955   0.800   9.542  1.00  0.00     0.031 A 
BRANCH  49  63
ATOM     63  C   UNL     1       7.102   6.798   8.319  1.00  0.00    -0.014 A 
ATOM     64  C   UNL     1       6.095   6.993   9.288  1.00  0.00     0.010 A 
ATOM     65  C   UNL     1       7.609   7.972   7.729  1.00  0.00     0.010 A 
ATOM     66  C   UNL     1       5.563   8.263   9.573  1.00  0.00     0.020 A 
ATOM     67  C   UNL     1       7.078   9.245   7.987  1.00  0.00     0.020 A 
ATOM     68  C   UNL     1       6.042   9.382   8.897  1.00  0.00     0.054 A 
BRANCH  68  69
ATOM     69  S   UNL     1       5.296  11.004   9.201  1.00  0.00     0.124 S 
ATOM     70  O   UNL     1       3.898  10.779   8.841  1.00  0.00    -0.237 OA
ATOM     71  O   UNL     1       5.558  11.208  10.623  1.00  0.00    -0.237 OA
ATOM     72  O   UNL     1       6.027  11.896   8.303  1.00  0.00    -0.744 OA
ENDBRANCH  68  69
ENDBRANCH  49  63
BRANCH  50  73
ATOM     73  C   UNL     1       7.944  -1.973   4.185  1.00  0.00    -0.014 A 
ATOM     74  C   UNL     1       7.232  -2.723   3.225  1.00  0.00     0.010 A 
ATOM     75  C   UNL     1       9.242  -1.526   3.878  1.00  0.00     0.010 A 
ATOM     76  C   UNL     1       7.719  -2.849   1.923  1.00  0.00     0.020 A 
ATOM     77  C   UNL     1       9.734  -1.658   2.572  1.00  0.00     0.020 A 
ATOM     78  C   UNL     1       8.933  -2.249   1.590  1.00  0.00     0.054 A 
BRANCH  78  79
ATOM     79  S   UNL     1       9.325  -2.056  -0.175  1.00  0.00     0.124 S 
ATOM     80  O   UNL     1       9.294  -3.433  -0.656  1.00  0.00    -0.237 OA
ATOM     81  O   UNL     1       8.225  -1.204  -0.626  1.00  0.00    -0.237 OA
ATOM     82  O   UNL     1      10.640  -1.423  -0.157  1.00  0.00    -0.744 OA
ENDBRANCH  78  79
ENDBRANCH  50  73
BRANCH  62  83
ATOM     83  C   UNL     1       8.640   0.755  10.885  1.00  0.00    -0.014 A 
ATOM     84  C   UNL     1       9.742  -0.063  11.180  1.00  0.00     0.010 A 
ATOM     85  C   UNL     1       8.244   1.684  11.877  1.00  0.00     0.010 A 
ATOM     86  C   UNL     1      10.381   0.002  12.428  1.00  0.00     0.020 A 
ATOM     87  C   UNL     1       8.900   1.786  13.106  1.00  0.00     0.020 A 
ATOM     88  C   UNL     1       9.953   0.923  13.385  1.00  0.00     0.054 A 
BRANCH  88  89
ATOM     89  S   UNL     1      10.821   1.048  14.969  1.00  0.00     0.124 S 
ATOM     90  O   UNL     1      10.101   0.073  15.783  1.00  0.00    -0.237 OA
ATOM     91  O   UNL     1      12.193   0.684  14.623  1.00  0.00    -0.237 OA
ATOM     92  O   UNL     1      10.633   2.446  15.351  1.00  0.00    -0.744 OA
ENDBRANCH  88  89
ENDBRANCH  62  83
ENDBRANCH  36  37
ENDBRANCH  28  31
ENDBRANCH  26  27
ENDBRANCH  25  26
ENDBRANCH   1  25
TORSDOF 17
