REMARK SMILES O=C(Cn1nc(C(=O)NCCCCNC(=O)c2ccc(-c3c4nc(c(-c5ccc(S(=O)(=O)[O-])cc5)c5ccc([nH]5)c(-c5ccc(S(=O)(=O)[O-])cc5)c5nc(c(-c6ccc(S(=O)(=O)[O-])cc6)c6ccc3[nH]6)C=C5)C=C4)cc2)c2ccccc2c1=O)Nc1ccc2c(c1)C(=O)c1ccccc1C2=O
REMARK SMILES IDX 11 1 10 2 9 3 7 4 8 5 6 7 4 8 5 9 83 10 82 11 84 12 77 13
REMARK SMILES IDX 81 14 78 15 80 16 79 17 3 18 2 19 1 20 85 21 86 23 87 24
REMARK SMILES IDX 91 25 88 26 90 27 89 28 92 29 100 30 93 31 94 32 99 33
REMARK SMILES IDX 101 34 95 35 98 36 96 37 97 38 12 39 13 40 14 41 15 42 16 44
REMARK SMILES IDX 17 45 18 46 76 47 19 48 75 49 20 50 21 51 22 52 69 53 23 54
REMARK SMILES IDX 74 55 68 56 70 57 24 58 73 59 67 60 66 61 25 63 55 64 36 65
REMARK SMILES IDX 54 66 37 67 40 68 53 69 71 70 38 71 39 72 52 74 72 75 41 76
REMARK SMILES IDX 26 77 27 78 35 79 28 80 34 81 29 82 30 83 31 84 32 85 33 86
REMARK SMILES IDX 56 87 57 88 65 89 58 90 64 91 59 92 60 93 61 94 62 95 63 96
REMARK SMILES IDX 42 97 43 98 51 99 44 100 50 101 45 102 46 103 47 104 48 105
REMARK SMILES IDX 49 106
REMARK H PARENT 9 6 85 22 14 43 70 62 40 73
REMARK Flexibility Score: inf
ROOT
ATOM      1  C   UNL     1       1.077  -4.621   1.340  1.00  0.00     0.023 C 
ENDROOT
BRANCH   1   2
ATOM      2  C   UNL     1       2.465  -5.015   1.840  1.00  0.00     0.116 C 
BRANCH   2   3
ATOM      3  N   UNL     1       3.220  -5.771   0.859  1.00  0.00    -0.351 N 
ATOM      4  C   UNL     1       4.069  -5.361  -0.146  1.00  0.00     0.272 C 
ATOM      5  O   UNL     1       4.649  -6.234  -0.781  1.00  0.00    -0.267 OA
ATOM      6  H   UNL     1       3.107  -6.747   0.922  1.00  0.00     0.163 HD
BRANCH   4   7
ATOM      7  C   UNL     1       4.314  -3.863  -0.454  1.00  0.00     0.156 A 
ATOM      8  N   UNL     1       3.932  -1.658   0.166  1.00  0.00    -0.219 N 
ATOM      9  N   UNL     1       3.749  -2.999   0.338  1.00  0.00    -0.163 NA
ATOM     10  C   UNL     1       4.769  -1.109  -0.793  1.00  0.00     0.275 A 
ATOM     11  C   UNL     1       5.419  -2.061  -1.715  1.00  0.00     0.051 A 
ATOM     12  O   UNL     1       4.968   0.098  -0.913  1.00  0.00    -0.267 OA
ATOM     13  C   UNL     1       5.181  -3.432  -1.588  1.00  0.00     0.020 A 
ATOM     14  C   UNL     1       6.254  -1.564  -2.731  1.00  0.00     0.014 A 
ATOM     15  C   UNL     1       5.775  -4.295  -2.521  1.00  0.00     0.011 A 
ATOM     16  C   UNL     1       6.853  -2.437  -3.635  1.00  0.00     0.001 A 
ATOM     17  C   UNL     1       6.608  -3.801  -3.533  1.00  0.00     0.001 A 
BRANCH   8  18
ATOM     18  C   UNL     1       3.156  -0.780   1.044  1.00  0.00     0.248 C 
BRANCH  18  19
ATOM     19  C   UNL     1       1.928  -0.311   0.262  1.00  0.00     0.246 C 
ATOM     20  O   UNL     1       1.067  -1.090  -0.141  1.00  0.00    -0.273 OA
ATOM     21  N   UNL     1       1.973   1.037  -0.065  1.00  0.00    -0.324 N 
ATOM     22  H   UNL     1       2.175   1.680   0.653  1.00  0.00     0.169 HD
BRANCH  21  23
ATOM     23  C   UNL     1       1.748   1.543  -1.362  1.00  0.00     0.042 A 
ATOM     24  C   UNL     1       1.961   2.913  -1.571  1.00  0.00     0.027 A 
ATOM     25  C   UNL     1       1.558   0.698  -2.457  1.00  0.00     0.039 A 
ATOM     26  C   UNL     1       2.116   3.415  -2.866  1.00  0.00     0.015 A 
ATOM     27  C   UNL     1       1.785   1.188  -3.743  1.00  0.00     0.036 A 
ATOM     28  C   UNL     1       2.102   2.529  -3.945  1.00  0.00     0.034 A 
ATOM     29  C   UNL     1       1.892   0.232  -4.859  1.00  0.00     0.194 C 
ATOM     30  C   UNL     1       2.602   2.967  -5.265  1.00  0.00     0.194 C 
ATOM     31  O   UNL     1       1.322  -0.850  -4.837  1.00  0.00    -0.289 OA
ATOM     32  C   UNL     1       2.804   0.589  -5.959  1.00  0.00     0.034 A 
ATOM     33  C   UNL     1       3.155   1.924  -6.156  1.00  0.00     0.034 A 
ATOM     34  O   UNL     1       2.654   4.153  -5.564  1.00  0.00    -0.289 OA
ATOM     35  C   UNL     1       3.383  -0.420  -6.732  1.00  0.00     0.013 A 
ATOM     36  C   UNL     1       4.098   2.259  -7.131  1.00  0.00     0.013 A 
ATOM     37  C   UNL     1       4.344  -0.088  -7.686  1.00  0.00     0.001 A 
ATOM     38  C   UNL     1       4.702   1.248  -7.884  1.00  0.00     0.001 A 
ENDBRANCH  21  23
ENDBRANCH  18  19
ENDBRANCH   8  18
ENDBRANCH   4   7
ENDBRANCH   2   3
ENDBRANCH   1   2
BRANCH   1  39
ATOM     39  C   UNL     1       0.083  -5.785   1.212  1.00  0.00     0.023 C 
BRANCH  39  40
ATOM     40  C   UNL     1      -0.084  -6.660   2.455  1.00  0.00     0.116 C 
BRANCH  40  41
ATOM     41  N   UNL     1      -0.420  -5.912   3.656  1.00  0.00    -0.352 N 
ATOM     42  C   UNL     1      -0.980  -6.376   4.824  1.00  0.00     0.251 C 
ATOM     43  H   UNL     1      -0.221  -4.948   3.630  1.00  0.00     0.163 HD
ATOM     44  O   UNL     1      -1.281  -5.589   5.717  1.00  0.00    -0.269 OA
BRANCH  42  45
ATOM     45  C   UNL     1      -1.270  -7.819   4.976  1.00  0.00     0.039 A 
ATOM     46  C   UNL     1      -0.294  -8.785   4.722  1.00  0.00     0.014 A 
ATOM     47  C   UNL     1      -2.557  -8.204   5.366  1.00  0.00     0.014 A 
ATOM     48  C   UNL     1      -0.640 -10.135   4.732  1.00  0.00     0.010 A 
ATOM     49  C   UNL     1      -2.893  -9.560   5.414  1.00  0.00     0.010 A 
ATOM     50  C   UNL     1      -1.948 -10.532   5.052  1.00  0.00    -0.014 A 
BRANCH  50  51
ATOM     51  C   UNL     1      -2.323 -11.963   4.952  1.00  0.00     0.031 A 
ATOM     52  C   UNL     1      -3.169 -12.442   3.804  1.00  0.00     0.074 A 
ATOM     53  C   UNL     1      -1.839 -12.847   5.845  1.00  0.00     0.049 A 
ATOM     54  N   UNL     1      -3.546 -13.661   3.514  1.00  0.00    -0.248 NA
ATOM     55  C   UNL     1      -3.647 -11.424   2.854  1.00  0.00     0.031 C 
ATOM     56  C   UNL     1      -0.981 -12.511   6.982  1.00  0.00     0.029 A 
ATOM     57  N   UNL     1      -1.971 -14.211   5.913  1.00  0.00    -0.354 N 
ATOM     58  C   UNL     1      -4.308 -13.558   2.357  1.00  0.00     0.074 A 
ATOM     59  C   UNL     1      -4.356 -12.155   2.005  1.00  0.00     0.031 C 
ATOM     60  C   UNL     1      -0.616 -13.646   7.601  1.00  0.00     0.029 A 
ATOM     61  C   UNL     1      -1.240 -14.782   6.926  1.00  0.00     0.049 A 
ATOM     62  H   UNL     1      -2.534 -14.730   5.295  1.00  0.00     0.167 HD
ATOM     63  C   UNL     1      -4.906 -14.542   1.646  1.00  0.00     0.031 A 
ATOM     64  C   UNL     1      -1.079 -16.074   7.270  1.00  0.00     0.031 A 
ATOM     65  C   UNL     1      -4.860 -15.937   1.986  1.00  0.00     0.049 A 
ATOM     66  C   UNL     1      -1.780 -17.145   6.488  1.00  0.00     0.074 A 
ATOM     67  C   UNL     1      -5.459 -17.001   1.334  1.00  0.00     0.029 A 
ATOM     68  N   UNL     1      -4.169 -16.465   3.065  1.00  0.00    -0.354 N 
ATOM     69  N   UNL     1      -2.531 -17.022   5.421  1.00  0.00    -0.248 NA
ATOM     70  C   UNL     1      -1.624 -18.528   6.963  1.00  0.00     0.031 C 
ATOM     71  C   UNL     1      -5.147 -18.172   2.032  1.00  0.00     0.029 A 
ATOM     72  C   UNL     1      -4.332 -17.838   3.102  1.00  0.00     0.049 A 
ATOM     73  H   UNL     1      -3.641 -15.940   3.710  1.00  0.00     0.167 HD
ATOM     74  C   UNL     1      -2.942 -18.309   5.098  1.00  0.00     0.074 A 
ATOM     75  C   UNL     1      -2.345 -19.199   6.072  1.00  0.00     0.031 C 
ATOM     76  C   UNL     1      -3.747 -18.711   4.086  1.00  0.00     0.031 A 
BRANCH  63  77
ATOM     77  C   UNL     1      -5.678 -14.141   0.422  1.00  0.00    -0.014 A 
ATOM     78  C   UNL     1      -7.081 -14.070   0.471  1.00  0.00     0.010 A 
ATOM     79  C   UNL     1      -5.014 -13.890  -0.791  1.00  0.00     0.010 A 
ATOM     80  C   UNL     1      -7.812 -13.755  -0.677  1.00  0.00     0.020 A 
ATOM     81  C   UNL     1      -5.742 -13.563  -1.938  1.00  0.00     0.020 A 
ATOM     82  C   UNL     1      -7.138 -13.510  -1.877  1.00  0.00     0.054 A 
BRANCH  82  83
ATOM     83  S   UNL     1      -8.089 -13.070  -3.358  1.00  0.00     0.124 S 
ATOM     84  O   UNL     1      -8.412 -14.379  -3.916  1.00  0.00    -0.237 OA
ATOM     85  O   UNL     1      -9.219 -12.321  -2.813  1.00  0.00    -0.237 OA
ATOM     86  O   UNL     1      -7.145 -12.270  -4.135  1.00  0.00    -0.744 OA
ENDBRANCH  82  83
ENDBRANCH  63  77
BRANCH  64  87
ATOM     87  C   UNL     1      -0.184 -16.409   8.405  1.00  0.00    -0.014 A 
ATOM     88  C   UNL     1      -0.611 -16.211   9.730  1.00  0.00     0.010 A 
ATOM     89  C   UNL     1       1.129 -16.846   8.160  1.00  0.00     0.010 A 
ATOM     90  C   UNL     1       0.275 -16.405  10.793  1.00  0.00     0.020 A 
ATOM     91  C   UNL     1       2.013 -17.053   9.222  1.00  0.00     0.020 A 
ATOM     92  C   UNL     1       1.587 -16.806  10.530  1.00  0.00     0.054 A 
BRANCH  92  93
ATOM     93  S   UNL     1       2.751 -17.010  11.907  1.00  0.00     0.124 S 
ATOM     94  O   UNL     1       3.317 -15.669  12.019  1.00  0.00    -0.237 OA
ATOM     95  O   UNL     1       1.887 -17.422  13.011  1.00  0.00    -0.237 OA
ATOM     96  O   UNL     1       3.665 -18.040  11.421  1.00  0.00    -0.744 OA
ENDBRANCH  92  93
ENDBRANCH  64  87
BRANCH  76  97
ATOM     97  C   UNL     1      -4.055 -20.176   3.977  1.00  0.00    -0.014 A 
ATOM     98  C   UNL     1      -3.398 -20.962   3.014  1.00  0.00     0.010 A 
ATOM     99  C   UNL     1      -5.072 -20.747   4.761  1.00  0.00     0.010 A 
ATOM    100  C   UNL     1      -3.765 -22.297   2.824  1.00  0.00     0.020 A 
ATOM    101  C   UNL     1      -5.433 -22.084   4.580  1.00  0.00     0.020 A 
ATOM    102  C   UNL     1      -4.790 -22.846   3.600  1.00  0.00     0.054 A 
BRANCH 102 103
ATOM    103  S   UNL     1      -5.272 -24.576   3.343  1.00  0.00     0.124 S 
ATOM    104  O   UNL     1      -6.261 -24.463   2.274  1.00  0.00    -0.237 OA
ATOM    105  O   UNL     1      -4.014 -25.218   2.969  1.00  0.00    -0.237 OA
ATOM    106  O   UNL     1      -5.800 -24.974   4.646  1.00  0.00    -0.744 OA
ENDBRANCH 102 103
ENDBRANCH  76  97
ENDBRANCH  50  51
ENDBRANCH  42  45
ENDBRANCH  40  41
ENDBRANCH  39  40
ENDBRANCH   1  39
TORSDOF 17
