REMARK SMILES CC(=O)N[C@H](CSCC(=O)Nc1ccc2c(c1)N1CC[NH+]=C1S2)C(=O)NCCCCNC(=O)c1ccc(-c2c3nc(c(-c4ccc(S(=O)(=O)[O-])cc4)c4ccc([nH]4)c(-c4ccc(S(=O)(=O)[O-])cc4)c4nc(c(-c5ccc(S(=O)(=O)[O-])cc5)c5ccc2[nH]5)C=C4)C=C3)cc1
REMARK SMILES IDX 27 1 26 2 24 3 25 4 5 6 4 7 1 8 2 9 3 10 6 12 7 13 8 14 9 15
REMARK SMILES IDX 10 16 11 17 12 19 13 20 17 21 14 22 16 23 15 24 18 25 23 26
REMARK SMILES IDX 19 27 22 28 20 29 21 30 28 32 29 33 30 34 31 35 32 36 33 38
REMARK SMILES IDX 34 39 35 40 93 41 36 42 92 43 37 44 38 45 39 46 86 47 40 48
REMARK SMILES IDX 91 49 85 50 87 51 41 52 90 53 84 54 83 55 42 57 72 58 53 59
REMARK SMILES IDX 71 60 54 61 57 62 70 63 88 64 55 65 56 66 69 68 89 69 58 70
REMARK SMILES IDX 43 71 44 72 52 73 45 74 51 75 46 76 47 77 48 78 49 79 50 80
REMARK SMILES IDX 73 81 74 82 82 83 75 84 81 85 76 86 77 87 78 88 79 89 80 90
REMARK SMILES IDX 59 91 60 92 68 93 61 94 67 95 62 96 63 97 64 98 65 99 66 100
REMARK H PARENT 26 5 4 11 11 18 21 31 31 37 87 56 57 67
REMARK Flexibility Score: inf
ROOT
ATOM      1  C   UNL     1       1.124   0.869   5.763  1.00  0.00     0.116 C 
ENDROOT
BRANCH   1   2
ATOM      2  N   UNL     1       1.122  -0.567   5.541  1.00  0.00    -0.354 N 
ATOM      3  C   UNL     1       1.518  -1.322   4.474  1.00  0.00     0.243 C 
ATOM      4  O   UNL     1       1.466  -2.550   4.590  1.00  0.00    -0.273 OA
ATOM      5  H   UNL     1       0.772  -1.091   6.298  1.00  0.00     0.163 HD
BRANCH   3   6
ATOM      6  C   UNL     1       2.019  -0.685   3.162  1.00  0.00     0.181 C 
BRANCH   6   7
ATOM      7  N   UNL     1       3.263   0.044   3.451  1.00  0.00    -0.344 N 
ATOM      8  C   UNL     1       4.066   0.265   1.126  1.00  0.00     0.114 C 
ATOM      9  C   UNL     1       4.219   0.503   2.601  1.00  0.00     0.217 C 
ATOM     10  O   UNL     1       5.175   1.125   3.059  1.00  0.00    -0.275 OA
ATOM     11  H   UNL     1       3.428   0.227   4.404  1.00  0.00     0.164 HD
ENDBRANCH   6   7
BRANCH   6  12
ATOM     12  C   UNL     1       0.961   0.190   2.479  1.00  0.00     0.105 C 
BRANCH  12  13
ATOM     13  S   UNL     1      -0.713  -0.545   2.439  1.00  0.00    -0.149 SA
BRANCH  13  14
ATOM     14  C   UNL     1      -0.889  -1.044   0.712  1.00  0.00     0.169 C 
BRANCH  14  15
ATOM     15  C   UNL     1      -0.412  -0.042  -0.328  1.00  0.00     0.234 C 
ATOM     16  O   UNL     1       0.685  -0.184  -0.878  1.00  0.00    -0.274 OA
ATOM     17  N   UNL     1      -1.244   0.950  -0.779  1.00  0.00    -0.325 N 
ATOM     18  H   UNL     1      -0.972   1.386  -1.619  1.00  0.00     0.169 HD
BRANCH  17  19
ATOM     19  C   UNL     1      -2.427   1.423  -0.203  1.00  0.00     0.045 A 
ATOM     20  C   UNL     1      -2.453   1.905   1.117  1.00  0.00     0.027 A 
ATOM     21  C   UNL     1      -3.578   1.457  -0.994  1.00  0.00     0.079 A 
ATOM     22  C   UNL     1      -3.644   2.331   1.707  1.00  0.00     0.022 A 
ATOM     23  C   UNL     1      -4.772   1.837  -0.405  1.00  0.00     0.144 A 
ATOM     24  C   UNL     1      -4.791   2.268   0.943  1.00  0.00     0.067 A 
ATOM     25  N   UNL     1      -6.022   1.795  -0.956  1.00  0.00    -0.216 N 
ATOM     26  S   UNL     1      -6.473   2.653   1.451  1.00  0.00     0.002 SA
ATOM     27  C   UNL     1      -6.542   1.479  -2.245  1.00  0.00     0.289 C 
ATOM     28  C   UNL     1      -7.041   2.124  -0.115  1.00  0.00     0.316 C 
ATOM     29  C   UNL     1      -8.050   1.384  -1.900  1.00  0.00     0.280 C 
ATOM     30  N   UNL     1      -8.262   2.009  -0.543  1.00  0.00    -0.264 N 
ATOM     31  H   UNL     1      -9.104   2.262  -0.099  1.00  0.00     0.305 HD
ENDBRANCH  17  19
ENDBRANCH  14  15
ENDBRANCH  13  14
ENDBRANCH  12  13
ENDBRANCH   6  12
ENDBRANCH   3   6
ENDBRANCH   1   2
BRANCH   1  32
ATOM     32  C   UNL     1      -0.261   1.515   5.681  1.00  0.00     0.023 C 
BRANCH  32  33
ATOM     33  C   UNL     1      -1.315   0.964   6.639  1.00  0.00     0.023 C 
BRANCH  33  34
ATOM     34  C   UNL     1      -0.906   0.908   8.103  1.00  0.00     0.116 C 
BRANCH  34  35
ATOM     35  N   UNL     1      -0.498   2.191   8.656  1.00  0.00    -0.352 N 
ATOM     36  C   UNL     1      -0.630   2.644   9.953  1.00  0.00     0.251 C 
ATOM     37  H   UNL     1      -0.074   2.816   8.024  1.00  0.00     0.163 HD
ATOM     38  O   UNL     1      -0.294   3.783  10.245  1.00  0.00    -0.269 OA
BRANCH  36  39
ATOM     39  C   UNL     1      -1.240   1.754  10.969  1.00  0.00     0.039 A 
ATOM     40  C   UNL     1      -0.852   0.418  11.070  1.00  0.00     0.014 A 
ATOM     41  C   UNL     1      -2.272   2.248  11.772  1.00  0.00     0.014 A 
ATOM     42  C   UNL     1      -1.624  -0.465  11.816  1.00  0.00     0.010 A 
ATOM     43  C   UNL     1      -2.988   1.373  12.595  1.00  0.00     0.010 A 
ATOM     44  C   UNL     1      -2.714  -0.003  12.572  1.00  0.00    -0.014 A 
BRANCH  44  45
ATOM     45  C   UNL     1      -3.567  -0.987  13.290  1.00  0.00     0.031 A 
ATOM     46  C   UNL     1      -5.009  -1.188  12.895  1.00  0.00     0.074 A 
ATOM     47  C   UNL     1      -3.015  -1.772  14.238  1.00  0.00     0.049 A 
ATOM     48  N   UNL     1      -5.874  -2.052  13.363  1.00  0.00    -0.248 NA
ATOM     49  C   UNL     1      -5.554  -0.312  11.843  1.00  0.00     0.031 C 
ATOM     50  C   UNL     1      -1.623  -1.692  14.686  1.00  0.00     0.029 A 
ATOM     51  N   UNL     1      -3.536  -2.818  14.958  1.00  0.00    -0.354 N 
ATOM     52  C   UNL     1      -7.061  -1.818  12.676  1.00  0.00     0.074 A 
ATOM     53  C   UNL     1      -6.819  -0.708  11.782  1.00  0.00     0.031 C 
ATOM     54  C   UNL     1      -1.380  -2.694  15.542  1.00  0.00     0.029 A 
ATOM     55  C   UNL     1      -2.611  -3.447  15.759  1.00  0.00     0.049 A 
ATOM     56  H   UNL     1      -4.480  -3.092  14.906  1.00  0.00     0.167 HD
ATOM     57  C   UNL     1      -8.239  -2.478  12.769  1.00  0.00     0.031 A 
ATOM     58  C   UNL     1      -2.731  -4.513  16.576  1.00  0.00     0.031 A 
ATOM     59  C   UNL     1      -8.471  -3.596  13.645  1.00  0.00     0.049 A 
ATOM     60  C   UNL     1      -4.057  -5.210  16.685  1.00  0.00     0.074 A 
ATOM     61  C   UNL     1      -9.636  -4.325  13.812  1.00  0.00     0.029 A 
ATOM     62  N   UNL     1      -7.524  -4.159  14.487  1.00  0.00    -0.354 N 
ATOM     63  N   UNL     1      -5.170  -4.957  16.039  1.00  0.00    -0.248 NA
ATOM     64  C   UNL     1      -4.147  -6.333  17.628  1.00  0.00     0.031 C 
ATOM     65  C   UNL     1      -9.409  -5.295  14.790  1.00  0.00     0.029 A 
ATOM     66  C   UNL     1      -8.083  -5.216  15.184  1.00  0.00     0.049 A 
ATOM     67  H   UNL     1      -6.593  -3.853  14.575  1.00  0.00     0.167 HD
ATOM     68  C   UNL     1      -6.088  -5.901  16.485  1.00  0.00     0.074 A 
ATOM     69  C   UNL     1      -5.397  -6.739  17.443  1.00  0.00     0.031 C 
ATOM     70  C   UNL     1      -7.387  -6.052  16.130  1.00  0.00     0.031 A 
BRANCH  57  71
ATOM     71  C   UNL     1      -9.386  -2.026  11.902  1.00  0.00    -0.014 A 
ATOM     72  C   UNL     1     -10.521  -1.441  12.494  1.00  0.00     0.010 A 
ATOM     73  C   UNL     1      -9.396  -2.291  10.521  1.00  0.00     0.010 A 
ATOM     74  C   UNL     1     -11.657  -1.160  11.730  1.00  0.00     0.020 A 
ATOM     75  C   UNL     1     -10.521  -1.986   9.747  1.00  0.00     0.020 A 
ATOM     76  C   UNL     1     -11.653  -1.445  10.362  1.00  0.00     0.054 A 
BRANCH  76  77
ATOM     77  S   UNL     1     -13.146  -1.100   9.391  1.00  0.00     0.124 S 
ATOM     78  O   UNL     1     -14.023  -2.203   9.771  1.00  0.00    -0.237 OA
ATOM     79  O   UNL     1     -13.545   0.220   9.874  1.00  0.00    -0.237 OA
ATOM     80  O   UNL     1     -12.668  -1.128   8.010  1.00  0.00    -0.744 OA
ENDBRANCH  76  77
ENDBRANCH  57  71
BRANCH  58  81
ATOM     81  C   UNL     1      -1.534  -4.991  17.323  1.00  0.00    -0.014 A 
ATOM     82  C   UNL     1      -0.960  -4.194  18.331  1.00  0.00     0.010 A 
ATOM     83  C   UNL     1      -0.911  -6.201  16.971  1.00  0.00     0.010 A 
ATOM     84  C   UNL     1       0.245  -4.566  18.931  1.00  0.00     0.020 A 
ATOM     85  C   UNL     1       0.279  -6.593  17.593  1.00  0.00     0.020 A 
ATOM     86  C   UNL     1       0.865  -5.757  18.546  1.00  0.00     0.054 A 
BRANCH  86  87
ATOM     87  S   UNL     1       2.454  -6.197  19.302  1.00  0.00     0.124 S 
ATOM     88  O   UNL     1       3.380  -5.337  18.571  1.00  0.00    -0.237 OA
ATOM     89  O   UNL     1       2.248  -5.850  20.706  1.00  0.00    -0.237 OA
ATOM     90  O   UNL     1       2.577  -7.627  19.029  1.00  0.00    -0.744 OA
ENDBRANCH  86  87
ENDBRANCH  58  81
BRANCH  70  91
ATOM     91  C   UNL     1      -8.172  -7.173  16.757  1.00  0.00    -0.014 A 
ATOM     92  C   UNL     1      -8.597  -8.252  15.960  1.00  0.00     0.010 A 
ATOM     93  C   UNL     1      -8.610  -7.090  18.090  1.00  0.00     0.010 A 
ATOM     94  C   UNL     1      -9.475  -9.210  16.472  1.00  0.00     0.020 A 
ATOM     95  C   UNL     1      -9.468  -8.062  18.615  1.00  0.00     0.020 A 
ATOM     96  C   UNL     1      -9.916  -9.100  17.794  1.00  0.00     0.054 A 
BRANCH  96  97
ATOM     97  S   UNL     1     -11.088 -10.329  18.431  1.00  0.00     0.124 S 
ATOM     98  O   UNL     1     -12.350  -9.881  17.850  1.00  0.00    -0.237 OA
ATOM     99  O   UNL     1     -10.561 -11.584  17.899  1.00  0.00    -0.237 OA
ATOM    100  O   UNL     1     -10.980 -10.184  19.881  1.00  0.00    -0.744 OA
ENDBRANCH  96  97
ENDBRANCH  70  91
ENDBRANCH  44  45
ENDBRANCH  36  39
ENDBRANCH  34  35
ENDBRANCH  33  34
ENDBRANCH  32  33
ENDBRANCH   1  32
TORSDOF 20
