REMARK SMILES C[C@H]1[C@H](C(=O)NCCCCNC(=O)c2ccc(-c3c4nc(c(-c5ccc(S(=O)(=O)[O-])cc5)c5ccc([nH]5)c(-c5ccc(S(=O)(=O)[O-])cc5)c5nc(c(-c6ccc(S(=O)(=O)[O-])cc6)c6ccc3[nH]6)C=C5)C=C4)cc2)CC[N@@H+]1Cc1ccc(C(F)(F)F)cc1
REMARK SMILES IDX 8 1 7 2 6 3 4 4 5 5 3 7 1 8 2 9 76 10 74 11 75 12 77 14
REMARK SMILES IDX 78 15 79 16 87 17 80 18 86 19 81 20 82 21 83 22 84 23 85 24
REMARK SMILES IDX 9 25 10 26 11 27 12 28 13 30 14 31 15 32 73 33 16 34 72 35
REMARK SMILES IDX 17 36 18 37 19 38 66 39 20 40 71 41 65 42 67 43 21 44 70 45
REMARK SMILES IDX 64 46 63 47 22 49 52 50 33 51 51 52 34 53 37 54 50 55 68 56
REMARK SMILES IDX 35 57 36 58 49 60 69 61 38 62 23 63 24 64 32 65 25 66 31 67
REMARK SMILES IDX 26 68 27 69 28 70 29 71 30 72 53 73 54 74 62 75 55 76 61 77
REMARK SMILES IDX 56 78 57 79 58 80 59 81 60 82 39 83 40 84 48 85 41 86 47 87
REMARK SMILES IDX 42 88 43 89 44 90 45 91 46 92
REMARK H PARENT 6 6 76 13 11 29 67 48 37 59
REMARK Flexibility Score: inf
ROOT
ATOM      1  C   UNL     1       0.712   0.688   4.128  1.00  0.00     0.023 C 
ENDROOT
BRANCH   1   2
ATOM      2  C   UNL     1      -0.327   1.402   3.256  1.00  0.00     0.116 C 
BRANCH   2   3
ATOM      3  N   UNL     1       0.270   2.430   2.433  1.00  0.00    -0.356 N 
ATOM      4  C   UNL     1       0.567   2.454   1.111  1.00  0.00     0.229 C 
ATOM      5  O   UNL     1       1.035   3.514   0.676  1.00  0.00    -0.275 OA
ATOM      6  H   UNL     1       0.501   3.255   2.918  1.00  0.00     0.163 HD
BRANCH   4   7
ATOM      7  C   UNL     1       0.301   1.313   0.133  1.00  0.00     0.142 C 
ATOM      8  C   UNL     1       2.074  -0.452  -0.090  1.00  0.00     0.076 C 
ATOM      9  C   UNL     1       0.694  -0.131   0.498  1.00  0.00     0.193 C 
ATOM     10  N   UNL     1      -0.305  -1.005  -0.157  1.00  0.00    -0.328 N 
ATOM     11  C   UNL     1      -1.138   1.203  -0.338  1.00  0.00     0.081 C 
ATOM     12  C   UNL     1      -1.130  -0.159  -1.015  1.00  0.00     0.263 C 
ATOM     13  H   UNL     1       0.195  -1.683  -0.732  1.00  0.00     0.348 HD
BRANCH  10  14
ATOM     14  C   UNL     1      -1.010  -1.994   0.680  1.00  0.00     0.299 C 
BRANCH  14  15
ATOM     15  C   UNL     1      -2.051  -1.514   1.679  1.00  0.00     0.006 A 
ATOM     16  C   UNL     1      -1.868  -1.715   3.054  1.00  0.00     0.010 A 
ATOM     17  C   UNL     1      -3.234  -0.879   1.275  1.00  0.00     0.010 A 
ATOM     18  C   UNL     1      -2.743  -1.138   3.982  1.00  0.00     0.013 A 
ATOM     19  C   UNL     1      -4.076  -0.252   2.197  1.00  0.00     0.013 A 
ATOM     20  C   UNL     1      -3.806  -0.329   3.564  1.00  0.00     0.056 A 
BRANCH  20  21
ATOM     21  C   UNL     1      -4.571   0.512   4.555  1.00  0.00     0.416 C 
ATOM     22  F   UNL     1      -4.883  -0.146   5.702  1.00  0.00    -0.166 F 
ATOM     23  F   UNL     1      -3.848   1.605   4.939  1.00  0.00    -0.166 F 
ATOM     24  F   UNL     1      -5.743   0.999   4.063  1.00  0.00    -0.166 F 
ENDBRANCH  20  21
ENDBRANCH  14  15
ENDBRANCH  10  14
ENDBRANCH   4   7
ENDBRANCH   2   3
ENDBRANCH   1   2
BRANCH   1  25
ATOM     25  C   UNL     1       0.866   1.253   5.546  1.00  0.00     0.023 C 
BRANCH  25  26
ATOM     26  C   UNL     1      -0.362   1.113   6.448  1.00  0.00     0.116 C 
BRANCH  26  27
ATOM     27  N   UNL     1      -0.787  -0.262   6.656  1.00  0.00    -0.352 N 
ATOM     28  C   UNL     1      -1.643  -0.780   7.611  1.00  0.00     0.251 C 
ATOM     29  H   UNL     1      -0.412  -0.919   6.026  1.00  0.00     0.163 HD
ATOM     30  O   UNL     1      -1.892  -1.971   7.613  1.00  0.00    -0.269 OA
BRANCH  28  31
ATOM     31  C   UNL     1      -2.178   0.104   8.675  1.00  0.00     0.039 A 
ATOM     32  C   UNL     1      -2.051  -0.328   9.999  1.00  0.00     0.014 A 
ATOM     33  C   UNL     1      -2.703   1.367   8.398  1.00  0.00     0.014 A 
ATOM     34  C   UNL     1      -2.311   0.560  11.043  1.00  0.00     0.010 A 
ATOM     35  C   UNL     1      -2.902   2.273   9.437  1.00  0.00     0.010 A 
ATOM     36  C   UNL     1      -2.659   1.890  10.763  1.00  0.00    -0.014 A 
BRANCH  36  37
ATOM     37  C   UNL     1      -2.631   2.918  11.832  1.00  0.00     0.031 A 
ATOM     38  C   UNL     1      -3.883   3.612  12.274  1.00  0.00     0.074 A 
ATOM     39  C   UNL     1      -1.434   3.281  12.338  1.00  0.00     0.049 A 
ATOM     40  N   UNL     1      -4.026   4.546  13.178  1.00  0.00    -0.248 NA
ATOM     41  C   UNL     1      -5.133   3.223  11.603  1.00  0.00     0.031 C 
ATOM     42  C   UNL     1      -0.139   2.724  11.931  1.00  0.00     0.029 A 
ATOM     43  N   UNL     1      -1.106   4.207  13.295  1.00  0.00    -0.354 N 
ATOM     44  C   UNL     1      -5.378   4.864  13.184  1.00  0.00     0.074 A 
ATOM     45  C   UNL     1      -6.005   4.050  12.163  1.00  0.00     0.031 C 
ATOM     46  C   UNL     1       0.836   3.300  12.652  1.00  0.00     0.029 A 
ATOM     47  C   UNL     1       0.244   4.285  13.548  1.00  0.00     0.049 A 
ATOM     48  H   UNL     1      -1.774   4.763  13.758  1.00  0.00     0.167 HD
ATOM     49  C   UNL     1      -6.037   5.743  13.977  1.00  0.00     0.031 A 
ATOM     50  C   UNL     1       0.931   5.061  14.407  1.00  0.00     0.031 A 
ATOM     51  C   UNL     1      -5.403   6.553  14.983  1.00  0.00     0.049 A 
ATOM     52  C   UNL     1       0.176   6.014  15.289  1.00  0.00     0.074 A 
ATOM     53  C   UNL     1      -5.988   7.439  15.872  1.00  0.00     0.029 A 
ATOM     54  N   UNL     1      -4.038   6.582  15.231  1.00  0.00    -0.354 N 
ATOM     55  N   UNL     1      -1.115   6.240  15.335  1.00  0.00    -0.248 NA
ATOM     56  C   UNL     1       0.965   6.803  16.242  1.00  0.00     0.031 C 
ATOM     57  C   UNL     1      -4.972   8.029  16.633  1.00  0.00     0.029 A 
ATOM     58  C   UNL     1      -3.760   7.480  16.247  1.00  0.00     0.049 A 
ATOM     59  H   UNL     1      -3.367   6.042  14.755  1.00  0.00     0.167 HD
ATOM     60  C   UNL     1      -1.296   7.184  16.338  1.00  0.00     0.074 A 
ATOM     61  C   UNL     1       0.016   7.475  16.881  1.00  0.00     0.031 C 
ATOM     62  C   UNL     1      -2.446   7.758  16.771  1.00  0.00     0.031 A 
BRANCH  49  63
ATOM     63  C   UNL     1      -7.523   5.870  13.777  1.00  0.00    -0.014 A 
ATOM     64  C   UNL     1      -8.395   4.839  14.174  1.00  0.00     0.010 A 
ATOM     65  C   UNL     1      -8.060   7.038  13.207  1.00  0.00     0.010 A 
ATOM     66  C   UNL     1      -9.771   4.954  13.960  1.00  0.00     0.020 A 
ATOM     67  C   UNL     1      -9.439   7.167  13.013  1.00  0.00     0.020 A 
ATOM     68  C   UNL     1     -10.283   6.114  13.372  1.00  0.00     0.054 A 
BRANCH  68  69
ATOM     69  S   UNL     1     -12.073   6.239  13.106  1.00  0.00     0.124 S 
ATOM     70  O   UNL     1     -12.264   5.375  11.943  1.00  0.00    -0.237 OA
ATOM     71  O   UNL     1     -12.623   5.731  14.361  1.00  0.00    -0.237 OA
ATOM     72  O   UNL     1     -12.290   7.663  12.867  1.00  0.00    -0.744 OA
ENDBRANCH  68  69
ENDBRANCH  49  63
BRANCH  50  73
ATOM     73  C   UNL     1       2.411   4.940  14.494  1.00  0.00    -0.014 A 
ATOM     74  C   UNL     1       3.008   4.302  15.594  1.00  0.00     0.010 A 
ATOM     75  C   UNL     1       3.228   5.433  13.461  1.00  0.00     0.010 A 
ATOM     76  C   UNL     1       4.398   4.169  15.668  1.00  0.00     0.020 A 
ATOM     77  C   UNL     1       4.617   5.282  13.520  1.00  0.00     0.020 A 
ATOM     78  C   UNL     1       5.194   4.659  14.629  1.00  0.00     0.054 A 
BRANCH  78  79
ATOM     79  S   UNL     1       6.991   4.420  14.712  1.00  0.00     0.124 S 
ATOM     80  O   UNL     1       7.389   5.447  15.669  1.00  0.00    -0.237 OA
ATOM     81  O   UNL     1       7.107   3.041  15.179  1.00  0.00    -0.237 OA
ATOM     82  O   UNL     1       7.427   4.641  13.335  1.00  0.00    -0.744 OA
ENDBRANCH  78  79
ENDBRANCH  50  73
BRANCH  62  83
ATOM     83  C   UNL     1      -2.336   8.741  17.902  1.00  0.00    -0.014 A 
ATOM     84  C   UNL     1      -1.835  10.037  17.689  1.00  0.00     0.010 A 
ATOM     85  C   UNL     1      -2.783   8.377  19.185  1.00  0.00     0.010 A 
ATOM     86  C   UNL     1      -1.760  10.946  18.747  1.00  0.00     0.020 A 
ATOM     87  C   UNL     1      -2.729   9.290  20.240  1.00  0.00     0.020 A 
ATOM     88  C   UNL     1      -2.205  10.565  20.017  1.00  0.00     0.054 A 
BRANCH  88  89
ATOM     89  S   UNL     1      -2.142  11.776  21.366  1.00  0.00     0.124 S 
ATOM     90  O   UNL     1      -0.728  11.754  21.727  1.00  0.00    -0.237 OA
ATOM     91  O   UNL     1      -2.608  13.002  20.723  1.00  0.00    -0.237 OA
ATOM     92  O   UNL     1      -3.051  11.222  22.369  1.00  0.00    -0.744 OA
ENDBRANCH  88  89
ENDBRANCH  62  83
ENDBRANCH  36  37
ENDBRANCH  28  31
ENDBRANCH  26  27
ENDBRANCH  25  26
ENDBRANCH   1  25
TORSDOF 17
