REMARK SMILES CC[C@](C)(NC(=O)[C@H]1CNc2ccccc2O1)C(=O)NCCCCNC(=O)c1ccc(-c2c3nc(c(-c4ccc(S(=O)(=O)[O-])cc4)c4ccc([nH]4)c(-c4ccc(S(=O)(=O)[O-])cc4)c4nc(c(-c5ccc(S(=O)(=O)[O-])cc5)c5ccc2[nH]5)C=C4)C=C3)cc1
REMARK SMILES IDX 23 1 22 2 21 3 20 4 18 5 19 6 3 8 4 9 2 10 1 11 5 12 6 13
REMARK SMILES IDX 7 15 8 16 9 17 17 18 10 19 16 20 11 21 15 23 12 24 14 25
REMARK SMILES IDX 13 26 24 27 25 28 26 29 27 31 28 32 29 33 87 34 30 35 86 36
REMARK SMILES IDX 31 37 32 38 33 39 80 40 34 41 85 42 79 43 81 44 35 45 84 46
REMARK SMILES IDX 78 47 77 48 36 50 66 51 47 52 65 53 48 54 51 55 64 56 82 57
REMARK SMILES IDX 49 58 50 59 63 61 83 62 52 63 37 64 38 65 46 66 39 67 45 68
REMARK SMILES IDX 40 69 41 70 42 71 43 72 44 73 67 74 68 75 76 76 69 77 75 78
REMARK SMILES IDX 70 79 71 80 72 81 73 82 74 83 53 84 54 85 62 86 55 87 61 88
REMARK SMILES IDX 56 89 57 90 58 91 59 92 60 93
REMARK H PARENT 20 7 5 14 10 22 25 30 81 49 51 60
REMARK Flexibility Score: inf
ROOT
ATOM      1  C   UNL     1       5.601  -3.154   6.308  1.00  0.00     0.023 C 
ENDROOT
BRANCH   1   2
ATOM      2  C   UNL     1       5.237  -4.281   5.338  1.00  0.00     0.023 C 
BRANCH   2   3
ATOM      3  C   UNL     1       4.071  -5.204   5.705  1.00  0.00     0.116 C 
BRANCH   3   4
ATOM      4  N   UNL     1       2.785  -4.567   5.952  1.00  0.00    -0.354 N 
ATOM      5  C   UNL     1       1.687  -4.317   5.169  1.00  0.00     0.245 C 
ATOM      6  O   UNL     1       0.703  -3.849   5.750  1.00  0.00    -0.272 OA
ATOM      7  H   UNL     1       2.682  -4.247   6.877  1.00  0.00     0.163 HD
BRANCH   5   8
ATOM      8  C   UNL     1       1.640  -4.628   3.636  1.00  0.00     0.116 C 
ATOM      9  C   UNL     1       0.264  -4.232   3.063  1.00  0.00     0.045 C 
BRANCH   8  10
ATOM     10  C   UNL     1       1.863  -6.183   3.515  1.00  0.00     0.035 C 
ATOM     11  C   UNL     1       0.864  -7.003   2.707  1.00  0.00     0.007 C 
ENDBRANCH   8  10
BRANCH   8  12
ATOM     12  N   UNL     1       2.689  -3.904   2.849  1.00  0.00    -0.339 N 
ATOM     13  C   UNL     1       2.907  -2.574   2.554  1.00  0.00     0.263 C 
ATOM     14  H   UNL     1       3.367  -4.504   2.462  1.00  0.00     0.164 HD
ATOM     15  O   UNL     1       3.618  -2.372   1.562  1.00  0.00    -0.271 OA
BRANCH  13  16
ATOM     16  C   UNL     1       2.382  -1.404   3.429  1.00  0.00     0.281 C 
ATOM     17  C   UNL     1       3.140  -1.494   4.735  1.00  0.00     0.168 C 
ATOM     18  O   UNL     1       2.617  -0.089   2.860  1.00  0.00    -0.477 OA
ATOM     19  N   UNL     1       2.583  -0.577   5.695  1.00  0.00    -0.378 N 
ATOM     20  C   UNL     1       2.724   0.935   3.796  1.00  0.00     0.143 A 
ATOM     21  C   UNL     1       2.671   0.718   5.192  1.00  0.00     0.077 A 
ATOM     22  H   UNL     1       2.200  -0.827   6.567  1.00  0.00     0.160 HD
ATOM     23  C   UNL     1       2.990   2.215   3.318  1.00  0.00     0.049 A 
ATOM     24  C   UNL     1       2.802   1.786   6.082  1.00  0.00     0.029 A 
ATOM     25  C   UNL     1       3.182   3.271   4.220  1.00  0.00     0.004 A 
ATOM     26  C   UNL     1       3.075   3.060   5.596  1.00  0.00     0.002 A 
ENDBRANCH  13  16
ENDBRANCH   8  12
ENDBRANCH   5   8
ENDBRANCH   3   4
ENDBRANCH   2   3
ENDBRANCH   1   2
BRANCH   1  27
ATOM     27  C   UNL     1       5.684  -3.499   7.780  1.00  0.00     0.116 C 
BRANCH  27  28
ATOM     28  N   UNL     1       6.883  -4.239   8.104  1.00  0.00    -0.352 N 
ATOM     29  C   UNL     1       7.905  -3.888   8.950  1.00  0.00     0.251 C 
ATOM     30  H   UNL     1       6.979  -5.112   7.658  1.00  0.00     0.163 HD
ATOM     31  O   UNL     1       8.948  -4.545   8.935  1.00  0.00    -0.269 OA
BRANCH  29  32
ATOM     32  C   UNL     1       7.776  -2.724   9.863  1.00  0.00     0.039 A 
ATOM     33  C   UNL     1       8.888  -1.901  10.068  1.00  0.00     0.014 A 
ATOM     34  C   UNL     1       6.587  -2.462  10.552  1.00  0.00     0.014 A 
ATOM     35  C   UNL     1       8.798  -0.806  10.934  1.00  0.00     0.010 A 
ATOM     36  C   UNL     1       6.474  -1.323  11.348  1.00  0.00     0.010 A 
ATOM     37  C   UNL     1       7.586  -0.498  11.572  1.00  0.00    -0.014 A 
BRANCH  37  38
ATOM     38  C   UNL     1       7.479   0.637  12.527  1.00  0.00     0.031 A 
ATOM     39  C   UNL     1       7.174   0.369  13.979  1.00  0.00     0.074 A 
ATOM     40  C   UNL     1       7.616   1.906  12.093  1.00  0.00     0.049 A 
ATOM     41  N   UNL     1       6.976   1.220  14.953  1.00  0.00    -0.248 NA
ATOM     42  C   UNL     1       7.049  -1.042  14.382  1.00  0.00     0.031 C 
ATOM     43  C   UNL     1       7.879   2.307  10.710  1.00  0.00     0.029 A 
ATOM     44  N   UNL     1       7.547   3.095  12.776  1.00  0.00    -0.354 N 
ATOM     45  C   UNL     1       6.686   0.451  16.075  1.00  0.00     0.074 A 
ATOM     46  C   UNL     1       6.680  -0.931  15.649  1.00  0.00     0.031 C 
ATOM     47  C   UNL     1       7.973   3.646  10.651  1.00  0.00     0.029 A 
ATOM     48  C   UNL     1       7.743   4.200  11.983  1.00  0.00     0.049 A 
ATOM     49  H   UNL     1       7.373   3.151  13.744  1.00  0.00     0.167 HD
ATOM     50  C   UNL     1       6.468   0.852  17.350  1.00  0.00     0.031 A 
ATOM     51  C   UNL     1       7.737   5.513  12.289  1.00  0.00     0.031 A 
ATOM     52  C   UNL     1       6.495   2.223  17.781  1.00  0.00     0.049 A 
ATOM     53  C   UNL     1       7.506   5.937  13.713  1.00  0.00     0.074 A 
ATOM     54  C   UNL     1       6.322   2.729  19.058  1.00  0.00     0.029 A 
ATOM     55  N   UNL     1       6.722   3.308  16.948  1.00  0.00    -0.354 N 
ATOM     56  N   UNL     1       7.265   5.191  14.765  1.00  0.00    -0.248 NA
ATOM     57  C   UNL     1       7.560   7.378  13.995  1.00  0.00     0.031 C 
ATOM     58  C   UNL     1       6.410   4.123  18.991  1.00  0.00     0.029 A 
ATOM     59  C   UNL     1       6.686   4.482  17.681  1.00  0.00     0.049 A 
ATOM     60  H   UNL     1       6.885   3.252  15.979  1.00  0.00     0.167 HD
ATOM     61  C   UNL     1       7.159   6.070  15.836  1.00  0.00     0.074 A 
ATOM     62  C   UNL     1       7.377   7.402  15.309  1.00  0.00     0.031 C 
ATOM     63  C   UNL     1       6.904   5.799  17.140  1.00  0.00     0.031 A 
BRANCH  50  64
ATOM     64  C   UNL     1       6.189  -0.218  18.373  1.00  0.00    -0.014 A 
ATOM     65  C   UNL     1       7.205  -1.094  18.797  1.00  0.00     0.010 A 
ATOM     66  C   UNL     1       4.905  -0.335  18.936  1.00  0.00     0.010 A 
ATOM     67  C   UNL     1       6.931  -2.097  19.730  1.00  0.00     0.020 A 
ATOM     68  C   UNL     1       4.634  -1.321  19.890  1.00  0.00     0.020 A 
ATOM     69  C   UNL     1       5.645  -2.208  20.267  1.00  0.00     0.054 A 
BRANCH  69  70
ATOM     70  S   UNL     1       5.321  -3.511  21.486  1.00  0.00     0.124 S 
ATOM     71  O   UNL     1       5.265  -4.703  20.642  1.00  0.00    -0.237 OA
ATOM     72  O   UNL     1       6.480  -3.422  22.370  1.00  0.00    -0.237 OA
ATOM     73  O   UNL     1       4.050  -3.114  22.087  1.00  0.00    -0.744 OA
ENDBRANCH  69  70
ENDBRANCH  50  64
BRANCH  51  74
ATOM     74  C   UNL     1       7.980   6.520  11.221  1.00  0.00    -0.014 A 
ATOM     75  C   UNL     1       9.202   7.210  11.155  1.00  0.00     0.010 A 
ATOM     76  C   UNL     1       6.998   6.770  10.244  1.00  0.00     0.010 A 
ATOM     77  C   UNL     1       9.437   8.139  10.137  1.00  0.00     0.020 A 
ATOM     78  C   UNL     1       7.239   7.680   9.211  1.00  0.00     0.020 A 
ATOM     79  C   UNL     1       8.455   8.365   9.168  1.00  0.00     0.054 A 
BRANCH  79  80
ATOM     80  S   UNL     1       8.807   9.522   7.815  1.00  0.00     0.124 S 
ATOM     81  O   UNL     1       8.665  10.815   8.476  1.00  0.00    -0.237 OA
ATOM     82  O   UNL     1      10.167   9.153   7.429  1.00  0.00    -0.237 OA
ATOM     83  O   UNL     1       7.781   9.208   6.824  1.00  0.00    -0.744 OA
ENDBRANCH  79  80
ENDBRANCH  51  74
BRANCH  63  84
ATOM     84  C   UNL     1       6.872   6.960  18.096  1.00  0.00    -0.014 A 
ATOM     85  C   UNL     1       5.786   7.852  18.120  1.00  0.00     0.010 A 
ATOM     86  C   UNL     1       7.916   7.124  19.025  1.00  0.00     0.010 A 
ATOM     87  C   UNL     1       5.758   8.905  19.038  1.00  0.00     0.020 A 
ATOM     88  C   UNL     1       7.880   8.161  19.960  1.00  0.00     0.020 A 
ATOM     89  C   UNL     1       6.806   9.053  19.952  1.00  0.00     0.054 A 
BRANCH  89  90
ATOM     90  S   UNL     1       6.725  10.399  21.165  1.00  0.00     0.124 S 
ATOM     91  O   UNL     1       7.062  11.563  20.350  1.00  0.00    -0.237 OA
ATOM     92  O   UNL     1       5.340  10.335  21.626  1.00  0.00    -0.237 OA
ATOM     93  O   UNL     1       7.725  10.026  22.163  1.00  0.00    -0.744 OA
ENDBRANCH  89  90
ENDBRANCH  63  84
ENDBRANCH  37  38
ENDBRANCH  29  32
ENDBRANCH  27  28
ENDBRANCH   1  27
TORSDOF 17
