REMARK SMILES CC(C)(C(=O)NCCCCNC(=O)c1ccc(-c2c3nc(c(-c4ccc(S(=O)(=O)[O-])cc4)c4ccc([nH]4)c(-c4ccc(S(=O)(=O)[O-])cc4)c4nc(c(-c5ccc(S(=O)(=O)[O-])cc5)c5ccc2[nH]5)C=C4)C=C3)cc1)c1ccc(NS(=O)(=O)c2c(F)cc(F)cc2F)cc1
REMARK SMILES IDX 8 1 7 2 6 3 4 4 5 5 2 7 1 8 3 9 74 10 75 11 92 12 76 13
REMARK SMILES IDX 91 14 77 15 78 16 79 18 80 19 81 20 82 21 83 22 89 23 84 24
REMARK SMILES IDX 85 25 88 26 90 27 86 28 87 29 9 30 10 31 11 32 12 33 13 35
REMARK SMILES IDX 14 36 15 37 73 38 16 39 72 40 17 41 18 42 19 43 66 44 20 45
REMARK SMILES IDX 71 46 65 47 67 48 21 49 70 50 64 51 63 52 22 54 52 55 33 56
REMARK SMILES IDX 51 57 34 58 37 59 50 60 68 61 35 62 36 63 49 65 69 66 38 67
REMARK SMILES IDX 23 68 24 69 32 70 25 71 31 72 26 73 27 74 28 75 29 76 30 77
REMARK SMILES IDX 53 78 54 79 62 80 55 81 61 82 56 83 57 84 58 85 59 86 60 87
REMARK SMILES IDX 39 88 40 89 48 90 41 91 47 92 42 93 43 94 44 95 45 96 46 97
REMARK H PARENT 6 6 78 17 11 34 67 53 37 64
REMARK Flexibility Score: inf
ROOT
ATOM      1  C   UNL     1      -1.292  -0.281  -2.744  1.00  0.00     0.023 C 
ENDROOT
BRANCH   1   2
ATOM      2  C   UNL     1      -1.013   1.145  -2.266  1.00  0.00     0.116 C 
BRANCH   2   3
ATOM      3  N   UNL     1      -1.404   1.319  -0.883  1.00  0.00    -0.355 N 
ATOM      4  C   UNL     1      -0.708   1.339   0.285  1.00  0.00     0.230 C 
ATOM      5  O   UNL     1      -1.421   1.293   1.295  1.00  0.00    -0.274 OA
ATOM      6  H   UNL     1      -2.372   1.451  -0.764  1.00  0.00     0.163 HD
BRANCH   4   7
ATOM      7  C   UNL     1       0.859   1.411   0.370  1.00  0.00     0.068 C 
ATOM      8  C   UNL     1       1.437   0.120  -0.246  1.00  0.00     0.026 C 
ATOM      9  C   UNL     1       1.407   2.641  -0.380  1.00  0.00     0.026 C 
BRANCH   7  10
ATOM     10  C   UNL     1       1.308   1.578   1.855  1.00  0.00    -0.033 A 
ATOM     11  C   UNL     1       2.277   0.763   2.463  1.00  0.00     0.007 A 
ATOM     12  C   UNL     1       0.729   2.582   2.652  1.00  0.00     0.007 A 
ATOM     13  C   UNL     1       2.560   0.865   3.831  1.00  0.00     0.027 A 
ATOM     14  C   UNL     1       0.972   2.647   4.026  1.00  0.00     0.027 A 
ATOM     15  C   UNL     1       1.826   1.730   4.636  1.00  0.00     0.049 A 
BRANCH  15  16
ATOM     16  N   UNL     1       1.868   1.740   6.061  1.00  0.00    -0.279 N 
ATOM     17  H   UNL     1       1.445   2.498   6.525  1.00  0.00     0.180 HD
BRANCH  16  18
ATOM     18  S   UNL     1       2.585   0.555   7.005  1.00  0.00     0.267 S 
ATOM     19  O   UNL     1       4.012   0.638   6.752  1.00  0.00    -0.201 OA
ATOM     20  O   UNL     1       2.057   0.725   8.343  1.00  0.00    -0.201 OA
BRANCH  18  21
ATOM     21  C   UNL     1       2.016  -1.000   6.428  1.00  0.00     0.159 A 
ATOM     22  C   UNL     1       0.751  -1.149   5.876  1.00  0.00     0.149 A 
ATOM     23  C   UNL     1       2.893  -2.080   6.428  1.00  0.00     0.149 A 
ATOM     24  F   UNL     1      -0.146  -0.155   5.911  1.00  0.00    -0.205 F 
ATOM     25  C   UNL     1       0.387  -2.343   5.255  1.00  0.00     0.080 A 
ATOM     26  C   UNL     1       2.538  -3.284   5.829  1.00  0.00     0.080 A 
ATOM     27  F   UNL     1       4.099  -2.002   7.005  1.00  0.00    -0.205 F 
ATOM     28  C   UNL     1       1.292  -3.397   5.228  1.00  0.00     0.129 A 
ATOM     29  F   UNL     1       0.960  -4.540   4.616  1.00  0.00    -0.207 F 
ENDBRANCH  18  21
ENDBRANCH  16  18
ENDBRANCH  15  16
ENDBRANCH   7  10
ENDBRANCH   4   7
ENDBRANCH   2   3
ENDBRANCH   1   2
BRANCH   1  30
ATOM     30  C   UNL     1      -2.772  -0.613  -2.961  1.00  0.00     0.023 C 
BRANCH  30  31
ATOM     31  C   UNL     1      -3.525   0.314  -3.912  1.00  0.00     0.116 C 
BRANCH  31  32
ATOM     32  N   UNL     1      -2.868   0.479  -5.199  1.00  0.00    -0.352 N 
ATOM     33  C   UNL     1      -3.431   0.648  -6.441  1.00  0.00     0.251 C 
ATOM     34  H   UNL     1      -1.884   0.468  -5.178  1.00  0.00     0.163 HD
ATOM     35  O   UNL     1      -2.714   0.686  -7.436  1.00  0.00    -0.269 OA
BRANCH  33  36
ATOM     36  C   UNL     1      -4.900   0.741  -6.574  1.00  0.00     0.039 A 
ATOM     37  C   UNL     1      -5.536  -0.060  -7.526  1.00  0.00     0.014 A 
ATOM     38  C   UNL     1      -5.646   1.594  -5.757  1.00  0.00     0.014 A 
ATOM     39  C   UNL     1      -6.930  -0.061  -7.609  1.00  0.00     0.010 A 
ATOM     40  C   UNL     1      -7.037   1.553  -5.804  1.00  0.00     0.010 A 
ATOM     41  C   UNL     1      -7.691   0.719  -6.723  1.00  0.00    -0.014 A 
BRANCH  41  42
ATOM     42  C   UNL     1      -9.173   0.660  -6.728  1.00  0.00     0.031 A 
ATOM     43  C   UNL     1      -9.976   1.861  -7.139  1.00  0.00     0.074 A 
ATOM     44  C   UNL     1      -9.794  -0.452  -6.289  1.00  0.00     0.049 A 
ATOM     45  N   UNL     1     -11.274   2.027  -7.126  1.00  0.00    -0.248 NA
ATOM     46  C   UNL     1      -9.222   3.038  -7.600  1.00  0.00     0.031 C 
ATOM     47  C   UNL     1      -9.125  -1.669  -5.821  1.00  0.00     0.029 A 
ATOM     48  N   UNL     1     -11.130  -0.734  -6.153  1.00  0.00    -0.354 N 
ATOM     49  C   UNL     1     -11.492   3.331  -7.554  1.00  0.00     0.074 A 
ATOM     50  C   UNL     1     -10.191   3.922  -7.789  1.00  0.00     0.031 C 
ATOM     51  C   UNL     1     -10.055  -2.570  -5.463  1.00  0.00     0.029 A 
ATOM     52  C   UNL     1     -11.380  -1.987  -5.648  1.00  0.00     0.049 A 
ATOM     53  H   UNL     1     -11.842  -0.098  -6.394  1.00  0.00     0.167 HD
ATOM     54  C   UNL     1     -12.668   3.974  -7.748  1.00  0.00     0.031 A 
ATOM     55  C   UNL     1     -12.544  -2.599  -5.361  1.00  0.00     0.031 A 
ATOM     56  C   UNL     1     -13.960   3.383  -7.532  1.00  0.00     0.049 A 
ATOM     57  C   UNL     1     -13.837  -1.875  -5.611  1.00  0.00     0.074 A 
ATOM     58  C   UNL     1     -15.210   3.939  -7.745  1.00  0.00     0.029 A 
ATOM     59  N   UNL     1     -14.170   2.096  -7.060  1.00  0.00    -0.354 N 
ATOM     60  N   UNL     1     -14.023  -0.658  -6.061  1.00  0.00    -0.248 NA
ATOM     61  C   UNL     1     -15.076  -2.613  -5.327  1.00  0.00     0.031 C 
ATOM     62  C   UNL     1     -16.176   2.996  -7.377  1.00  0.00     0.029 A 
ATOM     63  C   UNL     1     -15.528   1.842  -6.968  1.00  0.00     0.049 A 
ATOM     64  H   UNL     1     -13.459   1.458  -6.825  1.00  0.00     0.167 HD
ATOM     65  C   UNL     1     -15.400  -0.489  -6.131  1.00  0.00     0.074 A 
ATOM     66  C   UNL     1     -15.999  -1.732  -5.689  1.00  0.00     0.031 C 
ATOM     67  C   UNL     1     -16.105   0.599  -6.527  1.00  0.00     0.031 A 
BRANCH  54  68
ATOM     68  C   UNL     1     -12.598   5.402  -8.216  1.00  0.00    -0.014 A 
ATOM     69  C   UNL     1     -12.234   5.710  -9.539  1.00  0.00     0.010 A 
ATOM     70  C   UNL     1     -12.911   6.447  -7.328  1.00  0.00     0.010 A 
ATOM     71  C   UNL     1     -12.136   7.040  -9.953  1.00  0.00     0.020 A 
ATOM     72  C   UNL     1     -12.835   7.779  -7.745  1.00  0.00     0.020 A 
ATOM     73  C   UNL     1     -12.427   8.067  -9.050  1.00  0.00     0.054 A 
BRANCH  73  74
ATOM     74  S   UNL     1     -12.292   9.788  -9.608  1.00  0.00     0.124 S 
ATOM     75  O   UNL     1     -10.850  10.010  -9.543  1.00  0.00    -0.237 OA
ATOM     76  O   UNL     1     -12.859   9.739 -10.953  1.00  0.00    -0.237 OA
ATOM     77  O   UNL     1     -13.083  10.530  -8.629  1.00  0.00    -0.744 OA
ENDBRANCH  73  74
ENDBRANCH  54  68
BRANCH  55  78
ATOM     78  C   UNL     1     -12.537  -3.983  -4.822  1.00  0.00    -0.014 A 
ATOM     79  C   UNL     1     -12.870  -5.068  -5.651  1.00  0.00     0.010 A 
ATOM     80  C   UNL     1     -12.171  -4.226  -3.486  1.00  0.00     0.010 A 
ATOM     81  C   UNL     1     -12.846  -6.373  -5.152  1.00  0.00     0.020 A 
ATOM     82  C   UNL     1     -12.128  -5.531  -2.988  1.00  0.00     0.020 A 
ATOM     83  C   UNL     1     -12.475  -6.596  -3.823  1.00  0.00     0.054 A 
BRANCH  83  84
ATOM     84  S   UNL     1     -12.385  -8.301  -3.208  1.00  0.00     0.124 S 
ATOM     85  O   UNL     1     -13.786  -8.596  -2.928  1.00  0.00    -0.237 OA
ATOM     86  O   UNL     1     -11.800  -9.018  -4.339  1.00  0.00    -0.237 OA
ATOM     87  O   UNL     1     -11.518  -8.193  -2.037  1.00  0.00    -0.744 OA
ENDBRANCH  83  84
ENDBRANCH  55  78
BRANCH  67  88
ATOM     88  C   UNL     1     -17.604   0.485  -6.524  1.00  0.00    -0.014 A 
ATOM     89  C   UNL     1     -18.332   0.561  -5.325  1.00  0.00     0.010 A 
ATOM     90  C   UNL     1     -18.292   0.350  -7.743  1.00  0.00     0.010 A 
ATOM     91  C   UNL     1     -19.727   0.481  -5.342  1.00  0.00     0.020 A 
ATOM     92  C   UNL     1     -19.687   0.288  -7.765  1.00  0.00     0.020 A 
ATOM     93  C   UNL     1     -20.396   0.341  -6.562  1.00  0.00     0.054 A 
BRANCH  93  94
ATOM     94  S   UNL     1     -22.209   0.286  -6.569  1.00  0.00     0.124 S 
ATOM     95  O   UNL     1     -22.472  -1.097  -6.182  1.00  0.00    -0.237 OA
ATOM     96  O   UNL     1     -22.569   1.296  -5.577  1.00  0.00    -0.237 OA
ATOM     97  O   UNL     1     -22.558   0.626  -7.947  1.00  0.00    -0.744 OA
ENDBRANCH  93  94
ENDBRANCH  67  88
ENDBRANCH  41  42
ENDBRANCH  33  36
ENDBRANCH  31  32
ENDBRANCH  30  31
ENDBRANCH   1  30
TORSDOF 18
