REMARK SMILES C[C@@H](C(=O)NCCCCNC(=O)c1ccc(-c2c3nc(c(-c4ccc(S(=O)(=O)[O-])cc4)c4ccc([nH]4)c(-c4ccc(S(=O)(=O)[O-])cc4)c4nc(c(-c5ccc(S(=O)(=O)[O-])cc5)c5ccc2[nH]5)C=C4)C=C3)cc1)c1ccc(-c2ccccc2)cc1
REMARK SMILES IDX 8 1 7 2 6 3 5 4 3 5 4 6 2 8 1 9 73 10 74 11 84 12 75 13
REMARK SMILES IDX 83 14 76 15 77 16 78 17 82 18 79 19 81 20 80 21 9 22 10 23
REMARK SMILES IDX 11 24 12 26 13 27 14 28 72 29 15 30 71 31 16 32 17 33 18 34
REMARK SMILES IDX 65 35 19 36 70 37 64 38 66 39 20 40 69 41 63 42 62 43 21 45
REMARK SMILES IDX 51 46 32 47 50 48 33 49 36 50 49 51 67 52 34 53 35 54 48 56
REMARK SMILES IDX 68 57 37 58 22 59 23 60 31 61 24 62 30 63 25 64 26 65 27 66
REMARK SMILES IDX 28 67 29 68 52 69 53 70 61 71 54 72 60 73 55 74 56 75 57 76
REMARK SMILES IDX 58 77 59 78 38 79 39 80 47 81 40 82 46 83 41 84 42 85 43 86
REMARK SMILES IDX 44 87 45 88
REMARK H PARENT 5 7 10 25 66 44 36 55
REMARK Flexibility Score: inf
ROOT
ATOM      1  C   UNL     1       5.002   2.153  -0.967  1.00  0.00     0.023 C 
ENDROOT
BRANCH   1   2
ATOM      2  C   UNL     1       4.223   1.018  -0.297  1.00  0.00     0.023 C 
BRANCH   2   3
ATOM      3  C   UNL     1       3.363   1.440   0.899  1.00  0.00     0.116 C 
BRANCH   3   4
ATOM      4  N   UNL     1       2.336   2.382   0.499  1.00  0.00    -0.356 N 
ATOM      5  C   UNL     1       1.014   2.173   0.220  1.00  0.00     0.227 C 
ATOM      6  O   UNL     1       0.438   3.072  -0.396  1.00  0.00    -0.274 OA
ATOM      7  H   UNL     1       2.637   3.316   0.416  1.00  0.00     0.163 HD
BRANCH   5   8
ATOM      8  C   UNL     1       0.338   0.858   0.653  1.00  0.00     0.105 C 
ATOM      9  C   UNL     1       0.671  -0.201  -0.410  1.00  0.00     0.023 C 
BRANCH   8  10
ATOM     10  C   UNL     1      -1.176   0.925   0.908  1.00  0.00    -0.036 A 
ATOM     11  C   UNL     1      -1.869   2.130   1.084  1.00  0.00     0.005 A 
ATOM     12  C   UNL     1      -1.926  -0.262   1.004  1.00  0.00     0.005 A 
ATOM     13  C   UNL     1      -3.263   2.154   1.216  1.00  0.00     0.009 A 
ATOM     14  C   UNL     1      -3.318  -0.239   1.144  1.00  0.00     0.009 A 
ATOM     15  C   UNL     1      -4.013   0.973   1.219  1.00  0.00    -0.018 A 
BRANCH  15  16
ATOM     16  C   UNL     1      -5.480   1.003   1.267  1.00  0.00    -0.018 A 
ATOM     17  C   UNL     1      -6.212   1.692   0.285  1.00  0.00     0.009 A 
ATOM     18  C   UNL     1      -6.190   0.333   2.276  1.00  0.00     0.009 A 
ATOM     19  C   UNL     1      -7.608   1.712   0.311  1.00  0.00     0.001 A 
ATOM     20  C   UNL     1      -7.587   0.355   2.304  1.00  0.00     0.001 A 
ATOM     21  C   UNL     1      -8.295   1.045   1.322  1.00  0.00     0.000 A 
ENDBRANCH  15  16
ENDBRANCH   8  10
ENDBRANCH   5   8
ENDBRANCH   3   4
ENDBRANCH   2   3
ENDBRANCH   1   2
BRANCH   1  22
ATOM     22  C   UNL     1       5.982   2.881  -0.059  1.00  0.00     0.116 C 
BRANCH  22  23
ATOM     23  N   UNL     1       7.007   2.000   0.479  1.00  0.00    -0.352 N 
ATOM     24  C   UNL     1       8.354   2.237   0.611  1.00  0.00     0.251 C 
ATOM     25  H   UNL     1       6.694   1.120   0.790  1.00  0.00     0.163 HD
ATOM     26  O   UNL     1       9.108   1.333   0.957  1.00  0.00    -0.269 OA
BRANCH  24  27
ATOM     27  C   UNL     1       8.885   3.580   0.301  1.00  0.00     0.039 A 
ATOM     28  C   UNL     1       9.996   3.695  -0.539  1.00  0.00     0.014 A 
ATOM     29  C   UNL     1       8.264   4.722   0.815  1.00  0.00     0.014 A 
ATOM     30  C   UNL     1      10.448   4.961  -0.914  1.00  0.00     0.010 A 
ATOM     31  C   UNL     1       8.674   5.979   0.385  1.00  0.00     0.010 A 
ATOM     32  C   UNL     1       9.771   6.112  -0.480  1.00  0.00    -0.014 A 
BRANCH  32  33
ATOM     33  C   UNL     1      10.195   7.472  -0.892  1.00  0.00     0.031 A 
ATOM     34  C   UNL     1      10.685   8.444   0.147  1.00  0.00     0.074 A 
ATOM     35  C   UNL     1      10.052   7.864  -2.173  1.00  0.00     0.049 A 
ATOM     36  N   UNL     1      10.969   9.714   0.021  1.00  0.00    -0.248 NA
ATOM     37  C   UNL     1      10.845   7.922   1.514  1.00  0.00     0.031 C 
ATOM     38  C   UNL     1       9.558   7.026  -3.268  1.00  0.00     0.029 A 
ATOM     39  N   UNL     1      10.291   9.079  -2.766  1.00  0.00    -0.354 N 
ATOM     40  C   UNL     1      11.307  10.151   1.296  1.00  0.00     0.074 A 
ATOM     41  C   UNL     1      11.155   9.020   2.186  1.00  0.00     0.031 C 
ATOM     42  C   UNL     1       9.544   7.748  -4.401  1.00  0.00     0.029 A 
ATOM     43  C   UNL     1       9.986   9.108  -4.106  1.00  0.00     0.049 A 
ATOM     44  H   UNL     1      10.648   9.855  -2.277  1.00  0.00     0.167 HD
ATOM     45  C   UNL     1      11.719  11.380   1.690  1.00  0.00     0.031 A 
ATOM     46  C   UNL     1      10.042  10.119  -4.995  1.00  0.00     0.031 A 
ATOM     47  C   UNL     1      11.888  12.495   0.799  1.00  0.00     0.049 A 
ATOM     48  C   UNL     1      10.515  11.472  -4.540  1.00  0.00     0.074 A 
ATOM     49  C   UNL     1      12.351  13.766   1.089  1.00  0.00     0.029 A 
ATOM     50  N   UNL     1      11.604  12.471  -0.558  1.00  0.00    -0.354 N 
ATOM     51  N   UNL     1      10.873  11.856  -3.338  1.00  0.00    -0.248 NA
ATOM     52  C   UNL     1      10.601  12.524  -5.562  1.00  0.00     0.031 C 
ATOM     53  C   UNL     1      12.312  14.523  -0.087  1.00  0.00     0.029 A 
ATOM     54  C   UNL     1      11.872  13.708  -1.119  1.00  0.00     0.049 A 
ATOM     55  H   UNL     1      11.263  11.690  -1.051  1.00  0.00     0.167 HD
ATOM     56  C   UNL     1      11.256  13.187  -3.465  1.00  0.00     0.074 A 
ATOM     57  C   UNL     1      11.090  13.539  -4.861  1.00  0.00     0.031 C 
ATOM     58  C   UNL     1      11.709  14.038  -2.512  1.00  0.00     0.031 A 
BRANCH  45  59
ATOM     59  C   UNL     1      12.000  11.574   3.156  1.00  0.00    -0.014 A 
ATOM     60  C   UNL     1      13.112  10.969   3.770  1.00  0.00     0.010 A 
ATOM     61  C   UNL     1      11.143  12.377   3.931  1.00  0.00     0.010 A 
ATOM     62  C   UNL     1      13.328  11.116   5.143  1.00  0.00     0.020 A 
ATOM     63  C   UNL     1      11.372  12.549   5.299  1.00  0.00     0.020 A 
ATOM     64  C   UNL     1      12.451  11.897   5.900  1.00  0.00     0.054 A 
BRANCH  64  65
ATOM     65  S   UNL     1      12.749  12.066   7.681  1.00  0.00     0.124 S 
ATOM     66  O   UNL     1      12.286  10.775   8.185  1.00  0.00    -0.237 OA
ATOM     67  O   UNL     1      14.192  12.283   7.748  1.00  0.00    -0.237 OA
ATOM     68  O   UNL     1      11.931  13.214   8.062  1.00  0.00    -0.744 OA
ENDBRANCH  64  65
ENDBRANCH  45  59
BRANCH  46  69
ATOM     69  C   UNL     1       9.659   9.876  -6.411  1.00  0.00    -0.014 A 
ATOM     70  C   UNL     1      10.646   9.798  -7.409  1.00  0.00     0.010 A 
ATOM     71  C   UNL     1       8.310   9.686  -6.765  1.00  0.00     0.010 A 
ATOM     72  C   UNL     1      10.291   9.542  -8.737  1.00  0.00     0.020 A 
ATOM     73  C   UNL     1       7.955   9.406  -8.088  1.00  0.00     0.020 A 
ATOM     74  C   UNL     1       8.948   9.343  -9.067  1.00  0.00     0.054 A 
BRANCH  74  75
ATOM     75  S   UNL     1       8.520   8.940 -10.784  1.00  0.00     0.124 S 
ATOM     76  O   UNL     1       8.662  10.234 -11.444  1.00  0.00    -0.237 OA
ATOM     77  O   UNL     1       9.523   7.937 -11.133  1.00  0.00    -0.237 OA
ATOM     78  O   UNL     1       7.153   8.432 -10.684  1.00  0.00    -0.744 OA
ENDBRANCH  74  75
ENDBRANCH  46  69
BRANCH  58  79
ATOM     79  C   UNL     1      12.103  15.423  -2.947  1.00  0.00    -0.014 A 
ATOM     80  C   UNL     1      11.135  16.393  -3.258  1.00  0.00     0.010 A 
ATOM     81  C   UNL     1      13.464  15.776  -2.973  1.00  0.00     0.010 A 
ATOM     82  C   UNL     1      11.524  17.690  -3.607  1.00  0.00     0.020 A 
ATOM     83  C   UNL     1      13.856  17.077  -3.298  1.00  0.00     0.020 A 
ATOM     84  C   UNL     1      12.882  18.023  -3.623  1.00  0.00     0.054 A 
BRANCH  84  85
ATOM     85  S   UNL     1      13.361  19.728  -4.019  1.00  0.00     0.124 S 
ATOM     86  O   UNL     1      13.175  19.767  -5.467  1.00  0.00    -0.237 OA
ATOM     87  O   UNL     1      12.409  20.518  -3.242  1.00  0.00    -0.237 OA
ATOM     88  O   UNL     1      14.747  19.812  -3.566  1.00  0.00    -0.744 OA
ENDBRANCH  84  85
ENDBRANCH  58  79
ENDBRANCH  32  33
ENDBRANCH  24  27
ENDBRANCH  22  23
ENDBRANCH   1  22
TORSDOF 16
