REMARK SMILES O=C(NCCCCNC(=O)c1nnn(-c2cccc(C(F)(F)F)c2)c1[C@H]1COc2ccccc2O1)c1ccc(-c2c3nc(c(-c4ccc(S(=O)(=O)[O-])cc4)c4ccc([nH]4)c(-c4ccc(S(=O)(=O)[O-])cc4)c4nc(c(-c5ccc(S(=O)(=O)[O-])cc5)c5ccc2[nH]5)C=C4)C=C3)cc1
REMARK SMILES IDX 5 1 4 2 3 3 1 4 2 5 36 7 37 8 95 9 38 10 94 11 39 12 40 13
REMARK SMILES IDX 41 14 88 15 42 16 93 17 87 18 89 19 43 20 92 21 86 22 85 23
REMARK SMILES IDX 44 25 74 26 55 27 73 28 56 29 59 30 72 31 90 32 57 33 58 34
REMARK SMILES IDX 71 36 91 37 60 38 45 39 46 40 54 41 47 42 53 43 48 44 49 45
REMARK SMILES IDX 50 46 51 47 52 48 75 49 76 50 84 51 77 52 83 53 78 54 79 55
REMARK SMILES IDX 80 56 81 57 82 58 61 59 62 60 70 61 63 62 69 63 64 64 65 65
REMARK SMILES IDX 66 66 67 67 68 68 6 69 7 70 8 71 9 72 10 74 11 75 12 76
REMARK SMILES IDX 25 77 13 78 14 79 26 80 27 81 35 82 28 83 34 84 29 85 33 86
REMARK SMILES IDX 30 87 32 88 31 89 15 90 16 91 24 92 17 93 19 94 18 95 20 96
REMARK SMILES IDX 21 97 22 98 23 99
REMARK H PARENT 3 6 89 24 59 35 8 73
REMARK Flexibility Score: inf
ROOT
ATOM      1  C   UNL     1       1.157   0.524  -6.004  1.00  0.00     0.023 C 
ENDROOT
BRANCH   1   2
ATOM      2  C   UNL     1       0.654   1.890  -6.477  1.00  0.00     0.116 C 
BRANCH   2   3
ATOM      3  N   UNL     1       1.246   2.401  -7.697  1.00  0.00    -0.352 N 
ATOM      4  O   UNL     1       1.350   3.184  -9.775  1.00  0.00    -0.269 OA
ATOM      5  C   UNL     1       0.896   2.322  -9.018  1.00  0.00     0.251 C 
ATOM      6  H   UNL     1       2.073   2.912  -7.543  1.00  0.00     0.163 HD
BRANCH   5   7
ATOM      7  C   UNL     1       0.120   1.199  -9.594  1.00  0.00     0.039 A 
ATOM      8  C   UNL     1      -0.660   0.310  -8.857  1.00  0.00     0.014 A 
ATOM      9  C   UNL     1       0.284   0.983 -10.974  1.00  0.00     0.014 A 
ATOM     10  C   UNL     1      -1.130  -0.856  -9.438  1.00  0.00     0.010 A 
ATOM     11  C   UNL     1      -0.222  -0.161 -11.572  1.00  0.00     0.010 A 
ATOM     12  C   UNL     1      -0.874  -1.107 -10.784  1.00  0.00    -0.014 A 
BRANCH  12  13
ATOM     13  C   UNL     1      -1.407  -2.338 -11.351  1.00  0.00     0.031 A 
ATOM     14  C   UNL     1      -2.896  -2.425 -11.399  1.00  0.00     0.074 A 
ATOM     15  C   UNL     1      -0.612  -3.259 -11.930  1.00  0.00     0.049 A 
ATOM     16  N   UNL     1      -3.675  -3.352 -10.942  1.00  0.00    -0.248 NA
ATOM     17  C   UNL     1      -3.612  -1.264 -11.956  1.00  0.00     0.031 C 
ATOM     18  C   UNL     1       0.823  -3.147 -12.208  1.00  0.00     0.029 A 
ATOM     19  N   UNL     1      -0.956  -4.431 -12.531  1.00  0.00    -0.354 N 
ATOM     20  C   UNL     1      -4.968  -2.986 -11.317  1.00  0.00     0.074 A 
ATOM     21  C   UNL     1      -4.882  -1.637 -11.816  1.00  0.00     0.031 C 
ATOM     22  C   UNL     1       1.161  -4.065 -13.140  1.00  0.00     0.029 A 
ATOM     23  C   UNL     1       0.004  -4.899 -13.418  1.00  0.00     0.049 A 
ATOM     24  H   UNL     1      -1.803  -4.900 -12.354  1.00  0.00     0.167 HD
ATOM     25  C   UNL     1      -5.995  -3.876 -11.393  1.00  0.00     0.031 A 
ATOM     26  C   UNL     1      -0.174  -5.827 -14.390  1.00  0.00     0.031 A 
ATOM     27  C   UNL     1      -5.739  -5.073 -10.643  1.00  0.00     0.049 A 
ATOM     28  C   UNL     1      -1.402  -6.591 -14.064  1.00  0.00     0.074 A 
ATOM     29  C   UNL     1      -5.515  -5.360  -9.312  1.00  0.00     0.029 A 
ATOM     30  N   UNL     1      -5.356  -6.194 -11.339  1.00  0.00    -0.354 N 
ATOM     31  N   UNL     1      -1.516  -7.369 -13.025  1.00  0.00    -0.248 NA
ATOM     32  C   UNL     1      -2.658  -6.167 -14.664  1.00  0.00     0.031 C 
ATOM     33  C   UNL     1      -4.572  -6.429  -9.319  1.00  0.00     0.029 A 
ATOM     34  C   UNL     1      -4.311  -6.754 -10.652  1.00  0.00     0.049 A 
ATOM     35  H   UNL     1      -5.757  -6.532 -12.172  1.00  0.00     0.167 HD
ATOM     36  C   UNL     1      -2.825  -7.204 -12.594  1.00  0.00     0.074 A 
ATOM     37  C   UNL     1      -3.505  -6.537 -13.701  1.00  0.00     0.031 C 
ATOM     38  C   UNL     1      -3.166  -7.377 -11.282  1.00  0.00     0.031 A 
BRANCH  25  39
ATOM     39  C   UNL     1      -7.058  -3.813 -12.467  1.00  0.00    -0.014 A 
ATOM     40  C   UNL     1      -8.099  -4.764 -12.460  1.00  0.00     0.010 A 
ATOM     41  C   UNL     1      -6.902  -3.047 -13.643  1.00  0.00     0.010 A 
ATOM     42  C   UNL     1      -8.872  -5.004 -13.605  1.00  0.00     0.020 A 
ATOM     43  C   UNL     1      -7.697  -3.246 -14.772  1.00  0.00     0.020 A 
ATOM     44  C   UNL     1      -8.646  -4.258 -14.761  1.00  0.00     0.054 A 
BRANCH  44  45
ATOM     45  S   UNL     1      -9.526  -4.685 -16.284  1.00  0.00     0.124 S 
ATOM     46  O   UNL     1      -8.966  -5.997 -16.592  1.00  0.00    -0.237 OA
ATOM     47  O   UNL     1     -10.920  -4.675 -15.850  1.00  0.00    -0.237 OA
ATOM     48  O   UNL     1      -9.156  -3.612 -17.204  1.00  0.00    -0.744 OA
ENDBRANCH  44  45
ENDBRANCH  25  39
BRANCH  26  49
ATOM     49  C   UNL     1       0.444  -5.823 -15.740  1.00  0.00    -0.014 A 
ATOM     50  C   UNL     1       0.414  -6.963 -16.562  1.00  0.00     0.010 A 
ATOM     51  C   UNL     1       0.844  -4.603 -16.326  1.00  0.00     0.010 A 
ATOM     52  C   UNL     1       0.732  -6.875 -17.929  1.00  0.00     0.020 A 
ATOM     53  C   UNL     1       1.173  -4.509 -17.682  1.00  0.00     0.020 A 
ATOM     54  C   UNL     1       1.095  -5.643 -18.483  1.00  0.00     0.054 A 
BRANCH  54  55
ATOM     55  S   UNL     1       1.352  -5.503 -20.276  1.00  0.00     0.124 S 
ATOM     56  O   UNL     1       2.603  -6.230 -20.468  1.00  0.00    -0.237 OA
ATOM     57  O   UNL     1       0.158  -6.144 -20.819  1.00  0.00    -0.237 OA
ATOM     58  O   UNL     1       1.433  -4.061 -20.501  1.00  0.00    -0.744 OA
ENDBRANCH  54  55
ENDBRANCH  26  49
BRANCH  38  59
ATOM     59  C   UNL     1      -2.159  -8.012 -10.352  1.00  0.00    -0.014 A 
ATOM     60  C   UNL     1      -0.906  -7.436 -10.065  1.00  0.00     0.010 A 
ATOM     61  C   UNL     1      -2.565  -9.136  -9.611  1.00  0.00     0.010 A 
ATOM     62  C   UNL     1      -0.075  -7.981  -9.075  1.00  0.00     0.020 A 
ATOM     63  C   UNL     1      -1.750  -9.674  -8.612  1.00  0.00     0.020 A 
ATOM     64  C   UNL     1      -0.506  -9.096  -8.351  1.00  0.00     0.054 A 
BRANCH  64  65
ATOM     65  S   UNL     1       0.541  -9.750  -7.021  1.00  0.00     0.124 S 
ATOM     66  O   UNL     1       1.661 -10.332  -7.755  1.00  0.00    -0.237 OA
ATOM     67  O   UNL     1       0.854  -8.557  -6.237  1.00  0.00    -0.237 OA
ATOM     68  O   UNL     1      -0.322 -10.716  -6.341  1.00  0.00    -0.744 OA
ENDBRANCH  64  65
ENDBRANCH  38  59
ENDBRANCH  12  13
ENDBRANCH   5   7
ENDBRANCH   2   3
ENDBRANCH   1   2
BRANCH   1  69
ATOM     69  C   UNL     1       2.663   0.392  -5.770  1.00  0.00     0.023 C 
BRANCH  69  70
ATOM     70  C   UNL     1       3.317   1.520  -4.990  1.00  0.00     0.116 C 
BRANCH  70  71
ATOM     71  N   UNL     1       2.845   1.696  -3.638  1.00  0.00    -0.351 N 
ATOM     72  C   UNL     1       3.486   2.365  -2.611  1.00  0.00     0.273 C 
ATOM     73  H   UNL     1       1.971   1.296  -3.422  1.00  0.00     0.163 HD
ATOM     74  O   UNL     1       2.920   2.495  -1.536  1.00  0.00    -0.267 OA
BRANCH  72  75
ATOM     75  C   UNL     1       4.841   2.863  -2.839  1.00  0.00     0.178 A 
ATOM     76  N   UNL     1       5.927   2.236  -2.277  1.00  0.00    -0.124 NA
ATOM     77  C   UNL     1       5.287   3.930  -3.611  1.00  0.00     0.122 A 
ATOM     78  N   UNL     1       7.026   2.840  -2.704  1.00  0.00    -0.061 NA
ATOM     79  N   UNL     1       6.654   3.943  -3.378  1.00  0.00    -0.213 N 
BRANCH  77  80
ATOM     80  C   UNL     1       4.623   4.836  -4.602  1.00  0.00     0.262 C 
ATOM     81  C   UNL     1       4.977   4.441  -6.048  1.00  0.00     0.281 C 
ATOM     82  O   UNL     1       3.222   4.781  -4.335  1.00  0.00    -0.477 OA
ATOM     83  O   UNL     1       4.274   5.221  -7.014  1.00  0.00    -0.485 OA
ATOM     84  C   UNL     1       2.464   5.214  -5.387  1.00  0.00     0.162 A 
ATOM     85  C   UNL     1       2.960   5.389  -6.680  1.00  0.00     0.161 A 
ATOM     86  C   UNL     1       1.109   5.406  -5.124  1.00  0.00     0.050 A 
ATOM     87  C   UNL     1       2.092   5.725  -7.716  1.00  0.00     0.050 A 
ATOM     88  C   UNL     1       0.239   5.733  -6.163  1.00  0.00     0.004 A 
ATOM     89  C   UNL     1       0.728   5.877  -7.461  1.00  0.00     0.004 A 
ENDBRANCH  77  80
BRANCH  79  90
ATOM     90  C   UNL     1       7.602   4.867  -3.866  1.00  0.00     0.067 A 
ATOM     91  C   UNL     1       8.748   4.402  -4.513  1.00  0.00     0.028 A 
ATOM     92  C   UNL     1       7.328   6.239  -3.796  1.00  0.00     0.041 A 
ATOM     93  C   UNL     1       9.560   5.314  -5.187  1.00  0.00     0.003 A 
ATOM     94  C   UNL     1       8.142   7.159  -4.467  1.00  0.00     0.058 A 
ATOM     95  C   UNL     1       9.251   6.679  -5.179  1.00  0.00     0.013 A 
BRANCH  94  96
ATOM     96  C   UNL     1       7.812   8.632  -4.448  1.00  0.00     0.416 C 
ATOM     97  F   UNL     1       8.810   9.386  -3.913  1.00  0.00    -0.166 F 
ATOM     98  F   UNL     1       7.587   9.131  -5.694  1.00  0.00    -0.166 F 
ATOM     99  F   UNL     1       6.695   8.924  -3.724  1.00  0.00    -0.166 F 
ENDBRANCH  94  96
ENDBRANCH  79  90
ENDBRANCH  72  75
ENDBRANCH  70  71
ENDBRANCH  69  70
ENDBRANCH   1  69
TORSDOF 17
