REMARK SMILES C[C@H](CC(=O)NCCCCNC(=O)c1ccc(-c2c3nc(c(-c4ccc(S(=O)(=O)[O-])cc4)c4ccc([nH]4)c(-c4ccc(S(=O)(=O)[O-])cc4)c4nc(c(-c5ccc(S(=O)(=O)[O-])cc5)c5ccc2[nH]5)C=C4)C=C3)cc1)[NH2+][C@H](C)c1ccccc1
REMARK SMILES IDX 8 1 7 2 6 3 4 4 5 5 3 7 2 8 1 9 74 10 75 13 76 14 77 15
REMARK SMILES IDX 78 16 82 17 79 18 81 19 80 20 9 21 10 22 11 23 12 24 13 26
REMARK SMILES IDX 14 27 15 28 73 29 16 30 72 31 17 32 18 33 19 34 66 35 20 36
REMARK SMILES IDX 71 37 65 38 67 39 21 40 70 41 64 42 63 43 22 45 52 46 33 47
REMARK SMILES IDX 51 48 34 49 37 50 50 51 68 52 35 53 36 54 49 56 69 57 38 58
REMARK SMILES IDX 23 59 24 60 32 61 25 62 31 63 26 64 27 65 28 66 29 67 30 68
REMARK SMILES IDX 53 69 54 70 62 71 55 72 61 73 56 74 57 75 58 76 59 77 60 78
REMARK SMILES IDX 39 79 40 80 48 81 41 82 47 83 42 84 43 85 44 86 45 87 46 88
REMARK H PARENT 6 6 74 11 74 12 11 25 67 44 37 55
REMARK Flexibility Score: inf
ROOT
ATOM      1  C   UNL     1      -0.026  -0.391  -5.212  1.00  0.00     0.023 C 
ENDROOT
BRANCH   1   2
ATOM      2  C   UNL     1       0.136  -1.904  -5.373  1.00  0.00     0.116 C 
BRANCH   2   3
ATOM      3  N   UNL     1       1.198  -2.442  -4.535  1.00  0.00    -0.356 N 
ATOM      4  C   UNL     1       1.111  -3.252  -3.435  1.00  0.00     0.225 C 
ATOM      5  O   UNL     1       2.150  -3.551  -2.842  1.00  0.00    -0.275 OA
ATOM      6  H   UNL     1       2.112  -2.186  -4.797  1.00  0.00     0.163 HD
BRANCH   4   7
ATOM      7  C   UNL     1      -0.242  -3.754  -2.945  1.00  0.00     0.164 C 
BRANCH   7   8
ATOM      8  C   UNL     1      -0.962  -2.829  -1.925  1.00  0.00     0.189 C 
ATOM      9  C   UNL     1      -0.284  -2.910  -0.560  1.00  0.00     0.075 C 
BRANCH   8  10
ATOM     10  N   UNL     1      -1.002  -1.488  -2.491  1.00  0.00    -0.338 N 
ATOM     11  H   UNL     1      -1.319  -1.614  -3.452  1.00  0.00     0.347 HD
ATOM     12  H   UNL     1      -0.060  -1.175  -2.257  1.00  0.00     0.347 HD
BRANCH  10  13
ATOM     13  C   UNL     1      -1.774  -0.357  -1.977  1.00  0.00     0.210 C 
ATOM     14  C   UNL     1      -1.341   0.122  -0.592  1.00  0.00     0.081 C 
BRANCH  13  15
ATOM     15  C   UNL     1      -3.278  -0.333  -2.204  1.00  0.00     0.009 A 
ATOM     16  C   UNL     1      -3.930   0.918  -2.159  1.00  0.00     0.010 A 
ATOM     17  C   UNL     1      -4.062  -1.455  -2.490  1.00  0.00     0.010 A 
ATOM     18  C   UNL     1      -5.307   1.035  -2.354  1.00  0.00     0.001 A 
ATOM     19  C   UNL     1      -5.446  -1.343  -2.672  1.00  0.00     0.001 A 
ATOM     20  C   UNL     1      -6.068  -0.101  -2.599  1.00  0.00     0.000 A 
ENDBRANCH  13  15
ENDBRANCH  10  13
ENDBRANCH   8  10
ENDBRANCH   7   8
ENDBRANCH   4   7
ENDBRANCH   2   3
ENDBRANCH   1   2
BRANCH   1  21
ATOM     21  C   UNL     1       1.049   0.467  -5.852  1.00  0.00     0.023 C 
BRANCH  21  22
ATOM     22  C   UNL     1       1.116   0.355  -7.357  1.00  0.00     0.116 C 
BRANCH  22  23
ATOM     23  N   UNL     1      -0.133   0.711  -8.016  1.00  0.00    -0.352 N 
ATOM     24  C   UNL     1      -0.334   1.553  -9.083  1.00  0.00     0.251 C 
ATOM     25  H   UNL     1      -0.944   0.292  -7.646  1.00  0.00     0.163 HD
ATOM     26  O   UNL     1      -1.473   1.845  -9.435  1.00  0.00    -0.269 OA
BRANCH  24  27
ATOM     27  C   UNL     1       0.837   2.128  -9.777  1.00  0.00     0.039 A 
ATOM     28  C   UNL     1       0.825   3.475 -10.139  1.00  0.00     0.014 A 
ATOM     29  C   UNL     1       1.966   1.343 -10.023  1.00  0.00     0.014 A 
ATOM     30  C   UNL     1       1.968   4.043 -10.702  1.00  0.00     0.010 A 
ATOM     31  C   UNL     1       3.141   1.940 -10.451  1.00  0.00     0.010 A 
ATOM     32  C   UNL     1       3.144   3.286 -10.837  1.00  0.00    -0.014 A 
BRANCH  32  33
ATOM     33  C   UNL     1       4.366   3.853 -11.456  1.00  0.00     0.031 A 
ATOM     34  C   UNL     1       4.916   3.227 -12.713  1.00  0.00     0.074 A 
ATOM     35  C   UNL     1       5.002   4.887 -10.872  1.00  0.00     0.049 A 
ATOM     36  N   UNL     1       5.986   3.546 -13.394  1.00  0.00    -0.248 NA
ATOM     37  C   UNL     1       4.191   2.063 -13.256  1.00  0.00     0.031 C 
ATOM     38  C   UNL     1       4.604   5.535  -9.619  1.00  0.00     0.029 A 
ATOM     39  N   UNL     1       6.119   5.580 -11.262  1.00  0.00    -0.354 N 
ATOM     40  C   UNL     1       6.072   2.609 -14.419  1.00  0.00     0.074 A 
ATOM     41  C   UNL     1       4.997   1.666 -14.227  1.00  0.00     0.031 C 
ATOM     42  C   UNL     1       5.435   6.561  -9.371  1.00  0.00     0.029 A 
ATOM     43  C   UNL     1       6.441   6.623 -10.426  1.00  0.00     0.049 A 
ATOM     44  H   UNL     1       6.641   5.353 -12.065  1.00  0.00     0.167 HD
ATOM     45  C   UNL     1       6.943   2.558 -15.453  1.00  0.00     0.031 A 
ATOM     46  C   UNL     1       7.430   7.533 -10.511  1.00  0.00     0.031 A 
ATOM     47  C   UNL     1       7.986   3.524 -15.664  1.00  0.00     0.049 A 
ATOM     48  C   UNL     1       8.365   7.480 -11.689  1.00  0.00     0.074 A 
ATOM     49  C   UNL     1       8.882   3.611 -16.713  1.00  0.00     0.029 A 
ATOM     50  N   UNL     1       8.261   4.581 -14.809  1.00  0.00    -0.354 N 
ATOM     51  N   UNL     1       8.387   6.628 -12.687  1.00  0.00    -0.248 NA
ATOM     52  C   UNL     1       9.394   8.525 -11.761  1.00  0.00     0.031 C 
ATOM     53  C   UNL     1       9.729   4.698 -16.471  1.00  0.00     0.029 A 
ATOM     54  C   UNL     1       9.324   5.318 -15.299  1.00  0.00     0.049 A 
ATOM     55  H   UNL     1       7.773   4.778 -13.977  1.00  0.00     0.167 HD
ATOM     56  C   UNL     1       9.418   7.049 -13.520  1.00  0.00     0.074 A 
ATOM     57  C   UNL     1       9.977   8.244 -12.919  1.00  0.00     0.031 C 
ATOM     58  C   UNL     1       9.866   6.499 -14.677  1.00  0.00     0.031 A 
BRANCH  45  59
ATOM     59  C   UNL     1       6.786   1.428 -16.436  1.00  0.00    -0.014 A 
ATOM     60  C   UNL     1       5.668   1.356 -17.289  1.00  0.00     0.010 A 
ATOM     61  C   UNL     1       7.771   0.428 -16.518  1.00  0.00     0.010 A 
ATOM     62  C   UNL     1       5.513   0.281 -18.168  1.00  0.00     0.020 A 
ATOM     63  C   UNL     1       7.637  -0.633 -17.419  1.00  0.00     0.020 A 
ATOM     64  C   UNL     1       6.498  -0.709 -18.224  1.00  0.00     0.054 A 
BRANCH  64  65
ATOM     65  S   UNL     1       6.281  -2.083 -19.388  1.00  0.00     0.124 S 
ATOM     66  O   UNL     1       5.236  -2.867 -18.736  1.00  0.00    -0.237 OA
ATOM     67  O   UNL     1       5.879  -1.402 -20.617  1.00  0.00    -0.237 OA
ATOM     68  O   UNL     1       7.598  -2.712 -19.431  1.00  0.00    -0.744 OA
ENDBRANCH  64  65
ENDBRANCH  45  59
BRANCH  46  69
ATOM     69  C   UNL     1       7.559   8.595  -9.476  1.00  0.00    -0.014 A 
ATOM     70  C   UNL     1       7.251   9.932  -9.784  1.00  0.00     0.010 A 
ATOM     71  C   UNL     1       7.985   8.277  -8.173  1.00  0.00     0.010 A 
ATOM     72  C   UNL     1       7.390  10.934  -8.819  1.00  0.00     0.020 A 
ATOM     73  C   UNL     1       8.098   9.271  -7.197  1.00  0.00     0.020 A 
ATOM     74  C   UNL     1       7.812  10.597  -7.530  1.00  0.00     0.054 A 
BRANCH  74  75
ATOM     75  S   UNL     1       7.943  11.906  -6.281  1.00  0.00     0.124 S 
ATOM     76  O   UNL     1       9.150  12.609  -6.703  1.00  0.00    -0.237 OA
ATOM     77  O   UNL     1       6.690  12.637  -6.457  1.00  0.00    -0.237 OA
ATOM     78  O   UNL     1       8.053  11.169  -5.024  1.00  0.00    -0.744 OA
ENDBRANCH  74  75
ENDBRANCH  46  69
BRANCH  58  79
ATOM     79  C   UNL     1      10.996   7.204 -15.376  1.00  0.00    -0.014 A 
ATOM     80  C   UNL     1      12.300   7.188 -14.849  1.00  0.00     0.010 A 
ATOM     81  C   UNL     1      10.753   7.867 -16.592  1.00  0.00     0.010 A 
ATOM     82  C   UNL     1      13.331   7.867 -15.502  1.00  0.00     0.020 A 
ATOM     83  C   UNL     1      11.788   8.521 -17.264  1.00  0.00     0.020 A 
ATOM     84  C   UNL     1      13.066   8.535 -16.702  1.00  0.00     0.054 A 
BRANCH  84  85
ATOM     85  S   UNL     1      14.423   9.399 -17.537  1.00  0.00     0.124 S 
ATOM     86  O   UNL     1      14.575  10.593 -16.710  1.00  0.00    -0.237 OA
ATOM     87  O   UNL     1      15.518   8.435 -17.456  1.00  0.00    -0.237 OA
ATOM     88  O   UNL     1      13.907   9.635 -18.884  1.00  0.00    -0.744 OA
ENDBRANCH  84  85
ENDBRANCH  58  79
ENDBRANCH  32  33
ENDBRANCH  24  27
ENDBRANCH  22  23
ENDBRANCH  21  22
ENDBRANCH   1  21
TORSDOF 18
