REMARK SMILES Cc1cc(F)c([C@](C)(NC=O)C(=O)NCCCCNC(=O)c2ccc(-c3c4nc(c(-c5ccc(S(=O)(=O)[O-])cc5)c5ccc([nH]5)c(-c5ccc(S(=O)(=O)[O-])cc5)c5nc(c(-c6ccc(S(=O)(=O)[O-])cc6)c6ccc3[nH]6)C=C5)C=C4)cc2)cc1F
REMARK SMILES IDX 17 1 16 2 15 3 14 4 12 5 13 6 7 8 8 9 6 10 1 11 2 12 3 13
REMARK SMILES IDX 83 14 4 15 82 16 84 17 5 18 9 19 10 20 11 22 18 23 19 24
REMARK SMILES IDX 20 25 21 27 22 28 23 29 81 30 24 31 80 32 25 33 26 34 27 35
REMARK SMILES IDX 74 36 28 37 79 38 73 39 75 40 29 41 78 42 72 43 71 44 30 46
REMARK SMILES IDX 60 47 41 48 59 49 42 50 45 51 58 52 76 53 43 54 44 55 57 57
REMARK SMILES IDX 77 58 46 59 31 60 32 61 40 62 33 63 39 64 34 65 35 66 36 67
REMARK SMILES IDX 37 68 38 69 61 70 62 71 70 72 63 73 69 74 64 75 65 76 66 77
REMARK SMILES IDX 67 78 68 79 47 80 48 81 56 82 49 83 55 84 50 85 51 86 52 87
REMARK SMILES IDX 53 88 54 89
REMARK H PARENT 14 7 9 21 19 26 75 45 45 56
REMARK Flexibility Score: inf
ROOT
ATOM      1  C   UNL     1      -0.505  10.661   2.231  1.00  0.00     0.023 C 
ENDROOT
BRANCH   1   2
ATOM      2  C   UNL     1      -1.389   9.454   2.547  1.00  0.00     0.023 C 
BRANCH   2   3
ATOM      3  C   UNL     1      -1.679   8.539   1.366  1.00  0.00     0.116 C 
BRANCH   3   4
ATOM      4  N   UNL     1      -0.501   7.867   0.842  1.00  0.00    -0.354 N 
ATOM      5  C   UNL     1      -0.360   6.644   0.247  1.00  0.00     0.250 C 
ATOM      6  O   UNL     1       0.624   6.524  -0.496  1.00  0.00    -0.272 OA
ATOM      7  H   UNL     1       0.335   8.378   0.931  1.00  0.00     0.163 HD
BRANCH   5   8
ATOM      8  C   UNL     1      -1.378   5.444   0.417  1.00  0.00     0.144 C 
ATOM      9  C   UNL     1      -0.472   4.186   0.567  1.00  0.00     0.051 C 
BRANCH   8  10
ATOM     10  C   UNL     1      -2.299   5.318  -0.822  1.00  0.00     0.025 A 
ATOM     11  C   UNL     1      -4.894   5.060  -4.317  1.00  0.00     0.047 C 
ATOM     12  C   UNL     1      -4.031   5.131  -3.097  1.00  0.00    -0.012 A 
ATOM     13  C   UNL     1      -3.803   6.353  -2.472  1.00  0.00     0.046 A 
ATOM     14  C   UNL     1      -3.392   4.007  -2.579  1.00  0.00     0.126 A 
ATOM     15  C   UNL     1      -2.963   6.431  -1.358  1.00  0.00     0.129 A 
ATOM     16  C   UNL     1      -2.554   4.088  -1.460  1.00  0.00     0.049 A 
ATOM     17  F   UNL     1      -3.579   2.811  -3.154  1.00  0.00    -0.207 F 
ATOM     18  F   UNL     1      -2.838   7.636  -0.805  1.00  0.00    -0.207 F 
ENDBRANCH   8  10
BRANCH   8  19
ATOM     19  N   UNL     1      -2.220   5.528   1.617  1.00  0.00    -0.341 N 
ATOM     20  C   UNL     1      -1.755   5.543   2.900  1.00  0.00     0.338 C 
ATOM     21  H   UNL     1      -3.194   5.578   1.486  1.00  0.00     0.164 HD
ATOM     22  O   UNL     1      -2.502   5.526   3.868  1.00  0.00    -0.279 OA
ENDBRANCH   8  19
ENDBRANCH   5   8
ENDBRANCH   3   4
ENDBRANCH   2   3
ENDBRANCH   1   2
BRANCH   1  23
ATOM     23  C   UNL     1      -0.832  11.428   0.954  1.00  0.00     0.116 C 
BRANCH  23  24
ATOM     24  N   UNL     1      -2.211  11.895   0.864  1.00  0.00    -0.352 N 
ATOM     25  C   UNL     1      -2.678  13.126   0.451  1.00  0.00     0.251 C 
ATOM     26  H   UNL     1      -2.900  11.246   1.135  1.00  0.00     0.163 HD
ATOM     27  O   UNL     1      -3.875  13.375   0.446  1.00  0.00    -0.269 OA
BRANCH  25  28
ATOM     28  C   UNL     1      -1.692  14.161   0.077  1.00  0.00     0.039 A 
ATOM     29  C   UNL     1      -0.703  13.877  -0.865  1.00  0.00     0.014 A 
ATOM     30  C   UNL     1      -1.680  15.364   0.786  1.00  0.00     0.014 A 
ATOM     31  C   UNL     1       0.410  14.704  -0.945  1.00  0.00     0.010 A 
ATOM     32  C   UNL     1      -0.599  16.236   0.639  1.00  0.00     0.010 A 
ATOM     33  C   UNL     1       0.489  15.877  -0.172  1.00  0.00    -0.014 A 
BRANCH  33  34
ATOM     34  C   UNL     1       1.739  16.681  -0.190  1.00  0.00     0.031 A 
ATOM     35  C   UNL     1       2.595  16.800   1.046  1.00  0.00     0.074 A 
ATOM     36  C   UNL     1       2.148  17.235  -1.347  1.00  0.00     0.049 A 
ATOM     37  N   UNL     1       3.734  17.428   1.196  1.00  0.00    -0.248 NA
ATOM     38  C   UNL     1       2.118  16.132   2.268  1.00  0.00     0.031 C 
ATOM     39  C   UNL     1       1.423  17.154  -2.616  1.00  0.00     0.029 A 
ATOM     40  N   UNL     1       3.287  17.935  -1.655  1.00  0.00    -0.354 N 
ATOM     41  C   UNL     1       4.098  17.247   2.526  1.00  0.00     0.074 A 
ATOM     42  C   UNL     1       3.049  16.473   3.150  1.00  0.00     0.031 C 
ATOM     43  C   UNL     1       2.168  17.712  -3.581  1.00  0.00     0.029 A 
ATOM     44  C   UNL     1       3.388  18.255  -2.988  1.00  0.00     0.049 A 
ATOM     45  H   UNL     1       3.965  18.183  -0.987  1.00  0.00     0.167 HD
ATOM     46  C   UNL     1       5.212  17.678   3.166  1.00  0.00     0.031 A 
ATOM     47  C   UNL     1       4.348  18.914  -3.666  1.00  0.00     0.031 A 
ATOM     48  C   UNL     1       6.263  18.434   2.537  1.00  0.00     0.049 A 
ATOM     49  C   UNL     1       5.550  19.423  -2.928  1.00  0.00     0.074 A 
ATOM     50  C   UNL     1       7.431  18.913   3.106  1.00  0.00     0.029 A 
ATOM     51  N   UNL     1       6.283  18.813   1.204  1.00  0.00    -0.354 N 
ATOM     52  N   UNL     1       5.859  19.268  -1.663  1.00  0.00    -0.248 NA
ATOM     53  C   UNL     1       6.526  20.204  -3.699  1.00  0.00     0.031 C 
ATOM     54  C   UNL     1       8.132  19.625   2.129  1.00  0.00     0.029 A 
ATOM     55  C   UNL     1       7.431  19.539   0.936  1.00  0.00     0.049 A 
ATOM     56  H   UNL     1       5.584  18.598   0.544  1.00  0.00     0.167 HD
ATOM     57  C   UNL     1       7.064  19.936  -1.484  1.00  0.00     0.074 A 
ATOM     58  C   UNL     1       7.439  20.477  -2.775  1.00  0.00     0.031 C 
ATOM     59  C   UNL     1       7.786  20.090  -0.348  1.00  0.00     0.031 A 
BRANCH  46  60
ATOM     60  C   UNL     1       5.360  17.357   4.630  1.00  0.00    -0.014 A 
ATOM     61  C   UNL     1       5.264  18.388   5.583  1.00  0.00     0.010 A 
ATOM     62  C   UNL     1       5.687  16.058   5.059  1.00  0.00     0.010 A 
ATOM     63  C   UNL     1       5.508  18.132   6.935  1.00  0.00     0.020 A 
ATOM     64  C   UNL     1       5.909  15.793   6.414  1.00  0.00     0.020 A 
ATOM     65  C   UNL     1       5.835  16.836   7.341  1.00  0.00     0.054 A 
BRANCH  65  66
ATOM     66  S   UNL     1       6.141  16.514   9.101  1.00  0.00     0.124 S 
ATOM     67  O   UNL     1       7.514  16.980   9.266  1.00  0.00    -0.237 OA
ATOM     68  O   UNL     1       5.116  17.321   9.760  1.00  0.00    -0.237 OA
ATOM     69  O   UNL     1       5.950  15.070   9.219  1.00  0.00    -0.744 OA
ENDBRANCH  65  66
ENDBRANCH  46  60
BRANCH  47  70
ATOM     70  C   UNL     1       4.186  19.099  -5.132  1.00  0.00    -0.014 A 
ATOM     71  C   UNL     1       3.180  19.948  -5.631  1.00  0.00     0.010 A 
ATOM     72  C   UNL     1       4.943  18.329  -6.030  1.00  0.00     0.010 A 
ATOM     73  C   UNL     1       2.885  19.969  -6.996  1.00  0.00     0.020 A 
ATOM     74  C   UNL     1       4.668  18.368  -7.401  1.00  0.00     0.020 A 
ATOM     75  C   UNL     1       3.616  19.161  -7.869  1.00  0.00     0.054 A 
BRANCH  75  76
ATOM     76  S   UNL     1       3.161  19.134  -9.624  1.00  0.00     0.124 S 
ATOM     77  O   UNL     1       2.006  18.240  -9.618  1.00  0.00    -0.237 OA
ATOM     78  O   UNL     1       2.869  20.537  -9.904  1.00  0.00    -0.237 OA
ATOM     79  O   UNL     1       4.357  18.608 -10.278  1.00  0.00    -0.744 OA
ENDBRANCH  75  76
ENDBRANCH  47  70
BRANCH  59  80
ATOM     80  C   UNL     1       9.056  20.891  -0.422  1.00  0.00    -0.014 A 
ATOM     81  C   UNL     1      10.300  20.246  -0.298  1.00  0.00     0.010 A 
ATOM     82  C   UNL     1       9.012  22.295  -0.485  1.00  0.00     0.010 A 
ATOM     83  C   UNL     1      11.477  20.991  -0.203  1.00  0.00     0.020 A 
ATOM     84  C   UNL     1      10.190  23.043  -0.413  1.00  0.00     0.020 A 
ATOM     85  C   UNL     1      11.413  22.387  -0.248  1.00  0.00     0.054 A 
BRANCH  85  86
ATOM     86  S   UNL     1      12.947  23.342  -0.090  1.00  0.00     0.124 S 
ATOM     87  O   UNL     1      13.181  23.311   1.351  1.00  0.00    -0.237 OA
ATOM     88  O   UNL     1      13.892  22.574  -0.898  1.00  0.00    -0.237 OA
ATOM     89  O   UNL     1      12.592  24.649  -0.638  1.00  0.00    -0.744 OA
ENDBRANCH  85  86
ENDBRANCH  59  80
ENDBRANCH  33  34
ENDBRANCH  25  28
ENDBRANCH  23  24
ENDBRANCH   1  23
TORSDOF 16
