REMARK SMILES O=C(CSc1nnc(Cc2ccncc2)n1-c1ccccc1Cl)NCCCCNC(=O)c1ccc(-c2c3nc(c(-c4ccc(S(=O)(=O)[O-])cc4)c4ccc([nH]4)c(-c4ccc(S(=O)(=O)[O-])cc4)c4nc(c(-c5ccc(S(=O)(=O)[O-])cc5)c5ccc2[nH]5)C=C4)C=C3)cc1
REMARK SMILES IDX 26 1 25 2 24 3 1 4 2 5 3 7 4 8 5 9 6 10 16 11 7 12 8 13
REMARK SMILES IDX 17 14 18 15 22 16 19 17 21 18 23 19 20 20 9 21 10 22 11 23
REMARK SMILES IDX 15 24 12 25 14 26 13 27 27 28 28 29 29 30 30 31 31 33 32 34
REMARK SMILES IDX 33 35 91 36 34 37 90 38 35 39 36 40 37 41 84 42 38 43 89 44
REMARK SMILES IDX 83 45 85 46 39 47 88 48 82 49 81 50 40 52 70 53 51 54 69 55
REMARK SMILES IDX 52 56 55 57 68 58 86 59 53 60 54 61 67 63 87 64 56 65 41 66
REMARK SMILES IDX 42 67 50 68 43 69 49 70 44 71 45 72 46 73 47 74 48 75 71 76
REMARK SMILES IDX 72 77 80 78 73 79 79 80 74 81 75 82 76 83 77 84 78 85 57 86
REMARK SMILES IDX 58 87 66 88 59 89 65 90 60 91 61 92 62 93 63 94 64 95
REMARK H PARENT 24 6 29 32 85 51 55 62
REMARK Flexibility Score: inf
ROOT
ATOM      1  C   UNL     1       2.406  -0.374   3.470  1.00  0.00     0.023 C 
ENDROOT
BRANCH   1   2
ATOM      2  C   UNL     1       2.103   0.699   2.417  1.00  0.00     0.116 C 
BRANCH   2   3
ATOM      3  N   UNL     1       2.670   0.424   1.109  1.00  0.00    -0.355 N 
ATOM      4  O   UNL     1       0.686  -0.198   0.146  1.00  0.00    -0.274 OA
ATOM      5  C   UNL     1       1.883   0.063   0.027  1.00  0.00     0.230 C 
ATOM      6  H   UNL     1       3.644   0.497   0.986  1.00  0.00     0.163 HD
BRANCH   5   7
ATOM      7  C   UNL     1       2.607  -0.151  -1.294  1.00  0.00     0.178 C 
BRANCH   7   8
ATOM      8  S   UNL     1       3.869   1.082  -1.643  1.00  0.00    -0.076 SA
BRANCH   8   9
ATOM      9  C   UNL     1       2.950   2.484  -2.120  1.00  0.00     0.196 A 
ATOM     10  N   UNL     1       1.650   2.561  -2.268  1.00  0.00    -0.123 NA
ATOM     11  N   UNL     1       3.518   3.743  -2.225  1.00  0.00    -0.272 N 
ATOM     12  N   UNL     1       1.327   3.892  -2.410  1.00  0.00    -0.134 NA
ATOM     13  C   UNL     1       2.437   4.611  -2.344  1.00  0.00     0.142 A 
BRANCH  11  14
ATOM     14  C   UNL     1       4.843   4.032  -1.848  1.00  0.00     0.068 A 
ATOM     15  C   UNL     1       5.052   4.495  -0.548  1.00  0.00     0.028 A 
ATOM     16  C   UNL     1       5.929   3.649  -2.652  1.00  0.00     0.065 A 
ATOM     17  C   UNL     1       6.358   4.579  -0.077  1.00  0.00     0.002 A 
ATOM     18  C   UNL     1       7.234   3.815  -2.177  1.00  0.00     0.023 A 
ATOM     19  Cl  UNL     1       5.726   2.994  -4.234  1.00  0.00    -0.082 Cl
ATOM     20  C   UNL     1       7.449   4.282  -0.885  1.00  0.00     0.002 A 
ENDBRANCH  11  14
BRANCH  13  21
ATOM     21  C   UNL     1       2.502   6.115  -2.307  1.00  0.00     0.113 C 
BRANCH  21  22
ATOM     22  C   UNL     1       2.176   6.826  -3.604  1.00  0.00    -0.037 A 
ATOM     23  C   UNL     1       0.953   6.655  -4.257  1.00  0.00     0.024 A 
ATOM     24  C   UNL     1       3.071   7.746  -4.160  1.00  0.00     0.024 A 
ATOM     25  C   UNL     1       0.706   7.372  -5.422  1.00  0.00     0.111 A 
ATOM     26  C   UNL     1       2.757   8.386  -5.352  1.00  0.00     0.111 A 
ATOM     27  N   UNL     1       1.574   8.236  -5.983  1.00  0.00    -0.265 NA
ENDBRANCH  21  22
ENDBRANCH  13  21
ENDBRANCH   8   9
ENDBRANCH   7   8
ENDBRANCH   5   7
ENDBRANCH   2   3
ENDBRANCH   1   2
BRANCH   1  28
ATOM     28  C   UNL     1       3.880  -0.574   3.851  1.00  0.00     0.023 C 
BRANCH  28  29
ATOM     29  C   UNL     1       4.595   0.665   4.380  1.00  0.00     0.116 C 
BRANCH  29  30
ATOM     30  N   UNL     1       4.104   1.127   5.678  1.00  0.00    -0.352 N 
ATOM     31  C   UNL     1       4.568   2.200   6.429  1.00  0.00     0.251 C 
ATOM     32  H   UNL     1       3.355   0.618   6.065  1.00  0.00     0.163 HD
ATOM     33  O   UNL     1       4.371   2.250   7.632  1.00  0.00    -0.269 OA
BRANCH  31  34
ATOM     34  C   UNL     1       5.298   3.289   5.742  1.00  0.00     0.039 A 
ATOM     35  C   UNL     1       6.403   3.925   6.316  1.00  0.00     0.014 A 
ATOM     36  C   UNL     1       4.852   3.674   4.484  1.00  0.00     0.014 A 
ATOM     37  C   UNL     1       7.112   4.870   5.563  1.00  0.00     0.010 A 
ATOM     38  C   UNL     1       5.619   4.506   3.702  1.00  0.00     0.010 A 
ATOM     39  C   UNL     1       6.736   5.138   4.234  1.00  0.00    -0.014 A 
BRANCH  39  40
ATOM     40  C   UNL     1       7.590   5.939   3.346  1.00  0.00     0.031 A 
ATOM     41  C   UNL     1       9.014   5.495   3.308  1.00  0.00     0.074 A 
ATOM     42  C   UNL     1       7.142   6.849   2.445  1.00  0.00     0.049 A 
ATOM     43  N   UNL     1      10.023   6.127   3.803  1.00  0.00    -0.248 NA
ATOM     44  C   UNL     1       9.350   4.153   2.801  1.00  0.00     0.031 C 
ATOM     45  C   UNL     1       5.753   7.208   2.122  1.00  0.00     0.029 A 
ATOM     46  N   UNL     1       7.841   7.526   1.486  1.00  0.00    -0.354 N 
ATOM     47  C   UNL     1      11.152   5.392   3.464  1.00  0.00     0.074 A 
ATOM     48  C   UNL     1      10.668   4.107   3.023  1.00  0.00     0.031 C 
ATOM     49  C   UNL     1       5.705   7.810   0.907  1.00  0.00     0.029 A 
ATOM     50  C   UNL     1       7.063   8.059   0.451  1.00  0.00     0.049 A 
ATOM     51  H   UNL     1       8.819   7.632   1.520  1.00  0.00     0.167 HD
ATOM     52  C   UNL     1      12.370   5.994   3.341  1.00  0.00     0.031 A 
ATOM     53  C   UNL     1       7.512   8.654  -0.691  1.00  0.00     0.031 A 
ATOM     54  C   UNL     1      12.341   7.343   3.859  1.00  0.00     0.049 A 
ATOM     55  C   UNL     1       8.876   9.146  -0.406  1.00  0.00     0.074 A 
ATOM     56  C   UNL     1      12.021   7.914   5.077  1.00  0.00     0.029 A 
ATOM     57  N   UNL     1      12.256   8.361   2.936  1.00  0.00    -0.354 N 
ATOM     58  N   UNL     1       9.110  10.086   0.461  1.00  0.00    -0.248 NA
ATOM     59  C   UNL     1      10.007   8.296  -0.735  1.00  0.00     0.031 C 
ATOM     60  C   UNL     1      11.279   9.088   4.746  1.00  0.00     0.029 A 
ATOM     61  C   UNL     1      11.271   9.218   3.357  1.00  0.00     0.049 A 
ATOM     62  H   UNL     1      12.802   8.456   2.122  1.00  0.00     0.167 HD
ATOM     63  C   UNL     1      10.235   9.650   1.139  1.00  0.00     0.074 A 
ATOM     64  C   UNL     1      10.816   8.617   0.280  1.00  0.00     0.031 C 
ATOM     65  C   UNL     1      10.413   9.957   2.459  1.00  0.00     0.031 A 
BRANCH  52  66
ATOM     66  C   UNL     1      13.454   5.542   2.391  1.00  0.00    -0.014 A 
ATOM     67  C   UNL     1      14.673   6.252   2.375  1.00  0.00     0.010 A 
ATOM     68  C   UNL     1      13.226   4.643   1.329  1.00  0.00     0.010 A 
ATOM     69  C   UNL     1      15.570   6.139   1.305  1.00  0.00     0.020 A 
ATOM     70  C   UNL     1      14.134   4.490   0.279  1.00  0.00     0.020 A 
ATOM     71  C   UNL     1      15.284   5.269   0.255  1.00  0.00     0.054 A 
BRANCH  71  72
ATOM     72  S   UNL     1      16.391   5.213  -1.174  1.00  0.00     0.124 S 
ATOM     73  O   UNL     1      16.214   6.547  -1.739  1.00  0.00    -0.237 OA
ATOM     74  O   UNL     1      17.685   4.954  -0.550  1.00  0.00    -0.237 OA
ATOM     75  O   UNL     1      15.857   4.114  -1.975  1.00  0.00    -0.744 OA
ENDBRANCH  71  72
ENDBRANCH  52  66
BRANCH  53  76
ATOM     76  C   UNL     1       7.026   8.551  -2.093  1.00  0.00    -0.014 A 
ATOM     77  C   UNL     1       7.409   9.457  -3.101  1.00  0.00     0.010 A 
ATOM     78  C   UNL     1       6.460   7.341  -2.512  1.00  0.00     0.010 A 
ATOM     79  C   UNL     1       7.277   9.130  -4.468  1.00  0.00     0.020 A 
ATOM     80  C   UNL     1       6.363   6.988  -3.863  1.00  0.00     0.020 A 
ATOM     81  C   UNL     1       6.781   7.880  -4.839  1.00  0.00     0.054 A 
BRANCH  81  82
ATOM     82  S   UNL     1       6.676   7.413  -6.593  1.00  0.00     0.124 S 
ATOM     83  O   UNL     1       5.816   8.462  -7.131  1.00  0.00    -0.237 OA
ATOM     84  O   UNL     1       8.073   7.455  -7.010  1.00  0.00    -0.237 OA
ATOM     85  O   UNL     1       6.080   6.080  -6.553  1.00  0.00    -0.744 OA
ENDBRANCH  81  82
ENDBRANCH  53  76
BRANCH  65  86
ATOM     86  C   UNL     1       9.493  10.992   3.075  1.00  0.00    -0.014 A 
ATOM     87  C   UNL     1       8.086  10.881   3.115  1.00  0.00     0.010 A 
ATOM     88  C   UNL     1      10.088  12.083   3.728  1.00  0.00     0.010 A 
ATOM     89  C   UNL     1       7.299  11.864   3.735  1.00  0.00     0.020 A 
ATOM     90  C   UNL     1       9.312  13.056   4.365  1.00  0.00     0.020 A 
ATOM     91  C   UNL     1       7.921  12.953   4.348  1.00  0.00     0.054 A 
BRANCH  91  92
ATOM     92  S   UNL     1       6.904  14.235   5.131  1.00  0.00     0.124 S 
ATOM     93  O   UNL     1       6.230  14.846   3.990  1.00  0.00    -0.237 OA
ATOM     94  O   UNL     1       6.047  13.464   6.029  1.00  0.00    -0.237 OA
ATOM     95  O   UNL     1       7.881  15.091   5.803  1.00  0.00    -0.744 OA
ENDBRANCH  91  92
ENDBRANCH  65  86
ENDBRANCH  39  40
ENDBRANCH  31  34
ENDBRANCH  29  30
ENDBRANCH  28  29
ENDBRANCH   1  28
TORSDOF 19
