REMARK SMILES CC1=C(C)C[C@@H](C(=O)NCCCCNC(=O)c2ccc(-c3c4nc(c(-c5ccc(S(=O)(=O)[O-])cc5)c5ccc([nH]5)c(-c5ccc(S(=O)(=O)[O-])cc5)c5nc(c(-c6ccc(S(=O)(=O)[O-])cc6)c6ccc3[nH]6)C=C5)C=C4)cc2)[C@@H](C(=O)N2CCN(c3cccc(C(F)(F)F)c3)CC2)C1
REMARK SMILES IDX 11 1 10 2 9 3 7 4 8 5 6 7 1 8 2 9 3 10 96 11 4 12 5 13 77 14
REMARK SMILES IDX 78 15 79 16 80 17 81 18 95 19 82 20 94 21 83 22 84 23 85 24
REMARK SMILES IDX 93 25 86 26 88 27 87 28 89 29 90 30 91 31 92 32 12 33 13 34
REMARK SMILES IDX 14 35 15 36 16 38 17 39 18 40 76 41 19 42 75 43 20 44 21 45
REMARK SMILES IDX 22 46 69 47 23 48 74 49 68 50 70 51 24 52 73 53 67 54 66 55
REMARK SMILES IDX 25 57 55 58 36 59 54 60 37 61 40 62 53 63 71 64 38 65 39 66
REMARK SMILES IDX 52 68 72 69 41 70 26 71 27 72 35 73 28 74 34 75 29 76 30 77
REMARK SMILES IDX 31 78 32 79 33 80 56 81 57 82 65 83 58 84 64 85 59 86 60 87
REMARK SMILES IDX 61 88 62 89 63 90 42 91 43 92 51 93 44 94 50 95 45 96 46 97
REMARK SMILES IDX 47 98 48 99 49 100
REMARK H PARENT 9 6 14 37 70 56 40 67
REMARK Flexibility Score: inf
ROOT
ATOM      1  C   UNL     1       3.549   1.241   2.331  1.00  0.00     0.023 C 
ENDROOT
BRANCH   1   2
ATOM      2  C   UNL     1       2.663   0.469   3.304  1.00  0.00     0.116 C 
BRANCH   2   3
ATOM      3  N   UNL     1       2.245   1.227   4.460  1.00  0.00    -0.356 N 
ATOM      4  C   UNL     1       1.144   1.974   4.717  1.00  0.00     0.224 C 
ATOM      5  O   UNL     1       1.026   2.409   5.870  1.00  0.00    -0.275 OA
ATOM      6  H   UNL     1       2.886   1.196   5.206  1.00  0.00     0.163 HD
BRANCH   4   7
ATOM      7  C   UNL     1       0.030   2.264   3.706  1.00  0.00     0.095 C 
ATOM      8  C   UNL     1       0.503   0.425  -0.283  1.00  0.00     0.039 C 
ATOM      9  C   UNL     1       0.087   1.032   1.036  1.00  0.00    -0.074 C 
ATOM     10  C   UNL     1      -0.512   0.361   2.042  1.00  0.00    -0.074 C 
ATOM     11  C   UNL     1       0.466   2.494   1.151  1.00  0.00     0.045 C 
ATOM     12  C   UNL     1      -0.887  -1.101   2.027  1.00  0.00     0.039 C 
ATOM     13  C   UNL     1      -0.806   1.027   3.366  1.00  0.00     0.045 C 
ATOM     14  C   UNL     1       0.305   3.195   2.519  1.00  0.00     0.095 C 
BRANCH  14  15
ATOM     15  C   UNL     1       1.475   4.173   2.717  1.00  0.00     0.226 C 
ATOM     16  O   UNL     1       2.440   3.975   3.446  1.00  0.00    -0.275 OA
ATOM     17  N   UNL     1       1.448   5.265   1.863  1.00  0.00    -0.339 N 
ATOM     18  C   UNL     1       2.718   5.669   1.250  1.00  0.00     0.141 C 
ATOM     19  C   UNL     1       0.584   6.388   2.225  1.00  0.00     0.141 C 
ATOM     20  C   UNL     1       2.483   6.549   0.011  1.00  0.00     0.138 C 
ATOM     21  C   UNL     1       0.339   7.342   1.048  1.00  0.00     0.138 C 
ATOM     22  N   UNL     1       1.589   7.662   0.354  1.00  0.00    -0.368 N 
BRANCH  22  23
ATOM     23  C   UNL     1       1.998   8.957   0.144  1.00  0.00     0.037 A 
ATOM     24  C   UNL     1       2.310   9.405  -1.145  1.00  0.00     0.026 A 
ATOM     25  C   UNL     1       2.143   9.855   1.207  1.00  0.00     0.039 A 
ATOM     26  C   UNL     1       2.736  10.714  -1.374  1.00  0.00     0.003 A 
ATOM     27  C   UNL     1       2.599  11.168   1.002  1.00  0.00     0.058 A 
ATOM     28  C   UNL     1       2.882  11.592  -0.304  1.00  0.00     0.013 A 
BRANCH  27  29
ATOM     29  C   UNL     1       2.793  12.112   2.160  1.00  0.00     0.416 C 
ATOM     30  F   UNL     1       4.047  12.640   2.204  1.00  0.00    -0.166 F 
ATOM     31  F   UNL     1       1.944  13.177   2.104  1.00  0.00    -0.166 F 
ATOM     32  F   UNL     1       2.584  11.538   3.378  1.00  0.00    -0.166 F 
ENDBRANCH  27  29
ENDBRANCH  22  23
ENDBRANCH  14  15
ENDBRANCH   4   7
ENDBRANCH   2   3
ENDBRANCH   1   2
BRANCH   1  33
ATOM     33  C   UNL     1       4.943   1.576   2.851  1.00  0.00     0.023 C 
BRANCH  33  34
ATOM     34  C   UNL     1       5.756   0.362   3.266  1.00  0.00     0.116 C 
BRANCH  34  35
ATOM     35  N   UNL     1       5.843  -0.653   2.223  1.00  0.00    -0.352 N 
ATOM     36  C   UNL     1       6.852  -1.560   2.009  1.00  0.00     0.251 C 
ATOM     37  H   UNL     1       5.086  -0.692   1.595  1.00  0.00     0.163 HD
ATOM     38  O   UNL     1       6.842  -2.289   1.027  1.00  0.00    -0.269 OA
BRANCH  36  39
ATOM     39  C   UNL     1       7.967  -1.598   2.972  1.00  0.00     0.039 A 
ATOM     40  C   UNL     1       9.273  -1.471   2.497  1.00  0.00     0.014 A 
ATOM     41  C   UNL     1       7.705  -1.671   4.342  1.00  0.00     0.014 A 
ATOM     42  C   UNL     1      10.320  -1.353   3.409  1.00  0.00     0.010 A 
ATOM     43  C   UNL     1       8.737  -1.470   5.246  1.00  0.00     0.010 A 
ATOM     44  C   UNL     1      10.054  -1.317   4.788  1.00  0.00    -0.014 A 
BRANCH  44  45
ATOM     45  C   UNL     1      11.141  -1.136   5.777  1.00  0.00     0.031 A 
ATOM     46  C   UNL     1      11.442  -2.232   6.759  1.00  0.00     0.074 A 
ATOM     47  C   UNL     1      11.790   0.042   5.843  1.00  0.00     0.049 A 
ATOM     48  N   UNL     1      12.300  -2.242   7.745  1.00  0.00    -0.248 NA
ATOM     49  C   UNL     1      10.647  -3.465   6.640  1.00  0.00     0.031 C 
ATOM     50  C   UNL     1      11.533   1.204   4.988  1.00  0.00     0.029 A 
ATOM     51  N   UNL     1      12.791   0.462   6.681  1.00  0.00    -0.354 N 
ATOM     52  C   UNL     1      12.128  -3.466   8.379  1.00  0.00     0.074 A 
ATOM     53  C   UNL     1      11.049  -4.149   7.699  1.00  0.00     0.031 C 
ATOM     54  C   UNL     1      12.366   2.198   5.335  1.00  0.00     0.029 A 
ATOM     55  C   UNL     1      13.194   1.756   6.452  1.00  0.00     0.049 A 
ATOM     56  H   UNL     1      13.184  -0.109   7.380  1.00  0.00     0.167 HD
ATOM     57  C   UNL     1      12.820  -3.986   9.420  1.00  0.00     0.031 A 
ATOM     58  C   UNL     1      14.124   2.503   7.076  1.00  0.00     0.031 A 
ATOM     59  C   UNL     1      13.904  -3.308  10.076  1.00  0.00     0.049 A 
ATOM     60  C   UNL     1      14.915   1.892   8.198  1.00  0.00     0.074 A 
ATOM     61  C   UNL     1      14.721  -3.769  11.093  1.00  0.00     0.029 A 
ATOM     62  N   UNL     1      14.322  -2.019   9.778  1.00  0.00    -0.354 N 
ATOM     63  N   UNL     1      14.798   0.699   8.732  1.00  0.00    -0.248 NA
ATOM     64  C   UNL     1      15.975   2.719   8.790  1.00  0.00     0.031 C 
ATOM     65  C   UNL     1      15.611  -2.744  11.434  1.00  0.00     0.029 A 
ATOM     66  C   UNL     1      15.377  -1.661  10.599  1.00  0.00     0.049 A 
ATOM     67  H   UNL     1      13.927  -1.443   9.084  1.00  0.00     0.167 HD
ATOM     68  C   UNL     1      15.780   0.624   9.712  1.00  0.00     0.074 A 
ATOM     69  C   UNL     1      16.493   1.887   9.685  1.00  0.00     0.031 C 
ATOM     70  C   UNL     1      16.067  -0.396  10.558  1.00  0.00     0.031 A 
BRANCH  57  71
ATOM     71  C   UNL     1      12.409  -5.351   9.902  1.00  0.00    -0.014 A 
ATOM     72  C   UNL     1      12.630  -6.496   9.113  1.00  0.00     0.010 A 
ATOM     73  C   UNL     1      11.780  -5.493  11.151  1.00  0.00     0.010 A 
ATOM     74  C   UNL     1      12.172  -7.746   9.535  1.00  0.00     0.020 A 
ATOM     75  C   UNL     1      11.346  -6.747  11.591  1.00  0.00     0.020 A 
ATOM     76  C   UNL     1      11.521  -7.862  10.767  1.00  0.00     0.054 A 
BRANCH  76  77
ATOM     77  S   UNL     1      10.921  -9.492  11.286  1.00  0.00     0.124 S 
ATOM     78  O   UNL     1       9.715  -9.640  10.475  1.00  0.00    -0.237 OA
ATOM     79  O   UNL     1      12.029 -10.374  10.928  1.00  0.00    -0.237 OA
ATOM     80  O   UNL     1      10.693  -9.336  12.720  1.00  0.00    -0.744 OA
ENDBRANCH  76  77
ENDBRANCH  57  71
BRANCH  58  81
ATOM     81  C   UNL     1      14.369   3.898   6.623  1.00  0.00    -0.014 A 
ATOM     82  C   UNL     1      15.513   4.213   5.871  1.00  0.00     0.010 A 
ATOM     83  C   UNL     1      13.428   4.908   6.895  1.00  0.00     0.010 A 
ATOM     84  C   UNL     1      15.716   5.514   5.402  1.00  0.00     0.020 A 
ATOM     85  C   UNL     1      13.616   6.205   6.409  1.00  0.00     0.020 A 
ATOM     86  C   UNL     1      14.763   6.502   5.669  1.00  0.00     0.054 A 
BRANCH  86  87
ATOM     87  S   UNL     1      15.005   8.163   4.979  1.00  0.00     0.124 S 
ATOM     88  O   UNL     1      16.032   8.711   5.859  1.00  0.00    -0.237 OA
ATOM     89  O   UNL     1      15.430   7.879   3.610  1.00  0.00    -0.237 OA
ATOM     90  O   UNL     1      13.684   8.777   5.097  1.00  0.00    -0.744 OA
ENDBRANCH  86  87
ENDBRANCH  58  81
BRANCH  70  91
ATOM     91  C   UNL     1      17.212  -0.198  11.511  1.00  0.00    -0.014 A 
ATOM     92  C   UNL     1      17.083   0.634  12.636  1.00  0.00     0.010 A 
ATOM     93  C   UNL     1      18.413  -0.902  11.309  1.00  0.00     0.010 A 
ATOM     94  C   UNL     1      18.146   0.780  13.530  1.00  0.00     0.020 A 
ATOM     95  C   UNL     1      19.470  -0.777  12.213  1.00  0.00     0.020 A 
ATOM     96  C   UNL     1      19.334   0.074  13.312  1.00  0.00     0.054 A 
BRANCH  96  97
ATOM     97  S   UNL     1      20.684   0.241  14.512  1.00  0.00     0.124 S 
ATOM     98  O   UNL     1      21.233   1.550  14.170  1.00  0.00    -0.237 OA
ATOM     99  O   UNL     1      19.988   0.166  15.794  1.00  0.00    -0.237 OA
ATOM    100  O   UNL     1      21.552  -0.897  14.215  1.00  0.00    -0.744 OA
ENDBRANCH  96  97
ENDBRANCH  70  91
ENDBRANCH  44  45
ENDBRANCH  36  39
ENDBRANCH  34  35
ENDBRANCH  33  34
ENDBRANCH   1  33
TORSDOF 17
