REMARK SMILES O=C(NCCCCNC(=O)c1ccc(-c2c3nc(c(-c4ccc(S(=O)(=O)[O-])cc4)c4ccc([nH]4)c(-c4ccc(S(=O)(=O)[O-])cc4)c4nc(c(-c5ccc(S(=O)(=O)[O-])cc5)c5ccc2[nH]5)C=C4)C=C3)cc1)C1=Cc2cc(S(F)(F)(F)(F)F)cc(Br)c2O[C@H]1C(F)(F)F
REMARK SMILES IDX 6 1 5 2 4 3 3 4 1 5 2 6 71 8 72 9 87 10 73 11 86 12 74 13
REMARK SMILES IDX 85 14 75 15 83 16 82 17 84 18 88 19 89 20 90 21 91 22 76 23
REMARK SMILES IDX 77 24 78 25 79 26 80 27 81 28 7 29 8 30 9 31 10 33 11 34
REMARK SMILES IDX 12 35 70 36 13 37 69 38 14 39 15 40 16 41 63 42 17 43 68 44
REMARK SMILES IDX 62 45 64 46 18 47 67 48 61 49 60 50 19 52 49 53 30 54 48 55
REMARK SMILES IDX 31 56 34 57 47 58 65 59 32 60 33 61 46 63 66 64 35 65 20 66
REMARK SMILES IDX 21 67 29 68 22 69 28 70 23 71 24 72 25 73 26 74 27 75 50 76
REMARK SMILES IDX 51 77 59 78 52 79 58 80 53 81 54 82 55 83 56 84 57 85 36 86
REMARK SMILES IDX 37 87 45 88 38 89 44 90 39 91 40 92 41 93 42 94 43 95
REMARK H PARENT 3 7 8 32 64 51 34 62
REMARK Flexibility Score: inf
ROOT
ATOM      1  C   UNL     1       4.426   0.866   3.584  1.00  0.00     0.023 C 
ENDROOT
BRANCH   1   2
ATOM      2  C   UNL     1       4.932   0.996   2.157  1.00  0.00     0.023 C 
BRANCH   2   3
ATOM      3  C   UNL     1       4.426  -0.175   1.331  1.00  0.00     0.116 C 
BRANCH   3   4
ATOM      4  N   UNL     1       2.955  -0.175   1.331  1.00  0.00    -0.352 N 
ATOM      5  O   UNL     1       0.950  -0.059   0.063  1.00  0.00    -0.270 OA
ATOM      6  C   UNL     1       2.220  -0.059   0.063  1.00  0.00     0.251 C 
ATOM      7  H   UNL     1       2.463  -0.252   2.180  1.00  0.00     0.163 HD
BRANCH   6   8
ATOM      8  C   UNL     1       2.981   0.060  -1.248  1.00  0.00     0.067 C 
ATOM      9  C   UNL     1       4.341   0.060  -1.248  1.00  0.00     0.025 C 
ATOM     10  C   UNL     1       2.220   0.180  -2.559  1.00  0.00     0.314 C 
ATOM     11  C   UNL     1       5.101  -0.059   0.063  1.00  0.00     0.020 A 
ATOM     12  O   UNL     1       3.512  -1.685   0.757  1.00  0.00    -0.474 OA
ATOM     13  C   UNL     1       6.184   0.772   0.298  1.00  0.00     0.036 A 
ATOM     14  C   UNL     1       4.718  -0.962   0.958  1.00  0.00     0.142 A 
ATOM     15  C   UNL     1       6.984   0.374   1.396  1.00  0.00     0.109 A 
ATOM     16  C   UNL     1       5.478  -1.204   2.077  1.00  0.00     0.062 A 
ATOM     17  C   UNL     1       6.595  -0.461   2.342  1.00  0.00     0.044 A 
ATOM     18  Br  UNL     1       4.955  -2.635   3.309  1.00  0.00    -0.047 Br
BRANCH  10  19
ATOM     19  C   UNL     1       0.726   0.155  -2.282  1.00  0.00     0.429 C 
ATOM     20  F   UNL     1       0.478   0.770  -1.129  1.00  0.00    -0.167 F 
ATOM     21  F   UNL     1       0.083   0.779  -3.265  1.00  0.00    -0.167 F 
ATOM     22  F   UNL     1       0.310  -1.106  -2.211  1.00  0.00    -0.167 F 
ENDBRANCH  10  19
BRANCH  15  23
ATOM     23  S   UNL     1       8.656   1.056   1.510  1.00  0.00     0.310 S 
ATOM     24  F   UNL     1       8.614   1.060   3.095  1.00  0.00    -0.094 F 
ATOM     25  F   UNL     1       8.032   2.502   1.557  1.00  0.00    -0.094 F 
ATOM     26  F   UNL     1      10.093   1.643   1.608  1.00  0.00    -0.094 F 
ATOM     27  F   UNL     1       9.255  -0.403   1.602  1.00  0.00    -0.094 F 
ATOM     28  F   UNL     1       7.199   0.443   1.524  1.00  0.00    -0.094 F 
ENDBRANCH  15  23
ENDBRANCH   6   8
ENDBRANCH   3   4
ENDBRANCH   2   3
ENDBRANCH   1   2
BRANCH   1  29
ATOM     29  C   UNL     1       4.932  -0.435   4.185  1.00  0.00     0.116 C 
BRANCH  29  30
ATOM     30  N   UNL     1       6.402  -0.435   4.185  1.00  0.00    -0.352 N 
ATOM     31  C   UNL     1       7.137  -0.551   5.453  1.00  0.00     0.251 C 
ATOM     32  H   UNL     1       6.894  -0.358   3.336  1.00  0.00     0.163 HD
ATOM     33  O   UNL     1       8.408  -0.551   5.453  1.00  0.00    -0.269 OA
BRANCH  31  34
ATOM     34  C   UNL     1       6.377  -0.670   6.764  1.00  0.00     0.039 A 
ATOM     35  C   UNL     1       6.780   0.082   7.855  1.00  0.00     0.014 A 
ATOM     36  C   UNL     1       5.343  -1.500   6.843  1.00  0.00     0.014 A 
ATOM     37  C   UNL     1       6.202  -0.328   9.079  1.00  0.00     0.010 A 
ATOM     38  C   UNL     1       4.739  -1.750   8.051  1.00  0.00     0.010 A 
ATOM     39  C   UNL     1       5.125  -1.086   9.182  1.00  0.00    -0.014 A 
BRANCH  39  40
ATOM     40  C   UNL     1       4.358  -1.214  10.488  1.00  0.00     0.031 A 
ATOM     41  C   UNL     1       4.240  -2.483  11.057  1.00  0.00     0.074 A 
ATOM     42  C   UNL     1       3.825  -0.064  11.044  1.00  0.00     0.049 A 
ATOM     43  N   UNL     1       3.649  -2.807  12.208  1.00  0.00    -0.248 NA
ATOM     44  C   UNL     1       4.776  -3.711  10.451  1.00  0.00     0.031 C 
ATOM     45  C   UNL     1       3.947   1.222  10.480  1.00  0.00     0.029 A 
ATOM     46  N   UNL     1       3.098   0.054  12.208  1.00  0.00    -0.354 N 
ATOM     47  C   UNL     1       3.756  -4.119  12.428  1.00  0.00     0.074 A 
ATOM     48  C   UNL     1       4.477  -4.720  11.298  1.00  0.00     0.031 C 
ATOM     49  C   UNL     1       3.294   2.099  11.287  1.00  0.00     0.029 A 
ATOM     50  C   UNL     1       2.753   1.378  12.368  1.00  0.00     0.049 A 
ATOM     51  H   UNL     1       2.866  -0.681  12.821  1.00  0.00     0.167 HD
ATOM     52  C   UNL     1       3.282  -4.836  13.528  1.00  0.00     0.031 A 
ATOM     53  C   UNL     1       2.009   1.944  13.391  1.00  0.00     0.031 A 
ATOM     54  C   UNL     1       2.575  -4.264  14.573  1.00  0.00     0.049 A 
ATOM     55  C   UNL     1       1.484   1.216  14.462  1.00  0.00     0.074 A 
ATOM     56  C   UNL     1       2.096  -4.972  15.692  1.00  0.00     0.029 A 
ATOM     57  N   UNL     1       2.208  -2.944  14.720  1.00  0.00    -0.354 N 
ATOM     58  N   UNL     1       1.625  -0.089  14.702  1.00  0.00    -0.248 NA
ATOM     59  C   UNL     1       0.667   1.798  15.534  1.00  0.00     0.031 C 
ATOM     60  C   UNL     1       1.443  -4.093  16.499  1.00  0.00     0.029 A 
ATOM     61  C   UNL     1       1.502  -2.822  15.896  1.00  0.00     0.049 A 
ATOM     62  H   UNL     1       2.416  -2.214  14.093  1.00  0.00     0.167 HD
ATOM     63  C   UNL     1       0.998  -0.419  15.832  1.00  0.00     0.074 A 
ATOM     64  C   UNL     1       0.366   0.789  16.380  1.00  0.00     0.031 C 
ATOM     65  C   UNL     1       0.930  -1.678  16.431  1.00  0.00     0.031 A 
BRANCH  52  66
ATOM     66  C   UNL     1       3.558  -6.330  13.582  1.00  0.00    -0.014 A 
ATOM     67  C   UNL     1       4.859  -6.803  13.609  1.00  0.00     0.010 A 
ATOM     68  C   UNL     1       2.522  -7.160  13.625  1.00  0.00     0.010 A 
ATOM     69  C   UNL     1       4.967  -8.197  13.391  1.00  0.00     0.020 A 
ATOM     70  C   UNL     1       2.711  -8.519  13.543  1.00  0.00     0.020 A 
ATOM     71  C   UNL     1       3.969  -9.053  13.508  1.00  0.00     0.054 A 
BRANCH  71  72
ATOM     72  S   UNL     1       4.250 -10.838  13.614  1.00  0.00     0.124 S 
ATOM     73  O   UNL     1       4.969 -11.318  12.351  1.00  0.00    -0.237 OA
ATOM     74  O   UNL     1       5.113 -11.146  14.840  1.00  0.00    -0.237 OA
ATOM     75  O   UNL     1       2.749 -11.644  13.757  1.00  0.00    -0.744 OA
ENDBRANCH  71  72
ENDBRANCH  52  66
BRANCH  53  76
ATOM     76  C   UNL     1       1.748   3.440  13.345  1.00  0.00    -0.014 A 
ATOM     77  C   UNL     1       2.194   4.271  14.360  1.00  0.00     0.010 A 
ATOM     78  C   UNL     1       1.093   3.925  12.296  1.00  0.00     0.010 A 
ATOM     79  C   UNL     1       1.644   5.574  14.318  1.00  0.00     0.020 A 
ATOM     80  C   UNL     1       0.704   5.242  12.262  1.00  0.00     0.020 A 
ATOM     81  C   UNL     1       1.060   6.106  13.260  1.00  0.00     0.054 A 
BRANCH  81  82
ATOM     82  S   UNL     1       0.746   7.885  13.138  1.00  0.00     0.124 S 
ATOM     83  O   UNL     1      -0.161   8.323  14.290  1.00  0.00    -0.237 OA
ATOM     84  O   UNL     1       2.073   8.643  13.217  1.00  0.00    -0.237 OA
ATOM     85  O   UNL     1      -0.019   8.228  11.648  1.00  0.00    -0.744 OA
ENDBRANCH  81  82
ENDBRANCH  53  76
BRANCH  65  86
ATOM     86  C   UNL     1       0.185  -1.802  17.750  1.00  0.00    -0.014 A 
ATOM     87  C   UNL     1      -1.156  -1.460  17.808  1.00  0.00     0.010 A 
ATOM     88  C   UNL     1       0.833  -2.231  18.826  1.00  0.00     0.010 A 
ATOM     89  C   UNL     1      -1.657  -1.327  19.124  1.00  0.00     0.020 A 
ATOM     90  C   UNL     1       0.234  -2.200  20.062  1.00  0.00     0.020 A 
ATOM     91  C   UNL     1      -1.071  -1.815  20.202  1.00  0.00     0.054 A 
BRANCH  91  92
ATOM     92  S   UNL     1      -1.946  -1.968  21.779  1.00  0.00     0.124 S 
ATOM     93  O   UNL     1      -2.414  -0.585  22.238  1.00  0.00    -0.237 OA
ATOM     94  O   UNL     1      -3.159  -2.884  21.602  1.00  0.00    -0.237 OA
ATOM     95  O   UNL     1      -0.895  -2.633  22.952  1.00  0.00    -0.744 OA
ENDBRANCH  91  92
ENDBRANCH  65  86
ENDBRANCH  39  40
ENDBRANCH  31  34
ENDBRANCH  29  30
ENDBRANCH   1  29
TORSDOF 16
