REMARK SMILES O=C(CN1C(=O)/C(=C2/Sc3ccccc3N2CCCS(=O)(=O)[O-])SC1=S)NCCCCNC(=O)c1ccc(-c2c3nc(c(-c4ccc(S(=O)(=O)[O-])cc4)c4ccc([nH]4)c(-c4ccc(S(=O)(=O)[O-])cc4)c4nc(c(-c5ccc(S(=O)(=O)[O-])cc5)c5ccc2[nH]5)C=C4)C=C3)cc1
REMARK SMILES IDX 28 1 27 2 1 3 2 4 3 6 4 7 5 8 25 9 6 10 7 11 24 12 26 13
REMARK SMILES IDX 8 14 9 15 16 16 10 17 15 18 11 19 14 20 12 21 13 22 17 23
REMARK SMILES IDX 18 24 19 25 20 26 21 27 22 28 23 29 29 30 30 31 31 32 32 33
REMARK SMILES IDX 33 34 34 36 35 37 36 38 94 39 37 40 93 41 38 42 39 43 40 44
REMARK SMILES IDX 87 45 41 46 92 47 86 48 88 49 42 50 91 51 85 52 84 53 43 55
REMARK SMILES IDX 73 56 54 57 72 58 55 59 58 60 71 61 89 62 56 63 57 64 70 66
REMARK SMILES IDX 90 67 59 68 44 69 45 70 53 71 46 72 52 73 47 74 48 75 49 76
REMARK SMILES IDX 50 77 51 78 74 79 75 80 83 81 76 82 82 83 77 84 78 85 79 86
REMARK SMILES IDX 80 87 81 88 60 89 61 90 69 91 62 92 68 93 63 94 64 95 65 96
REMARK SMILES IDX 66 97 67 98
REMARK H PARENT 27 5 32 35 88 54 58 65
REMARK Flexibility Score: inf
ROOT
ATOM      1  C   UNL     1       2.044   0.367   2.078  1.00  0.00     0.116 C 
ENDROOT
BRANCH   1   2
ATOM      2  N   UNL     1       2.867  -0.257   1.008  1.00  0.00    -0.355 N 
ATOM      3  O   UNL     1       1.284   0.049  -0.632  1.00  0.00    -0.273 OA
ATOM      4  C   UNL     1       2.418  -0.333  -0.328  1.00  0.00     0.240 C 
ATOM      5  H   UNL     1       3.750  -0.627   1.238  1.00  0.00     0.163 HD
BRANCH   4   6
ATOM      6  C   UNL     1       3.398  -0.874  -1.453  1.00  0.00     0.227 C 
BRANCH   6   7
ATOM      7  N   UNL     1       3.395  -0.090  -2.749  1.00  0.00    -0.283 N 
ATOM      8  C   UNL     1       4.047   1.111  -2.849  1.00  0.00     0.269 C 
ATOM      9  C   UNL     1       3.189  -0.584  -4.014  1.00  0.00     0.148 C 
ATOM     10  O   UNL     1       5.083   1.365  -2.257  1.00  0.00    -0.268 OA
ATOM     11  C   UNL     1       3.567   1.938  -3.983  1.00  0.00     0.111 C 
ATOM     12  S   UNL     1       3.261   0.743  -5.213  1.00  0.00    -0.052 SA
ATOM     13  S   UNL     1       2.997  -2.172  -4.484  1.00  0.00    -0.052 S 
ATOM     14  C   UNL     1       3.290   3.273  -4.022  1.00  0.00     0.100 C 
ATOM     15  S   UNL     1       2.912   4.014  -5.654  1.00  0.00    -0.068 SA
ATOM     16  N   UNL     1       3.180   4.258  -2.999  1.00  0.00    -0.334 N 
ATOM     17  C   UNL     1       2.574   5.581  -4.872  1.00  0.00     0.037 A 
ATOM     18  C   UNL     1       2.648   5.492  -3.478  1.00  0.00     0.056 A 
ATOM     19  C   UNL     1       2.289   6.789  -5.497  1.00  0.00     0.017 A 
ATOM     20  C   UNL     1       2.251   6.586  -2.701  1.00  0.00     0.027 A 
ATOM     21  C   UNL     1       1.975   7.904  -4.711  1.00  0.00     0.001 A 
ATOM     22  C   UNL     1       1.916   7.792  -3.320  1.00  0.00     0.002 A 
BRANCH  16  23
ATOM     23  C   UNL     1       3.977   4.435  -1.789  1.00  0.00     0.124 C 
BRANCH  23  24
ATOM     24  C   UNL     1       3.214   4.016  -0.550  1.00  0.00     0.037 C 
BRANCH  24  25
ATOM     25  C   UNL     1       3.513   2.601  -0.183  1.00  0.00     0.124 C 
BRANCH  25  26
ATOM     26  S   UNL     1       5.141   2.250   0.490  1.00  0.00     0.095 S 
ATOM     27  O   UNL     1       5.328   3.076   1.639  1.00  0.00    -0.243 OA
ATOM     28  O   UNL     1       5.351   0.812   0.559  1.00  0.00    -0.243 OA
ATOM     29  O   UNL     1       6.161   2.864  -0.581  1.00  0.00    -0.748 OA
ENDBRANCH  25  26
ENDBRANCH  24  25
ENDBRANCH  23  24
ENDBRANCH  16  23
ENDBRANCH   6   7
ENDBRANCH   4   6
ENDBRANCH   1   2
BRANCH   1  30
ATOM     30  C   UNL     1       2.470   0.331   3.572  1.00  0.00     0.023 C 
BRANCH  30  31
ATOM     31  C   UNL     1       3.780   0.968   4.086  1.00  0.00     0.023 C 
BRANCH  31  32
ATOM     32  C   UNL     1       4.021   2.475   3.924  1.00  0.00     0.116 C 
BRANCH  32  33
ATOM     33  N   UNL     1       3.705   3.400   5.002  1.00  0.00    -0.352 N 
ATOM     34  C   UNL     1       4.498   4.406   5.548  1.00  0.00     0.251 C 
ATOM     35  H   UNL     1       2.809   3.302   5.398  1.00  0.00     0.163 HD
ATOM     36  O   UNL     1       3.970   5.257   6.263  1.00  0.00    -0.269 OA
BRANCH  34  37
ATOM     37  C   UNL     1       5.984   4.438   5.385  1.00  0.00     0.039 A 
ATOM     38  C   UNL     1       6.630   4.428   4.150  1.00  0.00     0.014 A 
ATOM     39  C   UNL     1       6.770   4.508   6.541  1.00  0.00     0.014 A 
ATOM     40  C   UNL     1       8.022   4.258   4.070  1.00  0.00     0.010 A 
ATOM     41  C   UNL     1       8.169   4.420   6.462  1.00  0.00     0.010 A 
ATOM     42  C   UNL     1       8.810   4.217   5.230  1.00  0.00    -0.014 A 
BRANCH  42  43
ATOM     43  C   UNL     1      10.277   3.923   5.169  1.00  0.00     0.031 A 
ATOM     44  C   UNL     1      10.837   2.676   5.818  1.00  0.00     0.074 A 
ATOM     45  C   UNL     1      11.124   4.757   4.530  1.00  0.00     0.049 A 
ATOM     46  N   UNL     1      12.078   2.257   5.875  1.00  0.00    -0.248 NA
ATOM     47  C   UNL     1       9.881   1.785   6.496  1.00  0.00     0.031 C 
ATOM     48  C   UNL     1      10.730   5.984   3.841  1.00  0.00     0.029 A 
ATOM     49  N   UNL     1      12.487   4.695   4.345  1.00  0.00    -0.354 N 
ATOM     50  C   UNL     1      12.054   1.077   6.613  1.00  0.00     0.074 A 
ATOM     51  C   UNL     1      10.681   0.861   7.011  1.00  0.00     0.031 C 
ATOM     52  C   UNL     1      11.814   6.535   3.272  1.00  0.00     0.029 A 
ATOM     53  C   UNL     1      12.995   5.740   3.606  1.00  0.00     0.049 A 
ATOM     54  H   UNL     1      13.047   3.971   4.708  1.00  0.00     0.167 HD
ATOM     55  C   UNL     1      13.076   0.242   6.922  1.00  0.00     0.031 A 
ATOM     56  C   UNL     1      14.260   6.040   3.238  1.00  0.00     0.031 A 
ATOM     57  C   UNL     1      14.442   0.444   6.504  1.00  0.00     0.049 A 
ATOM     58  C   UNL     1      15.389   5.125   3.628  1.00  0.00     0.074 A 
ATOM     59  C   UNL     1      15.529  -0.387   6.718  1.00  0.00     0.029 A 
ATOM     60  N   UNL     1      14.915   1.543   5.804  1.00  0.00    -0.354 N 
ATOM     61  N   UNL     1      15.336   3.990   4.281  1.00  0.00    -0.248 NA
ATOM     62  C   UNL     1      16.747   5.525   3.228  1.00  0.00     0.031 C 
ATOM     63  C   UNL     1      16.671   0.253   6.235  1.00  0.00     0.029 A 
ATOM     64  C   UNL     1      16.285   1.436   5.625  1.00  0.00     0.049 A 
ATOM     65  H   UNL     1      14.359   2.290   5.482  1.00  0.00     0.167 HD
ATOM     66  C   UNL     1      16.647   3.529   4.354  1.00  0.00     0.074 A 
ATOM     67  C   UNL     1      17.470   4.499   3.663  1.00  0.00     0.031 C 
ATOM     68  C   UNL     1      17.116   2.401   4.942  1.00  0.00     0.031 A 
BRANCH  55  69
ATOM     69  C   UNL     1      12.787  -0.982   7.762  1.00  0.00    -0.014 A 
ATOM     70  C   UNL     1      13.391  -1.112   9.029  1.00  0.00     0.010 A 
ATOM     71  C   UNL     1      12.034  -2.058   7.258  1.00  0.00     0.010 A 
ATOM     72  C   UNL     1      13.279  -2.300   9.757  1.00  0.00     0.020 A 
ATOM     73  C   UNL     1      11.889  -3.236   8.000  1.00  0.00     0.020 A 
ATOM     74  C   UNL     1      12.534  -3.358   9.234  1.00  0.00     0.054 A 
BRANCH  74  75
ATOM     75  S   UNL     1      12.423  -4.902  10.181  1.00  0.00     0.124 S 
ATOM     76  O   UNL     1      13.757  -5.468  10.009  1.00  0.00    -0.237 OA
ATOM     77  O   UNL     1      12.105  -4.428  11.526  1.00  0.00    -0.237 OA
ATOM     78  O   UNL     1      11.344  -5.633   9.519  1.00  0.00    -0.744 OA
ENDBRANCH  74  75
ENDBRANCH  55  69
BRANCH  56  79
ATOM     79  C   UNL     1      14.493   7.252   2.400  1.00  0.00    -0.014 A 
ATOM     80  C   UNL     1      14.237   8.539   2.913  1.00  0.00     0.010 A 
ATOM     81  C   UNL     1      14.843   7.117   1.045  1.00  0.00     0.010 A 
ATOM     82  C   UNL     1      14.228   9.651   2.068  1.00  0.00     0.020 A 
ATOM     83  C   UNL     1      14.871   8.234   0.203  1.00  0.00     0.020 A 
ATOM     84  C   UNL     1      14.519   9.486   0.712  1.00  0.00     0.054 A 
BRANCH  84  85
ATOM     85  S   UNL     1      14.363  10.919  -0.390  1.00  0.00     0.124 S 
ATOM     86  O   UNL     1      12.915  11.111  -0.426  1.00  0.00    -0.237 OA
ATOM     87  O   UNL     1      15.117  11.949   0.320  1.00  0.00    -0.237 OA
ATOM     88  O   UNL     1      14.962  10.460  -1.640  1.00  0.00    -0.744 OA
ENDBRANCH  84  85
ENDBRANCH  56  79
BRANCH  68  89
ATOM     89  C   UNL     1      18.599   2.115   4.890  1.00  0.00    -0.014 A 
ATOM     90  C   UNL     1      19.066   0.969   4.217  1.00  0.00     0.010 A 
ATOM     91  C   UNL     1      19.511   2.883   5.636  1.00  0.00     0.010 A 
ATOM     92  C   UNL     1      20.398   0.565   4.336  1.00  0.00     0.020 A 
ATOM     93  C   UNL     1      20.854   2.503   5.727  1.00  0.00     0.020 A 
ATOM     94  C   UNL     1      21.282   1.328   5.103  1.00  0.00     0.054 A 
BRANCH  94  95
ATOM     95  S   UNL     1      22.990   0.750   5.298  1.00  0.00     0.124 S 
ATOM     96  O   UNL     1      22.829  -0.397   6.187  1.00  0.00    -0.237 OA
ATOM     97  O   UNL     1      23.379   0.433   3.926  1.00  0.00    -0.237 OA
ATOM     98  O   UNL     1      23.678   1.900   5.883  1.00  0.00    -0.744 OA
ENDBRANCH  94  95
ENDBRANCH  68  89
ENDBRANCH  42  43
ENDBRANCH  34  37
ENDBRANCH  32  33
ENDBRANCH  31  32
ENDBRANCH  30  31
ENDBRANCH   1  30
TORSDOF 19
