REMARK SMILES C=CCSc1ccccc1C(=O)NCCCCNC(=O)c1ccc(-c2c3nc(c(-c4ccc(S(=O)(=O)[O-])cc4)c4ccc([nH]4)c(-c4ccc(S(=O)(=O)[O-])cc4)c4nc(c(-c5ccc(S(=O)(=O)[O-])cc5)c5ccc2[nH]5)C=C4)C=C3)cc1
REMARK SMILES IDX 15 1 14 2 13 3 11 4 12 5 10 7 5 8 6 9 7 10 9 11 8 12 4 13
REMARK SMILES IDX 3 14 2 15 1 16 16 17 17 18 18 19 19 20 20 22 21 23 22 24
REMARK SMILES IDX 80 25 23 26 79 27 24 28 25 29 26 30 73 31 27 32 78 33 72 34
REMARK SMILES IDX 74 35 28 36 77 37 71 38 70 39 29 41 59 42 40 43 58 44 41 45
REMARK SMILES IDX 44 46 57 47 75 48 42 49 43 50 56 52 76 53 45 54 30 55 31 56
REMARK SMILES IDX 39 57 32 58 38 59 33 60 34 61 35 62 36 63 37 64 60 65 61 66
REMARK SMILES IDX 69 67 62 68 68 69 63 70 64 71 65 72 66 73 67 74 46 75 47 76
REMARK SMILES IDX 55 77 48 78 54 79 49 80 50 81 51 82 52 83 53 84
REMARK H PARENT 13 6 18 21 74 40 44 51
REMARK Flexibility Score: inf
ROOT
ATOM      1  C   UNL     1      -0.198  -0.372   3.233  1.00  0.00     0.023 C 
ENDROOT
BRANCH   1   2
ATOM      2  C   UNL     1       0.575  -1.471   2.465  1.00  0.00     0.116 C 
BRANCH   2   3
ATOM      3  N   UNL     1       0.988  -1.168   1.101  1.00  0.00    -0.352 N 
ATOM      4  C   UNL     1       0.685  -1.810  -0.084  1.00  0.00     0.252 C 
ATOM      5  O   UNL     1       1.357  -1.604  -1.092  1.00  0.00    -0.269 OA
ATOM      6  H   UNL     1       1.575  -0.383   1.009  1.00  0.00     0.163 HD
BRANCH   4   7
ATOM      7  C   UNL     1      -0.376  -2.830  -0.139  1.00  0.00     0.053 A 
ATOM      8  C   UNL     1      -1.707  -2.624   0.245  1.00  0.00     0.020 A 
ATOM      9  C   UNL     1      -2.499  -3.778   0.432  1.00  0.00     0.016 A 
ATOM     10  C   UNL     1      -2.020  -5.063   0.148  1.00  0.00     0.001 A 
ATOM     11  C   UNL     1       0.074  -4.112  -0.523  1.00  0.00     0.015 A 
ATOM     12  C   UNL     1      -0.746  -5.227  -0.377  1.00  0.00     0.001 A 
BRANCH   8  13
ATOM     13  S   UNL     1      -2.533  -1.091   0.672  1.00  0.00    -0.121 SA
BRANCH  13  14
ATOM     14  C   UNL     1      -2.110   0.147  -0.614  1.00  0.00     0.101 C 
BRANCH  14  15
ATOM     15  C   UNL     1      -0.784   0.793  -0.392  1.00  0.00    -0.024 C 
ATOM     16  C   UNL     1       0.037   1.285  -1.328  1.00  0.00     0.005 C 
ENDBRANCH  14  15
ENDBRANCH  13  14
ENDBRANCH   8  13
ENDBRANCH   4   7
ENDBRANCH   2   3
ENDBRANCH   1   2
BRANCH   1  17
ATOM     17  C   UNL     1       0.387   1.050   3.260  1.00  0.00     0.023 C 
BRANCH  17  18
ATOM     18  C   UNL     1      -0.600   2.209   2.990  1.00  0.00     0.116 C 
BRANCH  18  19
ATOM     19  N   UNL     1      -1.814   2.222   3.785  1.00  0.00    -0.352 N 
ATOM     20  C   UNL     1      -2.599   3.309   4.108  1.00  0.00     0.251 C 
ATOM     21  H   UNL     1      -2.113   1.352   4.134  1.00  0.00     0.163 HD
ATOM     22  O   UNL     1      -3.624   3.154   4.770  1.00  0.00    -0.269 OA
BRANCH  20  23
ATOM     23  C   UNL     1      -2.190   4.676   3.703  1.00  0.00     0.039 A 
ATOM     24  C   UNL     1      -2.026   5.646   4.697  1.00  0.00     0.014 A 
ATOM     25  C   UNL     1      -1.978   5.014   2.363  1.00  0.00     0.014 A 
ATOM     26  C   UNL     1      -1.580   6.931   4.359  1.00  0.00     0.010 A 
ATOM     27  C   UNL     1      -1.497   6.288   2.032  1.00  0.00     0.010 A 
ATOM     28  C   UNL     1      -1.276   7.256   3.026  1.00  0.00    -0.014 A 
BRANCH  28  29
ATOM     29  C   UNL     1      -0.697   8.586   2.670  1.00  0.00     0.031 A 
ATOM     30  C   UNL     1      -1.466   9.560   1.815  1.00  0.00     0.074 A 
ATOM     31  C   UNL     1       0.552   8.904   3.073  1.00  0.00     0.049 A 
ATOM     32  N   UNL     1      -1.095  10.731   1.359  1.00  0.00    -0.248 NA
ATOM     33  C   UNL     1      -2.822   9.161   1.409  1.00  0.00     0.031 C 
ATOM     34  C   UNL     1       1.419   8.054   3.891  1.00  0.00     0.029 A 
ATOM     35  N   UNL     1       1.315  10.025   2.841  1.00  0.00    -0.354 N 
ATOM     36  C   UNL     1      -2.163  11.204   0.603  1.00  0.00     0.074 A 
ATOM     37  C   UNL     1      -3.180  10.173   0.630  1.00  0.00     0.031 C 
ATOM     38  C   UNL     1       2.583   8.688   4.106  1.00  0.00     0.029 A 
ATOM     39  C   UNL     1       2.569   9.970   3.407  1.00  0.00     0.049 A 
ATOM     40  H   UNL     1       0.994  10.796   2.320  1.00  0.00     0.167 HD
ATOM     41  C   UNL     1      -2.293  12.389  -0.043  1.00  0.00     0.031 A 
ATOM     42  C   UNL     1       3.599  10.840   3.361  1.00  0.00     0.031 A 
ATOM     43  C   UNL     1      -1.282  13.415  -0.074  1.00  0.00     0.049 A 
ATOM     44  C   UNL     1       3.445  12.133   2.603  1.00  0.00     0.074 A 
ATOM     45  C   UNL     1      -1.343  14.663  -0.672  1.00  0.00     0.029 A 
ATOM     46  N   UNL     1      -0.028  13.315   0.509  1.00  0.00    -0.354 N 
ATOM     47  N   UNL     1       2.406  12.581   1.940  1.00  0.00    -0.248 NA
ATOM     48  C   UNL     1       4.599  13.045   2.598  1.00  0.00     0.031 C 
ATOM     49  C   UNL     1      -0.106  15.293  -0.501  1.00  0.00     0.029 A 
ATOM     50  C   UNL     1       0.701  14.468   0.266  1.00  0.00     0.049 A 
ATOM     51  H   UNL     1       0.297  12.539   1.020  1.00  0.00     0.167 HD
ATOM     52  C   UNL     1       2.767  13.842   1.475  1.00  0.00     0.074 A 
ATOM     53  C   UNL     1       4.117  14.089   1.937  1.00  0.00     0.031 C 
ATOM     54  C   UNL     1       2.040  14.717   0.739  1.00  0.00     0.031 A 
BRANCH  41  55
ATOM     55  C   UNL     1      -3.580  12.643  -0.789  1.00  0.00    -0.014 A 
ATOM     56  C   UNL     1      -4.792  12.842  -0.103  1.00  0.00     0.010 A 
ATOM     57  C   UNL     1      -3.569  12.739  -2.193  1.00  0.00     0.010 A 
ATOM     58  C   UNL     1      -5.974  13.088  -0.808  1.00  0.00     0.020 A 
ATOM     59  C   UNL     1      -4.742  13.016  -2.900  1.00  0.00     0.020 A 
ATOM     60  C   UNL     1      -5.942  13.171  -2.203  1.00  0.00     0.054 A 
BRANCH  60  61
ATOM     61  S   UNL     1      -7.488  13.509  -3.089  1.00  0.00     0.124 S 
ATOM     62  O   UNL     1      -8.213  12.252  -2.920  1.00  0.00    -0.237 OA
ATOM     63  O   UNL     1      -8.033  14.650  -2.357  1.00  0.00    -0.237 OA
ATOM     64  O   UNL     1      -7.053  13.797  -4.453  1.00  0.00    -0.744 OA
ENDBRANCH  60  61
ENDBRANCH  41  55
BRANCH  42  65
ATOM     65  C   UNL     1       4.878  10.522   4.060  1.00  0.00    -0.014 A 
ATOM     66  C   UNL     1       5.281  11.260   5.188  1.00  0.00     0.010 A 
ATOM     67  C   UNL     1       5.703   9.481   3.597  1.00  0.00     0.010 A 
ATOM     68  C   UNL     1       6.494  10.978   5.825  1.00  0.00     0.020 A 
ATOM     69  C   UNL     1       6.901   9.174   4.250  1.00  0.00     0.020 A 
ATOM     70  C   UNL     1       7.295   9.934   5.353  1.00  0.00     0.054 A 
BRANCH  70  71
ATOM     71  S   UNL     1       8.843   9.557   6.223  1.00  0.00     0.124 S 
ATOM     72  O   UNL     1       9.684  10.690   5.851  1.00  0.00    -0.237 OA
ATOM     73  O   UNL     1       8.416   9.516   7.619  1.00  0.00    -0.237 OA
ATOM     74  O   UNL     1       9.244   8.268   5.664  1.00  0.00    -0.744 OA
ENDBRANCH  70  71
ENDBRANCH  42  65
BRANCH  54  75
ATOM     75  C   UNL     1       2.653  16.059   0.429  1.00  0.00    -0.014 A 
ATOM     76  C   UNL     1       3.707  16.196  -0.491  1.00  0.00     0.010 A 
ATOM     77  C   UNL     1       2.107  17.216   1.018  1.00  0.00     0.010 A 
ATOM     78  C   UNL     1       4.217  17.462  -0.799  1.00  0.00     0.020 A 
ATOM     79  C   UNL     1       2.593  18.484   0.690  1.00  0.00     0.020 A 
ATOM     80  C   UNL     1       3.654  18.598  -0.210  1.00  0.00     0.054 A 
BRANCH  80  81
ATOM     81  S   UNL     1       4.291  20.232  -0.675  1.00  0.00     0.124 S 
ATOM     82  O   UNL     1       5.596  20.248  -0.019  1.00  0.00    -0.237 OA
ATOM     83  O   UNL     1       4.322  20.160  -2.134  1.00  0.00    -0.237 OA
ATOM     84  O   UNL     1       3.306  21.160  -0.124  1.00  0.00    -0.744 OA
ENDBRANCH  80  81
ENDBRANCH  54  75
ENDBRANCH  28  29
ENDBRANCH  20  23
ENDBRANCH  18  19
ENDBRANCH  17  18
ENDBRANCH   1  17
TORSDOF 17
