REMARK SMILES CCCn1nc(C(=O)NCCCCNC(=O)c2ccc(-c3c4nc(c(-c5ccc(S(=O)(=O)[O-])cc5)c5ccc([nH]5)c(-c5ccc(S(=O)(=O)[O-])cc5)c5nc(c(-c6ccc(S(=O)(=O)[O-])cc6)c6ccc3[nH]6)C=C5)C=C4)cc2)c2c1CC[C@@H]([NH+]1CC[NH+](Cc3ccccn3)CC1)C2
REMARK SMILES IDX 11 1 10 2 9 3 7 4 8 5 6 7 4 8 5 9 78 10 77 11 79 12 95 13
REMARK SMILES IDX 80 14 81 15 3 16 2 17 1 18 82 19 83 20 94 21 84 23 93 24
REMARK SMILES IDX 85 25 86 27 87 28 88 29 92 30 89 31 91 32 90 33 12 34 13 35
REMARK SMILES IDX 14 36 15 37 16 39 17 40 18 41 76 42 19 43 75 44 20 45 21 46
REMARK SMILES IDX 22 47 69 48 23 49 74 50 68 51 70 52 24 53 73 54 67 55 66 56
REMARK SMILES IDX 25 58 55 59 36 60 54 61 37 62 40 63 53 64 71 65 38 66 39 67
REMARK SMILES IDX 52 69 72 70 41 71 26 72 27 73 35 74 28 75 34 76 29 77 30 78
REMARK SMILES IDX 31 79 32 80 33 81 56 82 57 83 65 84 58 85 64 86 59 87 60 88
REMARK SMILES IDX 61 89 62 90 63 91 42 92 43 93 51 94 44 95 50 96 45 97 46 98
REMARK SMILES IDX 47 99 48 100 49 101
REMARK H PARENT 9 6 82 22 85 26 14 38 70 57 40 68
REMARK Flexibility Score: inf
ROOT
ATOM      1  C   UNL     1      -2.518  -0.717   7.166  1.00  0.00     0.023 C 
ENDROOT
BRANCH   1   2
ATOM      2  C   UNL     1      -1.395  -1.768   7.362  1.00  0.00     0.116 C 
BRANCH   2   3
ATOM      3  N   UNL     1      -1.553  -2.997   6.564  1.00  0.00    -0.351 N 
ATOM      4  C   UNL     1      -1.208  -3.517   5.321  1.00  0.00     0.272 C 
ATOM      5  O   UNL     1      -1.485  -4.720   5.214  1.00  0.00    -0.267 OA
ATOM      6  H   UNL     1      -2.068  -3.664   7.075  1.00  0.00     0.163 HD
BRANCH   4   7
ATOM      7  C   UNL     1      -0.603  -2.778   4.170  1.00  0.00     0.153 A 
ATOM      8  N   UNL     1       0.251  -2.500   2.181  1.00  0.00    -0.269 N 
ATOM      9  N   UNL     1      -0.222  -3.436   3.042  1.00  0.00    -0.167 NA
ATOM     10  C   UNL     1       0.204  -1.257   2.725  1.00  0.00     0.043 A 
ATOM     11  C   UNL     1      -0.402  -1.400   3.951  1.00  0.00     0.012 A 
ATOM     12  C   UNL     1       0.582   0.043   2.131  1.00  0.00     0.062 C 
ATOM     13  C   UNL     1      -0.798  -0.246   4.760  1.00  0.00     0.105 C 
ATOM     14  C   UNL     1       0.567   1.126   3.222  1.00  0.00     0.072 C 
ATOM     15  C   UNL     1      -0.689   1.120   4.094  1.00  0.00     0.189 C 
BRANCH   8  16
ATOM     16  C   UNL     1       0.809  -2.924   0.904  1.00  0.00     0.144 C 
BRANCH  16  17
ATOM     17  C   UNL     1       0.203  -2.345  -0.390  1.00  0.00     0.020 C 
ATOM     18  C   UNL     1       0.877  -1.085  -0.924  1.00  0.00     0.006 C 
ENDBRANCH  16  17
ENDBRANCH   8  16
BRANCH  15  19
ATOM     19  N   UNL     1      -1.940   1.577   3.481  1.00  0.00    -0.323 N 
ATOM     20  C   UNL     1      -2.665   0.746   2.535  1.00  0.00     0.324 C 
ATOM     21  C   UNL     1      -2.089   3.025   3.354  1.00  0.00     0.324 C 
ATOM     22  H   UNL     1      -2.551   1.318   4.256  1.00  0.00     0.348 HD
ATOM     23  C   UNL     1      -2.906   1.324   1.119  1.00  0.00     0.324 C 
ATOM     24  C   UNL     1      -2.740   3.537   2.051  1.00  0.00     0.324 C 
ATOM     25  N   UNL     1      -2.505   2.708   0.876  1.00  0.00    -0.321 N 
ATOM     26  H   UNL     1      -3.146   3.071   0.170  1.00  0.00     0.348 HD
BRANCH  25  27
ATOM     27  C   UNL     1      -1.304   2.950   0.058  1.00  0.00     0.319 C 
BRANCH  27  28
ATOM     28  C   UNL     1       0.043   3.354   0.663  1.00  0.00     0.095 A 
ATOM     29  C   UNL     1       1.196   2.623   0.352  1.00  0.00     0.030 A 
ATOM     30  N   UNL     1       0.116   4.460   1.448  1.00  0.00    -0.255 NA
ATOM     31  C   UNL     1       2.406   2.924   0.985  1.00  0.00     0.004 A 
ATOM     32  C   UNL     1       1.310   4.751   2.025  1.00  0.00     0.111 A 
ATOM     33  C   UNL     1       2.462   4.002   1.854  1.00  0.00     0.020 A 
ENDBRANCH  27  28
ENDBRANCH  25  27
ENDBRANCH  15  19
ENDBRANCH   4   7
ENDBRANCH   2   3
ENDBRANCH   1   2
BRANCH   1  34
ATOM     34  C   UNL     1      -3.430  -0.353   8.342  1.00  0.00     0.023 C 
BRANCH  34  35
ATOM     35  C   UNL     1      -2.766   0.513   9.406  1.00  0.00     0.116 C 
BRANCH  35  36
ATOM     36  N   UNL     1      -2.585   1.932   9.033  1.00  0.00    -0.352 N 
ATOM     37  C   UNL     1      -1.912   2.899   9.774  1.00  0.00     0.251 C 
ATOM     38  H   UNL     1      -2.977   2.221   8.177  1.00  0.00     0.163 HD
ATOM     39  O   UNL     1      -2.134   4.103   9.642  1.00  0.00    -0.269 OA
BRANCH  37  40
ATOM     40  C   UNL     1      -0.864   2.423  10.686  1.00  0.00     0.039 A 
ATOM     41  C   UNL     1      -0.730   2.816  12.024  1.00  0.00     0.014 A 
ATOM     42  C   UNL     1      -0.081   1.412  10.145  1.00  0.00     0.014 A 
ATOM     43  C   UNL     1       0.165   2.113  12.831  1.00  0.00     0.010 A 
ATOM     44  C   UNL     1       0.551   0.565  10.996  1.00  0.00     0.010 A 
ATOM     45  C   UNL     1       0.791   0.981  12.298  1.00  0.00    -0.014 A 
BRANCH  45  46
ATOM     46  C   UNL     1       1.684   0.109  13.041  1.00  0.00     0.031 A 
ATOM     47  C   UNL     1       1.022  -0.684  14.106  1.00  0.00     0.074 A 
ATOM     48  C   UNL     1       2.893  -0.205  12.519  1.00  0.00     0.049 A 
ATOM     49  N   UNL     1       1.137  -0.530  15.382  1.00  0.00    -0.248 NA
ATOM     50  C   UNL     1      -0.037  -1.638  13.721  1.00  0.00     0.031 C 
ATOM     51  C   UNL     1       3.478   0.232  11.240  1.00  0.00     0.029 A 
ATOM     52  N   UNL     1       3.792  -1.127  12.937  1.00  0.00    -0.354 N 
ATOM     53  C   UNL     1       0.381  -1.549  15.950  1.00  0.00     0.074 A 
ATOM     54  C   UNL     1      -0.514  -1.998  14.915  1.00  0.00     0.031 C 
ATOM     55  C   UNL     1       4.464  -0.619  10.879  1.00  0.00     0.029 A 
ATOM     56  C   UNL     1       4.683  -1.561  11.960  1.00  0.00     0.049 A 
ATOM     57  H   UNL     1       3.813  -1.465  13.862  1.00  0.00     0.167 HD
ATOM     58  C   UNL     1       0.763  -2.157  17.110  1.00  0.00     0.031 A 
ATOM     59  C   UNL     1       5.479  -2.663  12.021  1.00  0.00     0.031 A 
ATOM     60  C   UNL     1       1.868  -1.456  17.724  1.00  0.00     0.049 A 
ATOM     61  C   UNL     1       5.578  -3.025  13.464  1.00  0.00     0.074 A 
ATOM     62  C   UNL     1       2.078  -0.153  18.132  1.00  0.00     0.029 A 
ATOM     63  N   UNL     1       3.121  -2.008  17.559  1.00  0.00    -0.354 N 
ATOM     64  N   UNL     1       6.123  -2.240  14.356  1.00  0.00    -0.248 NA
ATOM     65  C   UNL     1       4.610  -3.979  13.990  1.00  0.00     0.031 C 
ATOM     66  C   UNL     1       3.398   0.154  17.687  1.00  0.00     0.029 A 
ATOM     67  C   UNL     1       3.960  -1.005  17.144  1.00  0.00     0.049 A 
ATOM     68  H   UNL     1       3.369  -2.949  17.711  1.00  0.00     0.167 HD
ATOM     69  C   UNL     1       5.261  -2.283  15.445  1.00  0.00     0.074 A 
ATOM     70  C   UNL     1       4.393  -3.437  15.194  1.00  0.00     0.031 C 
ATOM     71  C   UNL     1       5.108  -1.210  16.282  1.00  0.00     0.031 A 
BRANCH  58  72
ATOM     72  C   UNL     1       0.454  -3.593  17.466  1.00  0.00    -0.014 A 
ATOM     73  C   UNL     1       0.879  -4.078  18.720  1.00  0.00     0.010 A 
ATOM     74  C   UNL     1       0.003  -4.550  16.535  1.00  0.00     0.010 A 
ATOM     75  C   UNL     1       0.931  -5.451  18.992  1.00  0.00     0.020 A 
ATOM     76  C   UNL     1       0.007  -5.919  16.812  1.00  0.00     0.020 A 
ATOM     77  C   UNL     1       0.507  -6.362  18.027  1.00  0.00     0.054 A 
BRANCH  77  78
ATOM     78  S   UNL     1       0.674  -8.134  18.348  1.00  0.00     0.124 S 
ATOM     79  O   UNL     1       2.124  -8.294  18.394  1.00  0.00    -0.237 OA
ATOM     80  O   UNL     1      -0.023  -8.282  19.622  1.00  0.00    -0.237 OA
ATOM     81  O   UNL     1       0.010  -8.752  17.203  1.00  0.00    -0.744 OA
ENDBRANCH  77  78
ENDBRANCH  58  72
BRANCH  59  82
ATOM     82  C   UNL     1       5.780  -3.608  10.902  1.00  0.00    -0.014 A 
ATOM     83  C   UNL     1       6.687  -4.676  11.056  1.00  0.00     0.010 A 
ATOM     84  C   UNL     1       4.968  -3.621   9.747  1.00  0.00     0.010 A 
ATOM     85  C   UNL     1       6.721  -5.744  10.133  1.00  0.00     0.020 A 
ATOM     86  C   UNL     1       5.003  -4.671   8.821  1.00  0.00     0.020 A 
ATOM     87  C   UNL     1       5.859  -5.745   9.034  1.00  0.00     0.054 A 
BRANCH  87  88
ATOM     88  S   UNL     1       5.750  -7.211   7.961  1.00  0.00     0.124 S 
ATOM     89  O   UNL     1       7.014  -7.160   7.233  1.00  0.00    -0.237 OA
ATOM     90  O   UNL     1       5.618  -8.300   8.925  1.00  0.00    -0.237 OA
ATOM     91  O   UNL     1       4.559  -6.955   7.154  1.00  0.00    -0.744 OA
ENDBRANCH  87  88
ENDBRANCH  59  82
BRANCH  71  92
ATOM     92  C   UNL     1       6.056  -0.033  16.161  1.00  0.00    -0.014 A 
ATOM     93  C   UNL     1       6.199   0.756  15.002  1.00  0.00     0.010 A 
ATOM     94  C   UNL     1       6.681   0.406  17.342  1.00  0.00     0.010 A 
ATOM     95  C   UNL     1       6.964   1.935  15.021  1.00  0.00     0.020 A 
ATOM     96  C   UNL     1       7.427   1.586  17.373  1.00  0.00     0.020 A 
ATOM     97  C   UNL     1       7.576   2.341  16.210  1.00  0.00     0.054 A 
BRANCH  97  98
ATOM     98  S   UNL     1       8.540   3.878  16.247  1.00  0.00     0.124 S 
ATOM     99  O   UNL     1       9.688   3.552  15.406  1.00  0.00    -0.237 OA
ATOM    100  O   UNL     1       7.611   4.859  15.691  1.00  0.00    -0.237 OA
ATOM    101  O   UNL     1       8.847   4.064  17.665  1.00  0.00    -0.744 OA
ENDBRANCH  97  98
ENDBRANCH  71  92
ENDBRANCH  45  46
ENDBRANCH  37  40
ENDBRANCH  35  36
ENDBRANCH  34  35
ENDBRANCH   1  34
TORSDOF 19
