REMARK SMILES Cc1ccc(N[C@](C)(C(=O)NCCCCNC(=O)c2ccc(-c3c4nc(c(-c5ccc(S(=O)(=O)[O-])cc5)c5ccc([nH]5)c(-c5ccc(S(=O)(=O)[O-])cc5)c5nc(c(-c6ccc(S(=O)(=O)[O-])cc6)c6ccc3[nH]6)C=C5)C=C4)cc2)c2cc(F)cc(F)c2)cc1
REMARK SMILES IDX 14 1 13 2 12 3 11 4 9 5 10 6 7 8 8 9 6 10 5 12 1 13 2 14
REMARK SMILES IDX 3 15 88 16 4 17 87 18 79 19 80 20 86 21 81 22 84 23 82 24
REMARK SMILES IDX 83 25 85 26 15 27 16 28 17 29 18 31 19 32 20 33 78 34 21 35
REMARK SMILES IDX 77 36 22 37 23 38 24 39 71 40 25 41 76 42 70 43 72 44 26 45
REMARK SMILES IDX 75 46 69 47 68 48 27 50 57 51 38 52 56 53 39 54 42 55 55 56
REMARK SMILES IDX 73 57 40 58 41 59 54 61 74 62 43 63 28 64 29 65 37 66 30 67
REMARK SMILES IDX 36 68 31 69 32 70 33 71 34 72 35 73 58 74 59 75 67 76 60 77
REMARK SMILES IDX 66 78 61 79 62 80 63 81 64 82 65 83 44 84 45 85 53 86 46 87
REMARK SMILES IDX 52 88 47 89 48 90 49 91 50 92 51 93
REMARK H PARENT 11 7 6 11 16 30 72 49 42 60
REMARK Flexibility Score: inf
ROOT
ATOM      1  C   UNL     1      -6.859  -4.597  -2.666  1.00  0.00     0.023 C 
ENDROOT
BRANCH   1   2
ATOM      2  C   UNL     1      -6.639  -4.184  -1.210  1.00  0.00     0.023 C 
BRANCH   2   3
ATOM      3  C   UNL     1      -5.176  -4.206  -0.736  1.00  0.00     0.116 C 
BRANCH   3   4
ATOM      4  N   UNL     1      -4.361  -3.238  -1.451  1.00  0.00    -0.354 N 
ATOM      5  C   UNL     1      -4.027  -1.942  -1.219  1.00  0.00     0.250 C 
ATOM      6  O   UNL     1      -3.617  -1.332  -2.223  1.00  0.00    -0.272 OA
ATOM      7  H   UNL     1      -3.967  -3.598  -2.278  1.00  0.00     0.163 HD
BRANCH   5   8
ATOM      8  C   UNL     1      -4.165  -1.180   0.172  1.00  0.00     0.139 C 
ATOM      9  C   UNL     1      -3.816  -1.978   1.447  1.00  0.00     0.051 C 
BRANCH   8  10
ATOM     10  N   UNL     1      -3.203  -0.020   0.115  1.00  0.00    -0.368 N 
ATOM     11  H   UNL     1      -3.608   0.876   0.067  1.00  0.00     0.161 HD
BRANCH  10  12
ATOM     12  C   UNL     1      -1.808  -0.061   0.123  1.00  0.00     0.035 A 
ATOM     13  C   UNL     1       2.531   0.120  -0.012  1.00  0.00     0.044 C 
ATOM     14  C   UNL     1       1.034   0.074   0.041  1.00  0.00    -0.051 A 
ATOM     15  C   UNL     1       0.369  -1.150  -0.055  1.00  0.00     0.005 A 
ATOM     16  C   UNL     1       0.274   1.234   0.185  1.00  0.00     0.005 A 
ATOM     17  C   UNL     1      -1.032  -1.211  -0.024  1.00  0.00     0.026 A 
ATOM     18  C   UNL     1      -1.125   1.161   0.227  1.00  0.00     0.026 A 
ENDBRANCH  10  12
ENDBRANCH   8  10
BRANCH   8  19
ATOM     19  C   UNL     1      -5.621  -0.613   0.262  1.00  0.00    -0.008 A 
ATOM     20  C   UNL     1      -6.678  -1.399   0.766  1.00  0.00     0.046 A 
ATOM     21  C   UNL     1      -5.982   0.656  -0.237  1.00  0.00     0.046 A 
ATOM     22  C   UNL     1      -8.005  -0.966   0.715  1.00  0.00     0.126 A 
ATOM     23  C   UNL     1      -7.314   1.081  -0.254  1.00  0.00     0.126 A 
ATOM     24  F   UNL     1      -8.976  -1.781   1.148  1.00  0.00    -0.207 F 
ATOM     25  C   UNL     1      -8.337   0.272   0.203  1.00  0.00     0.078 A 
ATOM     26  F   UNL     1      -7.607   2.296  -0.739  1.00  0.00    -0.207 F 
ENDBRANCH   8  19
ENDBRANCH   5   8
ENDBRANCH   3   4
ENDBRANCH   2   3
ENDBRANCH   1   2
BRANCH   1  27
ATOM     27  C   UNL     1      -6.613  -6.077  -2.908  1.00  0.00     0.116 C 
BRANCH  27  28
ATOM     28  N   UNL     1      -7.817  -6.887  -2.971  1.00  0.00    -0.352 N 
ATOM     29  C   UNL     1      -7.888  -8.222  -3.354  1.00  0.00     0.251 C 
ATOM     30  H   UNL     1      -8.662  -6.450  -2.720  1.00  0.00     0.163 HD
ATOM     31  O   UNL     1      -8.902  -8.745  -3.767  1.00  0.00    -0.269 OA
BRANCH  29  32
ATOM     32  C   UNL     1      -6.684  -9.033  -3.062  1.00  0.00     0.039 A 
ATOM     33  C   UNL     1      -6.766  -9.910  -1.974  1.00  0.00     0.014 A 
ATOM     34  C   UNL     1      -5.457  -8.678  -3.612  1.00  0.00     0.014 A 
ATOM     35  C   UNL     1      -5.602 -10.289  -1.313  1.00  0.00     0.010 A 
ATOM     36  C   UNL     1      -4.315  -8.963  -2.891  1.00  0.00     0.010 A 
ATOM     37  C   UNL     1      -4.393  -9.729  -1.717  1.00  0.00    -0.014 A 
BRANCH  37  38
ATOM     38  C   UNL     1      -3.149  -9.848  -0.966  1.00  0.00     0.031 A 
ATOM     39  C   UNL     1      -2.082 -10.737  -1.481  1.00  0.00     0.074 A 
ATOM     40  C   UNL     1      -2.931  -9.074   0.121  1.00  0.00     0.049 A 
ATOM     41  N   UNL     1      -1.082 -11.172  -0.792  1.00  0.00    -0.248 NA
ATOM     42  C   UNL     1      -2.112 -11.268  -2.841  1.00  0.00     0.031 C 
ATOM     43  C   UNL     1      -1.649  -8.824   0.776  1.00  0.00     0.029 A 
ATOM     44  N   UNL     1      -3.869  -8.530   1.003  1.00  0.00    -0.354 N 
ATOM     45  C   UNL     1      -0.200 -11.762  -1.672  1.00  0.00     0.074 A 
ATOM     46  C   UNL     1      -0.930 -11.883  -2.909  1.00  0.00     0.031 C 
ATOM     47  C   UNL     1      -1.880  -8.476   2.051  1.00  0.00     0.029 A 
ATOM     48  C   UNL     1      -3.305  -8.643   2.286  1.00  0.00     0.049 A 
ATOM     49  H   UNL     1      -4.746  -8.145   0.773  1.00  0.00     0.167 HD
ATOM     50  C   UNL     1       1.098 -11.948  -1.297  1.00  0.00     0.031 A 
ATOM     51  C   UNL     1      -3.849  -9.386   3.294  1.00  0.00     0.031 A 
ATOM     52  C   UNL     1       1.283 -11.673   0.128  1.00  0.00     0.049 A 
ATOM     53  C   UNL     1      -2.912 -10.465   3.798  1.00  0.00     0.074 A 
ATOM     54  C   UNL     1       1.781 -10.586   0.827  1.00  0.00     0.029 A 
ATOM     55  N   UNL     1       0.634 -12.477   1.059  1.00  0.00    -0.354 N 
ATOM     56  N   UNL     1      -1.857 -10.875   3.147  1.00  0.00    -0.248 NA
ATOM     57  C   UNL     1      -3.106 -11.189   5.052  1.00  0.00     0.031 C 
ATOM     58  C   UNL     1       1.320 -10.685   2.169  1.00  0.00     0.029 A 
ATOM     59  C   UNL     1       0.582 -11.850   2.289  1.00  0.00     0.049 A 
ATOM     60  H   UNL     1       0.263 -13.369   0.868  1.00  0.00     0.167 HD
ATOM     61  C   UNL     1      -1.236 -11.870   3.854  1.00  0.00     0.074 A 
ATOM     62  C   UNL     1      -2.054 -12.028   5.044  1.00  0.00     0.031 C 
ATOM     63  C   UNL     1      -0.101 -12.485   3.409  1.00  0.00     0.031 A 
BRANCH  50  64
ATOM     64  C   UNL     1       2.243 -12.095  -2.284  1.00  0.00    -0.014 A 
ATOM     65  C   UNL     1       3.550 -11.735  -1.894  1.00  0.00     0.010 A 
ATOM     66  C   UNL     1       2.095 -12.487  -3.628  1.00  0.00     0.010 A 
ATOM     67  C   UNL     1       4.616 -11.677  -2.809  1.00  0.00     0.020 A 
ATOM     68  C   UNL     1       3.140 -12.407  -4.561  1.00  0.00     0.020 A 
ATOM     69  C   UNL     1       4.396 -11.987  -4.149  1.00  0.00     0.054 A 
BRANCH  69  70
ATOM     70  S   UNL     1       5.750 -11.828  -5.341  1.00  0.00     0.124 S 
ATOM     71  O   UNL     1       6.125 -10.423  -5.206  1.00  0.00    -0.237 OA
ATOM     72  O   UNL     1       6.724 -12.793  -4.840  1.00  0.00    -0.237 OA
ATOM     73  O   UNL     1       5.131 -12.179  -6.618  1.00  0.00    -0.744 OA
ENDBRANCH  69  70
ENDBRANCH  50  64
BRANCH  51  74
ATOM     74  C   UNL     1      -5.334  -9.489   3.249  1.00  0.00    -0.014 A 
ATOM     75  C   UNL     1      -6.067  -8.312   3.518  1.00  0.00     0.010 A 
ATOM     76  C   UNL     1      -5.954 -10.527   2.530  1.00  0.00     0.010 A 
ATOM     77  C   UNL     1      -7.307  -8.095   2.914  1.00  0.00     0.020 A 
ATOM     78  C   UNL     1      -7.204 -10.312   1.930  1.00  0.00     0.020 A 
ATOM     79  C   UNL     1      -7.829  -9.068   2.063  1.00  0.00     0.054 A 
BRANCH  79  80
ATOM     80  S   UNL     1      -9.212  -8.597   0.978  1.00  0.00     0.124 S 
ATOM     81  O   UNL     1     -10.217  -8.140   1.932  1.00  0.00    -0.237 OA
ATOM     82  O   UNL     1      -8.602  -7.551   0.155  1.00  0.00    -0.237 OA
ATOM     83  O   UNL     1      -9.524  -9.838   0.278  1.00  0.00    -0.744 OA
ENDBRANCH  79  80
ENDBRANCH  51  74
BRANCH  63  84
ATOM     84  C   UNL     1       0.528 -13.707   4.031  1.00  0.00    -0.014 A 
ATOM     85  C   UNL     1      -0.190 -14.677   4.747  1.00  0.00     0.010 A 
ATOM     86  C   UNL     1       1.894 -13.974   3.775  1.00  0.00     0.010 A 
ATOM     87  C   UNL     1       0.441 -15.826   5.245  1.00  0.00     0.020 A 
ATOM     88  C   UNL     1       2.522 -15.136   4.229  1.00  0.00     0.020 A 
ATOM     89  C   UNL     1       1.794 -16.046   4.988  1.00  0.00     0.054 A 
BRANCH  89  90
ATOM     90  S   UNL     1       2.589 -17.560   5.583  1.00  0.00     0.124 S 
ATOM     91  O   UNL     1       3.049 -17.155   6.909  1.00  0.00    -0.237 OA
ATOM     92  O   UNL     1       1.499 -18.533   5.569  1.00  0.00    -0.237 OA
ATOM     93  O   UNL     1       3.642 -17.801   4.600  1.00  0.00    -0.744 OA
ENDBRANCH  89  90
ENDBRANCH  63  84
ENDBRANCH  37  38
ENDBRANCH  29  32
ENDBRANCH  27  28
ENDBRANCH   1  27
TORSDOF 17
