REMARK SMILES CC1(C)NC(=O)N(CCC(=O)N2CCC[C@H]2C(=O)NCCCCNC(=O)c2ccc(-c3c4nc(c(-c5ccc(S(=O)(=O)[O-])cc5)c5ccc([nH]5)c(-c5ccc(S(=O)(=O)[O-])cc5)c5nc(c(-c6ccc(S(=O)(=O)[O-])cc6)c6ccc3[nH]6)C=C5)C=C4)cc2)C1=O
REMARK SMILES IDX 21 1 20 2 19 3 17 4 18 5 16 7 12 8 13 9 14 10 15 11 10 12
REMARK SMILES IDX 11 13 9 14 8 15 7 16 1 17 2 18 3 19 4 20 87 21 5 22 88 24
REMARK SMILES IDX 6 25 22 26 23 27 24 28 25 29 26 31 27 32 28 33 86 34 29 35
REMARK SMILES IDX 85 36 30 37 31 38 32 39 79 40 33 41 84 42 78 43 80 44 34 45
REMARK SMILES IDX 83 46 77 47 76 48 35 50 65 51 46 52 64 53 47 54 50 55 63 56
REMARK SMILES IDX 81 57 48 58 49 59 62 61 82 62 51 63 36 64 37 65 45 66 38 67
REMARK SMILES IDX 44 68 39 69 40 70 41 71 42 72 43 73 66 74 67 75 75 76 68 77
REMARK SMILES IDX 74 78 69 79 70 80 71 81 72 82 73 83 52 84 53 85 61 86 54 87
REMARK SMILES IDX 60 88 55 89 56 90 57 91 58 92 59 93
REMARK H PARENT 19 6 4 23 24 30 80 49 50 60
REMARK Flexibility Score: inf
ROOT
ATOM      1  C   UNL     1      -3.734  -3.419   4.213  1.00  0.00     0.023 C 
ENDROOT
BRANCH   1   2
ATOM      2  C   UNL     1      -3.536  -3.462   2.699  1.00  0.00     0.116 C 
BRANCH   2   3
ATOM      3  N   UNL     1      -2.529  -2.514   2.313  1.00  0.00    -0.354 N 
ATOM      4  C   UNL     1      -1.200  -2.716   2.445  1.00  0.00     0.242 C 
ATOM      5  O   UNL     1      -0.568  -1.788   2.949  1.00  0.00    -0.273 OA
ATOM      6  H   UNL     1      -2.827  -1.659   1.927  1.00  0.00     0.163 HD
BRANCH   4   7
ATOM      7  C   UNL     1      -0.528  -4.023   2.014  1.00  0.00     0.174 C 
ATOM      8  N   UNL     1      -0.190  -4.961   3.059  1.00  0.00    -0.331 N 
ATOM      9  C   UNL     1      -0.984  -6.166   2.922  1.00  0.00     0.120 C 
ATOM     10  C   UNL     1      -1.412  -6.221   1.460  1.00  0.00     0.024 C 
ATOM     11  C   UNL     1      -1.191  -4.822   0.895  1.00  0.00     0.037 C 
BRANCH   8  12
ATOM     12  C   UNL     1       0.918  -4.898   3.883  1.00  0.00     0.225 C 
ATOM     13  O   UNL     1       1.327  -5.910   4.461  1.00  0.00    -0.275 OA
BRANCH  12  14
ATOM     14  C   UNL     1       1.580  -3.549   4.191  1.00  0.00     0.122 C 
BRANCH  14  15
ATOM     15  C   UNL     1       2.707  -3.027   3.283  1.00  0.00     0.140 C 
BRANCH  15  16
ATOM     16  N   UNL     1       2.312  -2.300   2.077  1.00  0.00    -0.262 N 
ATOM     17  C   UNL     1       2.323   0.451  -0.064  1.00  0.00     0.045 C 
ATOM     18  C   UNL     1       1.491  -0.657   0.561  1.00  0.00     0.115 C 
ATOM     19  C   UNL     1       0.005  -0.319   0.450  1.00  0.00     0.045 C 
ATOM     20  N   UNL     1       1.802  -1.925  -0.060  1.00  0.00    -0.324 N 
ATOM     21  C   UNL     1       1.948  -0.973   2.011  1.00  0.00     0.255 C 
ATOM     22  C   UNL     1       2.346  -2.828   0.822  1.00  0.00     0.325 C 
ATOM     23  H   UNL     1       1.641  -2.121  -1.012  1.00  0.00     0.166 HD
ATOM     24  O   UNL     1       2.008  -0.160   2.923  1.00  0.00    -0.272 OA
ATOM     25  O   UNL     1       2.721  -3.943   0.494  1.00  0.00    -0.248 OA
ENDBRANCH  15  16
ENDBRANCH  14  15
ENDBRANCH  12  14
ENDBRANCH   8  12
ENDBRANCH   4   7
ENDBRANCH   2   3
ENDBRANCH   1   2
BRANCH   1  26
ATOM     26  C   UNL     1      -4.136  -2.042   4.755  1.00  0.00     0.023 C 
BRANCH  26  27
ATOM     27  C   UNL     1      -5.230  -1.342   3.959  1.00  0.00     0.116 C 
BRANCH  27  28
ATOM     28  N   UNL     1      -6.347  -2.226   3.662  1.00  0.00    -0.352 N 
ATOM     29  C   UNL     1      -7.681  -1.936   3.614  1.00  0.00     0.251 C 
ATOM     30  H   UNL     1      -6.108  -3.162   3.469  1.00  0.00     0.163 HD
ATOM     31  O   UNL     1      -8.505  -2.825   3.438  1.00  0.00    -0.269 OA
BRANCH  29  32
ATOM     32  C   UNL     1      -8.097  -0.544   3.826  1.00  0.00     0.039 A 
ATOM     33  C   UNL     1      -9.004  -0.278   4.850  1.00  0.00     0.014 A 
ATOM     34  C   UNL     1      -7.531   0.485   3.068  1.00  0.00     0.014 A 
ATOM     35  C   UNL     1      -9.320   1.043   5.143  1.00  0.00     0.010 A 
ATOM     36  C   UNL     1      -7.792   1.804   3.412  1.00  0.00     0.010 A 
ATOM     37  C   UNL     1      -8.696   2.091   4.446  1.00  0.00    -0.014 A 
BRANCH  37  38
ATOM     38  C   UNL     1      -8.990   3.498   4.796  1.00  0.00     0.031 A 
ATOM     39  C   UNL     1      -9.689   4.385   3.806  1.00  0.00     0.074 A 
ATOM     40  C   UNL     1      -8.601   3.972   5.995  1.00  0.00     0.049 A 
ATOM     41  N   UNL     1     -10.049   5.635   3.935  1.00  0.00    -0.248 NA
ATOM     42  C   UNL     1     -10.007   3.801   2.492  1.00  0.00     0.031 C 
ATOM     43  C   UNL     1      -7.871   3.208   7.012  1.00  0.00     0.029 A 
ATOM     44  N   UNL     1      -8.771   5.206   6.566  1.00  0.00    -0.354 N 
ATOM     45  C   UNL     1     -10.626   5.987   2.722  1.00  0.00     0.074 A 
ATOM     46  C   UNL     1     -10.516   4.841   1.849  1.00  0.00     0.031 C 
ATOM     47  C   UNL     1      -7.692   3.979   8.096  1.00  0.00     0.029 A 
ATOM     48  C   UNL     1      -8.259   5.298   7.838  1.00  0.00     0.049 A 
ATOM     49  H   UNL     1      -9.217   5.955   6.108  1.00  0.00     0.167 HD
ATOM     50  C   UNL     1     -11.216   7.155   2.376  1.00  0.00     0.031 A 
ATOM     51  C   UNL     1      -8.251   6.332   8.701  1.00  0.00     0.031 A 
ATOM     52  C   UNL     1     -11.323   8.287   3.257  1.00  0.00     0.049 A 
ATOM     53  C   UNL     1      -8.910   7.620   8.290  1.00  0.00     0.074 A 
ATOM     54  C   UNL     1     -11.945   9.501   3.026  1.00  0.00     0.029 A 
ATOM     55  N   UNL     1     -10.792   8.346   4.537  1.00  0.00    -0.354 N 
ATOM     56  N   UNL     1      -9.517   7.912   7.163  1.00  0.00    -0.248 NA
ATOM     57  C   UNL     1      -8.896   8.712   9.271  1.00  0.00     0.031 C 
ATOM     58  C   UNL     1     -11.742  10.314   4.146  1.00  0.00     0.029 A 
ATOM     59  C   UNL     1     -11.049   9.584   5.100  1.00  0.00     0.049 A 
ATOM     60  H   UNL     1     -10.304   7.614   4.980  1.00  0.00     0.167 HD
ATOM     61  C   UNL     1      -9.979   9.215   7.311  1.00  0.00     0.074 A 
ATOM     62  C   UNL     1      -9.601   9.643   8.643  1.00  0.00     0.031 C 
ATOM     63  C   UNL     1     -10.654   9.990   6.425  1.00  0.00     0.031 A 
BRANCH  50  64
ATOM     64  C   UNL     1     -11.784   7.264   0.986  1.00  0.00    -0.014 A 
ATOM     65  C   UNL     1     -12.920   6.524   0.605  1.00  0.00     0.010 A 
ATOM     66  C   UNL     1     -11.200   8.144   0.058  1.00  0.00     0.010 A 
ATOM     67  C   UNL     1     -13.436   6.635  -0.689  1.00  0.00     0.020 A 
ATOM     68  C   UNL     1     -11.732   8.281  -1.228  1.00  0.00     0.020 A 
ATOM     69  C   UNL     1     -12.838   7.513  -1.597  1.00  0.00     0.054 A 
BRANCH  69  70
ATOM     70  S   UNL     1     -13.550   7.659  -3.259  1.00  0.00     0.124 S 
ATOM     71  O   UNL     1     -13.170   6.384  -3.862  1.00  0.00    -0.237 OA
ATOM     72  O   UNL     1     -14.975   7.823  -2.983  1.00  0.00    -0.237 OA
ATOM     73  O   UNL     1     -12.887   8.834  -3.819  1.00  0.00    -0.744 OA
ENDBRANCH  69  70
ENDBRANCH  50  64
BRANCH  51  74
ATOM     74  C   UNL     1      -7.618   6.183  10.039  1.00  0.00    -0.014 A 
ATOM     75  C   UNL     1      -8.402   6.168  11.206  1.00  0.00     0.010 A 
ATOM     76  C   UNL     1      -6.222   6.045  10.153  1.00  0.00     0.010 A 
ATOM     77  C   UNL     1      -7.801   6.044  12.462  1.00  0.00     0.020 A 
ATOM     78  C   UNL     1      -5.620   5.890  11.405  1.00  0.00     0.020 A 
ATOM     79  C   UNL     1      -6.414   5.905  12.553  1.00  0.00     0.054 A 
BRANCH  79  80
ATOM     80  S   UNL     1      -5.660   5.706  14.192  1.00  0.00     0.124 S 
ATOM     81  O   UNL     1      -5.781   7.050  14.746  1.00  0.00    -0.237 OA
ATOM     82  O   UNL     1      -6.508   4.687  14.806  1.00  0.00    -0.237 OA
ATOM     83  O   UNL     1      -4.297   5.273  13.890  1.00  0.00    -0.744 OA
ENDBRANCH  79  80
ENDBRANCH  51  74
BRANCH  63  84
ATOM     84  C   UNL     1     -11.048  11.370   6.882  1.00  0.00    -0.014 A 
ATOM     85  C   UNL     1     -10.087  12.379   7.066  1.00  0.00     0.010 A 
ATOM     86  C   UNL     1     -12.406  11.667   7.097  1.00  0.00     0.010 A 
ATOM     87  C   UNL     1     -10.473  13.649   7.500  1.00  0.00     0.020 A 
ATOM     88  C   UNL     1     -12.799  12.945   7.499  1.00  0.00     0.020 A 
ATOM     89  C   UNL     1     -11.827  13.923   7.717  1.00  0.00     0.054 A 
BRANCH  89  90
ATOM     90  S   UNL     1     -12.305  15.586   8.257  1.00  0.00     0.124 S 
ATOM     91  O   UNL     1     -11.866  15.591   9.649  1.00  0.00    -0.237 OA
ATOM     92  O   UNL     1     -11.544  16.447   7.354  1.00  0.00    -0.237 OA
ATOM     93  O   UNL     1     -13.753  15.612   8.059  1.00  0.00    -0.744 OA
ENDBRANCH  89  90
ENDBRANCH  63  84
ENDBRANCH  37  38
ENDBRANCH  29  32
ENDBRANCH  27  28
ENDBRANCH  26  27
ENDBRANCH   1  26
TORSDOF 18
