REMARK SMILES Cc1ccccc1-c1c(Cl)ccc2c1C=C(C(=O)NCCCCNC(=O)c1ccc(-c3c4nc(c(-c5ccc(S(=O)(=O)[O-])cc5)c5ccc([nH]5)c(-c5ccc(S(=O)(=O)[O-])cc5)c5nc(c(-c6ccc(S(=O)(=O)[O-])cc6)c6ccc3[nH]6)C=C5)C=C4)cc1)[C@@H](C(F)(F)F)O2
REMARK SMILES IDX 22 1 21 2 20 3 19 4 17 5 18 6 16 8 8 9 9 10 14 11 10 12
REMARK SMILES IDX 11 13 13 14 15 15 12 16 92 17 87 18 7 19 1 20 2 21 3 22 4 23
REMARK SMILES IDX 6 24 5 25 88 26 89 27 90 28 91 29 23 30 24 31 25 32 26 34
REMARK SMILES IDX 27 35 28 36 86 37 29 38 85 39 30 40 31 41 32 42 79 43 33 44
REMARK SMILES IDX 84 45 78 46 80 47 34 48 83 49 77 50 76 51 35 53 65 54 46 55
REMARK SMILES IDX 64 56 47 57 50 58 63 59 81 60 48 61 49 62 62 64 82 65 51 66
REMARK SMILES IDX 36 67 37 68 45 69 38 70 44 71 39 72 40 73 41 74 42 75 43 76
REMARK SMILES IDX 66 77 67 78 75 79 68 80 74 81 69 82 70 83 71 84 72 85 73 86
REMARK SMILES IDX 52 87 53 88 61 89 54 90 60 91 55 92 56 93 57 94 58 95 59 96
REMARK H PARENT 19 7 24 33 80 52 50 63
REMARK Flexibility Score: inf
ROOT
ATOM      1  C   UNL     1       7.309  -1.765  -2.791  1.00  0.00     0.023 C 
ENDROOT
BRANCH   1   2
ATOM      2  C   UNL     1       5.822  -1.613  -3.138  1.00  0.00     0.023 C 
BRANCH   2   3
ATOM      3  C   UNL     1       5.009  -0.675  -2.232  1.00  0.00     0.116 C 
BRANCH   3   4
ATOM      4  N   UNL     1       5.626   0.636  -2.139  1.00  0.00    -0.352 N 
ATOM      5  C   UNL     1       5.220   1.892  -2.422  1.00  0.00     0.251 C 
ATOM      6  O   UNL     1       6.100   2.756  -2.471  1.00  0.00    -0.270 OA
ATOM      7  H   UNL     1       6.547   0.602  -1.792  1.00  0.00     0.163 HD
BRANCH   5   8
ATOM      8  C   UNL     1       3.799   2.318  -2.571  1.00  0.00     0.067 C 
ATOM      9  C   UNL     1       1.165   2.404   0.058  1.00  0.00     0.012 A 
ATOM     10  C   UNL     1       0.835   3.373   1.041  1.00  0.00     0.049 A 
ATOM     11  C   UNL     1       2.078   2.792  -0.960  1.00  0.00     0.027 A 
ATOM     12  Cl  UNL     1      -0.169   2.996   2.405  1.00  0.00    -0.084 Cl
ATOM     13  C   UNL     1       1.320   4.683   0.976  1.00  0.00     0.025 A 
ATOM     14  C   UNL     1       2.472   4.147  -1.059  1.00  0.00     0.128 A 
ATOM     15  C   UNL     1       2.882   1.813  -1.731  1.00  0.00     0.026 C 
ATOM     16  C   UNL     1       2.105   5.080  -0.097  1.00  0.00     0.049 A 
ATOM     17  O   UNL     1       3.291   4.640  -2.047  1.00  0.00    -0.475 OA
ATOM     18  C   UNL     1       3.604   3.715  -3.111  1.00  0.00     0.314 C 
BRANCH   9  19
ATOM     19  C   UNL     1       0.464   1.092   0.043  1.00  0.00    -0.013 A 
ATOM     20  C   UNL     1       2.461  -0.318   0.849  1.00  0.00     0.045 C 
ATOM     21  C   UNL     1       1.037  -0.146   0.399  1.00  0.00    -0.043 A 
ATOM     22  C   UNL     1       0.252  -1.316   0.344  1.00  0.00     0.004 A 
ATOM     23  C   UNL     1      -1.097  -1.271  -0.002  1.00  0.00     0.000 A 
ATOM     24  C   UNL     1      -0.907   1.105  -0.310  1.00  0.00     0.009 A 
ATOM     25  C   UNL     1      -1.682  -0.055  -0.318  1.00  0.00     0.001 A 
ENDBRANCH   9  19
BRANCH  18  26
ATOM     26  C   UNL     1       2.579   3.789  -4.253  1.00  0.00     0.429 C 
ATOM     27  F   UNL     1       2.548   5.032  -4.800  1.00  0.00    -0.167 F 
ATOM     28  F   UNL     1       2.895   2.937  -5.261  1.00  0.00    -0.167 F 
ATOM     29  F   UNL     1       1.316   3.499  -3.867  1.00  0.00    -0.167 F 
ENDBRANCH  18  26
ENDBRANCH   5   8
ENDBRANCH   3   4
ENDBRANCH   2   3
ENDBRANCH   1   2
BRANCH   1  30
ATOM     30  C   UNL     1       7.592  -2.384  -1.426  1.00  0.00     0.116 C 
BRANCH  30  31
ATOM     31  N   UNL     1       7.960  -3.787  -1.487  1.00  0.00    -0.352 N 
ATOM     32  C   UNL     1       8.561  -4.545  -0.495  1.00  0.00     0.251 C 
ATOM     33  H   UNL     1       7.760  -4.254  -2.330  1.00  0.00     0.163 HD
ATOM     34  O   UNL     1       9.232  -5.531  -0.750  1.00  0.00    -0.269 OA
BRANCH  32  35
ATOM     35  C   UNL     1       8.212  -4.214   0.905  1.00  0.00     0.039 A 
ATOM     36  C   UNL     1       7.476  -5.166   1.623  1.00  0.00     0.014 A 
ATOM     37  C   UNL     1       8.388  -2.928   1.403  1.00  0.00     0.014 A 
ATOM     38  C   UNL     1       6.770  -4.781   2.762  1.00  0.00     0.010 A 
ATOM     39  C   UNL     1       7.617  -2.525   2.476  1.00  0.00     0.010 A 
ATOM     40  C   UNL     1       6.778  -3.439   3.133  1.00  0.00    -0.014 A 
BRANCH  40  41
ATOM     41  C   UNL     1       5.905  -2.853   4.145  1.00  0.00     0.031 A 
ATOM     42  C   UNL     1       6.462  -2.388   5.437  1.00  0.00     0.074 A 
ATOM     43  C   UNL     1       4.627  -2.550   3.829  1.00  0.00     0.049 A 
ATOM     44  N   UNL     1       5.759  -2.107   6.485  1.00  0.00    -0.248 NA
ATOM     45  C   UNL     1       7.898  -2.254   5.661  1.00  0.00     0.031 C 
ATOM     46  C   UNL     1       3.768  -1.586   4.512  1.00  0.00     0.029 A 
ATOM     47  N   UNL     1       3.763  -3.211   2.954  1.00  0.00    -0.354 N 
ATOM     48  C   UNL     1       6.585  -1.439   7.363  1.00  0.00     0.074 A 
ATOM     49  C   UNL     1       7.919  -1.668   6.860  1.00  0.00     0.031 C 
ATOM     50  C   UNL     1       2.489  -1.909   4.275  1.00  0.00     0.029 A 
ATOM     51  C   UNL     1       2.495  -3.174   3.559  1.00  0.00     0.049 A 
ATOM     52  H   UNL     1       3.995  -3.619   2.088  1.00  0.00     0.167 HD
ATOM     53  C   UNL     1       6.043  -0.626   8.316  1.00  0.00     0.031 A 
ATOM     54  C   UNL     1       1.767  -4.275   3.906  1.00  0.00     0.031 A 
ATOM     55  C   UNL     1       4.583  -0.740   8.365  1.00  0.00     0.049 A 
ATOM     56  C   UNL     1       1.384  -4.287   5.368  1.00  0.00     0.074 A 
ATOM     57  C   UNL     1       3.553   0.078   7.927  1.00  0.00     0.029 A 
ATOM     58  N   UNL     1       4.001  -1.958   8.699  1.00  0.00    -0.354 N 
ATOM     59  N   UNL     1       1.938  -3.520   6.265  1.00  0.00    -0.248 NA
ATOM     60  C   UNL     1       0.393  -5.189   5.947  1.00  0.00     0.031 C 
ATOM     61  C   UNL     1       2.356  -0.685   7.927  1.00  0.00     0.029 A 
ATOM     62  C   UNL     1       2.654  -1.956   8.389  1.00  0.00     0.049 A 
ATOM     63  H   UNL     1       4.481  -2.717   9.101  1.00  0.00     0.167 HD
ATOM     64  C   UNL     1       1.415  -3.796   7.498  1.00  0.00     0.074 A 
ATOM     65  C   UNL     1       0.443  -4.844   7.247  1.00  0.00     0.031 C 
ATOM     66  C   UNL     1       1.840  -3.143   8.619  1.00  0.00     0.031 A 
BRANCH  53  67
ATOM     67  C   UNL     1       6.810   0.500   8.994  1.00  0.00    -0.014 A 
ATOM     68  C   UNL     1       6.108   1.601   9.531  1.00  0.00     0.010 A 
ATOM     69  C   UNL     1       8.213   0.582   9.066  1.00  0.00     0.010 A 
ATOM     70  C   UNL     1       6.763   2.752  10.003  1.00  0.00     0.020 A 
ATOM     71  C   UNL     1       8.883   1.734   9.506  1.00  0.00     0.020 A 
ATOM     72  C   UNL     1       8.152   2.823   9.958  1.00  0.00     0.054 A 
BRANCH  72  73
ATOM     73  S   UNL     1       8.987   4.342  10.482  1.00  0.00     0.124 S 
ATOM     74  O   UNL     1       8.399   5.346   9.600  1.00  0.00    -0.237 OA
ATOM     75  O   UNL     1       8.611   4.438  11.889  1.00  0.00    -0.237 OA
ATOM     76  O   UNL     1      10.402   4.062  10.237  1.00  0.00    -0.744 OA
ENDBRANCH  72  73
ENDBRANCH  53  67
BRANCH  54  77
ATOM     77  C   UNL     1       2.057  -5.481   3.087  1.00  0.00    -0.014 A 
ATOM     78  C   UNL     1       1.632  -5.461   1.741  1.00  0.00     0.010 A 
ATOM     79  C   UNL     1       3.095  -6.352   3.465  1.00  0.00     0.010 A 
ATOM     80  C   UNL     1       2.358  -6.140   0.762  1.00  0.00     0.020 A 
ATOM     81  C   UNL     1       3.818  -7.043   2.483  1.00  0.00     0.020 A 
ATOM     82  C   UNL     1       3.489  -6.868   1.135  1.00  0.00     0.054 A 
BRANCH  82  83
ATOM     83  S   UNL     1       4.635  -7.386  -0.178  1.00  0.00     0.124 S 
ATOM     84  O   UNL     1       3.776  -8.180  -1.050  1.00  0.00    -0.237 OA
ATOM     85  O   UNL     1       5.064  -6.097  -0.720  1.00  0.00    -0.237 OA
ATOM     86  O   UNL     1       5.661  -8.130   0.547  1.00  0.00    -0.744 OA
ENDBRANCH  82  83
ENDBRANCH  54  77
BRANCH  66  87
ATOM     87  C   UNL     1       1.475  -3.501  10.038  1.00  0.00    -0.014 A 
ATOM     88  C   UNL     1       1.080  -4.784  10.448  1.00  0.00     0.010 A 
ATOM     89  C   UNL     1       1.657  -2.531  11.053  1.00  0.00     0.010 A 
ATOM     90  C   UNL     1       0.816  -5.069  11.795  1.00  0.00     0.020 A 
ATOM     91  C   UNL     1       1.438  -2.816  12.404  1.00  0.00     0.020 A 
ATOM     92  C   UNL     1       0.992  -4.082  12.765  1.00  0.00     0.054 A 
BRANCH  92  93
ATOM     93  S   UNL     1       0.715  -4.475  14.511  1.00  0.00     0.124 S 
ATOM     94  O   UNL     1      -0.704  -4.165  14.667  1.00  0.00    -0.237 OA
ATOM     95  O   UNL     1       1.057  -5.894  14.588  1.00  0.00    -0.237 OA
ATOM     96  O   UNL     1       1.635  -3.582  15.211  1.00  0.00    -0.744 OA
ENDBRANCH  92  93
ENDBRANCH  66  87
ENDBRANCH  40  41
ENDBRANCH  32  35
ENDBRANCH  30  31
ENDBRANCH   1  30
TORSDOF 16
