REMARK SMILES O=C(NCCCCNC(=O)c1ccccc1OCC[S@@](=O)c1cccc(F)c1)c1ccc(-c2c3nc(c(-c4ccc(S(=O)(=O)[O-])cc4)c4ccc([nH]4)c(-c4ccc(S(=O)(=O)[O-])cc4)c4nc(c(-c5ccc(S(=O)(=O)[O-])cc5)c5ccc2[nH]5)C=C4)C=C3)cc1
REMARK SMILES IDX 6 1 5 2 4 3 3 4 1 5 2 6 29 8 30 9 88 10 31 11 87 12 32 13
REMARK SMILES IDX 33 14 34 15 81 16 35 17 86 18 80 19 82 20 36 21 85 22 79 23
REMARK SMILES IDX 78 24 37 26 67 27 48 28 66 29 49 30 52 31 65 32 83 33 50 34
REMARK SMILES IDX 51 35 64 37 84 38 53 39 38 40 39 41 47 42 40 43 46 44 41 45
REMARK SMILES IDX 42 46 43 47 44 48 45 49 68 50 69 51 77 52 70 53 76 54 71 55
REMARK SMILES IDX 72 56 73 57 74 58 75 59 54 60 55 61 63 62 56 63 62 64 57 65
REMARK SMILES IDX 58 66 59 67 60 68 61 69 7 70 8 71 9 72 10 74 11 75 12 76
REMARK SMILES IDX 16 77 13 78 15 79 14 80 17 81 18 82 19 83 20 84 21 85 22 86
REMARK SMILES IDX 23 87 28 88 24 89 26 90 25 91 27 92
REMARK H PARENT 3 7 82 25 52 36 8 73
REMARK Flexibility Score: inf
ROOT
ATOM      1  C   UNL     1       2.995  -0.994  -3.913  1.00  0.00     0.023 C 
ENDROOT
BRANCH   1   2
ATOM      2  C   UNL     1       3.519  -1.468  -2.531  1.00  0.00     0.023 C 
BRANCH   2   3
ATOM      3  C   UNL     1       3.677  -0.379  -1.464  1.00  0.00     0.116 C 
BRANCH   3   4
ATOM      4  N   UNL     1       2.378   0.082  -1.004  1.00  0.00    -0.352 N 
ATOM      5  O   UNL     1       0.710   0.481   0.425  1.00  0.00    -0.269 OA
ATOM      6  C   UNL     1       1.904   0.332   0.266  1.00  0.00     0.251 C 
ATOM      7  H   UNL     1       1.724   0.242  -1.723  1.00  0.00     0.163 HD
BRANCH   6   8
ATOM      8  C   UNL     1       2.824   0.426   1.432  1.00  0.00     0.039 A 
ATOM      9  C   UNL     1       4.064   1.062   1.349  1.00  0.00     0.014 A 
ATOM     10  C   UNL     1       2.366  -0.034   2.675  1.00  0.00     0.014 A 
ATOM     11  C   UNL     1       4.864   1.187   2.488  1.00  0.00     0.010 A 
ATOM     12  C   UNL     1       3.147   0.135   3.824  1.00  0.00     0.010 A 
ATOM     13  C   UNL     1       4.407   0.744   3.741  1.00  0.00    -0.014 A 
BRANCH  13  14
ATOM     14  C   UNL     1       5.211   1.005   4.966  1.00  0.00     0.031 A 
ATOM     15  C   UNL     1       5.828  -0.121   5.750  1.00  0.00     0.074 A 
ATOM     16  C   UNL     1       5.375   2.278   5.380  1.00  0.00     0.049 A 
ATOM     17  N   UNL     1       6.559  -0.064   6.835  1.00  0.00    -0.248 NA
ATOM     18  C   UNL     1       5.591  -1.486   5.257  1.00  0.00     0.031 C 
ATOM     19  C   UNL     1       4.810   3.458   4.719  1.00  0.00     0.029 A 
ATOM     20  N   UNL     1       6.067   2.796   6.446  1.00  0.00    -0.354 N 
ATOM     21  C   UNL     1       6.858  -1.381   7.165  1.00  0.00     0.074 A 
ATOM     22  C   UNL     1       6.209  -2.217   6.177  1.00  0.00     0.031 C 
ATOM     23  C   UNL     1       5.209   4.561   5.371  1.00  0.00     0.029 A 
ATOM     24  C   UNL     1       6.013   4.168   6.523  1.00  0.00     0.049 A 
ATOM     25  H   UNL     1       6.557   2.239   7.093  1.00  0.00     0.167 HD
ATOM     26  C   UNL     1       7.607  -1.850   8.194  1.00  0.00     0.031 A 
ATOM     27  C   UNL     1       6.538   5.020   7.425  1.00  0.00     0.031 A 
ATOM     28  C   UNL     1       8.246  -1.016   9.181  1.00  0.00     0.049 A 
ATOM     29  C   UNL     1       7.345   4.473   8.568  1.00  0.00     0.074 A 
ATOM     30  C   UNL     1       9.051  -1.399  10.240  1.00  0.00     0.029 A 
ATOM     31  N   UNL     1       8.148   0.367   9.236  1.00  0.00    -0.354 N 
ATOM     32  N   UNL     1       7.648   3.226   8.837  1.00  0.00    -0.248 NA
ATOM     33  C   UNL     1       7.883   5.449   9.525  1.00  0.00     0.031 C 
ATOM     34  C   UNL     1       9.401  -0.252  10.963  1.00  0.00     0.029 A 
ATOM     35  C   UNL     1       8.859   0.850  10.323  1.00  0.00     0.049 A 
ATOM     36  H   UNL     1       7.647   0.923   8.596  1.00  0.00     0.167 HD
ATOM     37  C   UNL     1       8.427   3.268   9.988  1.00  0.00     0.074 A 
ATOM     38  C   UNL     1       8.564   4.665  10.350  1.00  0.00     0.031 C 
ATOM     39  C   UNL     1       8.979   2.241  10.680  1.00  0.00     0.031 A 
BRANCH  26  40
ATOM     40  C   UNL     1       7.759  -3.344   8.322  1.00  0.00    -0.014 A 
ATOM     41  C   UNL     1       8.560  -4.074   7.425  1.00  0.00     0.010 A 
ATOM     42  C   UNL     1       7.131  -4.021   9.383  1.00  0.00     0.010 A 
ATOM     43  C   UNL     1       8.698  -5.458   7.564  1.00  0.00     0.020 A 
ATOM     44  C   UNL     1       7.286  -5.402   9.540  1.00  0.00     0.020 A 
ATOM     45  C   UNL     1       8.055  -6.115   8.618  1.00  0.00     0.054 A 
BRANCH  45  46
ATOM     46  S   UNL     1       8.264  -7.909   8.786  1.00  0.00     0.124 S 
ATOM     47  O   UNL     1       7.419  -8.413   7.707  1.00  0.00    -0.237 OA
ATOM     48  O   UNL     1       9.701  -8.086   8.592  1.00  0.00    -0.237 OA
ATOM     49  O   UNL     1       7.783  -8.190  10.136  1.00  0.00    -0.744 OA
ENDBRANCH  45  46
ENDBRANCH  26  40
BRANCH  27  50
ATOM     50  C   UNL     1       6.313   6.483   7.276  1.00  0.00    -0.014 A 
ATOM     51  C   UNL     1       7.365   7.333   6.895  1.00  0.00     0.010 A 
ATOM     52  C   UNL     1       5.033   7.028   7.485  1.00  0.00     0.010 A 
ATOM     53  C   UNL     1       7.144   8.704   6.734  1.00  0.00     0.020 A 
ATOM     54  C   UNL     1       4.801   8.393   7.299  1.00  0.00     0.020 A 
ATOM     55  C   UNL     1       5.862   9.225   6.934  1.00  0.00     0.054 A 
BRANCH  55  56
ATOM     56  S   UNL     1       5.581  10.996   6.655  1.00  0.00     0.124 S 
ATOM     57  O   UNL     1       6.166  11.588   7.853  1.00  0.00    -0.237 OA
ATOM     58  O   UNL     1       6.304  11.239   5.409  1.00  0.00    -0.237 OA
ATOM     59  O   UNL     1       4.127  11.098   6.550  1.00  0.00    -0.744 OA
ENDBRANCH  55  56
ENDBRANCH  27  50
BRANCH  39  60
ATOM     60  C   UNL     1       9.806   2.594  11.887  1.00  0.00    -0.014 A 
ATOM     61  C   UNL     1       9.203   3.041  13.077  1.00  0.00     0.010 A 
ATOM     62  C   UNL     1      11.204   2.447  11.839  1.00  0.00     0.010 A 
ATOM     63  C   UNL     1       9.988   3.370  14.185  1.00  0.00     0.020 A 
ATOM     64  C   UNL     1      11.990   2.751  12.953  1.00  0.00     0.020 A 
ATOM     65  C   UNL     1      11.378   3.227  14.115  1.00  0.00     0.054 A 
BRANCH  65  66
ATOM     66  S   UNL     1      12.375   3.632  15.575  1.00  0.00     0.124 S 
ATOM     67  O   UNL     1      12.371   5.092  15.550  1.00  0.00    -0.237 OA
ATOM     68  O   UNL     1      11.617   3.019  16.663  1.00  0.00    -0.237 OA
ATOM     69  O   UNL     1      13.666   3.007  15.296  1.00  0.00    -0.744 OA
ENDBRANCH  65  66
ENDBRANCH  39  60
ENDBRANCH  13  14
ENDBRANCH   6   8
ENDBRANCH   3   4
ENDBRANCH   2   3
ENDBRANCH   1   2
BRANCH   1  70
ATOM     70  C   UNL     1       4.023  -0.433  -4.935  1.00  0.00     0.116 C 
BRANCH  70  71
ATOM     71  N   UNL     1       4.980  -1.466  -5.364  1.00  0.00    -0.352 N 
ATOM     72  C   UNL     1       5.912  -1.661  -6.382  1.00  0.00     0.255 C 
ATOM     73  H   UNL     1       4.955  -2.242  -4.758  1.00  0.00     0.163 HD
ATOM     74  O   UNL     1       6.733  -2.564  -6.505  1.00  0.00    -0.269 OA
BRANCH  72  75
ATOM     75  C   UNL     1       6.178  -0.639  -7.308  1.00  0.00     0.081 A 
ATOM     76  C   UNL     1       6.131  -0.959  -8.663  1.00  0.00     0.018 A 
ATOM     77  C   UNL     1       6.350   0.597  -6.750  1.00  0.00     0.132 A 
ATOM     78  C   UNL     1       5.883   0.070  -9.529  1.00  0.00     0.001 A 
ATOM     79  C   UNL     1       5.956   1.619  -7.601  1.00  0.00     0.047 A 
ATOM     80  C   UNL     1       5.690   1.343  -8.980  1.00  0.00     0.004 A 
BRANCH  77  81
ATOM     81  O   UNL     1       6.692   0.711  -5.409  1.00  0.00    -0.492 OA
BRANCH  81  82
ATOM     82  C   UNL     1       7.605  -0.353  -4.797  1.00  0.00     0.243 C 
BRANCH  82  83
ATOM     83  C   UNL     1       7.056  -1.439  -3.732  1.00  0.00     0.152 C 
BRANCH  83  84
ATOM     84  S   UNL     1       6.958  -3.463  -3.840  1.00  0.00     0.056 S 
ATOM     85  O   UNL     1       6.297  -3.836  -2.541  1.00  0.00    -0.254 OA
BRANCH  84  86
ATOM     86  C   UNL     1       5.774  -4.388  -5.120  1.00  0.00     0.042 A 
ATOM     87  C   UNL     1       4.446  -4.083  -5.508  1.00  0.00     0.018 A 
ATOM     88  C   UNL     1       6.339  -5.480  -5.798  1.00  0.00     0.057 A 
ATOM     89  C   UNL     1       3.897  -4.523  -6.736  1.00  0.00     0.004 A 
ATOM     90  C   UNL     1       5.710  -6.040  -6.926  1.00  0.00     0.124 A 
ATOM     91  C   UNL     1       4.542  -5.510  -7.456  1.00  0.00     0.039 A 
ATOM     92  F   UNL     1       6.260  -7.100  -7.534  1.00  0.00    -0.207 F 
ENDBRANCH  84  86
ENDBRANCH  83  84
ENDBRANCH  82  83
ENDBRANCH  81  82
ENDBRANCH  77  81
ENDBRANCH  72  75
ENDBRANCH  70  71
ENDBRANCH   1  70
TORSDOF 19
