REMARK SMILES CC[C@H](C)Oc1ccc(NC(=O)/C=C/C(=O)NCCCCNC(=O)c2ccc(-c3c4nc(c(-c5ccc(S(=O)(=O)[O-])cc5)c5ccc([nH]5)c(-c5ccc(S(=O)(=O)[O-])cc5)c5nc(c(-c6ccc(S(=O)(=O)[O-])cc6)c6ccc3[nH]6)C=C5)C=C4)cc2)cc1
REMARK SMILES IDX 18 1 17 2 15 3 16 4 14 6 13 7 11 8 10 9 12 11 9 12 6 13 7 14
REMARK SMILES IDX 86 15 8 16 85 17 5 18 3 19 4 20 2 21 1 22 19 23 20 24 21 25
REMARK SMILES IDX 22 26 23 27 24 29 25 30 26 31 84 32 27 33 83 34 28 35 29 36
REMARK SMILES IDX 30 37 77 38 31 39 82 40 76 41 78 42 32 43 81 44 75 45 74 46
REMARK SMILES IDX 33 48 63 49 44 50 62 51 45 52 48 53 61 54 79 55 46 56 47 57
REMARK SMILES IDX 60 59 80 60 49 61 34 62 35 63 43 64 36 65 42 66 37 67 38 68
REMARK SMILES IDX 39 69 40 70 41 71 64 72 65 73 73 74 66 75 72 76 67 77 68 78
REMARK SMILES IDX 69 79 70 80 71 81 50 82 51 83 59 84 52 85 58 86 53 87 54 88
REMARK SMILES IDX 55 89 56 90 57 91
REMARK H PARENT 17 5 10 10 22 28 78 47 48 58
REMARK Flexibility Score: inf
ROOT
ATOM      1  C   UNL     1      -4.698   8.556   4.847  1.00  0.00     0.116 C 
ENDROOT
BRANCH   1   2
ATOM      2  N   UNL     1      -3.369   8.189   4.402  1.00  0.00    -0.353 N 
ATOM      3  C   UNL     1      -2.983   7.130   3.646  1.00  0.00     0.244 C 
ATOM      4  O   UNL     1      -1.835   7.052   3.218  1.00  0.00    -0.270 OA
ATOM      5  H   UNL     1      -2.644   8.792   4.686  1.00  0.00     0.163 HD
BRANCH   3   6
ATOM      6  C   UNL     1      -3.949   6.065   3.321  1.00  0.00     0.077 C 
ATOM      7  C   UNL     1      -4.603   5.418   4.297  1.00  0.00     0.077 C 
BRANCH   7   8
ATOM      8  C   UNL     1      -5.371   4.204   3.987  1.00  0.00     0.248 C 
ATOM      9  N   UNL     1      -4.727   3.084   3.542  1.00  0.00    -0.323 N 
ATOM     10  H   UNL     1      -5.330   2.353   3.276  1.00  0.00     0.170 HD
ATOM     11  O   UNL     1      -6.593   4.218   4.112  1.00  0.00    -0.270 OA
BRANCH   9  12
ATOM     12  C   UNL     1      -3.359   2.785   3.394  1.00  0.00     0.041 A 
ATOM     13  C   UNL     1      -0.672   2.234   2.752  1.00  0.00     0.119 A 
ATOM     14  C   UNL     1      -0.991   3.206   3.695  1.00  0.00     0.048 A 
ATOM     15  C   UNL     1      -1.696   1.467   2.209  1.00  0.00     0.048 A 
ATOM     16  C   UNL     1      -2.322   3.466   4.029  1.00  0.00     0.030 A 
ATOM     17  C   UNL     1      -3.032   1.738   2.531  1.00  0.00     0.030 A 
BRANCH  13  18
ATOM     18  O   UNL     1       0.658   2.094   2.505  1.00  0.00    -0.491 OA
BRANCH  18  19
ATOM     19  C   UNL     1       1.145   1.728   1.206  1.00  0.00     0.170 C 
ATOM     20  C   UNL     1       1.045   0.225   0.957  1.00  0.00     0.053 C 
BRANCH  19  21
ATOM     21  C   UNL     1       0.621   2.617   0.064  1.00  0.00     0.041 C 
ATOM     22  C   UNL     1       1.313   2.345  -1.264  1.00  0.00     0.008 C 
ENDBRANCH  19  21
ENDBRANCH  18  19
ENDBRANCH  13  18
ENDBRANCH   9  12
ENDBRANCH   7   8
ENDBRANCH   3   6
ENDBRANCH   1   2
BRANCH   1  23
ATOM     23  C   UNL     1      -4.790   8.576   6.371  1.00  0.00     0.023 C 
BRANCH  23  24
ATOM     24  C   UNL     1      -4.072   9.753   7.037  1.00  0.00     0.023 C 
BRANCH  24  25
ATOM     25  C   UNL     1      -4.415  11.126   6.469  1.00  0.00     0.116 C 
BRANCH  25  26
ATOM     26  N   UNL     1      -5.847  11.370   6.376  1.00  0.00    -0.352 N 
ATOM     27  C   UNL     1      -6.510  12.569   6.460  1.00  0.00     0.251 C 
ATOM     28  H   UNL     1      -6.411  10.575   6.235  1.00  0.00     0.163 HD
ATOM     29  O   UNL     1      -7.736  12.606   6.445  1.00  0.00    -0.269 OA
BRANCH  27  30
ATOM     30  C   UNL     1      -5.722  13.805   6.615  1.00  0.00     0.039 A 
ATOM     31  C   UNL     1      -6.009  14.653   7.687  1.00  0.00     0.014 A 
ATOM     32  C   UNL     1      -4.669  14.088   5.742  1.00  0.00     0.014 A 
ATOM     33  C   UNL     1      -5.193  15.759   7.921  1.00  0.00     0.010 A 
ATOM     34  C   UNL     1      -3.819  15.154   6.016  1.00  0.00     0.010 A 
ATOM     35  C   UNL     1      -4.073  15.998   7.108  1.00  0.00    -0.014 A 
BRANCH  35  36
ATOM     36  C   UNL     1      -3.158  17.133   7.379  1.00  0.00     0.031 A 
ATOM     37  C   UNL     1      -3.043  18.253   6.382  1.00  0.00     0.074 A 
ATOM     38  C   UNL     1      -2.395  17.126   8.490  1.00  0.00     0.049 A 
ATOM     39  N   UNL     1      -2.251  19.293   6.400  1.00  0.00    -0.248 NA
ATOM     40  C   UNL     1      -3.917  18.183   5.198  1.00  0.00     0.031 C 
ATOM     41  C   UNL     1      -2.390  16.075   9.512  1.00  0.00     0.029 A 
ATOM     42  N   UNL     1      -1.468  18.030   8.943  1.00  0.00    -0.354 N 
ATOM     43  C   UNL     1      -2.521  19.993   5.230  1.00  0.00     0.074 A 
ATOM     44  C   UNL     1      -3.512  19.235   4.500  1.00  0.00     0.031 C 
ATOM     45  C   UNL     1      -1.520  16.407  10.480  1.00  0.00     0.029 A 
ATOM     46  C   UNL     1      -0.880  17.671  10.133  1.00  0.00     0.049 A 
ATOM     47  H   UNL     1      -1.244  18.859   8.461  1.00  0.00     0.167 HD
ATOM     48  C   UNL     1      -2.009  21.175   4.814  1.00  0.00     0.031 A 
ATOM     49  C   UNL     1       0.072  18.289  10.859  1.00  0.00     0.031 A 
ATOM     50  C   UNL     1      -1.038  21.936   5.552  1.00  0.00     0.049 A 
ATOM     51  C   UNL     1       0.628  19.599  10.369  1.00  0.00     0.074 A 
ATOM     52  C   UNL     1      -0.482  23.162   5.231  1.00  0.00     0.029 A 
ATOM     53  N   UNL     1      -0.486  21.549   6.763  1.00  0.00    -0.354 N 
ATOM     54  N   UNL     1       0.324  20.268   9.282  1.00  0.00    -0.248 NA
ATOM     55  C   UNL     1       1.645  20.245  11.210  1.00  0.00     0.031 C 
ATOM     56  C   UNL     1       0.433  23.500   6.233  1.00  0.00     0.029 A 
ATOM     57  C   UNL     1       0.409  22.509   7.201  1.00  0.00     0.049 A 
ATOM     58  H   UNL     1      -0.700  20.715   7.242  1.00  0.00     0.167 HD
ATOM     59  C   UNL     1       1.089  21.428   9.327  1.00  0.00     0.074 A 
ATOM     60  C   UNL     1       1.858  21.377  10.553  1.00  0.00     0.031 C 
ATOM     61  C   UNL     1       1.152  22.445   8.433  1.00  0.00     0.031 A 
BRANCH  48  62
ATOM     62  C   UNL     1      -2.506  21.728   3.506  1.00  0.00    -0.014 A 
ATOM     63  C   UNL     1      -3.808  22.247   3.394  1.00  0.00     0.010 A 
ATOM     64  C   UNL     1      -1.647  21.786   2.394  1.00  0.00     0.010 A 
ATOM     65  C   UNL     1      -4.252  22.790   2.186  1.00  0.00     0.020 A 
ATOM     66  C   UNL     1      -2.079  22.352   1.191  1.00  0.00     0.020 A 
ATOM     67  C   UNL     1      -3.384  22.840   1.092  1.00  0.00     0.054 A 
BRANCH  67  68
ATOM     68  S   UNL     1      -3.973  23.595  -0.448  1.00  0.00     0.124 S 
ATOM     69  O   UNL     1      -4.892  22.577  -0.950  1.00  0.00    -0.237 OA
ATOM     70  O   UNL     1      -4.598  24.830   0.019  1.00  0.00    -0.237 OA
ATOM     71  O   UNL     1      -2.754  23.776  -1.234  1.00  0.00    -0.744 OA
ENDBRANCH  67  68
ENDBRANCH  48  62
BRANCH  49  72
ATOM     72  C   UNL     1       0.561  17.687  12.130  1.00  0.00    -0.014 A 
ATOM     73  C   UNL     1       0.268  18.291  13.366  1.00  0.00     0.010 A 
ATOM     74  C   UNL     1       1.350  16.523  12.108  1.00  0.00     0.010 A 
ATOM     75  C   UNL     1       0.789  17.766  14.552  1.00  0.00     0.020 A 
ATOM     76  C   UNL     1       1.849  15.979  13.296  1.00  0.00     0.020 A 
ATOM     77  C   UNL     1       1.582  16.616  14.509  1.00  0.00     0.054 A 
BRANCH  77  78
ATOM     78  S   UNL     1       2.241  15.944  16.060  1.00  0.00     0.124 S 
ATOM     79  O   UNL     1       3.335  16.867  16.347  1.00  0.00    -0.237 OA
ATOM     80  O   UNL     1       1.091  16.026  16.956  1.00  0.00    -0.237 OA
ATOM     81  O   UNL     1       2.643  14.587  15.698  1.00  0.00    -0.744 OA
ENDBRANCH  77  78
ENDBRANCH  49  72
BRANCH  61  82
ATOM     82  C   UNL     1       2.044  23.609   8.770  1.00  0.00    -0.014 A 
ATOM     83  C   UNL     1       3.443  23.501   8.691  1.00  0.00     0.010 A 
ATOM     84  C   UNL     1       1.466  24.845   9.114  1.00  0.00     0.010 A 
ATOM     85  C   UNL     1       4.251  24.603   8.981  1.00  0.00     0.020 A 
ATOM     86  C   UNL     1       2.271  25.955   9.380  1.00  0.00     0.020 A 
ATOM     87  C   UNL     1       3.659  25.823   9.325  1.00  0.00     0.054 A 
BRANCH  87  88
ATOM     88  S   UNL     1       4.728  27.251   9.651  1.00  0.00     0.124 S 
ATOM     89  O   UNL     1       5.253  26.941  10.978  1.00  0.00    -0.237 OA
ATOM     90  O   UNL     1       5.698  27.183   8.561  1.00  0.00    -0.237 OA
ATOM     91  O   UNL     1       3.813  28.389   9.593  1.00  0.00    -0.744 OA
ENDBRANCH  87  88
ENDBRANCH  61  82
ENDBRANCH  35  36
ENDBRANCH  27  30
ENDBRANCH  25  26
ENDBRANCH  24  25
ENDBRANCH  23  24
ENDBRANCH   1  23
TORSDOF 19
