REMARK SMILES CCOc1c(Br)cc(CNc2cccc(C(=O)NCCCCNC(=O)c3ccc(-c4c5nc(c(-c6ccc(S(=O)(=O)[O-])cc6)c6ccc([nH]6)c(-c6ccc(S(=O)(=O)[O-])cc6)c6nc(c(-c7ccc(S(=O)(=O)[O-])cc7)c7ccc4[nH]7)C=C6)C=C5)cc3)c2C)cc1OC
REMARK SMILES IDX 19 1 18 2 16 3 17 4 15 6 11 7 12 8 86 9 13 10 87 11 14 12
REMARK SMILES IDX 10 13 9 15 8 16 4 17 5 18 89 19 6 20 7 21 88 22 3 23 2 24
REMARK SMILES IDX 1 25 90 26 91 27 20 28 21 29 22 30 23 31 24 32 25 34 26 35
REMARK SMILES IDX 27 36 85 37 28 38 84 39 29 40 30 41 31 42 78 43 32 44 83 45
REMARK SMILES IDX 77 46 79 47 33 48 82 49 76 50 75 51 34 53 64 54 45 55 63 56
REMARK SMILES IDX 46 57 49 58 62 59 80 60 47 61 48 62 61 64 81 65 50 66 35 67
REMARK SMILES IDX 36 68 44 69 37 70 43 71 38 72 39 73 40 74 41 75 42 76 65 77
REMARK SMILES IDX 66 78 74 79 67 80 73 81 68 82 69 83 70 84 71 85 72 86 51 87
REMARK SMILES IDX 52 88 60 89 53 90 59 91 54 92 55 93 56 94 57 95 58 96
REMARK H PARENT 18 5 10 14 23 33 79 52 49 63
REMARK Flexibility Score: inf
ROOT
ATOM      1  C   UNL     1      11.523   2.292   0.200  1.00  0.00     0.116 C 
ENDROOT
BRANCH   1   2
ATOM      2  N   UNL     1      10.245   2.571  -0.431  1.00  0.00    -0.352 N 
ATOM      3  C   UNL     1       9.056   1.875  -0.423  1.00  0.00     0.251 C 
ATOM      4  O   UNL     1       8.062   2.430  -0.887  1.00  0.00    -0.269 OA
ATOM      5  H   UNL     1      10.224   3.403  -0.957  1.00  0.00     0.163 HD
BRANCH   3   6
ATOM      6  C   UNL     1       8.972   0.476   0.095  1.00  0.00     0.044 A 
ATOM      7  C   UNL     1       8.213  -1.841  -0.035  1.00  0.00     0.038 A 
ATOM      8  C   UNL     1       9.065  -2.144   1.040  1.00  0.00     0.026 A 
ATOM      9  C   UNL     1       8.210  -0.525  -0.563  1.00  0.00    -0.015 A 
ATOM     10  C   UNL     1       9.751  -1.151   1.718  1.00  0.00     0.003 A 
ATOM     11  C   UNL     1       7.315  -0.202  -1.737  1.00  0.00     0.047 C 
ATOM     12  C   UNL     1       9.635   0.162   1.291  1.00  0.00     0.014 A 
BRANCH   7  13
ATOM     13  N   UNL     1       7.322  -2.813  -0.491  1.00  0.00    -0.381 N 
ATOM     14  H   UNL     1       7.196  -2.958  -1.456  1.00  0.00     0.160 HD
BRANCH  13  15
ATOM     15  C   UNL     1       6.581  -3.609   0.475  1.00  0.00     0.149 C 
BRANCH  15  16
ATOM     16  C   UNL     1       5.128  -3.205   0.477  1.00  0.00    -0.024 A 
ATOM     17  C   UNL     1       2.391  -2.486   0.523  1.00  0.00     0.175 A 
ATOM     18  C   UNL     1       3.375  -1.635   1.063  1.00  0.00     0.064 A 
ATOM     19  C   UNL     1       2.778  -3.744   0.030  1.00  0.00     0.162 A 
ATOM     20  Br  UNL     1       2.945  -0.036   1.999  1.00  0.00    -0.047 Br
ATOM     21  C   UNL     1       4.730  -1.974   1.004  1.00  0.00     0.025 A 
ATOM     22  C   UNL     1       4.143  -4.079   0.007  1.00  0.00     0.056 A 
BRANCH  17  23
ATOM     23  O   UNL     1       1.077  -2.095   0.584  1.00  0.00    -0.489 OA
BRANCH  23  24
ATOM     24  C   UNL     1       0.626  -1.487  -0.636  1.00  0.00     0.226 C 
ATOM     25  C   UNL     1       0.609   0.029  -0.545  1.00  0.00     0.049 C 
ENDBRANCH  23  24
ENDBRANCH  17  23
BRANCH  19  26
ATOM     26  O   UNL     1       2.012  -4.772  -0.445  1.00  0.00    -0.493 OA
ATOM     27  C   UNL     1       0.604  -4.723  -0.310  1.00  0.00     0.278 C 
ENDBRANCH  19  26
ENDBRANCH  15  16
ENDBRANCH  13  15
ENDBRANCH   7  13
ENDBRANCH   3   6
ENDBRANCH   1   2
BRANCH   1  28
ATOM     28  C   UNL     1      12.749   2.550  -0.668  1.00  0.00     0.023 C 
BRANCH  28  29
ATOM     29  C   UNL     1      12.854   3.904  -1.363  1.00  0.00     0.023 C 
BRANCH  29  30
ATOM     30  C   UNL     1      12.560   5.108  -0.493  1.00  0.00     0.116 C 
BRANCH  30  31
ATOM     31  N   UNL     1      13.248   4.990   0.760  1.00  0.00    -0.352 N 
ATOM     32  C   UNL     1      13.982   5.833   1.536  1.00  0.00     0.251 C 
ATOM     33  H   UNL     1      13.172   4.089   1.149  1.00  0.00     0.163 HD
ATOM     34  O   UNL     1      14.302   5.346   2.606  1.00  0.00    -0.269 OA
BRANCH  32  35
ATOM     35  C   UNL     1      14.142   7.319   1.228  1.00  0.00     0.039 A 
ATOM     36  C   UNL     1      14.643   7.928   2.389  1.00  0.00     0.014 A 
ATOM     37  C   UNL     1      12.956   7.848   0.732  1.00  0.00     0.014 A 
ATOM     38  C   UNL     1      13.717   8.301   3.351  1.00  0.00     0.010 A 
ATOM     39  C   UNL     1      11.983   8.076   1.662  1.00  0.00     0.010 A 
ATOM     40  C   UNL     1      12.381   8.194   2.995  1.00  0.00    -0.014 A 
BRANCH  40  41
ATOM     41  C   UNL     1      11.284   8.230   3.923  1.00  0.00     0.031 A 
ATOM     42  C   UNL     1      10.667   9.557   4.069  1.00  0.00     0.074 A 
ATOM     43  C   UNL     1      10.860   7.036   4.396  1.00  0.00     0.049 A 
ATOM     44  N   UNL     1       9.884   9.914   5.014  1.00  0.00    -0.248 NA
ATOM     45  C   UNL     1      10.967  10.658   3.139  1.00  0.00     0.031 C 
ATOM     46  C   UNL     1       9.620   6.684   5.083  1.00  0.00     0.029 A 
ATOM     47  N   UNL     1      11.573   5.840   4.473  1.00  0.00    -0.354 N 
ATOM     48  C   UNL     1       9.300  11.100   4.615  1.00  0.00     0.074 A 
ATOM     49  C   UNL     1      10.117  11.600   3.546  1.00  0.00     0.031 C 
ATOM     50  C   UNL     1       9.832   5.551   5.789  1.00  0.00     0.029 A 
ATOM     51  C   UNL     1      11.261   5.256   5.699  1.00  0.00     0.049 A 
ATOM     52  H   UNL     1      12.183   5.476   3.790  1.00  0.00     0.167 HD
ATOM     53  C   UNL     1       8.067  11.395   5.106  1.00  0.00     0.031 A 
ATOM     54  C   UNL     1      12.111   5.337   6.775  1.00  0.00     0.031 A 
ATOM     55  C   UNL     1       7.719  10.424   6.145  1.00  0.00     0.049 A 
ATOM     56  C   UNL     1      11.498   6.218   7.874  1.00  0.00     0.074 A 
ATOM     57  C   UNL     1       6.975   9.256   6.110  1.00  0.00     0.029 A 
ATOM     58  N   UNL     1       8.542  10.335   7.264  1.00  0.00    -0.354 N 
ATOM     59  N   UNL     1      10.726   7.256   7.655  1.00  0.00    -0.248 NA
ATOM     60  C   UNL     1      11.635   5.921   9.299  1.00  0.00     0.031 C 
ATOM     61  C   UNL     1       7.470   8.403   7.142  1.00  0.00     0.029 A 
ATOM     62  C   UNL     1       8.490   9.063   7.809  1.00  0.00     0.049 A 
ATOM     63  H   UNL     1       9.087  11.074   7.619  1.00  0.00     0.167 HD
ATOM     64  C   UNL     1      10.222   7.716   8.847  1.00  0.00     0.074 A 
ATOM     65  C   UNL     1      10.839   6.857   9.847  1.00  0.00     0.031 C 
ATOM     66  C   UNL     1       9.318   8.738   8.965  1.00  0.00     0.031 A 
BRANCH  53  67
ATOM     67  C   UNL     1       7.082  12.327   4.439  1.00  0.00    -0.014 A 
ATOM     68  C   UNL     1       5.722  12.235   4.795  1.00  0.00     0.010 A 
ATOM     69  C   UNL     1       7.389  13.252   3.419  1.00  0.00     0.010 A 
ATOM     70  C   UNL     1       4.727  12.986   4.151  1.00  0.00     0.020 A 
ATOM     71  C   UNL     1       6.405  14.004   2.757  1.00  0.00     0.020 A 
ATOM     72  C   UNL     1       5.075  13.864   3.129  1.00  0.00     0.054 A 
BRANCH  72  73
ATOM     73  S   UNL     1       3.777  14.828   2.314  1.00  0.00     0.124 S 
ATOM     74  O   UNL     1       2.922  13.788   1.746  1.00  0.00    -0.237 OA
ATOM     75  O   UNL     1       3.202  15.580   3.426  1.00  0.00    -0.237 OA
ATOM     76  O   UNL     1       4.503  15.632   1.333  1.00  0.00    -0.744 OA
ENDBRANCH  72  73
ENDBRANCH  53  67
BRANCH  54  77
ATOM     77  C   UNL     1      13.580   5.271   6.446  1.00  0.00    -0.014 A 
ATOM     78  C   UNL     1      14.099   4.099   5.840  1.00  0.00     0.010 A 
ATOM     79  C   UNL     1      14.391   6.417   6.433  1.00  0.00     0.010 A 
ATOM     80  C   UNL     1      15.324   4.106   5.142  1.00  0.00     0.020 A 
ATOM     81  C   UNL     1      15.620   6.428   5.736  1.00  0.00     0.020 A 
ATOM     82  C   UNL     1      16.065   5.285   5.061  1.00  0.00     0.054 A 
BRANCH  82  83
ATOM     83  S   UNL     1      17.517   5.364   3.943  1.00  0.00     0.124 S 
ATOM     84  O   UNL     1      18.539   4.668   4.721  1.00  0.00    -0.237 OA
ATOM     85  O   UNL     1      17.098   4.665   2.731  1.00  0.00    -0.237 OA
ATOM     86  O   UNL     1      17.743   6.800   3.771  1.00  0.00    -0.744 OA
ENDBRANCH  82  83
ENDBRANCH  54  77
BRANCH  66  87
ATOM     87  C   UNL     1       9.081   9.528  10.235  1.00  0.00    -0.014 A 
ATOM     88  C   UNL     1       9.983   9.562  11.308  1.00  0.00     0.010 A 
ATOM     89  C   UNL     1       7.984  10.426  10.296  1.00  0.00     0.010 A 
ATOM     90  C   UNL     1       9.763  10.385  12.418  1.00  0.00     0.020 A 
ATOM     91  C   UNL     1       7.796  11.306  11.362  1.00  0.00     0.020 A 
ATOM     92  C   UNL     1       8.670  11.251  12.438  1.00  0.00     0.054 A 
BRANCH  92  93
ATOM     93  S   UNL     1       8.424  12.330  13.865  1.00  0.00     0.124 S 
ATOM     94  O   UNL     1       7.812  11.415  14.825  1.00  0.00    -0.237 OA
ATOM     95  O   UNL     1       9.784  12.757  14.186  1.00  0.00    -0.237 OA
ATOM     96  O   UNL     1       7.550  13.384  13.358  1.00  0.00    -0.744 OA
ENDBRANCH  92  93
ENDBRANCH  66  87
ENDBRANCH  40  41
ENDBRANCH  32  35
ENDBRANCH  30  31
ENDBRANCH  29  30
ENDBRANCH  28  29
ENDBRANCH   1  28
TORSDOF 20
