REMARK SMILES O=C(NCCCCNC(=O)[C@H]1CCCN(S(=O)(=O)c2cccc(Br)c2)C1)c1ccc(-c2c3nc(c(-c4ccc(S(=O)(=O)[O-])cc4)c4ccc([nH]4)c(-c4ccc(S(=O)(=O)[O-])cc4)c4nc(c(-c5ccc(S(=O)(=O)[O-])cc5)c5ccc2[nH]5)C=C4)C=C3)cc1
REMARK SMILES IDX 5 1 4 2 3 3 1 4 2 5 27 7 28 8 86 9 29 10 85 11 30 12 31 13
REMARK SMILES IDX 32 14 79 15 33 16 84 17 78 18 80 19 34 20 83 21 77 22 76 23
REMARK SMILES IDX 35 25 65 26 46 27 64 28 47 29 50 30 63 31 81 32 48 33 49 34
REMARK SMILES IDX 62 36 82 37 51 38 36 39 37 40 45 41 38 42 44 43 39 44 40 45
REMARK SMILES IDX 41 46 42 47 43 48 66 49 67 50 75 51 68 52 74 53 69 54 70 55
REMARK SMILES IDX 71 56 72 57 73 58 52 59 53 60 61 61 54 62 60 63 55 64 56 65
REMARK SMILES IDX 57 66 58 67 59 68 6 69 7 70 8 71 9 72 10 74 11 75 12 76
REMARK SMILES IDX 26 77 13 78 15 79 14 80 16 81 17 82 18 83 19 84 20 85 25 86
REMARK SMILES IDX 21 87 23 88 22 89 24 90
REMARK H PARENT 3 6 80 24 50 35 8 73
REMARK Flexibility Score: inf
ROOT
ATOM      1  C   UNL     1      10.129  -3.720  -9.388  1.00  0.00     0.023 C 
ENDROOT
BRANCH   1   2
ATOM      2  C   UNL     1      11.244  -2.693  -9.490  1.00  0.00     0.116 C 
BRANCH   2   3
ATOM      3  N   UNL     1      12.466  -3.101  -8.813  1.00  0.00    -0.352 N 
ATOM      4  O   UNL     1      14.686  -3.462  -8.597  1.00  0.00    -0.269 OA
ATOM      5  C   UNL     1      13.766  -2.970  -9.243  1.00  0.00     0.251 C 
ATOM      6  H   UNL     1      12.347  -3.525  -7.933  1.00  0.00     0.163 HD
BRANCH   5   7
ATOM      7  C   UNL     1      14.034  -2.266 -10.514  1.00  0.00     0.039 A 
ATOM      8  C   UNL     1      13.417  -1.043 -10.786  1.00  0.00     0.014 A 
ATOM      9  C   UNL     1      14.868  -2.863 -11.463  1.00  0.00     0.014 A 
ATOM     10  C   UNL     1      13.502  -0.501 -12.061  1.00  0.00     0.010 A 
ATOM     11  C   UNL     1      15.025  -2.267 -12.717  1.00  0.00     0.010 A 
ATOM     12  C   UNL     1      14.310  -1.103 -13.040  1.00  0.00    -0.014 A 
BRANCH  12  13
ATOM     13  C   UNL     1      14.414  -0.467 -14.377  1.00  0.00     0.031 A 
ATOM     14  C   UNL     1      13.895  -1.152 -15.611  1.00  0.00     0.074 A 
ATOM     15  C   UNL     1      14.939   0.772 -14.458  1.00  0.00     0.049 A 
ATOM     16  N   UNL     1      13.848  -0.702 -16.840  1.00  0.00    -0.248 NA
ATOM     17  C   UNL     1      13.366  -2.516 -15.454  1.00  0.00     0.031 C 
ATOM     18  C   UNL     1      15.478   1.534 -13.328  1.00  0.00     0.029 A 
ATOM     19  N   UNL     1      15.072   1.622 -15.525  1.00  0.00    -0.354 N 
ATOM     20  C   UNL     1      13.317  -1.733 -17.606  1.00  0.00     0.074 A 
ATOM     21  C   UNL     1      13.069  -2.839 -16.706  1.00  0.00     0.031 C 
ATOM     22  C   UNL     1      15.817   2.761 -13.747  1.00  0.00     0.029 A 
ATOM     23  C   UNL     1      15.579   2.853 -15.183  1.00  0.00     0.049 A 
ATOM     24  H   UNL     1      14.829   1.375 -16.446  1.00  0.00     0.167 HD
ATOM     25  C   UNL     1      13.061  -1.756 -18.937  1.00  0.00     0.031 A 
ATOM     26  C   UNL     1      15.827   3.938 -15.938  1.00  0.00     0.031 A 
ATOM     27  C   UNL     1      13.297  -0.648 -19.826  1.00  0.00     0.049 A 
ATOM     28  C   UNL     1      15.533   3.886 -17.407  1.00  0.00     0.074 A 
ATOM     29  C   UNL     1      13.035  -0.561 -21.183  1.00  0.00     0.029 A 
ATOM     30  N   UNL     1      13.851   0.566 -19.449  1.00  0.00    -0.354 N 
ATOM     31  N   UNL     1      15.009   2.908 -18.106  1.00  0.00    -0.248 NA
ATOM     32  C   UNL     1      15.868   5.083 -18.189  1.00  0.00     0.031 C 
ATOM     33  C   UNL     1      13.469   0.691 -21.634  1.00  0.00     0.029 A 
ATOM     34  C   UNL     1      13.960   1.401 -20.549  1.00  0.00     0.049 A 
ATOM     35  H   UNL     1      14.128   0.800 -18.533  1.00  0.00     0.167 HD
ATOM     36  C   UNL     1      14.939   3.376 -19.412  1.00  0.00     0.074 A 
ATOM     37  C   UNL     1      15.457   4.730 -19.400  1.00  0.00     0.031 C 
ATOM     38  C   UNL     1      14.489   2.740 -20.521  1.00  0.00     0.031 A 
BRANCH  25  39
ATOM     39  C   UNL     1      12.528  -3.038 -19.521  1.00  0.00    -0.014 A 
ATOM     40  C   UNL     1      11.200  -3.446 -19.303  1.00  0.00     0.010 A 
ATOM     41  C   UNL     1      13.362  -3.830 -20.331  1.00  0.00     0.010 A 
ATOM     42  C   UNL     1      10.730  -4.645 -19.849  1.00  0.00     0.020 A 
ATOM     43  C   UNL     1      12.889  -5.018 -20.898  1.00  0.00     0.020 A 
ATOM     44  C   UNL     1      11.580  -5.427 -20.636  1.00  0.00     0.054 A 
BRANCH  44  45
ATOM     45  S   UNL     1      10.946  -6.975 -21.340  1.00  0.00     0.124 S 
ATOM     46  O   UNL     1      10.970  -7.863 -20.180  1.00  0.00    -0.237 OA
ATOM     47  O   UNL     1       9.617  -6.596 -21.812  1.00  0.00    -0.237 OA
ATOM     48  O   UNL     1      11.908  -7.297 -22.391  1.00  0.00    -0.744 OA
ENDBRANCH  44  45
ENDBRANCH  25  39
BRANCH  26  49
ATOM     49  C   UNL     1      16.378   5.163 -15.302  1.00  0.00    -0.014 A 
ATOM     50  C   UNL     1      15.570   6.300 -15.132  1.00  0.00     0.010 A 
ATOM     51  C   UNL     1      17.699   5.181 -14.821  1.00  0.00     0.010 A 
ATOM     52  C   UNL     1      16.076   7.437 -14.495  1.00  0.00     0.020 A 
ATOM     53  C   UNL     1      18.200   6.305 -14.162  1.00  0.00     0.020 A 
ATOM     54  C   UNL     1      17.387   7.431 -14.011  1.00  0.00     0.054 A 
BRANCH  54  55
ATOM     55  S   UNL     1      18.004   8.887 -13.122  1.00  0.00     0.124 S 
ATOM     56  O   UNL     1      18.310   9.802 -14.217  1.00  0.00    -0.237 OA
ATOM     57  O   UNL     1      16.863   9.257 -12.287  1.00  0.00    -0.237 OA
ATOM     58  O   UNL     1      19.159   8.374 -12.390  1.00  0.00    -0.744 OA
ENDBRANCH  54  55
ENDBRANCH  26  49
BRANCH  38  59
ATOM     59  C   UNL     1      14.521   3.516 -21.808  1.00  0.00    -0.014 A 
ATOM     60  C   UNL     1      15.733   3.751 -22.482  1.00  0.00     0.010 A 
ATOM     61  C   UNL     1      13.321   4.001 -22.358  1.00  0.00     0.010 A 
ATOM     62  C   UNL     1      15.748   4.492 -23.666  1.00  0.00     0.020 A 
ATOM     63  C   UNL     1      13.330   4.723 -23.553  1.00  0.00     0.020 A 
ATOM     64  C   UNL     1      14.546   4.979 -24.190  1.00  0.00     0.054 A 
BRANCH  64  65
ATOM     65  S   UNL     1      14.583   5.921 -25.740  1.00  0.00     0.124 S 
ATOM     66  O   UNL     1      15.036   7.233 -25.286  1.00  0.00    -0.237 OA
ATOM     67  O   UNL     1      15.540   5.172 -26.552  1.00  0.00    -0.237 OA
ATOM     68  O   UNL     1      13.201   5.865 -26.210  1.00  0.00    -0.744 OA
ENDBRANCH  64  65
ENDBRANCH  38  59
ENDBRANCH  12  13
ENDBRANCH   5   7
ENDBRANCH   2   3
ENDBRANCH   1   2
BRANCH   1  69
ATOM     69  C   UNL     1       9.711  -4.079  -7.965  1.00  0.00     0.023 C 
BRANCH  69  70
ATOM     70  C   UNL     1       9.221  -2.905  -7.113  1.00  0.00     0.116 C 
BRANCH  70  71
ATOM     71  N   UNL     1       7.992  -2.323  -7.626  1.00  0.00    -0.356 N 
ATOM     72  C   UNL     1       6.711  -2.435  -7.168  1.00  0.00     0.224 C 
ATOM     73  H   UNL     1       8.100  -1.762  -8.428  1.00  0.00     0.163 HD
ATOM     74  O   UNL     1       5.827  -1.823  -7.769  1.00  0.00    -0.275 OA
BRANCH  72  75
ATOM     75  C   UNL     1       6.412  -3.289  -5.942  1.00  0.00     0.093 C 
ATOM     76  C   UNL     1       4.982  -3.059  -5.436  1.00  0.00     0.016 C 
ATOM     77  C   UNL     1       6.575  -4.764  -6.285  1.00  0.00     0.116 C 
ATOM     78  C   UNL     1       4.681  -3.980  -4.258  1.00  0.00     0.018 C 
ATOM     79  N   UNL     1       6.324  -5.636  -5.087  1.00  0.00    -0.197 NA
ATOM     80  C   UNL     1       4.929  -5.449  -4.601  1.00  0.00     0.102 C 
BRANCH  79  81
ATOM     81  S   UNL     1       6.774  -7.264  -5.455  1.00  0.00     0.243 S 
ATOM     82  O   UNL     1       5.754  -7.811  -6.324  1.00  0.00    -0.207 OA
ATOM     83  O   UNL     1       8.164  -7.243  -5.865  1.00  0.00    -0.207 OA
BRANCH  81  84
ATOM     84  C   UNL     1       6.694  -8.139  -3.913  1.00  0.00     0.083 A 
ATOM     85  C   UNL     1       5.463  -8.645  -3.479  1.00  0.00     0.022 A 
ATOM     86  C   UNL     1       7.874  -8.459  -3.234  1.00  0.00     0.037 A 
ATOM     87  C   UNL     1       5.404  -9.430  -2.329  1.00  0.00     0.003 A 
ATOM     88  C   UNL     1       7.804  -9.268  -2.102  1.00  0.00     0.019 A 
ATOM     89  C   UNL     1       6.576  -9.745  -1.641  1.00  0.00     0.016 A 
ATOM     90  Br  UNL     1       9.391  -9.760  -1.199  1.00  0.00    -0.051 Br
ENDBRANCH  81  84
ENDBRANCH  79  81
ENDBRANCH  72  75
ENDBRANCH  70  71
ENDBRANCH  69  70
ENDBRANCH   1  69
TORSDOF 16
