REMARK SMILES CN(C)Nc1ncnc(Nc2ccc(C(=O)NCCCCNC(=O)c3ccc(-c4c5nc(c(-c6ccc(S(=O)(=O)[O-])cc6)c6ccc([nH]6)c(-c6ccc(S(=O)(=O)[O-])cc6)c6nc(c(-c7ccc(S(=O)(=O)[O-])cc7)c7ccc4[nH]7)C=C6)C=C5)cc3)cc2)c1[N+](=O)[O-]
REMARK SMILES IDX 19 1 18 2 17 3 15 4 16 5 14 7 11 8 12 9 86 10 13 11 85 12
REMARK SMILES IDX 10 13 9 15 5 16 6 17 87 18 7 19 8 20 4 21 2 23 1 24 3 25
REMARK SMILES IDX 88 26 89 27 90 28 20 29 21 30 22 31 23 32 24 34 25 35 26 36
REMARK SMILES IDX 84 37 27 38 83 39 28 40 29 41 30 42 77 43 31 44 82 45 76 46
REMARK SMILES IDX 78 47 32 48 81 49 75 50 74 51 33 53 63 54 44 55 62 56 45 57
REMARK SMILES IDX 48 58 61 59 79 60 46 61 47 62 60 64 80 65 49 66 34 67 35 68
REMARK SMILES IDX 43 69 36 70 42 71 37 72 38 73 39 74 40 75 41 76 64 77 65 78
REMARK SMILES IDX 73 79 66 80 72 81 67 82 68 83 69 84 70 85 71 86 50 87 51 88
REMARK SMILES IDX 59 89 52 90 58 91 53 92 54 93 55 94 56 95 57 96
REMARK H PARENT 17 6 10 14 4 22 22 33 78 52 48 63
REMARK Flexibility Score: inf
ROOT
ATOM      1  C   UNL     1       5.632  -8.882   1.755  1.00  0.00     0.023 C 
ENDROOT
BRANCH   1   2
ATOM      2  C   UNL     1       6.228  -8.057   2.898  1.00  0.00     0.116 C 
BRANCH   2   3
ATOM      3  N   UNL     1       7.574  -7.632   2.567  1.00  0.00    -0.352 N 
ATOM      4  C   UNL     1       8.081  -6.450   2.092  1.00  0.00     0.251 C 
ATOM      5  O   UNL     1       9.298  -6.382   1.911  1.00  0.00    -0.269 OA
ATOM      6  H   UNL     1       8.257  -8.327   2.711  1.00  0.00     0.163 HD
BRANCH   4   7
ATOM      7  C   UNL     1       7.252  -5.237   1.846  1.00  0.00     0.039 A 
ATOM      8  C   UNL     1       5.812  -2.820   1.571  1.00  0.00     0.040 A 
ATOM      9  C   UNL     1       7.182  -2.797   1.824  1.00  0.00     0.027 A 
ATOM     10  C   UNL     1       5.195  -4.055   1.340  1.00  0.00     0.027 A 
ATOM     11  C   UNL     1       7.890  -3.993   1.983  1.00  0.00     0.016 A 
ATOM     12  C   UNL     1       5.912  -5.252   1.458  1.00  0.00     0.016 A 
BRANCH   8  13
ATOM     13  N   UNL     1       5.101  -1.611   1.439  1.00  0.00    -0.334 N 
ATOM     14  H   UNL     1       5.471  -0.928   0.833  1.00  0.00     0.168 HD
BRANCH  13  15
ATOM     15  C   UNL     1       3.899  -1.304   2.109  1.00  0.00     0.215 A 
ATOM     16  C   UNL     1       1.895  -0.070   2.440  1.00  0.00     0.225 A 
ATOM     17  N   UNL     1       1.595  -0.825   3.518  1.00  0.00    -0.212 NA
ATOM     18  C   UNL     1       3.093  -0.229   1.771  1.00  0.00     0.354 A 
ATOM     19  C   UNL     1       2.457  -1.791   3.839  1.00  0.00     0.227 A 
ATOM     20  N   UNL     1       3.569  -2.085   3.163  1.00  0.00    -0.212 NA
BRANCH  16  21
ATOM     21  N   UNL     1       0.823   0.742   2.058  1.00  0.00    -0.298 N 
ATOM     22  H   UNL     1       0.314   1.186   2.775  1.00  0.00     0.184 HD
BRANCH  21  23
ATOM     23  N   UNL     1       0.410   0.978   0.721  1.00  0.00    -0.228 NA
ATOM     24  C   UNL     1       0.301  -0.276  -0.047  1.00  0.00     0.130 C 
ATOM     25  C   UNL     1      -0.938   1.578   0.792  1.00  0.00     0.130 C 
ENDBRANCH  21  23
ENDBRANCH  16  21
BRANCH  18  26
ATOM     26  N   UNL     1       3.520   0.712   0.781  1.00  0.00     0.070 N 
ATOM     27  O   UNL     1       3.880   0.252  -0.316  1.00  0.00    -0.258 OA
ATOM     28  O   UNL     1       3.608   1.902   1.113  1.00  0.00    -0.258 OA
ENDBRANCH  18  26
ENDBRANCH  13  15
ENDBRANCH   8  13
ENDBRANCH   4   7
ENDBRANCH   2   3
ENDBRANCH   1   2
BRANCH   1  29
ATOM     29  C   UNL     1       6.171 -10.315   1.668  1.00  0.00     0.023 C 
BRANCH  29  30
ATOM     30  C   UNL     1       5.847 -11.202   2.867  1.00  0.00     0.116 C 
BRANCH  30  31
ATOM     31  N   UNL     1       4.419 -11.323   3.117  1.00  0.00    -0.352 N 
ATOM     32  C   UNL     1       3.721 -12.397   3.620  1.00  0.00     0.251 C 
ATOM     33  H   UNL     1       3.880 -10.529   2.897  1.00  0.00     0.163 HD
ATOM     34  O   UNL     1       2.502 -12.370   3.662  1.00  0.00    -0.269 OA
BRANCH  32  35
ATOM     35  C   UNL     1       4.463 -13.596   4.068  1.00  0.00     0.039 A 
ATOM     36  C   UNL     1       4.050 -14.848   3.608  1.00  0.00     0.014 A 
ATOM     37  C   UNL     1       5.572 -13.483   4.911  1.00  0.00     0.014 A 
ATOM     38  C   UNL     1       4.793 -15.983   3.939  1.00  0.00     0.010 A 
ATOM     39  C   UNL     1       6.346 -14.606   5.188  1.00  0.00     0.010 A 
ATOM     40  C   UNL     1       5.968 -15.866   4.700  1.00  0.00    -0.014 A 
BRANCH  40  41
ATOM     41  C   UNL     1       6.824 -17.048   4.970  1.00  0.00     0.031 A 
ATOM     42  C   UNL     1       7.007 -17.552   6.375  1.00  0.00     0.074 A 
ATOM     43  C   UNL     1       7.486 -17.630   3.950  1.00  0.00     0.049 A 
ATOM     44  N   UNL     1       7.736 -18.551   6.802  1.00  0.00    -0.248 NA
ATOM     45  C   UNL     1       6.298 -16.826   7.441  1.00  0.00     0.031 C 
ATOM     46  C   UNL     1       7.431 -17.202   2.550  1.00  0.00     0.029 A 
ATOM     47  N   UNL     1       8.339 -18.705   3.934  1.00  0.00    -0.354 N 
ATOM     48  C   UNL     1       7.585 -18.567   8.183  1.00  0.00     0.074 A 
ATOM     49  C   UNL     1       6.733 -17.449   8.527  1.00  0.00     0.031 C 
ATOM     50  C   UNL     1       8.192 -18.023   1.809  1.00  0.00     0.029 A 
ATOM     51  C   UNL     1       8.816 -19.012   2.682  1.00  0.00     0.049 A 
ATOM     52  H   UNL     1       8.586 -19.209   4.743  1.00  0.00     0.167 HD
ATOM     53  C   UNL     1       8.092 -19.444   9.082  1.00  0.00     0.031 A 
ATOM     54  C   UNL     1       9.661 -19.980   2.279  1.00  0.00     0.031 A 
ATOM     55  C   UNL     1       8.933 -20.559   8.736  1.00  0.00     0.049 A 
ATOM     56  C   UNL     1      10.211 -20.942   3.295  1.00  0.00     0.074 A 
ATOM     57  C   UNL     1       9.450 -21.538   9.566  1.00  0.00     0.029 A 
ATOM     58  N   UNL     1       9.386 -20.841   7.455  1.00  0.00    -0.354 N 
ATOM     59  N   UNL     1       9.996 -20.985   4.588  1.00  0.00    -0.248 NA
ATOM     60  C   UNL     1      11.107 -21.994   2.795  1.00  0.00     0.031 C 
ATOM     61  C   UNL     1      10.254 -22.385   8.796  1.00  0.00     0.029 A 
ATOM     62  C   UNL     1      10.194 -21.966   7.476  1.00  0.00     0.049 A 
ATOM     63  H   UNL     1       9.165 -20.320   6.650  1.00  0.00     0.167 HD
ATOM     64  C   UNL     1      10.713 -22.081   5.054  1.00  0.00     0.074 A 
ATOM     65  C   UNL     1      11.353 -22.683   3.901  1.00  0.00     0.031 C 
ATOM     66  C   UNL     1      10.830 -22.548   6.322  1.00  0.00     0.031 A 
BRANCH  53  67
ATOM     67  C   UNL     1       7.751 -19.225  10.533  1.00  0.00    -0.014 A 
ATOM     68  C   UNL     1       6.446 -19.444  11.012  1.00  0.00     0.010 A 
ATOM     69  C   UNL     1       8.753 -18.826  11.436  1.00  0.00     0.010 A 
ATOM     70  C   UNL     1       6.139 -19.222  12.357  1.00  0.00     0.020 A 
ATOM     71  C   UNL     1       8.456 -18.630  12.788  1.00  0.00     0.020 A 
ATOM     72  C   UNL     1       7.145 -18.811  13.236  1.00  0.00     0.054 A 
BRANCH  72  73
ATOM     73  S   UNL     1       6.721 -18.544  14.979  1.00  0.00     0.124 S 
ATOM     74  O   UNL     1       5.982 -17.285  14.918  1.00  0.00    -0.237 OA
ATOM     75  O   UNL     1       5.923 -19.725  15.300  1.00  0.00    -0.237 OA
ATOM     76  O   UNL     1       8.019 -18.473  15.645  1.00  0.00    -0.744 OA
ENDBRANCH  72  73
ENDBRANCH  53  67
BRANCH  54  77
ATOM     77  C   UNL     1      10.018 -20.100   0.839  1.00  0.00    -0.014 A 
ATOM     78  C   UNL     1       9.513 -21.160   0.067  1.00  0.00     0.010 A 
ATOM     79  C   UNL     1      10.846 -19.141   0.227  1.00  0.00     0.010 A 
ATOM     80  C   UNL     1       9.840 -21.268  -1.288  1.00  0.00     0.020 A 
ATOM     81  C   UNL     1      11.154 -19.231  -1.133  1.00  0.00     0.020 A 
ATOM     82  C   UNL     1      10.657 -20.300  -1.880  1.00  0.00     0.054 A 
BRANCH  82  83
ATOM     83  S   UNL     1      11.019 -20.427  -3.654  1.00  0.00     0.124 S 
ATOM     84  O   UNL     1      11.988 -21.518  -3.689  1.00  0.00    -0.237 OA
ATOM     85  O   UNL     1       9.708 -20.725  -4.224  1.00  0.00    -0.237 OA
ATOM     86  O   UNL     1      11.549 -19.107  -3.988  1.00  0.00    -0.744 OA
ENDBRANCH  82  83
ENDBRANCH  54  77
BRANCH  66  87
ATOM     87  C   UNL     1      11.664 -23.784   6.527  1.00  0.00    -0.014 A 
ATOM     88  C   UNL     1      13.066 -23.740   6.434  1.00  0.00     0.010 A 
ATOM     89  C   UNL     1      11.036 -24.997   6.863  1.00  0.00     0.010 A 
ATOM     90  C   UNL     1      13.823 -24.896   6.641  1.00  0.00     0.020 A 
ATOM     91  C   UNL     1      11.791 -26.149   7.097  1.00  0.00     0.020 A 
ATOM     92  C   UNL     1      13.181 -26.094   6.969  1.00  0.00     0.054 A 
BRANCH  92  93
ATOM     93  S   UNL     1      14.188 -27.572   7.271  1.00  0.00     0.124 S 
ATOM     94  O   UNL     1      14.580 -27.953   5.918  1.00  0.00    -0.237 OA
ATOM     95  O   UNL     1      15.264 -27.061   8.117  1.00  0.00    -0.237 OA
ATOM     96  O   UNL     1      13.265 -28.490   7.935  1.00  0.00    -0.744 OA
ENDBRANCH  92  93
ENDBRANCH  66  87
ENDBRANCH  40  41
ENDBRANCH  32  35
ENDBRANCH  30  31
ENDBRANCH  29  30
ENDBRANCH   1  29
TORSDOF 19
