REMARK SMILES CC[C@H]1CC[C@](C(=O)NCCCCNC(=O)c2ccc(-c3c4nc(c(-c5ccc(S(=O)(=O)[O-])cc5)c5ccc([nH]5)c(-c5ccc(S(=O)(=O)[O-])cc5)c5nc(c(-c6ccc(S(=O)(=O)[O-])cc6)c6ccc3[nH]6)C=C5)C=C4)cc2)([C@H]2CCC[C@@H](S(C)(=O)=O)C2)CC1
REMARK SMILES IDX 12 1 11 2 10 3 9 4 7 5 8 6 6 8 3 9 88 10 4 11 87 12 5 13
REMARK SMILES IDX 2 14 1 15 77 16 78 17 86 18 79 19 81 20 80 21 82 22 83 23
REMARK SMILES IDX 84 24 85 25 13 26 14 27 15 28 16 30 17 31 18 32 76 33 19 34
REMARK SMILES IDX 75 35 20 36 21 37 22 38 69 39 23 40 74 41 68 42 70 43 24 44
REMARK SMILES IDX 73 45 67 46 66 47 25 49 55 50 36 51 54 52 37 53 40 54 53 55
REMARK SMILES IDX 71 56 38 57 39 58 52 60 72 61 41 62 26 63 27 64 35 65 28 66
REMARK SMILES IDX 34 67 29 68 30 69 31 70 32 71 33 72 56 73 57 74 65 75 58 76
REMARK SMILES IDX 64 77 59 78 60 79 61 80 62 81 63 82 42 83 43 84 51 85 44 86
REMARK SMILES IDX 50 87 45 88 46 89 47 90 48 91 49 92
REMARK H PARENT 9 7 14 29 70 48 40 59
REMARK Flexibility Score: inf
ROOT
ATOM      1  C   UNL     1      -0.187   5.614  10.596  1.00  0.00     0.023 C 
ENDROOT
BRANCH   1   2
ATOM      2  C   UNL     1      -0.674   4.842   9.380  1.00  0.00     0.023 C 
BRANCH   2   3
ATOM      3  C   UNL     1       0.454   4.254   8.552  1.00  0.00     0.116 C 
BRANCH   3   4
ATOM      4  N   UNL     1       0.665   2.851   8.779  1.00  0.00    -0.356 N 
ATOM      5  C   UNL     1       1.326   2.121   7.839  1.00  0.00     0.226 C 
ATOM      6  O   UNL     1       2.545   2.010   7.957  1.00  0.00    -0.274 OA
ATOM      7  H   UNL     1       0.337   2.424   9.603  1.00  0.00     0.163 HD
BRANCH   5   8
ATOM      8  C   UNL     1       0.558   1.484   6.659  1.00  0.00     0.052 C 
ATOM      9  C   UNL     1      -0.632   3.889   5.113  1.00  0.00    -0.011 C 
ATOM     10  C   UNL     1       0.866   3.545   5.130  1.00  0.00     0.005 C 
ATOM     11  C   UNL     1      -1.482   3.104   6.130  1.00  0.00     0.005 C 
ATOM     12  C   UNL     1       1.176   2.065   5.358  1.00  0.00     0.017 C 
ATOM     13  C   UNL     1      -0.973   1.729   6.566  1.00  0.00     0.017 C 
BRANCH   9  14
ATOM     14  C   UNL     1      -0.912   5.410   5.284  1.00  0.00    -0.000 C 
ATOM     15  C   UNL     1      -0.005   6.340   4.494  1.00  0.00     0.004 C 
ENDBRANCH   9  14
BRANCH   8  16
ATOM     16  C   UNL     1       0.795  -0.106   6.696  1.00  0.00     0.006 C 
ATOM     17  C   UNL     1       2.240  -0.640   6.639  1.00  0.00     0.005 C 
ATOM     18  C   UNL     1       0.002  -0.942   7.724  1.00  0.00     0.024 C 
ATOM     19  C   UNL     1       2.946  -0.895   7.971  1.00  0.00     0.002 C 
ATOM     20  C   UNL     1       0.602  -1.135   9.120  1.00  0.00     0.108 C 
ATOM     21  C   UNL     1       2.102  -1.434   9.126  1.00  0.00     0.020 C 
BRANCH  20  22
ATOM     22  S   UNL     1       0.059   0.099  10.331  1.00  0.00     0.150 S 
ATOM     23  C   UNL     1      -0.464  -0.862  11.728  1.00  0.00     0.158 C 
ATOM     24  O   UNL     1       1.178   0.907  10.766  1.00  0.00    -0.229 OA
ATOM     25  O   UNL     1      -1.157   0.729   9.844  1.00  0.00    -0.229 OA
ENDBRANCH  20  22
ENDBRANCH   8  16
ENDBRANCH   5   8
ENDBRANCH   3   4
ENDBRANCH   2   3
ENDBRANCH   1   2
BRANCH   1  26
ATOM     26  C   UNL     1       0.865   6.677  10.302  1.00  0.00     0.116 C 
BRANCH  26  27
ATOM     27  N   UNL     1       0.506   7.602   9.230  1.00  0.00    -0.352 N 
ATOM     28  C   UNL     1       0.765   8.954   9.173  1.00  0.00     0.251 C 
ATOM     29  H   UNL     1       0.025   7.216   8.463  1.00  0.00     0.163 HD
ATOM     30  O   UNL     1       0.351   9.647   8.252  1.00  0.00    -0.269 OA
BRANCH  28  31
ATOM     31  C   UNL     1       1.519   9.546  10.293  1.00  0.00     0.039 A 
ATOM     32  C   UNL     1       0.916  10.539  11.065  1.00  0.00     0.014 A 
ATOM     33  C   UNL     1       2.737   8.978  10.672  1.00  0.00     0.014 A 
ATOM     34  C   UNL     1       1.502  10.903  12.277  1.00  0.00     0.010 A 
ATOM     35  C   UNL     1       3.258   9.267  11.925  1.00  0.00     0.010 A 
ATOM     36  C   UNL     1       2.647  10.233  12.741  1.00  0.00    -0.014 A 
BRANCH  36  37
ATOM     37  C   UNL     1       3.226  10.527  14.076  1.00  0.00     0.031 A 
ATOM     38  C   UNL     1       4.636  11.043  14.178  1.00  0.00     0.074 A 
ATOM     39  C   UNL     1       2.513  10.270  15.192  1.00  0.00     0.049 A 
ATOM     40  N   UNL     1       5.338  11.317  15.246  1.00  0.00    -0.248 NA
ATOM     41  C   UNL     1       5.364  11.249  12.914  1.00  0.00     0.031 C 
ATOM     42  C   UNL     1       1.155   9.719  15.227  1.00  0.00     0.029 A 
ATOM     43  N   UNL     1       2.832  10.439  16.517  1.00  0.00    -0.354 N 
ATOM     44  C   UNL     1       6.590  11.706  14.784  1.00  0.00     0.074 A 
ATOM     45  C   UNL     1       6.573  11.571  13.346  1.00  0.00     0.031 C 
ATOM     46  C   UNL     1       0.745   9.637  16.504  1.00  0.00     0.029 A 
ATOM     47  C   UNL     1       1.822  10.082  17.381  1.00  0.00     0.049 A 
ATOM     48  H   UNL     1       3.703  10.784  16.821  1.00  0.00     0.167 HD
ATOM     49  C   UNL     1       7.651  12.160  15.490  1.00  0.00     0.031 A 
ATOM     50  C   UNL     1       1.771  10.108  18.728  1.00  0.00     0.031 A 
ATOM     51  C   UNL     1       7.656  12.307  16.920  1.00  0.00     0.049 A 
ATOM     52  C   UNL     1       2.968  10.608  19.492  1.00  0.00     0.074 A 
ATOM     53  C   UNL     1       8.656  12.818  17.727  1.00  0.00     0.029 A 
ATOM     54  N   UNL     1       6.612  11.940  17.757  1.00  0.00    -0.354 N 
ATOM     55  N   UNL     1       4.115  11.048  19.032  1.00  0.00    -0.248 NA
ATOM     56  C   UNL     1       2.859  10.627  20.957  1.00  0.00     0.031 C 
ATOM     57  C   UNL     1       8.243  12.700  19.058  1.00  0.00     0.029 A 
ATOM     58  C   UNL     1       6.957  12.185  19.075  1.00  0.00     0.049 A 
ATOM     59  H   UNL     1       5.754  11.561  17.458  1.00  0.00     0.167 HD
ATOM     60  C   UNL     1       4.853  11.425  20.149  1.00  0.00     0.074 A 
ATOM     61  C   UNL     1       4.015  11.177  21.305  1.00  0.00     0.031 C 
ATOM     62  C   UNL     1       6.109  11.933  20.213  1.00  0.00     0.031 A 
BRANCH  49  63
ATOM     63  C   UNL     1       8.894  12.527  14.723  1.00  0.00    -0.014 A 
ATOM     64  C   UNL     1       8.917  13.636  13.857  1.00  0.00     0.010 A 
ATOM     65  C   UNL     1      10.068  11.772  14.896  1.00  0.00     0.010 A 
ATOM     66  C   UNL     1      10.076  13.957  13.147  1.00  0.00     0.020 A 
ATOM     67  C   UNL     1      11.240  12.110  14.214  1.00  0.00     0.020 A 
ATOM     68  C   UNL     1      11.232  13.192  13.331  1.00  0.00     0.054 A 
BRANCH  68  69
ATOM     69  S   UNL     1      12.731  13.654  12.422  1.00  0.00     0.124 S 
ATOM     70  O   UNL     1      12.383  13.276  11.055  1.00  0.00    -0.237 OA
ATOM     71  O   UNL     1      12.825  15.090  12.672  1.00  0.00    -0.237 OA
ATOM     72  O   UNL     1      13.778  12.846  13.044  1.00  0.00    -0.744 OA
ENDBRANCH  68  69
ENDBRANCH  49  63
BRANCH  50  73
ATOM     73  C   UNL     1       0.539   9.666  19.441  1.00  0.00    -0.014 A 
ATOM     74  C   UNL     1      -0.257  10.594  20.137  1.00  0.00     0.010 A 
ATOM     75  C   UNL     1       0.152   8.313  19.428  1.00  0.00     0.010 A 
ATOM     76  C   UNL     1      -1.401  10.175  20.825  1.00  0.00     0.020 A 
ATOM     77  C   UNL     1      -1.008   7.895  20.088  1.00  0.00     0.020 A 
ATOM     78  C   UNL     1      -1.770   8.827  20.794  1.00  0.00     0.054 A 
BRANCH  78  79
ATOM     79  S   UNL     1      -3.282   8.314  21.657  1.00  0.00     0.124 S 
ATOM     80  O   UNL     1      -2.887   8.431  23.057  1.00  0.00    -0.237 OA
ATOM     81  O   UNL     1      -4.259   9.294  21.191  1.00  0.00    -0.237 OA
ATOM     82  O   UNL     1      -3.502   6.950  21.181  1.00  0.00    -0.744 OA
ENDBRANCH  78  79
ENDBRANCH  50  73
BRANCH  62  83
ATOM     83  C   UNL     1       6.644  12.296  21.574  1.00  0.00    -0.014 A 
ATOM     84  C   UNL     1       6.989  11.308  22.513  1.00  0.00     0.010 A 
ATOM     85  C   UNL     1       6.863  13.649  21.890  1.00  0.00     0.010 A 
ATOM     86  C   UNL     1       7.513  11.670  23.756  1.00  0.00     0.020 A 
ATOM     87  C   UNL     1       7.418  14.014  23.119  1.00  0.00     0.020 A 
ATOM     88  C   UNL     1       7.727  13.021  24.050  1.00  0.00     0.054 A 
BRANCH  88  89
ATOM     89  S   UNL     1       8.451  13.461  25.653  1.00  0.00     0.124 S 
ATOM     90  O   UNL     1       7.349  13.186  26.571  1.00  0.00    -0.237 OA
ATOM     91  O   UNL     1       9.590  12.551  25.749  1.00  0.00    -0.237 OA
ATOM     92  O   UNL     1       8.799  14.872  25.503  1.00  0.00    -0.744 OA
ENDBRANCH  88  89
ENDBRANCH  62  83
ENDBRANCH  36  37
ENDBRANCH  28  31
ENDBRANCH  26  27
ENDBRANCH   1  26
TORSDOF 17
