REMARK SMILES O=C(Cc1ccc(NC(=O)Nc2ccc(Br)cc2)cc1)NCCCCNC(=O)c1ccc(-c2c3nc(c(-c4ccc(S(=O)(=O)[O-])cc4)c4ccc([nH]4)c(-c4ccc(S(=O)(=O)[O-])cc4)c4nc(c(-c5ccc(S(=O)(=O)[O-])cc5)c5ccc2[nH]5)C=C4)C=C3)cc1
REMARK SMILES IDX 23 1 22 2 21 3 1 4 2 5 3 7 4 8 5 9 20 10 6 11 19 12 7 13
REMARK SMILES IDX 8 14 9 15 10 17 11 18 12 20 13 21 18 22 14 23 17 24 15 25
REMARK SMILES IDX 16 26 24 27 25 28 26 29 27 30 28 32 29 33 30 34 88 35 31 36
REMARK SMILES IDX 87 37 32 38 33 39 34 40 81 41 35 42 86 43 80 44 82 45 36 46
REMARK SMILES IDX 85 47 79 48 78 49 37 51 67 52 48 53 66 54 49 55 52 56 65 57
REMARK SMILES IDX 83 58 50 59 51 60 64 62 84 63 53 64 38 65 39 66 47 67 40 68
REMARK SMILES IDX 46 69 41 70 42 71 43 72 44 73 45 74 68 75 69 76 77 77 70 78
REMARK SMILES IDX 76 79 71 80 72 81 73 82 74 83 75 84 54 85 55 86 63 87 56 88
REMARK SMILES IDX 62 89 57 90 58 91 59 92 60 93 61 94
REMARK H PARENT 21 6 8 16 11 19 26 31 82 50 52 61
REMARK Flexibility Score: inf
ROOT
ATOM      1  C   UNL     1       2.515   2.236  -2.697  1.00  0.00     0.023 C 
ENDROOT
BRANCH   1   2
ATOM      2  C   UNL     1       2.249   0.792  -2.264  1.00  0.00     0.116 C 
BRANCH   2   3
ATOM      3  N   UNL     1       3.050   0.432  -1.110  1.00  0.00    -0.356 N 
ATOM      4  O   UNL     1       1.333   0.346   0.404  1.00  0.00    -0.275 OA
ATOM      5  C   UNL     1       2.536   0.284   0.161  1.00  0.00     0.224 C 
ATOM      6  H   UNL     1       4.015   0.286  -1.241  1.00  0.00     0.163 HD
BRANCH   5   7
ATOM      7  C   UNL     1       3.580   0.149   1.270  1.00  0.00     0.135 C 
BRANCH   7   8
ATOM      8  C   UNL     1       4.440  -1.090   1.179  1.00  0.00    -0.039 A 
ATOM      9  C   UNL     1       4.144  -2.214   1.955  1.00  0.00     0.006 A 
ATOM     10  C   UNL     1       5.527  -1.160   0.298  1.00  0.00     0.006 A 
ATOM     11  C   UNL     1       4.824  -3.417   1.744  1.00  0.00     0.026 A 
ATOM     12  C   UNL     1       6.157  -2.381   0.045  1.00  0.00     0.026 A 
ATOM     13  C   UNL     1       5.721  -3.541   0.687  1.00  0.00     0.042 A 
BRANCH  13  14
ATOM     14  N   UNL     1       6.184  -4.771   0.185  1.00  0.00    -0.308 N 
ATOM     15  C   UNL     1       5.726  -6.044   0.282  1.00  0.00     0.323 C 
ATOM     16  H   UNL     1       7.009  -4.692  -0.345  1.00  0.00     0.171 HD
ATOM     17  O   UNL     1       6.515  -6.966   0.054  1.00  0.00    -0.248 OA
ATOM     18  N   UNL     1       4.461  -6.366   0.644  1.00  0.00    -0.308 N 
ATOM     19  H   UNL     1       4.377  -7.265   1.038  1.00  0.00     0.171 HD
BRANCH  18  20
ATOM     20  C   UNL     1       3.248  -5.665   0.565  1.00  0.00     0.042 A 
ATOM     21  C   UNL     1       2.300  -5.927   1.561  1.00  0.00     0.027 A 
ATOM     22  C   UNL     1       2.989  -4.680  -0.393  1.00  0.00     0.027 A 
ATOM     23  C   UNL     1       1.179  -5.106   1.694  1.00  0.00     0.018 A 
ATOM     24  C   UNL     1       1.853  -3.872  -0.276  1.00  0.00     0.018 A 
ATOM     25  C   UNL     1       0.973  -4.067   0.787  1.00  0.00     0.018 A 
ATOM     26  Br  UNL     1      -0.484  -2.891   1.035  1.00  0.00    -0.051 Br
ENDBRANCH  18  20
ENDBRANCH  13  14
ENDBRANCH   7   8
ENDBRANCH   5   7
ENDBRANCH   2   3
ENDBRANCH   1   2
BRANCH   1  27
ATOM     27  C   UNL     1       3.977   2.551  -3.040  1.00  0.00     0.023 C 
BRANCH  27  28
ATOM     28  C   UNL     1       4.586   1.707  -4.155  1.00  0.00     0.116 C 
BRANCH  28  29
ATOM     29  N   UNL     1       3.969   1.949  -5.449  1.00  0.00    -0.352 N 
ATOM     30  C   UNL     1       4.562   2.229  -6.660  1.00  0.00     0.251 C 
ATOM     31  H   UNL     1       2.986   1.906  -5.461  1.00  0.00     0.163 HD
ATOM     32  O   UNL     1       3.868   2.553  -7.616  1.00  0.00    -0.269 OA
BRANCH  30  33
ATOM     33  C   UNL     1       6.037   2.173  -6.798  1.00  0.00     0.039 A 
ATOM     34  C   UNL     1       6.690   3.205  -7.477  1.00  0.00     0.014 A 
ATOM     35  C   UNL     1       6.776   1.114  -6.263  1.00  0.00     0.014 A 
ATOM     36  C   UNL     1       8.086   3.212  -7.556  1.00  0.00     0.010 A 
ATOM     37  C   UNL     1       8.169   1.162  -6.277  1.00  0.00     0.010 A 
ATOM     38  C   UNL     1       8.841   2.212  -6.921  1.00  0.00    -0.014 A 
BRANCH  38  39
ATOM     39  C   UNL     1      10.329   2.257  -6.909  1.00  0.00     0.031 A 
ATOM     40  C   UNL     1      11.130   1.160  -7.559  1.00  0.00     0.074 A 
ATOM     41  C   UNL     1      10.962   3.255  -6.259  1.00  0.00     0.049 A 
ATOM     42  N   UNL     1      12.429   1.000  -7.597  1.00  0.00    -0.248 NA
ATOM     43  C   UNL     1      10.375   0.093  -8.235  1.00  0.00     0.031 C 
ATOM     44  C   UNL     1      10.305   4.359  -5.555  1.00  0.00     0.029 A 
ATOM     45  N   UNL     1      12.302   3.500  -6.078  1.00  0.00    -0.354 N 
ATOM     46  C   UNL     1      12.645  -0.187  -8.289  1.00  0.00     0.074 A 
ATOM     47  C   UNL     1      11.343  -0.734  -8.602  1.00  0.00     0.031 C 
ATOM     48  C   UNL     1      11.241   5.174  -5.043  1.00  0.00     0.029 A 
ATOM     49  C   UNL     1      12.562   4.630  -5.338  1.00  0.00     0.049 A 
ATOM     50  H   UNL     1      13.009   2.921  -6.444  1.00  0.00     0.167 HD
ATOM     51  C   UNL     1      13.819  -0.759  -8.650  1.00  0.00     0.031 A 
ATOM     52  C   UNL     1      13.730   5.166  -4.931  1.00  0.00     0.031 A 
ATOM     53  C   UNL     1      15.114  -0.213  -8.339  1.00  0.00     0.049 A 
ATOM     54  C   UNL     1      15.021   4.498  -5.322  1.00  0.00     0.074 A 
ATOM     55  C   UNL     1      16.360  -0.696  -8.700  1.00  0.00     0.029 A 
ATOM     56  N   UNL     1      15.334   0.935  -7.592  1.00  0.00    -0.354 N 
ATOM     57  N   UNL     1      15.203   3.409  -6.029  1.00  0.00    -0.248 NA
ATOM     58  C   UNL     1      16.264   5.139  -4.870  1.00  0.00     0.031 C 
ATOM     59  C   UNL     1      17.333   0.124  -8.120  1.00  0.00     0.029 A 
ATOM     60  C   UNL     1      16.694   1.160  -7.458  1.00  0.00     0.049 A 
ATOM     61  H   UNL     1      14.627   1.505  -7.213  1.00  0.00     0.167 HD
ATOM     62  C   UNL     1      16.581   3.250  -6.131  1.00  0.00     0.074 A 
ATOM     63  C   UNL     1      17.184   4.364  -5.428  1.00  0.00     0.031 C 
ATOM     64  C   UNL     1      17.284   2.271  -6.754  1.00  0.00     0.031 A 
BRANCH  51  65
ATOM     65  C   UNL     1      13.756  -2.053  -9.422  1.00  0.00    -0.014 A 
ATOM     66  C   UNL     1      13.271  -2.090 -10.742  1.00  0.00     0.010 A 
ATOM     67  C   UNL     1      14.228  -3.243  -8.836  1.00  0.00     0.010 A 
ATOM     68  C   UNL     1      13.218  -3.296 -11.445  1.00  0.00     0.020 A 
ATOM     69  C   UNL     1      14.207  -4.446  -9.548  1.00  0.00     0.020 A 
ATOM     70  C   UNL     1      13.685  -4.467 -10.843  1.00  0.00     0.054 A 
BRANCH  70  71
ATOM     71  S   UNL     1      13.623  -6.013 -11.789  1.00  0.00     0.124 S 
ATOM     72  O   UNL     1      12.189  -6.289 -11.820  1.00  0.00    -0.237 OA
ATOM     73  O   UNL     1      14.216  -5.629 -13.068  1.00  0.00    -0.237 OA
ATOM     74  O   UNL     1      14.419  -6.942 -10.990  1.00  0.00    -0.744 OA
ENDBRANCH  70  71
ENDBRANCH  51  65
BRANCH  52  75
ATOM     75  C   UNL     1      13.731   6.407  -4.106  1.00  0.00    -0.014 A 
ATOM     76  C   UNL     1      14.208   7.620  -4.633  1.00  0.00     0.010 A 
ATOM     77  C   UNL     1      13.244   6.381  -2.786  1.00  0.00     0.010 A 
ATOM     78  C   UNL     1      14.217   8.779  -3.849  1.00  0.00     0.020 A 
ATOM     79  C   UNL     1      13.221   7.544  -2.011  1.00  0.00     0.020 A 
ATOM     80  C   UNL     1      13.719   8.734  -2.544  1.00  0.00     0.054 A 
BRANCH  80  81
ATOM     81  S   UNL     1      13.692  10.260  -1.564  1.00  0.00     0.124 S 
ATOM     82  O   UNL     1      15.107  10.457  -1.270  1.00  0.00    -0.237 OA
ATOM     83  O   UNL     1      13.098  11.219  -2.492  1.00  0.00    -0.237 OA
ATOM     84  O   UNL     1      12.855   9.915  -0.417  1.00  0.00    -0.744 OA
ENDBRANCH  80  81
ENDBRANCH  52  75
BRANCH  64  85
ATOM     85  C   UNL     1      18.787   2.374  -6.738  1.00  0.00    -0.014 A 
ATOM     86  C   UNL     1      19.525   2.164  -5.560  1.00  0.00     0.010 A 
ATOM     87  C   UNL     1      19.475   2.633  -7.939  1.00  0.00     0.010 A 
ATOM     88  C   UNL     1      20.921   2.241  -5.577  1.00  0.00     0.020 A 
ATOM     89  C   UNL     1      20.871   2.679  -7.966  1.00  0.00     0.020 A 
ATOM     90  C   UNL     1      21.585   2.497  -6.781  1.00  0.00     0.054 A 
BRANCH  90  91
ATOM     91  S   UNL     1      23.398   2.549  -6.783  1.00  0.00     0.124 S 
ATOM     92  O   UNL     1      23.667   3.805  -6.089  1.00  0.00    -0.237 OA
ATOM     93  O   UNL     1      23.752   1.337  -6.048  1.00  0.00    -0.237 OA
ATOM     94  O   UNL     1      23.744   2.534  -8.202  1.00  0.00    -0.744 OA
ENDBRANCH  90  91
ENDBRANCH  64  85
ENDBRANCH  38  39
ENDBRANCH  30  33
ENDBRANCH  28  29
ENDBRANCH  27  28
ENDBRANCH   1  27
TORSDOF 17
