REMARK SMILES CCc1cc(/C=C/C(=O)NCCCCNC(=O)c2ccc(-c3c4nc(c(-c5ccc(S(=O)(=O)[O-])cc5)c5ccc([nH]5)c(-c5ccc(S(=O)(=O)[O-])cc5)c5nc(c(-c6ccc(S(=O)(=O)[O-])cc6)c6ccc3[nH]6)C=C5)C=C4)cc2)cc(C(=O)c2ccccc2)c1
REMARK SMILES IDX 12 1 11 2 10 3 8 4 9 5 7 7 6 8 5 9 3 10 4 11 88 12 79 13
REMARK SMILES IDX 78 14 2 15 1 16 80 17 81 18 82 19 83 20 87 21 84 22 86 23
REMARK SMILES IDX 85 24 13 25 14 26 15 27 16 28 17 30 18 31 19 32 77 33 20 34
REMARK SMILES IDX 76 35 21 36 22 37 23 38 70 39 24 40 75 41 69 42 71 43 25 44
REMARK SMILES IDX 74 45 68 46 67 47 26 49 56 50 37 51 55 52 38 53 41 54 54 55
REMARK SMILES IDX 72 56 39 57 40 58 53 60 73 61 42 62 27 63 28 64 36 65 29 66
REMARK SMILES IDX 35 67 30 68 31 69 32 70 33 71 34 72 57 73 58 74 66 75 59 76
REMARK SMILES IDX 65 77 60 78 61 79 62 80 63 81 64 82 43 83 44 84 52 85 45 86
REMARK SMILES IDX 51 87 46 88 47 89 48 90 49 91 50 92
REMARK H PARENT 10 6 15 29 71 48 41 59
REMARK Flexibility Score: inf
ROOT
ATOM      1  C   UNL     1       1.619   5.375   7.591  1.00  0.00     0.023 C 
ENDROOT
BRANCH   1   2
ATOM      2  C   UNL     1       2.955   4.715   7.245  1.00  0.00     0.116 C 
BRANCH   2   3
ATOM      3  N   UNL     1       3.018   3.357   7.753  1.00  0.00    -0.353 N 
ATOM      4  C   UNL     1       2.894   2.165   7.113  1.00  0.00     0.243 C 
ATOM      5  O   UNL     1       3.092   1.120   7.730  1.00  0.00    -0.270 OA
ATOM      6  H   UNL     1       3.179   3.288   8.722  1.00  0.00     0.163 HD
BRANCH   4   7
ATOM      7  C   UNL     1       2.592   2.086   5.663  1.00  0.00     0.072 C 
ATOM      8  C   UNL     1       1.682   2.832   5.022  1.00  0.00     0.014 C 
BRANCH   8   9
ATOM      9  C   UNL     1       1.332   2.687   3.604  1.00  0.00    -0.024 A 
ATOM     10  C   UNL     1       0.712   1.304   1.688  1.00  0.00    -0.047 A 
ATOM     11  C   UNL     1       1.138   1.429   3.019  1.00  0.00     0.011 A 
ATOM     12  C   UNL     1       0.464   2.469   0.949  1.00  0.00     0.016 A 
ATOM     13  C   UNL     1       0.626   3.735   1.528  1.00  0.00     0.023 A 
ATOM     14  C   UNL     1       1.073   3.838   2.850  1.00  0.00     0.020 A 
BRANCH  10  15
ATOM     15  C   UNL     1       0.433  -0.064   1.113  1.00  0.00     0.032 C 
ATOM     16  C   UNL     1       1.040  -0.308  -0.262  1.00  0.00     0.009 C 
ENDBRANCH  10  15
BRANCH  13  17
ATOM     17  C   UNL     1       0.346   4.988   0.772  1.00  0.00     0.193 C 
ATOM     18  O   UNL     1       0.866   6.046   1.117  1.00  0.00    -0.289 OA
BRANCH  17  19
ATOM     19  C   UNL     1      -0.536   4.984  -0.418  1.00  0.00     0.022 A 
ATOM     20  C   UNL     1      -0.096   5.631  -1.577  1.00  0.00     0.012 A 
ATOM     21  C   UNL     1      -1.784   4.349  -0.396  1.00  0.00     0.012 A 
ATOM     22  C   UNL     1      -0.881   5.597  -2.730  1.00  0.00     0.001 A 
ATOM     23  C   UNL     1      -2.564   4.317  -1.552  1.00  0.00     0.001 A 
ATOM     24  C   UNL     1      -2.108   4.933  -2.719  1.00  0.00     0.000 A 
ENDBRANCH  17  19
ENDBRANCH  13  17
ENDBRANCH   8   9
ENDBRANCH   4   7
ENDBRANCH   2   3
ENDBRANCH   1   2
BRANCH   1  25
ATOM     25  C   UNL     1       1.502   5.869   9.035  1.00  0.00     0.023 C 
BRANCH  25  26
ATOM     26  C   UNL     1       2.520   6.928   9.444  1.00  0.00     0.116 C 
BRANCH  26  27
ATOM     27  N   UNL     1       2.511   8.103   8.587  1.00  0.00    -0.352 N 
ATOM     28  C   UNL     1       2.847   9.397   8.913  1.00  0.00     0.251 C 
ATOM     29  H   UNL     1       2.228   7.954   7.656  1.00  0.00     0.163 HD
ATOM     30  O   UNL     1       2.693  10.299   8.103  1.00  0.00    -0.269 OA
BRANCH  28  31
ATOM     31  C   UNL     1       3.352   9.686  10.272  1.00  0.00     0.039 A 
ATOM     32  C   UNL     1       2.752  10.711  11.006  1.00  0.00     0.014 A 
ATOM     33  C   UNL     1       4.382   8.924  10.830  1.00  0.00     0.014 A 
ATOM     34  C   UNL     1       3.140  10.928  12.330  1.00  0.00     0.010 A 
ATOM     35  C   UNL     1       4.720   9.098  12.168  1.00  0.00     0.010 A 
ATOM     36  C   UNL     1       4.101  10.099  12.931  1.00  0.00    -0.014 A 
BRANCH  36  37
ATOM     37  C   UNL     1       4.465  10.259  14.361  1.00  0.00     0.031 A 
ATOM     38  C   UNL     1       5.858  10.678  14.744  1.00  0.00     0.074 A 
ATOM     39  C   UNL     1       3.559   9.963  15.314  1.00  0.00     0.049 A 
ATOM     40  N   UNL     1       6.376  10.819  15.936  1.00  0.00    -0.248 NA
ATOM     41  C   UNL     1       6.798  10.946  13.643  1.00  0.00     0.031 C 
ATOM     42  C   UNL     1       2.191   9.498  15.070  1.00  0.00     0.029 A 
ATOM     43  N   UNL     1       3.656  10.000  16.683  1.00  0.00    -0.354 N 
ATOM     44  C   UNL     1       7.704  11.174  15.731  1.00  0.00     0.074 A 
ATOM     45  C   UNL     1       7.924  11.181  14.301  1.00  0.00     0.031 C 
ATOM     46  C   UNL     1       1.571   9.319  16.248  1.00  0.00     0.029 A 
ATOM     47  C   UNL     1       2.503   9.622  17.329  1.00  0.00     0.049 A 
ATOM     48  H   UNL     1       4.475  10.273  17.157  1.00  0.00     0.167 HD
ATOM     49  C   UNL     1       8.651  11.485  16.648  1.00  0.00     0.031 A 
ATOM     50  C   UNL     1       2.227   9.527  18.644  1.00  0.00     0.031 A 
ATOM     51  C   UNL     1       8.424  11.494  18.069  1.00  0.00     0.049 A 
ATOM     52  C   UNL     1       3.289   9.894  19.643  1.00  0.00     0.074 A 
ATOM     53  C   UNL     1       9.301  11.851  19.078  1.00  0.00     0.029 A 
ATOM     54  N   UNL     1       7.235  11.130  18.682  1.00  0.00    -0.354 N 
ATOM     55  N   UNL     1       4.521  10.291  19.427  1.00  0.00    -0.248 NA
ATOM     56  C   UNL     1       2.920   9.813  21.063  1.00  0.00     0.031 C 
ATOM     57  C   UNL     1       8.654  11.664  20.305  1.00  0.00     0.029 A 
ATOM     58  C   UNL     1       7.359  11.239  20.056  1.00  0.00     0.049 A 
ATOM     59  H   UNL     1       6.422  10.838  18.210  1.00  0.00     0.167 HD
ATOM     60  C   UNL     1       5.065  10.533  20.683  1.00  0.00     0.074 A 
ATOM     61  C   UNL     1       4.025  10.251  21.652  1.00  0.00     0.031 C 
ATOM     62  C   UNL     1       6.313  10.953  21.006  1.00  0.00     0.031 A 
BRANCH  49  63
ATOM     63  C   UNL     1      10.021  11.841  16.137  1.00  0.00    -0.014 A 
ATOM     64  C   UNL     1      10.249  13.052  15.457  1.00  0.00     0.010 A 
ATOM     65  C   UNL     1      11.102  10.970  16.363  1.00  0.00     0.010 A 
ATOM     66  C   UNL     1      11.522  13.364  14.974  1.00  0.00     0.020 A 
ATOM     67  C   UNL     1      12.383  11.291  15.905  1.00  0.00     0.020 A 
ATOM     68  C   UNL     1      12.581  12.478  15.196  1.00  0.00     0.054 A 
BRANCH  68  69
ATOM     69  S   UNL     1      14.227  12.915  14.573  1.00  0.00     0.124 S 
ATOM     70  O   UNL     1      14.081  12.670  13.141  1.00  0.00    -0.237 OA
ATOM     71  O   UNL     1      14.355  14.318  14.960  1.00  0.00    -0.237 OA
ATOM     72  O   UNL     1      15.119  11.995  15.275  1.00  0.00    -0.744 OA
ENDBRANCH  68  69
ENDBRANCH  49  63
BRANCH  50  73
ATOM     73  C   UNL     1       0.876   9.091  19.090  1.00  0.00    -0.014 A 
ATOM     74  C   UNL     1      -0.019  10.015  19.657  1.00  0.00     0.010 A 
ATOM     75  C   UNL     1       0.472   7.753  18.936  1.00  0.00     0.010 A 
ATOM     76  C   UNL     1      -1.286   9.605  20.081  1.00  0.00     0.020 A 
ATOM     77  C   UNL     1      -0.804   7.344  19.335  1.00  0.00     0.020 A 
ATOM     78  C   UNL     1      -1.671   8.271  19.916  1.00  0.00     0.054 A 
BRANCH  78  79
ATOM     79  S   UNL     1      -3.340   7.772  20.424  1.00  0.00     0.124 S 
ATOM     80  O   UNL     1      -3.212   7.720  21.876  1.00  0.00    -0.237 OA
ATOM     81  O   UNL     1      -4.169   8.854  19.899  1.00  0.00    -0.237 OA
ATOM     82  O   UNL     1      -3.525   6.481  19.763  1.00  0.00    -0.744 OA
ENDBRANCH  78  79
ENDBRANCH  50  73
BRANCH  62  83
ATOM     83  C   UNL     1       6.614  11.166  22.465  1.00  0.00    -0.014 A 
ATOM     84  C   UNL     1       6.788  10.078  23.338  1.00  0.00     0.010 A 
ATOM     85  C   UNL     1       6.772  12.474  22.956  1.00  0.00     0.010 A 
ATOM     86  C   UNL     1       7.082  10.297  24.687  1.00  0.00     0.020 A 
ATOM     87  C   UNL     1       7.092  12.697  24.297  1.00  0.00     0.020 A 
ATOM     88  C   UNL     1       7.230  11.606  25.158  1.00  0.00     0.054 A 
BRANCH  88  89
ATOM     89  S   UNL     1       7.650  11.865  26.903  1.00  0.00     0.124 S 
ATOM     90  O   UNL     1       6.374  11.608  27.564  1.00  0.00    -0.237 OA
ATOM     91  O   UNL     1       8.691  10.867  27.136  1.00  0.00    -0.237 OA
ATOM     92  O   UNL     1       8.106  13.253  26.947  1.00  0.00    -0.744 OA
ENDBRANCH  88  89
ENDBRANCH  62  83
ENDBRANCH  36  37
ENDBRANCH  28  31
ENDBRANCH  26  27
ENDBRANCH  25  26
ENDBRANCH   1  25
TORSDOF 18
