REMARK SMILES O=C(NCCCCNC(=O)c1cncc(OCCCc2ccccc2)n1)c1ccc(-c2c3nc(c(-c4ccc(S(=O)(=O)[O-])cc4)c4ccc([nH]4)c(-c4ccc(S(=O)(=O)[O-])cc4)c4nc(c(-c5ccc(S(=O)(=O)[O-])cc5)c5ccc2[nH]5)C=C4)C=C3)cc1
REMARK SMILES IDX 6 1 5 2 4 3 3 4 1 5 2 6 27 8 28 9 86 10 29 11 85 12 30 13
REMARK SMILES IDX 31 14 32 15 79 16 33 17 84 18 78 19 80 20 34 21 83 22 77 23
REMARK SMILES IDX 76 24 35 26 65 27 46 28 64 29 47 30 50 31 63 32 81 33 48 34
REMARK SMILES IDX 49 35 62 37 82 38 51 39 36 40 37 41 45 42 38 43 44 44 39 45
REMARK SMILES IDX 40 46 41 47 42 48 43 49 66 50 67 51 75 52 68 53 74 54 69 55
REMARK SMILES IDX 70 56 71 57 72 58 73 59 52 60 53 61 61 62 54 63 60 64 55 65
REMARK SMILES IDX 56 66 57 67 58 68 59 69 7 70 8 71 9 72 10 74 11 75 12 76
REMARK SMILES IDX 26 77 13 78 15 79 14 80 16 81 17 82 18 83 19 84 20 85 21 86
REMARK SMILES IDX 25 87 22 88 24 89 23 90
REMARK H PARENT 3 7 80 25 50 36 8 73
REMARK Flexibility Score: inf
ROOT
ATOM      1  C   UNL     1       4.412   3.787   0.464  1.00  0.00     0.023 C 
ENDROOT
BRANCH   1   2
ATOM      2  C   UNL     1       4.960   2.558  -0.258  1.00  0.00     0.023 C 
BRANCH   2   3
ATOM      3  C   UNL     1       4.567   1.214   0.340  1.00  0.00     0.116 C 
BRANCH   3   4
ATOM      4  N   UNL     1       3.129   0.998   0.367  1.00  0.00    -0.352 N 
ATOM      5  O   UNL     1       1.173   0.002  -0.154  1.00  0.00    -0.269 OA
ATOM      6  C   UNL     1       2.400  -0.045  -0.156  1.00  0.00     0.251 C 
ATOM      7  H   UNL     1       2.604   1.694   0.824  1.00  0.00     0.163 HD
BRANCH   6   8
ATOM      8  C   UNL     1       3.104  -1.206  -0.742  1.00  0.00     0.039 A 
ATOM      9  C   UNL     1       4.177  -1.793  -0.069  1.00  0.00     0.014 A 
ATOM     10  C   UNL     1       2.688  -1.709  -1.978  1.00  0.00     0.014 A 
ATOM     11  C   UNL     1       4.919  -2.789  -0.691  1.00  0.00     0.010 A 
ATOM     12  C   UNL     1       3.379  -2.777  -2.560  1.00  0.00     0.010 A 
ATOM     13  C   UNL     1       4.510  -3.314  -1.927  1.00  0.00    -0.014 A 
BRANCH  13  14
ATOM     14  C   UNL     1       5.207  -4.509  -2.467  1.00  0.00     0.031 A 
ATOM     15  C   UNL     1       5.976  -4.461  -3.757  1.00  0.00     0.074 A 
ATOM     16  C   UNL     1       5.140  -5.651  -1.753  1.00  0.00     0.049 A 
ATOM     17  N   UNL     1       6.640  -5.423  -4.347  1.00  0.00    -0.248 NA
ATOM     18  C   UNL     1       6.004  -3.182  -4.485  1.00  0.00     0.031 C 
ATOM     19  C   UNL     1       4.407  -5.813  -0.491  1.00  0.00     0.029 A 
ATOM     20  N   UNL     1       5.699  -6.884  -1.968  1.00  0.00    -0.354 N 
ATOM     21  C   UNL     1       7.146  -4.877  -5.521  1.00  0.00     0.074 A 
ATOM     22  C   UNL     1       6.704  -3.500  -5.568  1.00  0.00     0.031 C 
ATOM     23  C   UNL     1       4.594  -7.056  -0.027  1.00  0.00     0.029 A 
ATOM     24  C   UNL     1       5.393  -7.802  -0.990  1.00  0.00     0.049 A 
ATOM     25  H   UNL     1       6.264  -7.092  -2.747  1.00  0.00     0.167 HD
ATOM     26  C   UNL     1       7.906  -5.477  -6.469  1.00  0.00     0.031 A 
ATOM     27  C   UNL     1       5.690  -9.110  -0.891  1.00  0.00     0.031 A 
ATOM     28  C   UNL     1       8.344  -6.849  -6.405  1.00  0.00     0.049 A 
ATOM     29  C   UNL     1       6.502  -9.750  -1.979  1.00  0.00     0.074 A 
ATOM     30  C   UNL     1       9.166  -7.529  -7.288  1.00  0.00     0.029 A 
ATOM     31  N   UNL     1       7.989  -7.755  -5.416  1.00  0.00    -0.354 N 
ATOM     32  N   UNL     1       7.028  -9.197  -3.045  1.00  0.00    -0.248 NA
ATOM     33  C   UNL     1       6.759 -11.190  -1.853  1.00  0.00     0.031 C 
ATOM     34  C   UNL     1       9.251  -8.860  -6.872  1.00  0.00     0.029 A 
ATOM     35  C   UNL     1       8.538  -8.996  -5.693  1.00  0.00     0.049 A 
ATOM     36  H   UNL     1       7.429  -7.546  -4.634  1.00  0.00     0.167 HD
ATOM     37  C   UNL     1       7.687 -10.221  -3.713  1.00  0.00     0.074 A 
ATOM     38  C   UNL     1       7.523 -11.417  -2.912  1.00  0.00     0.031 C 
ATOM     39  C   UNL     1       8.359 -10.178  -4.889  1.00  0.00     0.031 A 
BRANCH  26  40
ATOM     40  C   UNL     1       8.305  -4.678  -7.683  1.00  0.00    -0.014 A 
ATOM     41  C   UNL     1       9.300  -3.688  -7.612  1.00  0.00     0.010 A 
ATOM     42  C   UNL     1       7.762  -5.013  -8.938  1.00  0.00     0.010 A 
ATOM     43  C   UNL     1       9.740  -3.044  -8.774  1.00  0.00     0.020 A 
ATOM     44  C   UNL     1       8.214  -4.387 -10.104  1.00  0.00     0.020 A 
ATOM     45  C   UNL     1       9.198  -3.402 -10.013  1.00  0.00     0.054 A 
BRANCH  45  46
ATOM     46  S   UNL     1       9.843  -2.601 -11.509  1.00  0.00     0.124 S 
ATOM     47  O   UNL     1       9.316  -1.245 -11.376  1.00  0.00    -0.237 OA
ATOM     48  O   UNL     1      11.288  -2.732 -11.344  1.00  0.00    -0.237 OA
ATOM     49  O   UNL     1       9.269  -3.386 -12.599  1.00  0.00    -0.744 OA
ENDBRANCH  45  46
ENDBRANCH  26  40
BRANCH  27  50
ATOM     50  C   UNL     1       5.163  -9.910   0.248  1.00  0.00    -0.014 A 
ATOM     51  C   UNL     1       6.030 -10.470   1.201  1.00  0.00     0.010 A 
ATOM     52  C   UNL     1       3.777 -10.127   0.372  1.00  0.00     0.010 A 
ATOM     53  C   UNL     1       5.524 -11.264   2.235  1.00  0.00     0.020 A 
ATOM     54  C   UNL     1       3.265 -10.887   1.425  1.00  0.00     0.020 A 
ATOM     55  C   UNL     1       4.145 -11.470   2.337  1.00  0.00     0.054 A 
BRANCH  55  56
ATOM     56  S   UNL     1       3.509 -12.496   3.690  1.00  0.00     0.124 S 
ATOM     57  O   UNL     1       3.869 -13.838   3.244  1.00  0.00    -0.237 OA
ATOM     58  O   UNL     1       4.247 -11.991   4.844  1.00  0.00    -0.237 OA
ATOM     59  O   UNL     1       2.078 -12.200   3.698  1.00  0.00    -0.744 OA
ENDBRANCH  55  56
ENDBRANCH  27  50
BRANCH  39  60
ATOM     60  C   UNL     1       8.979 -11.462  -5.370  1.00  0.00    -0.014 A 
ATOM     61  C   UNL     1       8.182 -12.516  -5.851  1.00  0.00     0.010 A 
ATOM     62  C   UNL     1      10.379 -11.601  -5.375  1.00  0.00     0.010 A 
ATOM     63  C   UNL     1       8.773 -13.700  -6.297  1.00  0.00     0.020 A 
ATOM     64  C   UNL     1      10.975 -12.771  -5.851  1.00  0.00     0.020 A 
ATOM     65  C   UNL     1      10.166 -13.819  -6.295  1.00  0.00     0.054 A 
BRANCH  65  66
ATOM     66  S   UNL     1      10.909 -15.351  -6.920  1.00  0.00     0.124 S 
ATOM     67  O   UNL     1      10.605 -16.295  -5.849  1.00  0.00    -0.237 OA
ATOM     68  O   UNL     1      10.190 -15.567  -8.173  1.00  0.00    -0.237 OA
ATOM     69  O   UNL     1      12.323 -15.014  -7.070  1.00  0.00    -0.744 OA
ENDBRANCH  65  66
ENDBRANCH  39  60
ENDBRANCH  13  14
ENDBRANCH   6   8
ENDBRANCH   3   4
ENDBRANCH   2   3
ENDBRANCH   1   2
BRANCH   1  70
ATOM     70  C   UNL     1       4.599   3.804   1.977  1.00  0.00     0.116 C 
BRANCH  70  71
ATOM     71  N   UNL     1       5.984   3.700   2.394  1.00  0.00    -0.351 N 
ATOM     72  C   UNL     1       6.635   4.432   3.361  1.00  0.00     0.271 C 
ATOM     73  H   UNL     1       6.526   3.023   1.928  1.00  0.00     0.163 HD
ATOM     74  O   UNL     1       7.779   4.137   3.697  1.00  0.00    -0.267 OA
BRANCH  72  75
ATOM     75  C   UNL     1       5.935   5.550   4.025  1.00  0.00     0.150 A 
ATOM     76  C   UNL     1       4.924   5.283   4.935  1.00  0.00     0.145 A 
ATOM     77  N   UNL     1       6.360   6.807   3.745  1.00  0.00    -0.205 NA
ATOM     78  N   UNL     1       4.265   6.271   5.589  1.00  0.00    -0.257 NA
ATOM     79  C   UNL     1       5.745   7.787   4.429  1.00  0.00     0.233 A 
ATOM     80  C   UNL     1       4.714   7.525   5.325  1.00  0.00     0.179 A 
BRANCH  79  81
ATOM     81  O   UNL     1       6.216   9.077   4.349  1.00  0.00    -0.477 OA
BRANCH  81  82
ATOM     82  C   UNL     1       6.900   9.384   3.131  1.00  0.00     0.232 C 
BRANCH  82  83
ATOM     83  C   UNL     1       8.429   9.307   3.247  1.00  0.00     0.046 C 
BRANCH  83  84
ATOM     84  C   UNL     1       9.085   7.946   2.961  1.00  0.00     0.039 C 
BRANCH  84  85
ATOM     85  C   UNL     1       8.832   7.281   1.623  1.00  0.00    -0.048 A 
ATOM     86  C   UNL     1       8.266   7.929   0.519  1.00  0.00     0.004 A 
ATOM     87  C   UNL     1       9.181   5.928   1.483  1.00  0.00     0.004 A 
ATOM     88  C   UNL     1       7.960   7.221  -0.647  1.00  0.00     0.000 A 
ATOM     89  C   UNL     1       8.895   5.224   0.312  1.00  0.00     0.000 A 
ATOM     90  C   UNL     1       8.264   5.866  -0.747  1.00  0.00     0.000 A 
ENDBRANCH  84  85
ENDBRANCH  83  84
ENDBRANCH  82  83
ENDBRANCH  81  82
ENDBRANCH  79  81
ENDBRANCH  72  75
ENDBRANCH  70  71
ENDBRANCH   1  70
TORSDOF 19
