REMARK SMILES CCN(Cc1cn(CC)nc1C)C(=O)c1ccn([C@@H](C)C(=O)NCCCCNC(=O)c2ccc(-c3c4nc(c(-c5ccc(S(=O)(=O)[O-])cc5)c5ccc([nH]5)c(-c5ccc(S(=O)(=O)[O-])cc5)c5nc(c(-c6ccc(S(=O)(=O)[O-])cc6)c6ccc3[nH]6)C=C5)C=C4)cc2)n1
REMARK SMILES IDX 24 1 23 2 21 3 22 4 19 6 20 7 18 8 15 9 16 10 91 11 17 12
REMARK SMILES IDX 13 13 14 14 3 15 2 16 1 17 4 18 5 19 6 20 11 21 7 22 10 23
REMARK SMILES IDX 12 24 8 25 9 26 25 27 26 28 27 29 28 30 29 31 30 33 31 34
REMARK SMILES IDX 32 35 90 36 33 37 89 38 34 39 35 40 36 41 83 42 37 43 88 44
REMARK SMILES IDX 82 45 84 46 38 47 87 48 81 49 80 50 39 52 69 53 50 54 68 55
REMARK SMILES IDX 51 56 54 57 67 58 85 59 52 60 53 61 66 63 86 64 55 65 40 66
REMARK SMILES IDX 41 67 49 68 42 69 48 70 43 71 44 72 45 73 46 74 47 75 70 76
REMARK SMILES IDX 71 77 79 78 72 79 78 80 73 81 74 82 75 83 76 84 77 85 56 86
REMARK SMILES IDX 57 87 65 88 58 89 64 90 59 91 60 92 61 93 62 94 63 95
REMARK H PARENT 23 5 28 32 84 51 54 62
REMARK Flexibility Score: inf
ROOT
ATOM      1  C   UNL     1       4.674  -8.543   0.237  1.00  0.00     0.116 C 
ENDROOT
BRANCH   1   2
ATOM      2  N   UNL     1       5.851  -7.695   0.355  1.00  0.00    -0.354 N 
ATOM      3  C   UNL     1       6.133  -6.532   1.012  1.00  0.00     0.244 C 
ATOM      4  O   UNL     1       7.276  -6.093   0.819  1.00  0.00    -0.273 OA
ATOM      5  H   UNL     1       6.620  -8.039  -0.155  1.00  0.00     0.163 HD
BRANCH   3   6
ATOM      6  C   UNL     1       5.191  -5.777   1.969  1.00  0.00     0.193 C 
ATOM      7  C   UNL     1       4.771  -6.582   3.192  1.00  0.00     0.044 C 
BRANCH   6   8
ATOM      8  N   UNL     1       4.078  -5.154   1.266  1.00  0.00    -0.260 N 
ATOM      9  C   UNL     1       3.113  -3.695   0.058  1.00  0.00     0.150 A 
ATOM     10  C   UNL     1       2.778  -4.980  -0.407  1.00  0.00     0.056 A 
ATOM     11  N   UNL     1       3.979  -3.810   1.093  1.00  0.00    -0.167 NA
ATOM     12  C   UNL     1       3.058  -5.801   0.648  1.00  0.00     0.110 A 
BRANCH   9  13
ATOM     13  C   UNL     1       2.608  -2.416  -0.473  1.00  0.00     0.274 C 
ATOM     14  O   UNL     1       3.378  -1.510  -0.797  1.00  0.00    -0.267 OA
BRANCH  13  15
ATOM     15  N   UNL     1       1.204  -2.259  -0.594  1.00  0.00    -0.333 N 
BRANCH  15  16
ATOM     16  C   UNL     1       0.712  -0.961  -1.044  1.00  0.00     0.117 C 
ATOM     17  C   UNL     1       0.839   0.108   0.036  1.00  0.00     0.027 C 
ENDBRANCH  15  16
BRANCH  15  18
ATOM     18  C   UNL     1       0.197  -3.222  -0.115  1.00  0.00     0.159 C 
BRANCH  18  19
ATOM     19  C   UNL     1      -0.063  -4.321  -1.108  1.00  0.00     0.012 A 
ATOM     20  C   UNL     1       0.126  -4.330  -2.482  1.00  0.00     0.114 A 
ATOM     21  C   UNL     1      -0.423  -5.675  -0.809  1.00  0.00     0.064 A 
ATOM     22  N   UNL     1       0.029  -5.636  -2.879  1.00  0.00    -0.272 N 
ATOM     23  N   UNL     1      -0.386  -6.453  -1.897  1.00  0.00    -0.178 NA
ATOM     24  C   UNL     1      -0.687  -6.308   0.510  1.00  0.00     0.069 C 
BRANCH  22  25
ATOM     25  C   UNL     1       0.440  -6.200  -4.153  1.00  0.00     0.141 C 
ATOM     26  C   UNL     1       1.659  -7.107  -4.039  1.00  0.00     0.029 C 
ENDBRANCH  22  25
ENDBRANCH  18  19
ENDBRANCH  15  18
ENDBRANCH  13  15
ENDBRANCH   9  13
ENDBRANCH   6   8
ENDBRANCH   3   6
ENDBRANCH   1   2
BRANCH   1  27
ATOM     27  C   UNL     1       3.928  -8.332  -1.092  1.00  0.00     0.023 C 
BRANCH  27  28
ATOM     28  C   UNL     1       4.488  -9.072  -2.311  1.00  0.00     0.023 C 
BRANCH  28  29
ATOM     29  C   UNL     1       4.403 -10.588  -2.228  1.00  0.00     0.116 C 
BRANCH  29  30
ATOM     30  N   UNL     1       3.033 -11.083  -2.130  1.00  0.00    -0.352 N 
ATOM     31  C   UNL     1       2.640 -12.393  -1.959  1.00  0.00     0.251 C 
ATOM     32  H   UNL     1       2.315 -10.412  -2.191  1.00  0.00     0.163 HD
ATOM     33  O   UNL     1       1.514 -12.760  -2.311  1.00  0.00    -0.269 OA
BRANCH  31  34
ATOM     34  C   UNL     1       3.579 -13.349  -1.347  1.00  0.00     0.039 A 
ATOM     35  C   UNL     1       3.752 -14.628  -1.879  1.00  0.00     0.014 A 
ATOM     36  C   UNL     1       4.316 -12.935  -0.234  1.00  0.00     0.014 A 
ATOM     37  C   UNL     1       4.741 -15.451  -1.344  1.00  0.00     0.010 A 
ATOM     38  C   UNL     1       5.354 -13.712   0.236  1.00  0.00     0.010 A 
ATOM     39  C   UNL     1       5.565 -14.977  -0.306  1.00  0.00    -0.014 A 
BRANCH  39  40
ATOM     40  C   UNL     1       6.789 -15.703   0.048  1.00  0.00     0.031 A 
ATOM     41  C   UNL     1       7.685 -15.918  -1.124  1.00  0.00     0.074 A 
ATOM     42  C   UNL     1       7.191 -15.964   1.313  1.00  0.00     0.049 A 
ATOM     43  N   UNL     1       7.888 -17.024  -1.759  1.00  0.00    -0.248 NA
ATOM     44  C   UNL     1       8.264 -14.740  -1.798  1.00  0.00     0.031 C 
ATOM     45  C   UNL     1       6.543 -15.535   2.559  1.00  0.00     0.029 A 
ATOM     46  N   UNL     1       8.321 -16.582   1.769  1.00  0.00    -0.354 N 
ATOM     47  C   UNL     1       8.842 -16.733  -2.730  1.00  0.00     0.074 A 
ATOM     48  C   UNL     1       8.856 -15.301  -2.857  1.00  0.00     0.031 C 
ATOM     49  C   UNL     1       7.393 -15.699   3.599  1.00  0.00     0.029 A 
ATOM     50  C   UNL     1       8.578 -16.396   3.131  1.00  0.00     0.049 A 
ATOM     51  H   UNL     1       8.908 -17.116   1.186  1.00  0.00     0.167 HD
ATOM     52  C   UNL     1       9.759 -17.672  -3.101  1.00  0.00     0.031 A 
ATOM     53  C   UNL     1       9.678 -16.789   3.827  1.00  0.00     0.031 A 
ATOM     54  C   UNL     1       9.401 -18.963  -2.573  1.00  0.00     0.049 A 
ATOM     55  C   UNL     1      10.304 -17.880   3.054  1.00  0.00     0.074 A 
ATOM     56  C   UNL     1       8.409 -19.894  -2.787  1.00  0.00     0.029 A 
ATOM     57  N   UNL     1       9.952 -19.219  -1.342  1.00  0.00    -0.354 N 
ATOM     58  N   UNL     1       9.742 -19.043   2.888  1.00  0.00    -0.248 NA
ATOM     59  C   UNL     1      11.398 -17.576   2.144  1.00  0.00     0.031 C 
ATOM     60  C   UNL     1       8.216 -20.543  -1.531  1.00  0.00     0.029 A 
ATOM     61  C   UNL     1       9.145 -20.046  -0.615  1.00  0.00     0.049 A 
ATOM     62  H   UNL     1      10.811 -18.856  -1.027  1.00  0.00     0.167 HD
ATOM     63  C   UNL     1      10.087 -19.405   1.601  1.00  0.00     0.074 A 
ATOM     64  C   UNL     1      11.232 -18.566   1.263  1.00  0.00     0.031 C 
ATOM     65  C   UNL     1       9.217 -20.118   0.829  1.00  0.00     0.031 A 
BRANCH  52  66
ATOM     66  C   UNL     1      11.209 -17.367  -3.442  1.00  0.00    -0.014 A 
ATOM     67  C   UNL     1      12.079 -18.456  -3.684  1.00  0.00     0.010 A 
ATOM     68  C   UNL     1      11.814 -16.111  -3.241  1.00  0.00     0.010 A 
ATOM     69  C   UNL     1      13.472 -18.308  -3.648  1.00  0.00     0.020 A 
ATOM     70  C   UNL     1      13.203 -15.945  -3.238  1.00  0.00     0.020 A 
ATOM     71  C   UNL     1      14.024 -17.050  -3.414  1.00  0.00     0.054 A 
BRANCH  71  72
ATOM     72  S   UNL     1      15.822 -16.878  -3.302  1.00  0.00     0.124 S 
ATOM     73  O   UNL     1      16.126 -17.650  -2.102  1.00  0.00    -0.237 OA
ATOM     74  O   UNL     1      16.265 -17.463  -4.564  1.00  0.00    -0.237 OA
ATOM     75  O   UNL     1      16.019 -15.435  -3.187  1.00  0.00    -0.744 OA
ENDBRANCH  71  72
ENDBRANCH  52  66
BRANCH  53  76
ATOM     76  C   UNL     1      10.352 -16.210   5.020  1.00  0.00    -0.014 A 
ATOM     77  C   UNL     1      11.291 -16.961   5.760  1.00  0.00     0.010 A 
ATOM     78  C   UNL     1      10.320 -14.819   5.233  1.00  0.00     0.010 A 
ATOM     79  C   UNL     1      12.220 -16.335   6.613  1.00  0.00     0.020 A 
ATOM     80  C   UNL     1      11.242 -14.189   6.084  1.00  0.00     0.020 A 
ATOM     81  C   UNL     1      12.207 -14.946   6.747  1.00  0.00     0.054 A 
BRANCH  81  82
ATOM     82  S   UNL     1      13.539 -14.123   7.679  1.00  0.00     0.124 S 
ATOM     83  O   UNL     1      13.227 -14.487   9.058  1.00  0.00    -0.237 OA
ATOM     84  O   UNL     1      14.743 -14.732   7.122  1.00  0.00    -0.237 OA
ATOM     85  O   UNL     1      13.359 -12.708   7.356  1.00  0.00    -0.744 OA
ENDBRANCH  81  82
ENDBRANCH  53  76
BRANCH  65  86
ATOM     86  C   UNL     1       8.171 -20.943   1.528  1.00  0.00    -0.014 A 
ATOM     87  C   UNL     1       7.131 -20.427   2.324  1.00  0.00     0.010 A 
ATOM     88  C   UNL     1       8.209 -22.325   1.278  1.00  0.00     0.010 A 
ATOM     89  C   UNL     1       6.169 -21.287   2.876  1.00  0.00     0.020 A 
ATOM     90  C   UNL     1       7.245 -23.180   1.803  1.00  0.00     0.020 A 
ATOM     91  C   UNL     1       6.236 -22.660   2.611  1.00  0.00     0.054 A 
BRANCH  91  92
ATOM     92  S   UNL     1       4.983 -23.774   3.304  1.00  0.00     0.124 S 
ATOM     93  O   UNL     1       5.285 -23.741   4.732  1.00  0.00    -0.237 OA
ATOM     94  O   UNL     1       3.729 -23.137   2.909  1.00  0.00    -0.237 OA
ATOM     95  O   UNL     1       5.251 -25.052   2.646  1.00  0.00    -0.744 OA
ENDBRANCH  91  92
ENDBRANCH  65  86
ENDBRANCH  39  40
ENDBRANCH  31  34
ENDBRANCH  29  30
ENDBRANCH  28  29
ENDBRANCH  27  28
ENDBRANCH   1  27
TORSDOF 21
