REMARK SMILES CCC(CC)COc1cc2c(cc1Cl)C=C(C(=O)NCCCCNC(=O)c1ccc(-c3c4nc(c(-c5ccc(S(=O)(=O)[O-])cc5)c5ccc([nH]5)c(-c5ccc(S(=O)(=O)[O-])cc5)c5nc(c(-c6ccc(S(=O)(=O)[O-])cc6)c6ccc3[nH]6)C=C5)C=C4)cc1)[C@@H](C(F)(F)F)O2
REMARK SMILES IDX 21 1 20 2 19 3 17 4 18 5 16 7 8 8 9 9 13 10 10 11 12 12
REMARK SMILES IDX 14 13 11 14 92 15 15 16 87 17 7 18 6 19 3 20 2 21 1 22 4 23
REMARK SMILES IDX 5 24 88 25 89 26 90 27 91 28 22 29 23 30 24 31 25 32 26 34
REMARK SMILES IDX 27 35 28 36 86 37 29 38 85 39 30 40 31 41 32 42 79 43 33 44
REMARK SMILES IDX 84 45 78 46 80 47 34 48 83 49 77 50 76 51 35 53 65 54 46 55
REMARK SMILES IDX 64 56 47 57 50 58 63 59 81 60 48 61 49 62 62 64 82 65 51 66
REMARK SMILES IDX 36 67 37 68 45 69 38 70 44 71 39 72 40 73 41 74 42 75 43 76
REMARK SMILES IDX 66 77 67 78 75 79 68 80 74 81 69 82 70 83 71 84 72 85 73 86
REMARK SMILES IDX 52 87 53 88 61 89 54 90 60 91 55 92 56 93 57 94 58 95 59 96
REMARK H PARENT 19 6 24 33 80 52 50 63
REMARK Flexibility Score: inf
ROOT
ATOM      1  C   UNL     1      -4.184   8.644  -3.201  1.00  0.00     0.023 C 
ENDROOT
BRANCH   1   2
ATOM      2  C   UNL     1      -2.728   8.760  -2.761  1.00  0.00     0.116 C 
BRANCH   2   3
ATOM      3  N   UNL     1      -2.514   8.175  -1.451  1.00  0.00    -0.352 N 
ATOM      4  C   UNL     1      -1.824   7.120  -0.960  1.00  0.00     0.251 C 
ATOM      5  O   UNL     1      -1.842   6.992   0.269  1.00  0.00    -0.270 OA
ATOM      6  H   UNL     1      -2.988   8.668  -0.743  1.00  0.00     0.163 HD
BRANCH   4   7
ATOM      7  C   UNL     1      -1.095   6.120  -1.787  1.00  0.00     0.067 C 
ATOM      8  C   UNL     1       1.156   1.869  -3.176  1.00  0.00     0.141 A 
ATOM      9  C   UNL     1       0.132   2.635  -3.732  1.00  0.00     0.095 A 
ATOM     10  C   UNL     1       1.865   2.340  -2.061  1.00  0.00     0.083 A 
ATOM     11  C   UNL     1      -0.259   3.802  -3.088  1.00  0.00     0.131 A 
ATOM     12  C   UNL     1       1.414   3.470  -1.376  1.00  0.00     0.036 A 
ATOM     13  Cl  UNL     1       3.248   1.509  -1.448  1.00  0.00    -0.080 Cl
ATOM     14  C   UNL     1       0.321   4.180  -1.870  1.00  0.00     0.019 A 
ATOM     15  O   UNL     1      -1.248   4.547  -3.675  1.00  0.00    -0.475 OA
ATOM     16  C   UNL     1      -0.293   5.269  -1.118  1.00  0.00     0.025 C 
ATOM     17  C   UNL     1      -1.238   5.952  -3.273  1.00  0.00     0.314 C 
BRANCH   8  18
ATOM     18  O   UNL     1       1.452   0.644  -3.715  1.00  0.00    -0.492 OA
BRANCH  18  19
ATOM     19  C   UNL     1       0.425  -0.339  -3.442  1.00  0.00     0.233 C 
BRANCH  19  20
ATOM     20  C   UNL     1       0.626  -1.010  -2.061  1.00  0.00     0.026 C 
BRANCH  20  21
ATOM     21  C   UNL     1      -0.120  -0.251  -0.938  1.00  0.00     0.003 C 
ATOM     22  C   UNL     1       0.433  -0.557   0.447  1.00  0.00     0.004 C 
ENDBRANCH  20  21
BRANCH  20  23
ATOM     23  C   UNL     1       0.244  -2.507  -2.096  1.00  0.00     0.003 C 
ATOM     24  C   UNL     1      -1.238  -2.801  -2.283  1.00  0.00     0.004 C 
ENDBRANCH  20  23
ENDBRANCH  19  20
ENDBRANCH  18  19
ENDBRANCH   8  18
BRANCH  17  25
ATOM     25  C   UNL     1      -0.155   6.740  -4.051  1.00  0.00     0.429 C 
ATOM     26  F   UNL     1      -0.524   6.902  -5.346  1.00  0.00    -0.167 F 
ATOM     27  F   UNL     1       0.038   7.982  -3.544  1.00  0.00    -0.167 F 
ATOM     28  F   UNL     1       1.053   6.134  -4.050  1.00  0.00    -0.167 F 
ENDBRANCH  17  25
ENDBRANCH   4   7
ENDBRANCH   2   3
ENDBRANCH   1   2
BRANCH   1  29
ATOM     29  C   UNL     1      -5.093   9.746  -2.658  1.00  0.00     0.023 C 
BRANCH  29  30
ATOM     30  C   UNL     1      -4.655  11.172  -2.985  1.00  0.00     0.116 C 
BRANCH  30  31
ATOM     31  N   UNL     1      -4.404  11.408  -4.401  1.00  0.00    -0.352 N 
ATOM     32  C   UNL     1      -4.582  12.572  -5.113  1.00  0.00     0.251 C 
ATOM     33  H   UNL     1      -4.064  10.638  -4.913  1.00  0.00     0.163 HD
ATOM     34  O   UNL     1      -4.401  12.592  -6.327  1.00  0.00    -0.269 OA
BRANCH  32  35
ATOM     35  C   UNL     1      -5.042  13.781  -4.400  1.00  0.00     0.039 A 
ATOM     36  C   UNL     1      -4.423  14.169  -3.211  1.00  0.00     0.014 A 
ATOM     37  C   UNL     1      -6.148  14.483  -4.886  1.00  0.00     0.014 A 
ATOM     38  C   UNL     1      -5.016  15.144  -2.422  1.00  0.00     0.010 A 
ATOM     39  C   UNL     1      -6.690  15.527  -4.130  1.00  0.00     0.010 A 
ATOM     40  C   UNL     1      -6.159  15.832  -2.868  1.00  0.00    -0.014 A 
BRANCH  40  41
ATOM     41  C   UNL     1      -6.751  16.873  -1.989  1.00  0.00     0.031 A 
ATOM     42  C   UNL     1      -8.116  16.695  -1.380  1.00  0.00     0.074 A 
ATOM     43  C   UNL     1      -5.998  17.942  -1.663  1.00  0.00     0.049 A 
ATOM     44  N   UNL     1      -8.722  17.451  -0.500  1.00  0.00    -0.248 NA
ATOM     45  C   UNL     1      -8.903  15.526  -1.805  1.00  0.00     0.031 C 
ATOM     46  C   UNL     1      -4.657  18.211  -2.188  1.00  0.00     0.029 A 
ATOM     47  N   UNL     1      -6.220  18.963  -0.777  1.00  0.00    -0.354 N 
ATOM     48  C   UNL     1      -9.960  16.860  -0.275  1.00  0.00     0.074 A 
ATOM     49  C   UNL     1     -10.034  15.697  -1.132  1.00  0.00     0.031 C 
ATOM     50  C   UNL     1      -4.139  19.267  -1.546  1.00  0.00     0.029 A 
ATOM     51  C   UNL     1      -5.134  19.791  -0.615  1.00  0.00     0.049 A 
ATOM     52  H   UNL     1      -7.073  19.092  -0.302  1.00  0.00     0.167 HD
ATOM     53  C   UNL     1     -10.939  17.248   0.577  1.00  0.00     0.031 A 
ATOM     54  C   UNL     1      -4.946  20.850   0.195  1.00  0.00     0.031 A 
ATOM     55  C   UNL     1     -10.855  18.402   1.435  1.00  0.00     0.049 A 
ATOM     56  C   UNL     1      -6.054  21.270   1.114  1.00  0.00     0.074 A 
ATOM     57  C   UNL     1     -11.793  18.867   2.341  1.00  0.00     0.029 A 
ATOM     58  N   UNL     1      -9.774  19.268   1.502  1.00  0.00    -0.354 N 
ATOM     59  N   UNL     1      -7.220  20.701   1.304  1.00  0.00    -0.248 NA
ATOM     60  C   UNL     1      -5.827  22.477   1.919  1.00  0.00     0.031 C 
ATOM     61  C   UNL     1     -11.302  20.043   2.916  1.00  0.00     0.029 A 
ATOM     62  C   UNL     1     -10.032  20.278   2.413  1.00  0.00     0.049 A 
ATOM     63  H   UNL     1      -8.945  19.178   0.978  1.00  0.00     0.167 HD
ATOM     64  C   UNL     1      -7.875  21.489   2.241  1.00  0.00     0.074 A 
ATOM     65  C   UNL     1      -6.959  22.552   2.608  1.00  0.00     0.031 C 
ATOM     66  C   UNL     1      -9.127  21.350   2.742  1.00  0.00     0.031 A 
BRANCH  53  67
ATOM     67  C   UNL     1     -12.201  16.426   0.634  1.00  0.00    -0.014 A 
ATOM     68  C   UNL     1     -13.407  16.962   0.146  1.00  0.00     0.010 A 
ATOM     69  C   UNL     1     -12.218  15.171   1.268  1.00  0.00     0.010 A 
ATOM     70  C   UNL     1     -14.611  16.271   0.312  1.00  0.00     0.020 A 
ATOM     71  C   UNL     1     -13.417  14.465   1.415  1.00  0.00     0.020 A 
ATOM     72  C   UNL     1     -14.609  15.031   0.955  1.00  0.00     0.054 A 
BRANCH  72  73
ATOM     73  S   UNL     1     -16.182  14.152   1.174  1.00  0.00     0.124 S 
ATOM     74  O   UNL     1     -16.776  14.861   2.303  1.00  0.00    -0.237 OA
ATOM     75  O   UNL     1     -16.842  14.348  -0.114  1.00  0.00    -0.237 OA
ATOM     76  O   UNL     1     -15.767  12.777   1.446  1.00  0.00    -0.744 OA
ENDBRANCH  72  73
ENDBRANCH  53  67
BRANCH  54  77
ATOM     77  C   UNL     1      -3.636  21.554   0.170  1.00  0.00    -0.014 A 
ATOM     78  C   UNL     1      -3.245  22.282  -0.969  1.00  0.00     0.010 A 
ATOM     79  C   UNL     1      -2.733  21.411   1.237  1.00  0.00     0.010 A 
ATOM     80  C   UNL     1      -1.951  22.798  -1.069  1.00  0.00     0.020 A 
ATOM     81  C   UNL     1      -1.446  21.952   1.152  1.00  0.00     0.020 A 
ATOM     82  C   UNL     1      -1.054  22.613  -0.015  1.00  0.00     0.054 A 
BRANCH  82  83
ATOM     83  S   UNL     1       0.642  23.232  -0.191  1.00  0.00     0.124 S 
ATOM     84  O   UNL     1       1.258  22.186  -1.002  1.00  0.00    -0.237 OA
ATOM     85  O   UNL     1       0.449  24.516  -0.861  1.00  0.00    -0.237 OA
ATOM     86  O   UNL     1       1.116  23.318   1.188  1.00  0.00    -0.744 OA
ENDBRANCH  82  83
ENDBRANCH  54  77
BRANCH  66  87
ATOM     87  C   UNL     1      -9.602  22.393   3.717  1.00  0.00    -0.014 A 
ATOM     88  C   UNL     1      -9.786  22.062   5.071  1.00  0.00     0.010 A 
ATOM     89  C   UNL     1      -9.940  23.684   3.273  1.00  0.00     0.010 A 
ATOM     90  C   UNL     1     -10.310  23.000   5.964  1.00  0.00     0.020 A 
ATOM     91  C   UNL     1     -10.441  24.633   4.168  1.00  0.00     0.020 A 
ATOM     92  C   UNL     1     -10.640  24.278   5.505  1.00  0.00     0.054 A 
BRANCH  92  93
ATOM     93  S   UNL     1     -11.303  25.492   6.678  1.00  0.00     0.124 S 
ATOM     94  O   UNL     1     -12.713  25.120   6.740  1.00  0.00    -0.237 OA
ATOM     95  O   UNL     1     -10.528  25.232   7.889  1.00  0.00    -0.237 OA
ATOM     96  O   UNL     1     -11.022  26.774   6.035  1.00  0.00    -0.744 OA
ENDBRANCH  92  93
ENDBRANCH  66  87
ENDBRANCH  40  41
ENDBRANCH  32  35
ENDBRANCH  30  31
ENDBRANCH  29  30
ENDBRANCH   1  29
TORSDOF 20
