REMARK SMILES NC(=O)C[C@H](NC(=O)c1cccc2[nH]ccc12)C(=O)NCCCCNC(=O)c1ccc(-c2c3nc(c(-c4ccc(S(=O)(=O)[O-])cc4)c4ccc([nH]4)c(-c4ccc(S(=O)(=O)[O-])cc4)c4nc(c(-c5ccc(S(=O)(=O)[O-])cc5)c5ccc2[nH]5)C=C4)C=C3)cc1
REMARK SMILES IDX 23 1 22 2 21 3 20 4 18 5 19 6 5 8 4 9 2 10 1 11 3 14 6 15
REMARK SMILES IDX 7 16 8 18 9 19 10 20 17 21 11 22 13 23 16 24 12 25 14 26
REMARK SMILES IDX 15 27 24 29 25 30 26 31 27 33 28 34 29 35 87 36 30 37 86 38
REMARK SMILES IDX 31 39 32 40 33 41 80 42 34 43 85 44 79 45 81 46 35 47 84 48
REMARK SMILES IDX 78 49 77 50 36 52 66 53 47 54 65 55 48 56 51 57 64 58 82 59
REMARK SMILES IDX 49 60 50 61 63 63 83 64 52 65 37 66 38 67 46 68 39 69 45 70
REMARK SMILES IDX 40 71 41 72 42 73 43 74 44 75 67 76 68 77 76 78 69 79 75 80
REMARK SMILES IDX 70 81 71 82 72 83 73 84 74 85 53 86 54 87 62 88 55 89 61 90
REMARK SMILES IDX 56 91 57 92 58 93 59 94 60 95
REMARK H PARENT 20 7 1 12 1 13 6 17 14 28 25 32 81 51 51 62
REMARK Flexibility Score: inf
ROOT
ATOM      1  C   UNL     1       4.660   2.769   4.203  1.00  0.00     0.023 C 
ENDROOT
BRANCH   1   2
ATOM      2  C   UNL     1       4.038   2.311   2.885  1.00  0.00     0.023 C 
BRANCH   2   3
ATOM      3  C   UNL     1       4.544   1.004   2.272  1.00  0.00     0.116 C 
BRANCH   3   4
ATOM      4  N   UNL     1       4.549  -0.169   3.126  1.00  0.00    -0.354 N 
ATOM      5  C   UNL     1       3.606  -1.133   3.326  1.00  0.00     0.243 C 
ATOM      6  O   UNL     1       3.980  -2.184   3.859  1.00  0.00    -0.273 OA
ATOM      7  H   UNL     1       5.373  -0.288   3.651  1.00  0.00     0.163 HD
BRANCH   5   8
ATOM      8  C   UNL     1       2.154  -1.008   2.830  1.00  0.00     0.180 C 
BRANCH   8   9
ATOM      9  C   UNL     1       2.205  -1.510   1.364  1.00  0.00     0.134 C 
BRANCH   9  10
ATOM     10  C   UNL     1       1.543  -0.650   0.324  1.00  0.00     0.220 C 
ATOM     11  N   UNL     1       0.495  -1.216  -0.330  1.00  0.00    -0.370 N 
ATOM     12  H   UNL     1       0.016  -0.709  -1.024  1.00  0.00     0.159 HD
ATOM     13  H   UNL     1       0.215  -2.134  -0.109  1.00  0.00     0.159 HD
ATOM     14  O   UNL     1       1.909   0.492   0.052  1.00  0.00    -0.275 OA
ENDBRANCH   9  10
ENDBRANCH   8   9
BRANCH   8  15
ATOM     15  N   UNL     1       1.412   0.249   3.070  1.00  0.00    -0.340 N 
ATOM     16  C   UNL     1       0.739   0.719   4.195  1.00  0.00     0.252 C 
ATOM     17  H   UNL     1       1.391   0.862   2.299  1.00  0.00     0.164 HD
ATOM     18  O   UNL     1      -0.370   1.212   3.974  1.00  0.00    -0.269 OA
BRANCH  16  19
ATOM     19  C   UNL     1       1.316   0.785   5.583  1.00  0.00     0.049 A 
ATOM     20  C   UNL     1       2.632   0.410   5.866  1.00  0.00     0.014 A 
ATOM     21  C   UNL     1       0.613   1.399   6.662  1.00  0.00     0.012 A 
ATOM     22  C   UNL     1       3.262   0.592   7.094  1.00  0.00     0.003 A 
ATOM     23  C   UNL     1       1.277   1.598   7.886  1.00  0.00     0.046 A 
ATOM     24  C   UNL     1      -0.693   1.956   6.848  1.00  0.00     0.029 A 
ATOM     25  C   UNL     1       2.591   1.201   8.132  1.00  0.00     0.027 A 
ATOM     26  N   UNL     1       0.423   2.265   8.735  1.00  0.00    -0.361 N 
ATOM     27  C   UNL     1      -0.776   2.479   8.119  1.00  0.00     0.083 A 
ATOM     28  H   UNL     1       0.645   2.546   9.652  1.00  0.00     0.166 HD
ENDBRANCH  16  19
ENDBRANCH   8  15
ENDBRANCH   5   8
ENDBRANCH   3   4
ENDBRANCH   2   3
ENDBRANCH   1   2
BRANCH   1  29
ATOM     29  C   UNL     1       6.175   2.821   4.268  1.00  0.00     0.116 C 
BRANCH  29  30
ATOM     30  N   UNL     1       6.719   3.954   3.544  1.00  0.00    -0.352 N 
ATOM     31  C   UNL     1       7.493   4.989   4.012  1.00  0.00     0.251 C 
ATOM     32  H   UNL     1       6.503   3.987   2.584  1.00  0.00     0.163 HD
ATOM     33  O   UNL     1       7.674   5.976   3.298  1.00  0.00    -0.269 OA
BRANCH  31  34
ATOM     34  C   UNL     1       8.103   4.936   5.364  1.00  0.00     0.039 A 
ATOM     35  C   UNL     1       8.168   6.108   6.126  1.00  0.00     0.014 A 
ATOM     36  C   UNL     1       8.659   3.756   5.869  1.00  0.00     0.014 A 
ATOM     37  C   UNL     1       8.761   6.089   7.393  1.00  0.00     0.010 A 
ATOM     38  C   UNL     1       9.170   3.719   7.166  1.00  0.00     0.010 A 
ATOM     39  C   UNL     1       9.257   4.891   7.932  1.00  0.00    -0.014 A 
BRANCH  39  40
ATOM     40  C   UNL     1       9.929   4.856   9.260  1.00  0.00     0.031 A 
ATOM     41  C   UNL     1      11.383   4.460   9.353  1.00  0.00     0.074 A 
ATOM     42  C   UNL     1       9.236   5.136  10.382  1.00  0.00     0.049 A 
ATOM     43  N   UNL     1      12.133   4.311  10.416  1.00  0.00    -0.248 NA
ATOM     44  C   UNL     1      12.076   4.162   8.088  1.00  0.00     0.031 C 
ATOM     45  C   UNL     1       7.818   5.498  10.436  1.00  0.00     0.029 A 
ATOM     46  N   UNL     1       9.633   5.160  11.696  1.00  0.00    -0.354 N 
ATOM     47  C   UNL     1      13.371   3.880   9.949  1.00  0.00     0.074 A 
ATOM     48  C   UNL     1      13.255   3.737   8.515  1.00  0.00     0.031 C 
ATOM     49  C   UNL     1       7.474   5.739  11.712  1.00  0.00     0.029 A 
ATOM     50  C   UNL     1       8.632   5.513  12.571  1.00  0.00     0.049 A 
ATOM     51  H   UNL     1      10.549   4.944  11.986  1.00  0.00     0.167 HD
ATOM     52  C   UNL     1      14.511   3.649  10.643  1.00  0.00     0.031 A 
ATOM     53  C   UNL     1       8.644   5.640  13.913  1.00  0.00     0.031 A 
ATOM     54  C   UNL     1      14.637   3.825  12.065  1.00  0.00     0.049 A 
ATOM     55  C   UNL     1       9.925   5.390  14.663  1.00  0.00     0.074 A 
ATOM     56  C   UNL     1      15.763   3.674  12.855  1.00  0.00     0.029 A 
ATOM     57  N   UNL     1      13.602   4.201  12.908  1.00  0.00    -0.354 N 
ATOM     58  N   UNL     1      11.098   5.034  14.195  1.00  0.00    -0.248 NA
ATOM     59  C   UNL     1       9.887   5.571  16.121  1.00  0.00     0.031 C 
ATOM     60  C   UNL     1      15.399   3.917  14.184  1.00  0.00     0.029 A 
ATOM     61  C   UNL     1      14.059   4.272  14.213  1.00  0.00     0.049 A 
ATOM     62  H   UNL     1      12.680   4.390  12.621  1.00  0.00     0.167 HD
ATOM     63  C   UNL     1      11.943   4.976  15.297  1.00  0.00     0.074 A 
ATOM     64  C   UNL     1      11.152   5.347  16.452  1.00  0.00     0.031 C 
ATOM     65  C   UNL     1      13.258   4.647  15.350  1.00  0.00     0.031 A 
BRANCH  52  66
ATOM     66  C   UNL     1      15.718   3.184   9.868  1.00  0.00    -0.014 A 
ATOM     67  C   UNL     1      16.389   4.047   8.981  1.00  0.00     0.010 A 
ATOM     68  C   UNL     1      16.210   1.879  10.053  1.00  0.00     0.010 A 
ATOM     69  C   UNL     1      17.498   3.599   8.259  1.00  0.00     0.020 A 
ATOM     70  C   UNL     1      17.338   1.437   9.356  1.00  0.00     0.020 A 
ATOM     71  C   UNL     1      17.963   2.294   8.448  1.00  0.00     0.054 A 
BRANCH  71  72
ATOM     72  S   UNL     1      19.416   1.746   7.511  1.00  0.00     0.124 S 
ATOM     73  O   UNL     1      18.863   1.578   6.169  1.00  0.00    -0.237 OA
ATOM     74  O   UNL     1      20.343   2.863   7.672  1.00  0.00    -0.237 OA
ATOM     75  O   UNL     1      19.814   0.509   8.179  1.00  0.00    -0.744 OA
ENDBRANCH  71  72
ENDBRANCH  52  66
BRANCH  53  76
ATOM     76  C   UNL     1       7.406   6.046  14.634  1.00  0.00    -0.014 A 
ATOM     77  C   UNL     1       7.306   7.321  15.220  1.00  0.00     0.010 A 
ATOM     78  C   UNL     1       6.316   5.162  14.735  1.00  0.00     0.010 A 
ATOM     79  C   UNL     1       6.149   7.697  15.909  1.00  0.00     0.020 A 
ATOM     80  C   UNL     1       5.147   5.545  15.399  1.00  0.00     0.020 A 
ATOM     81  C   UNL     1       5.076   6.806  15.993  1.00  0.00     0.054 A 
BRANCH  81  82
ATOM     82  S   UNL     1       3.563   7.332  16.847  1.00  0.00     0.124 S 
ATOM     83  O   UNL     1       3.965   7.256  18.248  1.00  0.00    -0.237 OA
ATOM     84  O   UNL     1       3.353   8.678  16.320  1.00  0.00    -0.237 OA
ATOM     85  O   UNL     1       2.573   6.344  16.424  1.00  0.00    -0.744 OA
ENDBRANCH  81  82
ENDBRANCH  53  76
BRANCH  65  86
ATOM     86  C   UNL     1      13.935   4.705  16.692  1.00  0.00    -0.014 A 
ATOM     87  C   UNL     1      13.681   3.736  17.679  1.00  0.00     0.010 A 
ATOM     88  C   UNL     1      14.885   5.711  16.945  1.00  0.00     0.010 A 
ATOM     89  C   UNL     1      14.345   3.791  18.907  1.00  0.00     0.020 A 
ATOM     90  C   UNL     1      15.570   5.753  18.162  1.00  0.00     0.020 A 
ATOM     91  C   UNL     1      15.286   4.800  19.141  1.00  0.00     0.054 A 
BRANCH  91  92
ATOM     92  S   UNL     1      16.167   4.821  20.726  1.00  0.00     0.124 S 
ATOM     93  O   UNL     1      15.139   5.312  21.639  1.00  0.00    -0.237 OA
ATOM     94  O   UNL     1      16.548   3.421  20.901  1.00  0.00    -0.237 OA
ATOM     95  O   UNL     1      17.281   5.738  20.490  1.00  0.00    -0.744 OA
ENDBRANCH  91  92
ENDBRANCH  65  86
ENDBRANCH  39  40
ENDBRANCH  31  34
ENDBRANCH  29  30
ENDBRANCH   1  29
TORSDOF 18
