REMARK SMILES Cc1cc(CNS(=O)(=O)c2ccc(C(=O)NCCCCNC(=O)c3ccc(-c4c5nc(c(-c6ccc(S(=O)(=O)[O-])cc6)c6ccc([nH]6)c(-c6ccc(S(=O)(=O)[O-])cc6)c6nc(c(-c7ccc(S(=O)(=O)[O-])cc7)c7ccc4[nH]7)C=C6)C=C5)cc3)cc2F)no1
REMARK SMILES IDX 18 1 17 2 16 3 14 4 15 5 13 7 10 8 11 9 85 10 12 11 84 12
REMARK SMILES IDX 86 13 7 14 8 15 9 16 6 17 5 19 4 20 1 21 2 22 3 23 88 24
REMARK SMILES IDX 87 25 19 26 20 27 21 28 22 29 23 31 24 32 25 33 83 34 26 35
REMARK SMILES IDX 82 36 27 37 28 38 29 39 76 40 30 41 81 42 75 43 77 44 31 45
REMARK SMILES IDX 80 46 74 47 73 48 32 50 62 51 43 52 61 53 44 54 47 55 60 56
REMARK SMILES IDX 78 57 45 58 46 59 59 61 79 62 48 63 33 64 34 65 42 66 35 67
REMARK SMILES IDX 41 68 36 69 37 70 38 71 39 72 40 73 63 74 64 75 72 76 65 77
REMARK SMILES IDX 71 78 66 79 67 80 68 81 69 82 70 83 49 84 50 85 58 86 51 87
REMARK SMILES IDX 57 88 52 89 53 90 54 91 55 92 56 93
REMARK H PARENT 16 6 6 18 21 30 77 49 47 60
REMARK Flexibility Score: inf
ROOT
ATOM      1  C   UNL     1      -6.860   2.228  -3.958  1.00  0.00     0.023 C 
ENDROOT
BRANCH   1   2
ATOM      2  C   UNL     1      -8.103   1.546  -3.383  1.00  0.00     0.116 C 
BRANCH   2   3
ATOM      3  N   UNL     1      -8.271   0.220  -3.943  1.00  0.00    -0.352 N 
ATOM      4  C   UNL     1      -7.886  -1.026  -3.526  1.00  0.00     0.251 C 
ATOM      5  O   UNL     1      -8.217  -1.983  -4.228  1.00  0.00    -0.269 OA
ATOM      6  H   UNL     1      -8.762   0.213  -4.797  1.00  0.00     0.163 HD
BRANCH   4   7
ATOM      7  C   UNL     1      -7.115  -1.302  -2.276  1.00  0.00     0.042 A 
ATOM      8  C   UNL     1      -5.668  -2.052   0.017  1.00  0.00     0.118 A 
ATOM      9  C   UNL     1      -6.423  -3.007  -0.661  1.00  0.00     0.026 A 
ATOM     10  C   UNL     1      -5.639  -0.744  -0.437  1.00  0.00     0.144 A 
ATOM     11  C   UNL     1      -7.150  -2.626  -1.793  1.00  0.00     0.015 A 
ATOM     12  C   UNL     1      -6.327  -0.374  -1.592  1.00  0.00     0.054 A 
ATOM     13  F   UNL     1      -4.914   0.190   0.193  1.00  0.00    -0.205 F 
BRANCH   8  14
ATOM     14  S   UNL     1      -4.686  -2.517   1.403  1.00  0.00     0.243 S 
ATOM     15  O   UNL     1      -4.368  -3.924   1.249  1.00  0.00    -0.207 OA
ATOM     16  O   UNL     1      -5.344  -2.012   2.581  1.00  0.00    -0.207 OA
BRANCH  14  17
ATOM     17  N   UNL     1      -3.245  -1.682   1.224  1.00  0.00    -0.205 NA
ATOM     18  H   UNL     1      -3.470  -0.687   1.215  1.00  0.00     0.141 HD
BRANCH  17  19
ATOM     19  C   UNL     1      -2.436  -1.958   0.032  1.00  0.00     0.158 C 
BRANCH  19  20
ATOM     20  C   UNL     1      -1.235  -1.072   0.058  1.00  0.00     0.099 A 
ATOM     21  C   UNL     1       2.229   0.128   0.057  1.00  0.00     0.091 C 
ATOM     22  C   UNL     1       0.805  -0.248   0.065  1.00  0.00     0.133 A 
ATOM     23  C   UNL     1       0.129  -1.442   0.045  1.00  0.00     0.073 A 
ATOM     24  O   UNL     1      -0.090   0.774   0.093  1.00  0.00    -0.361 OA
ATOM     25  N   UNL     1      -1.376   0.262   0.086  1.00  0.00    -0.083 NA
ENDBRANCH  19  20
ENDBRANCH  17  19
ENDBRANCH  14  17
ENDBRANCH   8  14
ENDBRANCH   4   7
ENDBRANCH   2   3
ENDBRANCH   1   2
BRANCH   1  26
ATOM     26  C   UNL     1      -7.063   2.848  -5.345  1.00  0.00     0.023 C 
BRANCH  26  27
ATOM     27  C   UNL     1      -8.064   3.999  -5.397  1.00  0.00     0.116 C 
BRANCH  27  28
ATOM     28  N   UNL     1      -7.723   5.099  -4.508  1.00  0.00    -0.352 N 
ATOM     29  C   UNL     1      -8.042   6.430  -4.641  1.00  0.00     0.251 C 
ATOM     30  H   UNL     1      -7.197   4.861  -3.711  1.00  0.00     0.163 HD
ATOM     31  O   UNL     1      -7.595   7.254  -3.850  1.00  0.00    -0.269 OA
BRANCH  29  32
ATOM     32  C   UNL     1      -8.887   6.860  -5.773  1.00  0.00     0.039 A 
ATOM     33  C   UNL     1      -8.432   7.896  -6.593  1.00  0.00     0.014 A 
ATOM     34  C   UNL     1     -10.096   6.216  -6.048  1.00  0.00     0.014 A 
ATOM     35  C   UNL     1      -9.157   8.238  -7.736  1.00  0.00     0.010 A 
ATOM     36  C   UNL     1     -10.787   6.521  -7.217  1.00  0.00     0.010 A 
ATOM     37  C   UNL     1     -10.319   7.527  -8.076  1.00  0.00    -0.014 A 
BRANCH  37  38
ATOM     38  C   UNL     1     -11.047   7.802  -9.339  1.00  0.00     0.031 A 
ATOM     39  C   UNL     1     -12.438   8.367  -9.301  1.00  0.00     0.074 A 
ATOM     40  C   UNL     1     -10.482   7.469 -10.515  1.00  0.00     0.049 A 
ATOM     41  N   UNL     1     -13.259   8.600 -10.293  1.00  0.00    -0.248 NA
ATOM     42  C   UNL     1     -12.987   8.689  -7.975  1.00  0.00     0.031 C 
ATOM     43  C   UNL     1      -9.152   6.876 -10.680  1.00  0.00     0.029 A 
ATOM     44  N   UNL     1     -10.960   7.572 -11.797  1.00  0.00    -0.354 N 
ATOM     45  C   UNL     1     -14.427   9.078  -9.711  1.00  0.00     0.074 A 
ATOM     46  C   UNL     1     -14.222   9.064  -8.279  1.00  0.00     0.031 C 
ATOM     47  C   UNL     1      -8.913   6.689 -11.989  1.00  0.00     0.029 A 
ATOM     48  C   UNL     1     -10.083   7.113 -12.752  1.00  0.00     0.049 A 
ATOM     49  H   UNL     1     -11.847   7.939 -12.013  1.00  0.00     0.167 HD
ATOM     50  C   UNL     1     -15.561   9.505 -10.316  1.00  0.00     0.031 A 
ATOM     51  C   UNL     1     -10.207   7.037 -14.090  1.00  0.00     0.031 A 
ATOM     52  C   UNL     1     -15.759   9.529 -11.740  1.00  0.00     0.049 A 
ATOM     53  C   UNL     1     -11.475   7.517 -14.739  1.00  0.00     0.074 A 
ATOM     54  C   UNL     1     -16.853   9.991 -12.450  1.00  0.00     0.029 A 
ATOM     55  N   UNL     1     -14.840   9.071 -12.672  1.00  0.00    -0.354 N 
ATOM     56  N   UNL     1     -12.549   8.016 -14.175  1.00  0.00    -0.248 NA
ATOM     57  C   UNL     1     -11.545   7.430 -16.204  1.00  0.00     0.031 C 
ATOM     58  C   UNL     1     -16.610   9.779 -13.812  1.00  0.00     0.029 A 
ATOM     59  C   UNL     1     -15.348   9.224 -13.951  1.00  0.00     0.049 A 
ATOM     60  H   UNL     1     -13.957   8.693 -12.457  1.00  0.00     0.167 HD
ATOM     61  C   UNL     1     -13.414   8.323 -15.218  1.00  0.00     0.074 A 
ATOM     62  C   UNL     1     -12.735   7.964 -16.446  1.00  0.00     0.031 C 
ATOM     63  C   UNL     1     -14.659   8.858 -15.162  1.00  0.00     0.031 A 
BRANCH  50  64
ATOM     64  C   UNL     1     -16.679   9.975  -9.424  1.00  0.00    -0.014 A 
ATOM     65  C   UNL     1     -16.583  11.191  -8.724  1.00  0.00     0.010 A 
ATOM     66  C   UNL     1     -17.843   9.197  -9.291  1.00  0.00     0.010 A 
ATOM     67  C   UNL     1     -17.608  11.596  -7.866  1.00  0.00     0.020 A 
ATOM     68  C   UNL     1     -18.882   9.611  -8.453  1.00  0.00     0.020 A 
ATOM     69  C   UNL     1     -18.748  10.798  -7.728  1.00  0.00     0.054 A 
BRANCH  69  70
ATOM     70  S   UNL     1     -20.064  11.342  -6.605  1.00  0.00     0.124 S 
ATOM     71  O   UNL     1     -19.502  11.004  -5.300  1.00  0.00    -0.237 OA
ATOM     72  O   UNL     1     -20.165  12.770  -6.894  1.00  0.00    -0.237 OA
ATOM     73  O   UNL     1     -21.218  10.544  -7.013  1.00  0.00    -0.744 OA
ENDBRANCH  69  70
ENDBRANCH  50  64
BRANCH  51  74
ATOM     74  C   UNL     1      -9.085   6.506 -14.907  1.00  0.00    -0.014 A 
ATOM     75  C   UNL     1      -8.286   7.379 -15.666  1.00  0.00     0.010 A 
ATOM     76  C   UNL     1      -8.789   5.131 -14.907  1.00  0.00     0.010 A 
ATOM     77  C   UNL     1      -7.217   6.886 -16.418  1.00  0.00     0.020 A 
ATOM     78  C   UNL     1      -7.707   4.637 -15.641  1.00  0.00     0.020 A 
ATOM     79  C   UNL     1      -6.932   5.518 -16.399  1.00  0.00     0.054 A 
BRANCH  79  80
ATOM     80  S   UNL     1      -5.498   4.907 -17.329  1.00  0.00     0.124 S 
ATOM     81  O   UNL     1      -6.001   4.910 -18.699  1.00  0.00    -0.237 OA
ATOM     82  O   UNL     1      -4.475   5.906 -17.027  1.00  0.00    -0.237 OA
ATOM     83  O   UNL     1      -5.256   3.587 -16.751  1.00  0.00    -0.744 OA
ENDBRANCH  79  80
ENDBRANCH  51  74
BRANCH  63  84
ATOM     84  C   UNL     1     -15.359   9.111 -16.469  1.00  0.00    -0.014 A 
ATOM     85  C   UNL     1     -15.921   8.054 -17.206  1.00  0.00     0.010 A 
ATOM     86  C   UNL     1     -15.507  10.430 -16.933  1.00  0.00     0.010 A 
ATOM     87  C   UNL     1     -16.601   8.311 -18.399  1.00  0.00     0.020 A 
ATOM     88  C   UNL     1     -16.204  10.693 -18.115  1.00  0.00     0.020 A 
ATOM     89  C   UNL     1     -16.737   9.629 -18.847  1.00  0.00     0.054 A 
BRANCH  89  90
ATOM     90  S   UNL     1     -17.669   9.945 -20.371  1.00  0.00     0.124 S 
ATOM     91  O   UNL     1     -16.707   9.562 -21.400  1.00  0.00    -0.237 OA
ATOM     92  O   UNL     1     -18.825   9.062 -20.232  1.00  0.00    -0.237 OA
ATOM     93  O   UNL     1     -17.973  11.373 -20.300  1.00  0.00    -0.744 OA
ENDBRANCH  89  90
ENDBRANCH  63  84
ENDBRANCH  37  38
ENDBRANCH  29  32
ENDBRANCH  27  28
ENDBRANCH  26  27
ENDBRANCH   1  26
TORSDOF 18
