REMARK SMILES CCS(=O)(=O)Nc1ccc(N2CC[NH+](C)CC2)cc1C(=O)NCCCCNC(=O)c1ccc(-c2c3nc(c(-c4ccc(S(=O)(=O)[O-])cc4)c4ccc([nH]4)c(-c4ccc(S(=O)(=O)[O-])cc4)c4nc(c(-c5ccc(S(=O)(=O)[O-])cc5)c5ccc2[nH]5)C=C4)C=C3)cc1
REMARK SMILES IDX 24 1 23 2 22 3 20 4 21 5 19 7 7 8 8 9 9 10 18 11 10 12 6 13
REMARK SMILES IDX 3 15 4 16 5 17 2 18 1 19 11 20 12 21 17 22 13 23 16 24 14 25
REMARK SMILES IDX 15 26 25 28 26 29 27 30 28 31 29 33 30 34 31 35 89 36 32 37
REMARK SMILES IDX 88 38 33 39 34 40 35 41 82 42 36 43 87 44 81 45 83 46 37 47
REMARK SMILES IDX 86 48 80 49 79 50 38 52 68 53 49 54 67 55 50 56 53 57 66 58
REMARK SMILES IDX 84 59 51 60 52 61 65 63 85 64 54 65 39 66 40 67 48 68 41 69
REMARK SMILES IDX 47 70 42 71 43 72 44 73 45 74 46 75 69 76 70 77 78 78 71 79
REMARK SMILES IDX 77 80 72 81 73 82 74 83 75 84 76 85 55 86 56 87 64 88 57 89
REMARK SMILES IDX 63 90 58 91 59 92 60 93 61 94 62 95
REMARK H PARENT 22 6 6 14 14 27 27 32 83 51 53 62
REMARK Flexibility Score: inf
ROOT
ATOM      1  C   UNL     1       2.166  -4.332   2.460  1.00  0.00     0.023 C 
ENDROOT
BRANCH   1   2
ATOM      2  C   UNL     1       2.473  -3.311   1.364  1.00  0.00     0.116 C 
BRANCH   2   3
ATOM      3  N   UNL     1       2.089  -1.950   1.698  1.00  0.00    -0.352 N 
ATOM      4  C   UNL     1       2.405  -0.752   1.104  1.00  0.00     0.253 C 
ATOM      5  O   UNL     1       1.986   0.285   1.622  1.00  0.00    -0.269 OA
ATOM      6  H   UNL     1       1.501  -1.873   2.484  1.00  0.00     0.163 HD
BRANCH   4   7
ATOM      7  C   UNL     1       3.272  -0.632  -0.103  1.00  0.00     0.066 A 
ATOM      8  C   UNL     1       3.240  -1.470  -1.218  1.00  0.00     0.061 A 
ATOM      9  C   UNL     1       4.241  -1.338  -2.185  1.00  0.00     0.030 A 
ATOM     10  C   UNL     1       5.103  -0.246  -2.177  1.00  0.00     0.028 A 
ATOM     11  C   UNL     1       4.115   0.514  -0.154  1.00  0.00     0.042 A 
ATOM     12  C   UNL     1       4.977   0.775  -1.233  1.00  0.00     0.038 A 
BRANCH   8  13
ATOM     13  N   UNL     1       2.247  -2.442  -1.538  1.00  0.00    -0.283 N 
ATOM     14  H   UNL     1       2.536  -3.376  -1.658  1.00  0.00     0.180 HD
BRANCH  13  15
ATOM     15  S   UNL     1       0.620  -2.094  -1.721  1.00  0.00     0.232 S 
ATOM     16  O   UNL     1      -0.041  -2.237  -0.448  1.00  0.00    -0.207 OA
ATOM     17  O   UNL     1       0.238  -2.954  -2.828  1.00  0.00    -0.207 OA
BRANCH  15  18
ATOM     18  C   UNL     1       0.426  -0.404  -2.286  1.00  0.00     0.156 C 
ATOM     19  C   UNL     1       0.312   0.627  -1.181  1.00  0.00     0.023 C 
ENDBRANCH  15  18
ENDBRANCH  13  15
ENDBRANCH   8  13
BRANCH  12  20
ATOM     20  N   UNL     1       5.598   1.992  -1.427  1.00  0.00    -0.360 N 
ATOM     21  C   UNL     1       6.173   2.805  -0.345  1.00  0.00     0.178 C 
ATOM     22  C   UNL     1       5.929   2.460  -2.788  1.00  0.00     0.178 C 
ATOM     23  C   UNL     1       5.893   4.314  -0.578  1.00  0.00     0.283 C 
ATOM     24  C   UNL     1       5.643   3.969  -2.944  1.00  0.00     0.283 C 
ATOM     25  N   UNL     1       6.318   4.788  -1.917  1.00  0.00    -0.334 N 
ATOM     26  C   UNL     1       5.985   6.200  -2.098  1.00  0.00     0.332 C 
ATOM     27  H   UNL     1       7.330   4.693  -2.004  1.00  0.00     0.347 HD
ENDBRANCH  12  20
ENDBRANCH   4   7
ENDBRANCH   2   3
ENDBRANCH   1   2
BRANCH   1  28
ATOM     28  C   UNL     1       0.690  -4.494   2.844  1.00  0.00     0.023 C 
BRANCH  28  29
ATOM     29  C   UNL     1      -0.297  -4.829   1.727  1.00  0.00     0.116 C 
BRANCH  29  30
ATOM     30  N   UNL     1      -0.012  -6.067   1.018  1.00  0.00    -0.352 N 
ATOM     31  C   UNL     1      -0.800  -7.182   0.844  1.00  0.00     0.251 C 
ATOM     32  H   UNL     1       0.878  -6.115   0.600  1.00  0.00     0.163 HD
ATOM     33  O   UNL     1      -0.363  -8.155   0.235  1.00  0.00    -0.269 OA
BRANCH  31  34
ATOM     34  C   UNL     1      -2.155  -7.233   1.438  1.00  0.00     0.039 A 
ATOM     35  C   UNL     1      -2.484  -8.319   2.254  1.00  0.00     0.014 A 
ATOM     36  C   UNL     1      -3.083  -6.211   1.227  1.00  0.00     0.014 A 
ATOM     37  C   UNL     1      -3.705  -8.332   2.932  1.00  0.00     0.010 A 
ATOM     38  C   UNL     1      -4.271  -6.191   1.961  1.00  0.00     0.010 A 
ATOM     39  C   UNL     1      -4.589  -7.244   2.834  1.00  0.00    -0.014 A 
BRANCH  39  40
ATOM     40  C   UNL     1      -5.823  -7.185   3.666  1.00  0.00     0.031 A 
ATOM     41  C   UNL     1      -7.184  -7.175   3.022  1.00  0.00     0.074 A 
ATOM     42  C   UNL     1      -5.719  -7.095   5.008  1.00  0.00     0.049 A 
ATOM     43  N   UNL     1      -8.363  -7.111   3.588  1.00  0.00    -0.248 NA
ATOM     44  C   UNL     1      -7.227  -7.226   1.552  1.00  0.00     0.031 C 
ATOM     45  C   UNL     1      -4.461  -7.055   5.759  1.00  0.00     0.029 A 
ATOM     46  N   UNL     1      -6.684  -7.019   5.983  1.00  0.00    -0.354 N 
ATOM     47  C   UNL     1      -9.285  -7.104   2.547  1.00  0.00     0.074 A 
ATOM     48  C   UNL     1      -8.527  -7.119   1.315  1.00  0.00     0.031 C 
ATOM     49  C   UNL     1      -4.732  -6.996   7.072  1.00  0.00     0.029 A 
ATOM     50  C   UNL     1      -6.178  -6.945   7.261  1.00  0.00     0.049 A 
ATOM     51  H   UNL     1      -7.649  -7.016   5.785  1.00  0.00     0.167 HD
ATOM     52  C   UNL     1     -10.639  -7.105   2.610  1.00  0.00     0.031 A 
ATOM     53  C   UNL     1      -6.802  -6.841   8.452  1.00  0.00     0.031 A 
ATOM     54  C   UNL     1     -11.392  -7.086   3.837  1.00  0.00     0.049 A 
ATOM     55  C   UNL     1      -8.307  -6.812   8.493  1.00  0.00     0.074 A 
ATOM     56  C   UNL     1     -12.766  -7.135   4.002  1.00  0.00     0.029 A 
ATOM     57  N   UNL     1     -10.841  -7.003   5.107  1.00  0.00    -0.354 N 
ATOM     58  N   UNL     1      -9.160  -6.881   7.500  1.00  0.00    -0.248 NA
ATOM     59  C   UNL     1      -8.933  -6.703   9.819  1.00  0.00     0.031 C 
ATOM     60  C   UNL     1     -13.048  -7.015   5.366  1.00  0.00     0.029 A 
ATOM     61  C   UNL     1     -11.848  -6.968   6.059  1.00  0.00     0.049 A 
ATOM     62  H   UNL     1      -9.877  -6.974   5.304  1.00  0.00     0.167 HD
ATOM     63  C   UNL     1     -10.423  -6.855   8.082  1.00  0.00     0.074 A 
ATOM     64  C   UNL     1     -10.221  -6.781   9.515  1.00  0.00     0.031 C 
ATOM     65  C   UNL     1     -11.639  -6.893   7.484  1.00  0.00     0.031 A 
BRANCH  52  66
ATOM     66  C   UNL     1     -11.398  -7.114   1.307  1.00  0.00    -0.014 A 
ATOM     67  C   UNL     1     -11.387  -8.241   0.465  1.00  0.00     0.010 A 
ATOM     68  C   UNL     1     -12.174  -5.999   0.942  1.00  0.00     0.010 A 
ATOM     69  C   UNL     1     -12.102  -8.237  -0.736  1.00  0.00     0.020 A 
ATOM     70  C   UNL     1     -12.917  -6.002  -0.243  1.00  0.00     0.020 A 
ATOM     71  C   UNL     1     -12.862  -7.116  -1.083  1.00  0.00     0.054 A 
BRANCH  71  72
ATOM     72  S   UNL     1     -13.799  -7.149  -2.636  1.00  0.00     0.124 S 
ATOM     73  O   UNL     1     -12.734  -7.070  -3.633  1.00  0.00    -0.237 OA
ATOM     74  O   UNL     1     -14.495  -8.431  -2.561  1.00  0.00    -0.237 OA
ATOM     75  O   UNL     1     -14.659  -5.971  -2.550  1.00  0.00    -0.744 OA
ENDBRANCH  71  72
ENDBRANCH  52  66
BRANCH  53  76
ATOM     76  C   UNL     1      -6.004  -6.763   9.708  1.00  0.00    -0.014 A 
ATOM     77  C   UNL     1      -6.023  -7.818  10.638  1.00  0.00     0.010 A 
ATOM     78  C   UNL     1      -5.216  -5.629   9.982  1.00  0.00     0.010 A 
ATOM     79  C   UNL     1      -5.287  -7.732  11.825  1.00  0.00     0.020 A 
ATOM     80  C   UNL     1      -4.454  -5.554  11.151  1.00  0.00     0.020 A 
ATOM     81  C   UNL     1      -4.503  -6.602  12.071  1.00  0.00     0.054 A 
BRANCH  81  82
ATOM     82  S   UNL     1      -3.520  -6.535  13.595  1.00  0.00     0.124 S 
ATOM     83  O   UNL     1      -4.548  -6.352  14.614  1.00  0.00    -0.237 OA
ATOM     84  O   UNL     1      -2.852  -7.834  13.595  1.00  0.00    -0.237 OA
ATOM     85  O   UNL     1      -2.638  -5.389  13.383  1.00  0.00    -0.744 OA
ENDBRANCH  81  82
ENDBRANCH  53  76
BRANCH  65  86
ATOM     86  C   UNL     1     -12.856  -6.894   8.374  1.00  0.00    -0.014 A 
ATOM     87  C   UNL     1     -13.236  -5.752   9.102  1.00  0.00     0.010 A 
ATOM     88  C   UNL     1     -13.665  -8.044   8.437  1.00  0.00     0.010 A 
ATOM     89  C   UNL     1     -14.383  -5.772   9.902  1.00  0.00     0.020 A 
ATOM     90  C   UNL     1     -14.830  -8.057   9.209  1.00  0.00     0.020 A 
ATOM     91  C   UNL     1     -15.174  -6.924   9.948  1.00  0.00     0.054 A 
BRANCH  91  92
ATOM     92  S   UNL     1     -16.680  -6.908  10.958  1.00  0.00     0.124 S 
ATOM     93  O   UNL     1     -16.139  -6.926  12.314  1.00  0.00    -0.237 OA
ATOM     94  O   UNL     1     -17.322  -5.660  10.554  1.00  0.00    -0.237 OA
ATOM     95  O   UNL     1     -17.384  -8.123  10.553  1.00  0.00    -0.744 OA
ENDBRANCH  91  92
ENDBRANCH  65  86
ENDBRANCH  39  40
ENDBRANCH  31  34
ENDBRANCH  29  30
ENDBRANCH  28  29
ENDBRANCH   1  28
TORSDOF 18
