REMARK SMILES O=C(NCCCCNC(=O)[C@H]1CC[C@H]2CCCC[C@@H]2N1C(=O)c1ccn[nH]1)c1ccc(-c2c3nc(c(-c4ccc(S(=O)(=O)[O-])cc4)c4ccc([nH]4)c(-c4ccc(S(=O)(=O)[O-])cc4)c4nc(c(-c5ccc(S(=O)(=O)[O-])cc5)c5ccc2[nH]5)C=C4)C=C3)cc1
REMARK SMILES IDX 5 1 4 2 3 3 1 4 2 5 28 7 29 8 87 9 30 10 86 11 31 12 32 13
REMARK SMILES IDX 33 14 80 15 34 16 85 17 79 18 81 19 35 20 84 21 78 22 77 23
REMARK SMILES IDX 36 25 66 26 47 27 65 28 48 29 51 30 64 31 82 32 49 33 50 34
REMARK SMILES IDX 63 36 83 37 52 38 37 39 38 40 46 41 39 42 45 43 40 44 41 45
REMARK SMILES IDX 42 46 43 47 44 48 67 49 68 50 76 51 69 52 75 53 70 54 71 55
REMARK SMILES IDX 72 56 73 57 74 58 53 59 54 60 62 61 55 62 61 63 56 64 57 65
REMARK SMILES IDX 58 66 59 67 60 68 6 69 7 70 8 71 9 72 10 74 11 75 12 76
REMARK SMILES IDX 20 77 13 78 19 79 14 80 18 81 15 82 17 83 16 84 21 85 22 86
REMARK SMILES IDX 23 87 24 88 27 89 25 90 26 91
REMARK H PARENT 3 6 81 24 51 35 8 73 27 92
REMARK Flexibility Score: inf
ROOT
ATOM      1  C   UNL     1       4.615  -0.339   2.859  1.00  0.00     0.023 C 
ENDROOT
BRANCH   1   2
ATOM      2  C   UNL     1       4.455  -0.190   1.345  1.00  0.00     0.116 C 
BRANCH   2   3
ATOM      3  N   UNL     1       3.116  -0.532   0.896  1.00  0.00    -0.352 N 
ATOM      4  O   UNL     1       1.242  -0.422  -0.324  1.00  0.00    -0.269 OA
ATOM      5  C   UNL     1       2.424  -0.106  -0.207  1.00  0.00     0.251 C 
ATOM      6  H   UNL     1       2.632  -1.166   1.473  1.00  0.00     0.163 HD
BRANCH   5   7
ATOM      7  C   UNL     1       3.062   0.745  -1.237  1.00  0.00     0.039 A 
ATOM      8  C   UNL     1       4.325   0.459  -1.763  1.00  0.00     0.014 A 
ATOM      9  C   UNL     1       2.320   1.816  -1.750  1.00  0.00     0.014 A 
ATOM     10  C   UNL     1       4.864   1.271  -2.765  1.00  0.00     0.010 A 
ATOM     11  C   UNL     1       2.851   2.618  -2.761  1.00  0.00     0.010 A 
ATOM     12  C   UNL     1       4.131   2.355  -3.269  1.00  0.00    -0.014 A 
BRANCH  12  13
ATOM     13  C   UNL     1       4.684   3.196  -4.355  1.00  0.00     0.031 A 
ATOM     14  C   UNL     1       5.320   4.518  -4.046  1.00  0.00     0.074 A 
ATOM     15  C   UNL     1       4.592   2.778  -5.630  1.00  0.00     0.049 A 
ATOM     16  N   UNL     1       5.846   5.389  -4.868  1.00  0.00    -0.248 NA
ATOM     17  C   UNL     1       5.365   4.913  -2.630  1.00  0.00     0.031 C 
ATOM     18  C   UNL     1       3.977   1.524  -6.065  1.00  0.00     0.029 A 
ATOM     19  N   UNL     1       5.010   3.372  -6.793  1.00  0.00    -0.354 N 
ATOM     20  C   UNL     1       6.274   6.445  -4.075  1.00  0.00     0.074 A 
ATOM     21  C   UNL     1       5.946   6.103  -2.705  1.00  0.00     0.031 C 
ATOM     22  C   UNL     1       4.062   1.439  -7.403  1.00  0.00     0.029 A 
ATOM     23  C   UNL     1       4.727   2.635  -7.916  1.00  0.00     0.049 A 
ATOM     24  H   UNL     1       5.469   4.242  -6.820  1.00  0.00     0.167 HD
ATOM     25  C   UNL     1       6.884   7.595  -4.449  1.00  0.00     0.031 A 
ATOM     26  C   UNL     1       4.969   2.894  -9.214  1.00  0.00     0.031 A 
ATOM     27  C   UNL     1       7.227   7.940  -5.801  1.00  0.00     0.049 A 
ATOM     28  C   UNL     1       5.652   4.169  -9.608  1.00  0.00     0.074 A 
ATOM     29  C   UNL     1       7.892   9.062  -6.266  1.00  0.00     0.029 A 
ATOM     30  N   UNL     1       6.925   7.166  -6.911  1.00  0.00    -0.354 N 
ATOM     31  N   UNL     1       6.086   5.138  -8.839  1.00  0.00    -0.248 NA
ATOM     32  C   UNL     1       5.875   4.386 -11.044  1.00  0.00     0.031 C 
ATOM     33  C   UNL     1       7.982   8.970  -7.662  1.00  0.00     0.029 A 
ATOM     34  C   UNL     1       7.377   7.790  -8.061  1.00  0.00     0.049 A 
ATOM     35  H   UNL     1       6.458   6.300  -6.885  1.00  0.00     0.167 HD
ATOM     36  C   UNL     1       6.633   6.082  -9.697  1.00  0.00     0.074 A 
ATOM     37  C   UNL     1       6.479   5.568 -11.044  1.00  0.00     0.031 C 
ATOM     38  C   UNL     1       7.212   7.270  -9.393  1.00  0.00     0.031 A 
BRANCH  25  39
ATOM     39  C   UNL     1       7.207   8.561  -3.350  1.00  0.00    -0.014 A 
ATOM     40  C   UNL     1       8.409   8.447  -2.631  1.00  0.00     0.010 A 
ATOM     41  C   UNL     1       6.282   9.560  -3.001  1.00  0.00     0.010 A 
ATOM     42  C   UNL     1       8.663   9.289  -1.546  1.00  0.00     0.020 A 
ATOM     43  C   UNL     1       6.534  10.406  -1.919  1.00  0.00     0.020 A 
ATOM     44  C   UNL     1       7.713  10.249  -1.183  1.00  0.00     0.054 A 
BRANCH  44  45
ATOM     45  S   UNL     1       8.014  11.315   0.253  1.00  0.00     0.124 S 
ATOM     46  O   UNL     1       7.355  10.567   1.321  1.00  0.00    -0.237 OA
ATOM     47  O   UNL     1       9.472  11.367   0.334  1.00  0.00    -0.237 OA
ATOM     48  O   UNL     1       7.371  12.571  -0.122  1.00  0.00    -0.744 OA
ENDBRANCH  44  45
ENDBRANCH  25  39
BRANCH  26  49
ATOM     49  C   UNL     1       4.549   1.902 -10.232  1.00  0.00    -0.014 A 
ATOM     50  C   UNL     1       5.434   0.888 -10.634  1.00  0.00     0.010 A 
ATOM     51  C   UNL     1       3.237   1.919 -10.735  1.00  0.00     0.010 A 
ATOM     52  C   UNL     1       5.007  -0.110 -11.514  1.00  0.00     0.020 A 
ATOM     53  C   UNL     1       2.808   0.921 -11.612  1.00  0.00     0.020 A 
ATOM     54  C   UNL     1       3.695  -0.089 -11.995  1.00  0.00     0.054 A 
BRANCH  54  55
ATOM     55  S   UNL     1       3.100  -1.443 -13.047  1.00  0.00     0.124 S 
ATOM     56  O   UNL     1       3.308  -0.900 -14.385  1.00  0.00    -0.237 OA
ATOM     57  O   UNL     1       3.969  -2.559 -12.677  1.00  0.00    -0.237 OA
ATOM     58  O   UNL     1       1.706  -1.590 -12.634  1.00  0.00    -0.744 OA
ENDBRANCH  54  55
ENDBRANCH  26  49
BRANCH  38  59
ATOM     59  C   UNL     1       7.715   8.093 -10.541  1.00  0.00    -0.014 A 
ATOM     60  C   UNL     1       6.862   9.004 -11.187  1.00  0.00     0.010 A 
ATOM     61  C   UNL     1       9.052   7.979 -10.960  1.00  0.00     0.010 A 
ATOM     62  C   UNL     1       7.334   9.781 -12.248  1.00  0.00     0.020 A 
ATOM     63  C   UNL     1       9.527   8.757 -12.019  1.00  0.00     0.020 A 
ATOM     64  C   UNL     1       8.662   9.645 -12.664  1.00  0.00     0.054 A 
BRANCH  64  65
ATOM     65  S   UNL     1       9.288  10.678 -14.019  1.00  0.00     0.124 S 
ATOM     66  O   UNL     1       9.042   9.831 -15.183  1.00  0.00    -0.237 OA
ATOM     67  O   UNL     1       8.463  11.880 -13.934  1.00  0.00    -0.237 OA
ATOM     68  O   UNL     1      10.694  10.871 -13.670  1.00  0.00    -0.744 OA
ENDBRANCH  64  65
ENDBRANCH  38  59
ENDBRANCH  12  13
ENDBRANCH   5   7
ENDBRANCH   2   3
ENDBRANCH   1   2
BRANCH   1  69
ATOM     69  C   UNL     1       4.344  -1.746   3.412  1.00  0.00     0.023 C 
BRANCH  69  70
ATOM     70  C   UNL     1       5.289  -2.834   2.901  1.00  0.00     0.116 C 
BRANCH  70  71
ATOM     71  N   UNL     1       6.664  -2.633   3.314  1.00  0.00    -0.354 N 
ATOM     72  C   UNL     1       7.249  -2.924   4.518  1.00  0.00     0.242 C 
ATOM     73  H   UNL     1       7.258  -2.233   2.638  1.00  0.00     0.163 HD
ATOM     74  O   UNL     1       8.443  -2.659   4.675  1.00  0.00    -0.273 OA
BRANCH  72  75
ATOM     75  C   UNL     1       6.411  -3.636   5.615  1.00  0.00     0.175 C 
ATOM     76  C   UNL     1       6.884  -5.114   5.566  1.00  0.00     0.036 C 
ATOM     77  N   UNL     1       6.571  -3.041   6.957  1.00  0.00    -0.322 N 
ATOM     78  C   UNL     1       6.769  -5.876   6.884  1.00  0.00     0.008 C 
ATOM     79  C   UNL     1       6.073  -3.815   8.116  1.00  0.00     0.089 C 
ATOM     80  C   UNL     1       5.675  -5.260   7.736  1.00  0.00     0.012 C 
ATOM     81  C   UNL     1       4.848  -3.178   8.812  1.00  0.00     0.025 C 
ATOM     82  C   UNL     1       5.372  -6.076   8.996  1.00  0.00     0.006 C 
ATOM     83  C   UNL     1       4.445  -3.970  10.058  1.00  0.00     0.002 C 
ATOM     84  C   UNL     1       4.210  -5.449   9.764  1.00  0.00     0.000 C 
BRANCH  77  85
ATOM     85  C   UNL     1       6.677  -1.644   7.033  1.00  0.00     0.272 C 
ATOM     86  O   UNL     1       6.231  -0.922   6.142  1.00  0.00    -0.267 OA
BRANCH  85  87
ATOM     87  C   UNL     1       7.304  -1.065   8.196  1.00  0.00     0.123 A 
ATOM     88  C   UNL     1       8.187  -1.541   9.146  1.00  0.00     0.055 A 
ATOM     89  N   UNL     1       7.134   0.259   8.510  1.00  0.00    -0.273 N 
ATOM     90  C   UNL     1       8.402  -0.462  10.024  1.00  0.00     0.135 A 
ATOM     91  N   UNL     1       7.731   0.629   9.658  1.00  0.00    -0.183 NA
ATOM     92  H   UNL     1       6.621   0.882   7.947  1.00  0.00     0.190 HD
ENDBRANCH  85  87
ENDBRANCH  77  85
ENDBRANCH  72  75
ENDBRANCH  70  71
ENDBRANCH  69  70
ENDBRANCH   1  69
TORSDOF 16
