REMARK SMILES O=C(Cn1c2ccccc2c(=O)c2ccccc21)N[C@@H](Cc1ccccc1)C(=O)NCCCCNC(=O)c1ccc(-c2c3nc(c(-c4ccc(S(=O)(=O)[O-])cc4)c4ccc([nH]4)c(-c4ccc(S(=O)(=O)[O-])cc4)c4nc(c(-c5ccc(S(=O)(=O)[O-])cc5)c5ccc2[nH]5)C=C4)C=C3)cc1
REMARK SMILES IDX 32 1 31 2 30 3 28 4 29 5 20 7 19 8 1 9 2 10 3 12 4 13 5 14
REMARK SMILES IDX 18 15 6 16 10 17 13 18 17 19 7 20 9 21 11 22 14 23 16 24
REMARK SMILES IDX 8 25 12 26 15 27 21 28 22 29 23 30 27 31 24 32 26 33 25 34
REMARK SMILES IDX 33 35 34 36 35 37 36 38 37 40 38 41 39 42 97 43 40 44 96 45
REMARK SMILES IDX 41 46 42 47 43 48 90 49 44 50 95 51 89 52 91 53 45 54 94 55
REMARK SMILES IDX 88 56 87 57 46 59 76 60 57 61 75 62 58 63 61 64 74 65 92 66
REMARK SMILES IDX 59 67 60 68 73 70 93 71 62 72 47 73 48 74 56 75 49 76 55 77
REMARK SMILES IDX 50 78 51 79 52 80 53 81 54 82 77 83 78 84 86 85 79 86 85 87
REMARK SMILES IDX 80 88 81 89 82 90 83 91 84 92 63 93 64 94 72 95 65 96 71 97
REMARK SMILES IDX 66 98 67 99 68 100 69 101 70 102
REMARK H PARENT 30 6 19 11 35 39 91 58 61 69
REMARK Flexibility Score: inf
ROOT
ATOM      1  C   UNL     1       6.348   2.553  -0.831  1.00  0.00     0.023 C 
ENDROOT
BRANCH   1   2
ATOM      2  C   UNL     1       5.438   3.130   0.235  1.00  0.00     0.116 C 
BRANCH   2   3
ATOM      3  N   UNL     1       4.183   3.657  -0.253  1.00  0.00    -0.354 N 
ATOM      4  C   UNL     1       2.925   3.496   0.255  1.00  0.00     0.242 C 
ATOM      5  O   UNL     1       2.092   4.369  -0.013  1.00  0.00    -0.273 OA
ATOM      6  H   UNL     1       4.244   4.209  -1.066  1.00  0.00     0.163 HD
BRANCH   4   7
ATOM      7  C   UNL     1       2.556   2.332   1.205  1.00  0.00     0.175 C 
BRANCH   7   8
ATOM      8  N   UNL     1       3.066   1.032   0.730  1.00  0.00    -0.342 N 
ATOM      9  O   UNL     1       0.989   0.189   0.267  1.00  0.00    -0.273 OA
ATOM     10  C   UNL     1       2.214   0.101   0.172  1.00  0.00     0.240 C 
ATOM     11  H   UNL     1       4.025   0.826   0.813  1.00  0.00     0.164 HD
BRANCH  10  12
ATOM     12  C   UNL     1       2.854  -1.100  -0.519  1.00  0.00     0.222 C 
BRANCH  12  13
ATOM     13  N   UNL     1       3.636  -0.908  -1.774  1.00  0.00    -0.331 N 
ATOM     14  C   UNL     1       3.641   0.261  -2.561  1.00  0.00     0.053 A 
ATOM     15  C   UNL     1       4.384  -2.060  -2.180  1.00  0.00     0.053 A 
ATOM     16  C   UNL     1       2.663   1.263  -2.519  1.00  0.00     0.027 A 
ATOM     17  C   UNL     1       4.676   0.463  -3.503  1.00  0.00     0.046 A 
ATOM     18  C   UNL     1       5.383  -1.936  -3.163  1.00  0.00     0.046 A 
ATOM     19  C   UNL     1       4.152  -3.359  -1.689  1.00  0.00     0.027 A 
ATOM     20  C   UNL     1       2.779   2.449  -3.264  1.00  0.00     0.002 A 
ATOM     21  C   UNL     1       4.798   1.640  -4.259  1.00  0.00     0.014 A 
ATOM     22  C   UNL     1       5.673  -0.603  -3.715  1.00  0.00     0.197 A 
ATOM     23  C   UNL     1       6.108  -3.038  -3.641  1.00  0.00     0.014 A 
ATOM     24  C   UNL     1       4.869  -4.467  -2.166  1.00  0.00     0.002 A 
ATOM     25  C   UNL     1       3.856   2.647  -4.119  1.00  0.00     0.001 A 
ATOM     26  O   UNL     1       6.703  -0.398  -4.346  1.00  0.00    -0.288 OA
ATOM     27  C   UNL     1       5.843  -4.308  -3.144  1.00  0.00     0.001 A 
ENDBRANCH  12  13
ENDBRANCH  10  12
ENDBRANCH   7   8
BRANCH   7  28
ATOM     28  C   UNL     1       2.759   2.627   2.708  1.00  0.00     0.070 C 
BRANCH  28  29
ATOM     29  C   UNL     1       4.144   2.999   3.175  1.00  0.00    -0.045 A 
ATOM     30  C   UNL     1       4.527   4.349   3.244  1.00  0.00     0.004 A 
ATOM     31  C   UNL     1       5.087   2.010   3.490  1.00  0.00     0.004 A 
ATOM     32  C   UNL     1       5.841   4.698   3.563  1.00  0.00     0.000 A 
ATOM     33  C   UNL     1       6.405   2.363   3.795  1.00  0.00     0.000 A 
ATOM     34  C   UNL     1       6.784   3.705   3.819  1.00  0.00     0.000 A 
ENDBRANCH  28  29
ENDBRANCH   7  28
ENDBRANCH   4   7
ENDBRANCH   2   3
ENDBRANCH   1   2
BRANCH   1  35
ATOM     35  C   UNL     1       6.976   3.579  -1.761  1.00  0.00     0.023 C 
BRANCH  35  36
ATOM     36  C   UNL     1       7.683   4.735  -1.066  1.00  0.00     0.116 C 
BRANCH  36  37
ATOM     37  N   UNL     1       8.658   4.331  -0.057  1.00  0.00    -0.352 N 
ATOM     38  C   UNL     1       9.906   4.871   0.184  1.00  0.00     0.251 C 
ATOM     39  H   UNL     1       8.392   3.582   0.524  1.00  0.00     0.163 HD
ATOM     40  O   UNL     1      10.637   4.426   1.053  1.00  0.00    -0.269 OA
BRANCH  38  41
ATOM     41  C   UNL     1      10.341   5.978  -0.690  1.00  0.00     0.039 A 
ATOM     42  C   UNL     1       9.536   7.113  -0.801  1.00  0.00     0.014 A 
ATOM     43  C   UNL     1      11.425   5.774  -1.546  1.00  0.00     0.014 A 
ATOM     44  C   UNL     1       9.687   7.934  -1.910  1.00  0.00     0.010 A 
ATOM     45  C   UNL     1      11.626   6.657  -2.609  1.00  0.00     0.010 A 
ATOM     46  C   UNL     1      10.712   7.696  -2.843  1.00  0.00    -0.014 A 
BRANCH  46  47
ATOM     47  C   UNL     1      10.764   8.504  -4.090  1.00  0.00     0.031 A 
ATOM     48  C   UNL     1      10.541   7.857  -5.435  1.00  0.00     0.074 A 
ATOM     49  C   UNL     1      10.927   9.838  -4.003  1.00  0.00     0.049 A 
ATOM     50  N   UNL     1      10.562   8.409  -6.622  1.00  0.00    -0.248 NA
ATOM     51  C   UNL     1      10.255   6.412  -5.456  1.00  0.00     0.031 C 
ATOM     52  C   UNL     1      11.108  10.582  -2.755  1.00  0.00     0.029 A 
ATOM     53  N   UNL     1      10.933  10.806  -4.974  1.00  0.00    -0.354 N 
ATOM     54  C   UNL     1      10.314   7.382  -7.527  1.00  0.00     0.074 A 
ATOM     55  C   UNL     1      10.165   6.167  -6.758  1.00  0.00     0.031 C 
ATOM     56  C   UNL     1      11.147  11.893  -3.030  1.00  0.00     0.029 A 
ATOM     57  C   UNL     1      11.071  12.080  -4.476  1.00  0.00     0.049 A 
ATOM     58  H   UNL     1      10.848  10.609  -5.935  1.00  0.00     0.167 HD
ATOM     59  C   UNL     1      10.211   7.450  -8.875  1.00  0.00     0.031 A 
ATOM     60  C   UNL     1      11.149  13.268  -5.105  1.00  0.00     0.031 A 
ATOM     61  C   UNL     1      10.337   8.666  -9.634  1.00  0.00     0.049 A 
ATOM     62  C   UNL     1      11.075  13.313  -6.601  1.00  0.00     0.074 A 
ATOM     63  C   UNL     1      10.260   8.829 -11.007  1.00  0.00     0.029 A 
ATOM     64  N   UNL     1      10.546   9.925  -9.093  1.00  0.00    -0.354 N 
ATOM     65  N   UNL     1      10.894  12.322  -7.441  1.00  0.00    -0.248 NA
ATOM     66  C   UNL     1      11.226  14.628  -7.239  1.00  0.00     0.031 C 
ATOM     67  C   UNL     1      10.466  10.179 -11.299  1.00  0.00     0.029 A 
ATOM     68  C   UNL     1      10.616  10.867 -10.105  1.00  0.00     0.049 A 
ATOM     69  H   UNL     1      10.632  10.120  -8.132  1.00  0.00     0.167 HD
ATOM     70  C   UNL     1      10.921  12.891  -8.707  1.00  0.00     0.074 A 
ATOM     71  C   UNL     1      11.104  14.316  -8.524  1.00  0.00     0.031 C 
ATOM     72  C   UNL     1      10.814  12.280  -9.912  1.00  0.00     0.031 A 
BRANCH  59  73
ATOM     73  C   UNL     1       9.948   6.181  -9.642  1.00  0.00    -0.014 A 
ATOM     74  C   UNL     1      10.962   5.631 -10.449  1.00  0.00     0.010 A 
ATOM     75  C   UNL     1       8.662   5.613  -9.675  1.00  0.00     0.010 A 
ATOM     76  C   UNL     1      10.687   4.559 -11.303  1.00  0.00     0.020 A 
ATOM     77  C   UNL     1       8.389   4.526 -10.513  1.00  0.00     0.020 A 
ATOM     78  C   UNL     1       9.397   4.023 -11.340  1.00  0.00     0.054 A 
BRANCH  78  79
ATOM     79  S   UNL     1       9.047   2.660 -12.486  1.00  0.00     0.124 S 
ATOM     80  O   UNL     1       8.947   3.353 -13.767  1.00  0.00    -0.237 OA
ATOM     81  O   UNL     1      10.215   1.797 -12.325  1.00  0.00    -0.237 OA
ATOM     82  O   UNL     1       7.796   2.101 -11.978  1.00  0.00    -0.744 OA
ENDBRANCH  78  79
ENDBRANCH  59  73
BRANCH  60  83
ATOM     83  C   UNL     1      11.326  14.498  -4.289  1.00  0.00    -0.014 A 
ATOM     84  C   UNL     1      12.535  14.718  -3.602  1.00  0.00     0.010 A 
ATOM     85  C   UNL     1      10.259  15.392  -4.104  1.00  0.00     0.010 A 
ATOM     86  C   UNL     1      12.653  15.771  -2.695  1.00  0.00     0.020 A 
ATOM     87  C   UNL     1      10.384  16.466  -3.216  1.00  0.00     0.020 A 
ATOM     88  C   UNL     1      11.569  16.628  -2.493  1.00  0.00     0.054 A 
BRANCH  88  89
ATOM     89  S   UNL     1      11.716  17.954  -1.265  1.00  0.00     0.124 S 
ATOM     90  O   UNL     1      11.422  17.243  -0.023  1.00  0.00    -0.237 OA
ATOM     91  O   UNL     1      13.100  18.394  -1.425  1.00  0.00    -0.237 OA
ATOM     92  O   UNL     1      10.706  18.920  -1.689  1.00  0.00    -0.744 OA
ENDBRANCH  88  89
ENDBRANCH  60  83
BRANCH  72  93
ATOM     93  C   UNL     1      10.912  13.133 -11.146  1.00  0.00    -0.014 A 
ATOM     94  C   UNL     1       9.769  13.362 -11.933  1.00  0.00     0.010 A 
ATOM     95  C   UNL     1      12.162  13.596 -11.593  1.00  0.00     0.010 A 
ATOM     96  C   UNL     1       9.878  14.014 -13.163  1.00  0.00     0.020 A 
ATOM     97  C   UNL     1      12.271  14.268 -12.813  1.00  0.00     0.020 A 
ATOM     98  C   UNL     1      11.131  14.451 -13.601  1.00  0.00     0.054 A 
BRANCH  98  99
ATOM     99  S   UNL     1      11.261  15.269 -15.215  1.00  0.00     0.124 S 
ATOM    100  O   UNL     1      11.242  14.136 -16.136  1.00  0.00    -0.237 OA
ATOM    101  O   UNL     1      10.076  16.123 -15.242  1.00  0.00    -0.237 OA
ATOM    102  O   UNL     1      12.532  15.986 -15.132  1.00  0.00    -0.744 OA
ENDBRANCH  98  99
ENDBRANCH  72  93
ENDBRANCH  46  47
ENDBRANCH  38  41
ENDBRANCH  36  37
ENDBRANCH  35  36
ENDBRANCH   1  35
TORSDOF 19
