REMARK SMILES CCOc1ccccc1Nc1ccc(C(=O)NCCCCNC(=O)c2ccc(-c3c4nc(c(-c5ccc(S(=O)(=O)[O-])cc5)c5ccc([nH]5)c(-c5ccc(S(=O)(=O)[O-])cc5)c5nc(c(-c6ccc(S(=O)(=O)[O-])cc6)c6ccc3[nH]6)C=C5)C=C4)cc2)cc1N
REMARK SMILES IDX 19 1 18 2 17 3 15 4 16 5 14 7 11 8 12 9 86 10 13 11 85 12
REMARK SMILES IDX 10 13 9 15 4 16 5 17 6 18 8 19 7 20 3 21 2 22 1 23 87 24
REMARK SMILES IDX 20 27 21 28 22 29 23 30 24 32 25 33 26 34 84 35 27 36 83 37
REMARK SMILES IDX 28 38 29 39 30 40 77 41 31 42 82 43 76 44 78 45 32 46 81 47
REMARK SMILES IDX 75 48 74 49 33 51 63 52 44 53 62 54 45 55 48 56 61 57 79 58
REMARK SMILES IDX 46 59 47 60 60 62 80 63 49 64 34 65 35 66 43 67 36 68 42 69
REMARK SMILES IDX 37 70 38 71 39 72 40 73 41 74 64 75 65 76 73 77 66 78 72 79
REMARK SMILES IDX 67 80 68 81 69 82 70 83 71 84 50 85 51 86 59 87 52 88 58 89
REMARK SMILES IDX 53 90 54 91 55 92 56 93 57 94
REMARK H PARENT 17 6 10 14 87 25 87 26 22 31 78 50 48 61
REMARK Flexibility Score: inf
ROOT
ATOM      1  C   UNL     1       7.647   1.814   4.094  1.00  0.00     0.023 C 
ENDROOT
BRANCH   1   2
ATOM      2  C   UNL     1       7.757   0.311   3.828  1.00  0.00     0.116 C 
BRANCH   2   3
ATOM      3  N   UNL     1       6.943  -0.428   4.775  1.00  0.00    -0.352 N 
ATOM      4  C   UNL     1       5.692  -0.979   4.664  1.00  0.00     0.251 C 
ATOM      5  O   UNL     1       5.223  -1.568   5.637  1.00  0.00    -0.269 OA
ATOM      6  H   UNL     1       7.364  -0.556   5.655  1.00  0.00     0.163 HD
BRANCH   4   7
ATOM      7  C   UNL     1       4.923  -0.961   3.393  1.00  0.00     0.041 A 
ATOM      8  C   UNL     1       3.527  -1.136   0.951  1.00  0.00     0.062 A 
ATOM      9  C   UNL     1       3.406  -2.142   1.920  1.00  0.00     0.029 A 
ATOM     10  C   UNL     1       4.323  -0.003   1.232  1.00  0.00     0.056 A 
ATOM     11  C   UNL     1       4.108  -2.063   3.123  1.00  0.00     0.016 A 
ATOM     12  C   UNL     1       4.952   0.094   2.478  1.00  0.00     0.041 A 
BRANCH   8  13
ATOM     13  N   UNL     1       2.864  -1.331  -0.274  1.00  0.00    -0.351 N 
ATOM     14  H   UNL     1       1.957  -1.704  -0.187  1.00  0.00     0.167 HD
BRANCH  13  15
ATOM     15  C   UNL     1       3.263  -1.091  -1.598  1.00  0.00     0.081 A 
ATOM     16  C   UNL     1       2.301  -0.711  -2.548  1.00  0.00     0.142 A 
ATOM     17  C   UNL     1       2.654  -0.452  -3.873  1.00  0.00     0.048 A 
ATOM     18  C   UNL     1       3.993  -0.530  -4.255  1.00  0.00     0.004 A 
ATOM     19  C   UNL     1       4.604  -1.139  -1.994  1.00  0.00     0.030 A 
ATOM     20  C   UNL     1       4.968  -0.868  -3.316  1.00  0.00     0.002 A 
BRANCH  16  21
ATOM     21  O   UNL     1       0.979  -0.646  -2.179  1.00  0.00    -0.492 OA
BRANCH  21  22
ATOM     22  C   UNL     1       0.602   0.684  -1.794  1.00  0.00     0.226 C 
ATOM     23  C   UNL     1       0.381   0.759  -0.291  1.00  0.00     0.049 C 
ENDBRANCH  21  22
ENDBRANCH  16  21
ENDBRANCH  13  15
ENDBRANCH   8  13
BRANCH  10  24
ATOM     24  N   UNL     1       4.353   1.113   0.392  1.00  0.00    -0.397 N 
ATOM     25  H   UNL     1       3.919   1.077  -0.491  1.00  0.00     0.156 HD
ATOM     26  H   UNL     1       4.808   1.936   0.683  1.00  0.00     0.156 HD
ENDBRANCH  10  24
ENDBRANCH   4   7
ENDBRANCH   2   3
ENDBRANCH   1   2
BRANCH   1  27
ATOM     27  C   UNL     1       8.458   2.290   5.302  1.00  0.00     0.023 C 
BRANCH  27  28
ATOM     28  C   UNL     1       9.966   2.135   5.154  1.00  0.00     0.116 C 
BRANCH  28  29
ATOM     29  N   UNL     1      10.504   2.868   4.018  1.00  0.00    -0.352 N 
ATOM     30  C   UNL     1      11.748   3.438   3.885  1.00  0.00     0.251 C 
ATOM     31  H   UNL     1       9.900   2.968   3.246  1.00  0.00     0.163 HD
ATOM     32  O   UNL     1      12.013   4.124   2.909  1.00  0.00    -0.269 OA
BRANCH  30  33
ATOM     33  C   UNL     1      12.741   3.244   4.963  1.00  0.00     0.039 A 
ATOM     34  C   UNL     1      13.377   4.365   5.499  1.00  0.00     0.014 A 
ATOM     35  C   UNL     1      13.006   1.968   5.467  1.00  0.00     0.014 A 
ATOM     36  C   UNL     1      14.236   4.212   6.588  1.00  0.00     0.010 A 
ATOM     37  C   UNL     1      13.812   1.826   6.592  1.00  0.00     0.010 A 
ATOM     38  C   UNL     1      14.433   2.946   7.164  1.00  0.00    -0.014 A 
BRANCH  38  39
ATOM     39  C   UNL     1      15.286   2.775   8.367  1.00  0.00     0.031 A 
ATOM     40  C   UNL     1      16.560   1.982   8.278  1.00  0.00     0.074 A 
ATOM     41  C   UNL     1      14.885   3.289   9.546  1.00  0.00     0.049 A 
ATOM     42  N   UNL     1      17.407   1.677   9.227  1.00  0.00    -0.248 NA
ATOM     43  C   UNL     1      16.918   1.442   6.956  1.00  0.00     0.031 C 
ATOM     44  C   UNL     1      13.650   4.048   9.767  1.00  0.00     0.029 A 
ATOM     45  N   UNL     1      15.474   3.249  10.785  1.00  0.00    -0.354 N 
ATOM     46  C   UNL     1      18.392   0.906   8.621  1.00  0.00     0.074 A 
ATOM     47  C   UNL     1      18.010   0.745   7.235  1.00  0.00     0.031 C 
ATOM     48  C   UNL     1      13.590   4.425  11.055  1.00  0.00     0.029 A 
ATOM     49  C   UNL     1      14.759   3.906  11.759  1.00  0.00     0.049 A 
ATOM     50  H   UNL     1      16.328   2.792  10.960  1.00  0.00     0.167 HD
ATOM     51  C   UNL     1      19.524   0.397   9.162  1.00  0.00     0.031 A 
ATOM     52  C   UNL     1      15.015   4.070  13.071  1.00  0.00     0.031 A 
ATOM     53  C   UNL     1      19.907   0.567  10.538  1.00  0.00     0.049 A 
ATOM     54  C   UNL     1      16.273   3.481  13.650  1.00  0.00     0.074 A 
ATOM     55  C   UNL     1      21.052   0.119  11.174  1.00  0.00     0.029 A 
ATOM     56  N   UNL     1      19.160   1.245  11.488  1.00  0.00    -0.354 N 
ATOM     57  N   UNL     1      17.214   2.794  13.049  1.00  0.00    -0.248 NA
ATOM     58  C   UNL     1      16.507   3.700  15.085  1.00  0.00     0.031 C 
ATOM     59  C   UNL     1      20.979   0.494  12.520  1.00  0.00     0.029 A 
ATOM     60  C   UNL     1      19.812   1.218  12.709  1.00  0.00     0.049 A 
ATOM     61  H   UNL     1      18.293   1.681  11.320  1.00  0.00     0.167 HD
ATOM     62  C   UNL     1      18.167   2.525  14.025  1.00  0.00     0.074 A 
ATOM     63  C   UNL     1      17.695   3.135  15.251  1.00  0.00     0.031 C 
ATOM     64  C   UNL     1      19.330   1.837  13.917  1.00  0.00     0.031 A 
BRANCH  51  65
ATOM     65  C   UNL     1      20.435  -0.386   8.255  1.00  0.00    -0.014 A 
ATOM     66  C   UNL     1      21.187   0.262   7.257  1.00  0.00     0.010 A 
ATOM     67  C   UNL     1      20.576  -1.774   8.426  1.00  0.00     0.010 A 
ATOM     68  C   UNL     1      22.035  -0.470   6.423  1.00  0.00     0.020 A 
ATOM     69  C   UNL     1      21.444  -2.507   7.610  1.00  0.00     0.020 A 
ATOM     70  C   UNL     1      22.156  -1.851   6.603  1.00  0.00     0.054 A 
BRANCH  70  71
ATOM     71  S   UNL     1      23.286  -2.771   5.523  1.00  0.00     0.124 S 
ATOM     72  O   UNL     1      22.543  -2.800   4.266  1.00  0.00    -0.237 OA
ATOM     73  O   UNL     1      24.484  -1.936   5.525  1.00  0.00    -0.237 OA
ATOM     74  O   UNL     1      23.429  -4.063   6.191  1.00  0.00    -0.744 OA
ENDBRANCH  70  71
ENDBRANCH  51  65
BRANCH  52  75
ATOM     75  C   UNL     1      14.075   4.841  13.929  1.00  0.00    -0.014 A 
ATOM     76  C   UNL     1      14.441   6.104  14.427  1.00  0.00     0.010 A 
ATOM     77  C   UNL     1      12.816   4.312  14.264  1.00  0.00     0.010 A 
ATOM     78  C   UNL     1      13.580   6.810  15.272  1.00  0.00     0.020 A 
ATOM     79  C   UNL     1      11.940   5.027  15.087  1.00  0.00     0.020 A 
ATOM     80  C   UNL     1      12.335   6.265  15.599  1.00  0.00     0.054 A 
BRANCH  80  81
ATOM     81  S   UNL     1      11.221   7.208  16.677  1.00  0.00     0.124 S 
ATOM     82  O   UNL     1      11.824   7.003  17.990  1.00  0.00    -0.237 OA
ATOM     83  O   UNL     1      11.326   8.561  16.136  1.00  0.00    -0.237 OA
ATOM     84  O   UNL     1       9.925   6.563  16.473  1.00  0.00    -0.744 OA
ENDBRANCH  80  81
ENDBRANCH  52  75
BRANCH  64  85
ATOM     85  C   UNL     1      20.194   1.743  15.145  1.00  0.00    -0.014 A 
ATOM     86  C   UNL     1      19.842   0.909  16.221  1.00  0.00     0.010 A 
ATOM     87  C   UNL     1      21.401   2.463  15.199  1.00  0.00     0.010 A 
ATOM     88  C   UNL     1      20.668   0.822  17.344  1.00  0.00     0.020 A 
ATOM     89  C   UNL     1      22.241   2.359  16.309  1.00  0.00     0.020 A 
ATOM     90  C   UNL     1      21.862   1.550  17.382  1.00  0.00     0.054 A 
BRANCH  90  91
ATOM     91  S   UNL     1      22.939   1.388  18.832  1.00  0.00     0.124 S 
ATOM     92  O   UNL     1      22.233   2.193  19.826  1.00  0.00    -0.237 OA
ATOM     93  O   UNL     1      22.938  -0.053  19.075  1.00  0.00    -0.237 OA
ATOM     94  O   UNL     1      24.215   1.935  18.378  1.00  0.00    -0.744 OA
ENDBRANCH  90  91
ENDBRANCH  64  85
ENDBRANCH  38  39
ENDBRANCH  30  33
ENDBRANCH  28  29
ENDBRANCH  27  28
ENDBRANCH   1  27
TORSDOF 19
