REMARK SMILES O=C(NCCCCNC(=O)[C@@H](CCO)Cc1ccc(F)cc1)c1ccc(-c2c3nc(c(-c4ccc(S(=O)(=O)[O-])cc4)c4ccc([nH]4)c(-c4ccc(S(=O)(=O)[O-])cc4)c4nc(c(-c5ccc(S(=O)(=O)[O-])cc5)c5ccc2[nH]5)C=C4)C=C3)cc1
REMARK SMILES IDX 5 1 4 2 3 3 1 4 2 5 23 7 24 8 82 9 25 10 81 11 26 12 27 13
REMARK SMILES IDX 28 14 75 15 29 16 80 17 74 18 76 19 30 20 79 21 73 22 72 23
REMARK SMILES IDX 31 25 61 26 42 27 60 28 43 29 46 30 59 31 77 32 44 33 45 34
REMARK SMILES IDX 58 36 78 37 47 38 32 39 33 40 41 41 34 42 40 43 35 44 36 45
REMARK SMILES IDX 37 46 38 47 39 48 62 49 63 50 71 51 64 52 70 53 65 54 66 55
REMARK SMILES IDX 67 56 68 57 69 58 48 59 49 60 57 61 50 62 56 63 51 64 52 65
REMARK SMILES IDX 53 66 54 67 55 68 6 69 7 70 8 71 9 72 10 74 11 75 12 76
REMARK SMILES IDX 13 77 14 78 15 80 16 81 17 82 22 83 18 84 21 85 19 86 20 87
REMARK H PARENT 3 6 76 24 46 35 8 73 14 79
REMARK Flexibility Score: inf
ROOT
ATOM      1  C   UNL     1       4.980  -0.249  -2.577  1.00  0.00     0.023 C 
ENDROOT
BRANCH   1   2
ATOM      2  C   UNL     1       4.608   0.139  -1.155  1.00  0.00     0.116 C 
BRANCH   2   3
ATOM      3  N   UNL     1       3.176   0.327  -0.955  1.00  0.00    -0.352 N 
ATOM      4  O   UNL     1       1.191   0.044   0.098  1.00  0.00    -0.269 OA
ATOM      5  C   UNL     1       2.406  -0.097   0.107  1.00  0.00     0.251 C 
ATOM      6  H   UNL     1       2.702   0.816  -1.666  1.00  0.00     0.163 HD
BRANCH   5   7
ATOM      7  C   UNL     1       3.087  -0.761   1.237  1.00  0.00     0.039 A 
ATOM      8  C   UNL     1       4.224  -0.174   1.791  1.00  0.00     0.014 A 
ATOM      9  C   UNL     1       2.654  -2.019   1.663  1.00  0.00     0.014 A 
ATOM     10  C   UNL     1       5.032  -0.923   2.630  1.00  0.00     0.010 A 
ATOM     11  C   UNL     1       3.417  -2.729   2.596  1.00  0.00     0.010 A 
ATOM     12  C   UNL     1       4.635  -2.204   3.054  1.00  0.00    -0.014 A 
BRANCH  12  13
ATOM     13  C   UNL     1       5.505  -2.927   4.016  1.00  0.00     0.031 A 
ATOM     14  C   UNL     1       6.182  -4.222   3.656  1.00  0.00     0.074 A 
ATOM     15  C   UNL     1       5.749  -2.340   5.205  1.00  0.00     0.049 A 
ATOM     16  N   UNL     1       7.030  -4.924   4.364  1.00  0.00    -0.248 NA
ATOM     17  C   UNL     1       5.867  -4.812   2.345  1.00  0.00     0.031 C 
ATOM     18  C   UNL     1       5.136  -1.089   5.666  1.00  0.00     0.029 A 
ATOM     19  N   UNL     1       6.607  -2.679   6.217  1.00  0.00    -0.354 N 
ATOM     20  C   UNL     1       7.331  -6.048   3.602  1.00  0.00     0.074 A 
ATOM     21  C   UNL     1       6.564  -5.941   2.380  1.00  0.00     0.031 C 
ATOM     22  C   UNL     1       5.701  -0.722   6.823  1.00  0.00     0.029 A 
ATOM     23  C   UNL     1       6.657  -1.745   7.225  1.00  0.00     0.049 A 
ATOM     24  H   UNL     1       7.137  -3.509   6.222  1.00  0.00     0.167 HD
ATOM     25  C   UNL     1       8.170  -7.071   3.897  1.00  0.00     0.031 A 
ATOM     26  C   UNL     1       7.384  -1.714   8.356  1.00  0.00     0.031 A 
ATOM     27  C   UNL     1       8.936  -7.165   5.114  1.00  0.00     0.049 A 
ATOM     28  C   UNL     1       8.324  -2.844   8.642  1.00  0.00     0.074 A 
ATOM     29  C   UNL     1       9.804  -8.168   5.513  1.00  0.00     0.029 A 
ATOM     30  N   UNL     1       8.936  -6.215   6.125  1.00  0.00    -0.354 N 
ATOM     31  N   UNL     1       8.575  -3.905   7.913  1.00  0.00    -0.248 NA
ATOM     32  C   UNL     1       9.071  -2.778   9.903  1.00  0.00     0.031 C 
ATOM     33  C   UNL     1      10.305  -7.839   6.778  1.00  0.00     0.029 A 
ATOM     34  C   UNL     1       9.783  -6.610   7.148  1.00  0.00     0.049 A 
ATOM     35  H   UNL     1       8.411  -5.382   6.117  1.00  0.00     0.167 HD
ATOM     36  C   UNL     1       9.501  -4.644   8.636  1.00  0.00     0.074 A 
ATOM     37  C   UNL     1       9.797  -3.885   9.836  1.00  0.00     0.031 C 
ATOM     38  C   UNL     1      10.045  -5.851   8.343  1.00  0.00     0.031 A 
BRANCH  25  39
ATOM     39  C   UNL     1       8.290  -8.190   2.896  1.00  0.00    -0.014 A 
ATOM     40  C   UNL     1       9.018  -8.024   1.704  1.00  0.00     0.010 A 
ATOM     41  C   UNL     1       7.719  -9.445   3.179  1.00  0.00     0.010 A 
ATOM     42  C   UNL     1       9.149  -9.084   0.801  1.00  0.00     0.020 A 
ATOM     43  C   UNL     1       7.866 -10.513   2.288  1.00  0.00     0.020 A 
ATOM     44  C   UNL     1       8.569 -10.322   1.097  1.00  0.00     0.054 A 
BRANCH  44  45
ATOM     45  S   UNL     1       8.781 -11.690  -0.077  1.00  0.00     0.124 S 
ATOM     46  O   UNL     1       7.849 -11.320  -1.139  1.00  0.00    -0.237 OA
ATOM     47  O   UNL     1      10.196 -11.601  -0.425  1.00  0.00    -0.237 OA
ATOM     48  O   UNL     1       8.406 -12.871   0.697  1.00  0.00    -0.744 OA
ENDBRANCH  44  45
ENDBRANCH  25  39
BRANCH  26  49
ATOM     49  C   UNL     1       7.215  -0.581   9.303  1.00  0.00    -0.014 A 
ATOM     50  C   UNL     1       8.226   0.381   9.466  1.00  0.00     0.010 A 
ATOM     51  C   UNL     1       6.008  -0.438  10.013  1.00  0.00     0.010 A 
ATOM     52  C   UNL     1       8.035   1.464  10.330  1.00  0.00     0.020 A 
ATOM     53  C   UNL     1       5.803   0.658  10.853  1.00  0.00     0.020 A 
ATOM     54  C   UNL     1       6.824   1.596  11.016  1.00  0.00     0.054 A 
BRANCH  54  55
ATOM     55  S   UNL     1       6.559   3.043  12.077  1.00  0.00     0.124 S 
ATOM     56  O   UNL     1       7.236   2.643  13.306  1.00  0.00    -0.237 OA
ATOM     57  O   UNL     1       7.199   4.117  11.322  1.00  0.00    -0.237 OA
ATOM     58  O   UNL     1       5.103   3.136  12.162  1.00  0.00    -0.744 OA
ENDBRANCH  54  55
ENDBRANCH  26  49
BRANCH  38  59
ATOM     59  C   UNL     1      11.008  -6.413   9.349  1.00  0.00    -0.014 A 
ATOM     60  C   UNL     1      10.546  -6.941  10.568  1.00  0.00     0.010 A 
ATOM     61  C   UNL     1      12.387  -6.411   9.075  1.00  0.00     0.010 A 
ATOM     62  C   UNL     1      11.453  -7.413  11.519  1.00  0.00     0.020 A 
ATOM     63  C   UNL     1      13.294  -6.903  10.015  1.00  0.00     0.020 A 
ATOM     64  C   UNL     1      12.823  -7.382  11.240  1.00  0.00     0.054 A 
BRANCH  64  65
ATOM     65  S   UNL     1      13.985  -8.002  12.486  1.00  0.00     0.124 S 
ATOM     66  O   UNL     1      14.050  -6.882  13.421  1.00  0.00    -0.237 OA
ATOM     67  O   UNL     1      13.316  -9.200  12.986  1.00  0.00    -0.237 OA
ATOM     68  O   UNL     1      15.206  -8.251  11.724  1.00  0.00    -0.744 OA
ENDBRANCH  64  65
ENDBRANCH  38  59
ENDBRANCH  12  13
ENDBRANCH   5   7
ENDBRANCH   2   3
ENDBRANCH   1   2
BRANCH   1  69
ATOM     69  C   UNL     1       4.556   0.754  -3.642  1.00  0.00     0.023 C 
BRANCH  69  70
ATOM     70  C   UNL     1       5.179   2.141  -3.498  1.00  0.00     0.116 C 
BRANCH  70  71
ATOM     71  N   UNL     1       6.558   2.148  -3.938  1.00  0.00    -0.356 N 
ATOM     72  C   UNL     1       7.202   2.847  -4.901  1.00  0.00     0.223 C 
ATOM     73  H   UNL     1       7.137   1.525  -3.442  1.00  0.00     0.163 HD
ATOM     74  O   UNL     1       8.395   2.568  -5.071  1.00  0.00    -0.275 OA
BRANCH  72  75
ATOM     75  C   UNL     1       6.551   3.909  -5.785  1.00  0.00     0.085 C 
BRANCH  75  76
ATOM     76  C   UNL     1       5.818   3.268  -6.988  1.00  0.00     0.042 C 
BRANCH  76  77
ATOM     77  C   UNL     1       4.424   2.690  -6.786  1.00  0.00     0.157 C 
BRANCH  77  78
ATOM     78  O   UNL     1       3.536   3.648  -6.239  1.00  0.00    -0.396 OA
ATOM     79  H   UNL     1       3.863   3.934  -5.371  1.00  0.00     0.210 HD
ENDBRANCH  77  78
ENDBRANCH  76  77
ENDBRANCH  75  76
BRANCH  75  80
ATOM     80  C   UNL     1       5.793   5.049  -5.082  1.00  0.00     0.049 C 
BRANCH  80  81
ATOM     81  C   UNL     1       6.623   6.077  -4.331  1.00  0.00    -0.047 A 
ATOM     82  C   UNL     1       6.305   7.439  -4.480  1.00  0.00     0.007 A 
ATOM     83  C   UNL     1       7.623   5.721  -3.414  1.00  0.00     0.007 A 
ATOM     84  C   UNL     1       6.983   8.417  -3.751  1.00  0.00     0.039 A 
ATOM     85  C   UNL     1       8.306   6.701  -2.688  1.00  0.00     0.039 A 
ATOM     86  C   UNL     1       7.980   8.039  -2.863  1.00  0.00     0.123 A 
ATOM     87  F   UNL     1       8.627   8.976  -2.158  1.00  0.00    -0.207 F 
ENDBRANCH  80  81
ENDBRANCH  75  80
ENDBRANCH  72  75
ENDBRANCH  70  71
ENDBRANCH  69  70
ENDBRANCH   1  69
TORSDOF 19
