REMARK SMILES O=C(NCCCCNC(=O)c1ccc(-c2c3nc(c(-c4ccc(S(=O)(=O)[O-])cc4)c4ccc([nH]4)c(-c4ccc(S(=O)(=O)[O-])cc4)c4nc(c(-c5ccc(S(=O)(=O)[O-])cc5)c5ccc2[nH]5)C=C4)C=C3)cc1)C1=Cc2c(ccc(Cl)c2Oc2ccccc2)O[C@H]1C(F)(F)F
REMARK SMILES IDX 6 1 5 2 4 3 3 4 1 5 2 6 71 8 72 9 88 10 73 11 87 12 74 13
REMARK SMILES IDX 79 14 75 15 77 16 76 17 78 18 89 19 90 20 91 21 92 22 80 23
REMARK SMILES IDX 81 24 82 25 86 26 83 27 85 28 84 29 7 30 8 31 9 32 10 34
REMARK SMILES IDX 11 35 12 36 70 37 13 38 69 39 14 40 15 41 16 42 63 43 17 44
REMARK SMILES IDX 68 45 62 46 64 47 18 48 67 49 61 50 60 51 19 53 49 54 30 55
REMARK SMILES IDX 48 56 31 57 34 58 47 59 65 60 32 61 33 62 46 64 66 65 35 66
REMARK SMILES IDX 20 67 21 68 29 69 22 70 28 71 23 72 24 73 25 74 26 75 27 76
REMARK SMILES IDX 50 77 51 78 59 79 52 80 58 81 53 82 54 83 55 84 56 85 57 86
REMARK SMILES IDX 36 87 37 88 45 89 38 90 44 91 39 92 40 93 41 94 42 95 43 96
REMARK H PARENT 3 7 8 33 64 52 34 63
REMARK Flexibility Score: inf
ROOT
ATOM      1  C   UNL     1       3.884   3.960  -1.863  1.00  0.00     0.023 C 
ENDROOT
BRANCH   1   2
ATOM      2  C   UNL     1       4.187   2.505  -2.208  1.00  0.00     0.023 C 
BRANCH   2   3
ATOM      3  C   UNL     1       3.719   1.484  -1.175  1.00  0.00     0.116 C 
BRANCH   3   4
ATOM      4  N   UNL     1       2.558   0.715  -1.590  1.00  0.00    -0.352 N 
ATOM      5  O   UNL     1       1.304  -1.126  -1.939  1.00  0.00    -0.270 OA
ATOM      6  C   UNL     1       2.310  -0.622  -1.449  1.00  0.00     0.251 C 
ATOM      7  H   UNL     1       1.849   1.230  -2.038  1.00  0.00     0.163 HD
BRANCH   6   8
ATOM      8  C   UNL     1       3.270  -1.488  -0.735  1.00  0.00     0.067 C 
ATOM      9  C   UNL     1       3.437  -1.358   0.585  1.00  0.00     0.029 C 
ATOM     10  C   UNL     1       4.291  -2.229  -1.531  1.00  0.00     0.314 C 
ATOM     11  C   UNL     1       4.774  -0.798   0.906  1.00  0.00     0.061 A 
ATOM     12  O   UNL     1       5.655  -1.884  -1.126  1.00  0.00    -0.475 OA
ATOM     13  C   UNL     1       5.814  -1.086  -0.011  1.00  0.00     0.131 A 
ATOM     14  C   UNL     1       4.978   0.132   1.953  1.00  0.00     0.156 A 
ATOM     15  C   UNL     1       7.045  -0.446   0.100  1.00  0.00     0.049 A 
ATOM     16  C   UNL     1       6.215   0.798   2.011  1.00  0.00     0.084 A 
ATOM     17  C   UNL     1       7.236   0.512   1.095  1.00  0.00     0.028 A 
ATOM     18  Cl  UNL     1       6.510   2.049   3.169  1.00  0.00    -0.080 Cl
BRANCH  10  19
ATOM     19  C   UNL     1       4.078  -3.750  -1.445  1.00  0.00     0.429 C 
ATOM     20  F   UNL     1       2.773  -4.093  -1.345  1.00  0.00    -0.167 F 
ATOM     21  F   UNL     1       4.566  -4.374  -2.544  1.00  0.00    -0.167 F 
ATOM     22  F   UNL     1       4.705  -4.288  -0.369  1.00  0.00    -0.167 F 
ENDBRANCH  10  19
BRANCH  14  23
ATOM     23  O   UNL     1       4.031   0.560   2.879  1.00  0.00    -0.455 OA
BRANCH  23  24
ATOM     24  C   UNL     1       2.913  -0.205   3.094  1.00  0.00     0.127 A 
ATOM     25  C   UNL     1       1.701   0.223   2.545  1.00  0.00     0.047 A 
ATOM     26  C   UNL     1       2.993  -1.410   3.795  1.00  0.00     0.047 A 
ATOM     27  C   UNL     1       0.594  -0.624   2.584  1.00  0.00     0.004 A 
ATOM     28  C   UNL     1       1.878  -2.249   3.840  1.00  0.00     0.004 A 
ATOM     29  C   UNL     1       0.689  -1.866   3.214  1.00  0.00     0.000 A 
ENDBRANCH  23  24
ENDBRANCH  14  23
ENDBRANCH   6   8
ENDBRANCH   3   4
ENDBRANCH   2   3
ENDBRANCH   1   2
BRANCH   1  30
ATOM     30  C   UNL     1       4.443   4.481  -0.538  1.00  0.00     0.116 C 
BRANCH  30  31
ATOM     31  N   UNL     1       5.889   4.362  -0.399  1.00  0.00    -0.352 N 
ATOM     32  C   UNL     1       6.802   5.301   0.037  1.00  0.00     0.251 C 
ATOM     33  H   UNL     1       6.268   3.490  -0.653  1.00  0.00     0.163 HD
ATOM     34  O   UNL     1       7.996   5.035   0.053  1.00  0.00    -0.269 OA
BRANCH  32  35
ATOM     35  C   UNL     1       6.331   6.653   0.421  1.00  0.00     0.039 A 
ATOM     36  C   UNL     1       6.917   7.767  -0.186  1.00  0.00     0.014 A 
ATOM     37  C   UNL     1       5.263   6.818   1.307  1.00  0.00     0.014 A 
ATOM     38  C   UNL     1       6.351   9.032  -0.003  1.00  0.00     0.010 A 
ATOM     39  C   UNL     1       4.658   8.068   1.431  1.00  0.00     0.010 A 
ATOM     40  C   UNL     1       5.176   9.182   0.752  1.00  0.00    -0.014 A 
BRANCH  40  41
ATOM     41  C   UNL     1       4.435  10.472   0.781  1.00  0.00     0.031 A 
ATOM     42  C   UNL     1       4.249  11.223   2.069  1.00  0.00     0.074 A 
ATOM     43  C   UNL     1       3.847  10.923  -0.347  1.00  0.00     0.049 A 
ATOM     44  N   UNL     1       3.569  12.320   2.291  1.00  0.00    -0.248 NA
ATOM     45  C   UNL     1       4.886  10.656   3.267  1.00  0.00     0.031 C 
ATOM     46  C   UNL     1       3.900  10.262  -1.655  1.00  0.00     0.029 A 
ATOM     47  N   UNL     1       3.079  12.038  -0.574  1.00  0.00    -0.354 N 
ATOM     48  C   UNL     1       3.680  12.564   3.655  1.00  0.00     0.074 A 
ATOM     49  C   UNL     1       4.459  11.480   4.214  1.00  0.00     0.031 C 
ATOM     50  C   UNL     1       3.218  10.996  -2.549  1.00  0.00     0.029 A 
ATOM     51  C   UNL     1       2.647  12.158  -1.875  1.00  0.00     0.049 A 
ATOM     52  H   UNL     1       2.857  12.691   0.129  1.00  0.00     0.167 HD
ATOM     53  C   UNL     1       3.191  13.603   4.375  1.00  0.00     0.031 A 
ATOM     54  C   UNL     1       1.876  13.093  -2.464  1.00  0.00     0.031 A 
ATOM     55  C   UNL     1       2.427  14.689   3.821  1.00  0.00     0.049 A 
ATOM     56  C   UNL     1       1.359  14.245  -1.649  1.00  0.00     0.074 A 
ATOM     57  C   UNL     1       1.939  15.814   4.463  1.00  0.00     0.029 A 
ATOM     58  N   UNL     1       2.039  14.787   2.494  1.00  0.00    -0.354 N 
ATOM     59  N   UNL     1       1.530  14.490  -0.372  1.00  0.00    -0.248 NA
ATOM     60  C   UNL     1       0.554  15.251  -2.355  1.00  0.00     0.031 C 
ATOM     61  C   UNL     1       1.225  16.575   3.531  1.00  0.00     0.029 A 
ATOM     62  C   UNL     1       1.306  15.946   2.299  1.00  0.00     0.049 A 
ATOM     63  H   UNL     1       2.254  14.131   1.792  1.00  0.00     0.167 HD
ATOM     64  C   UNL     1       0.875  15.691  -0.127  1.00  0.00     0.074 A 
ATOM     65  C   UNL     1       0.313  16.128  -1.389  1.00  0.00     0.031 C 
ATOM     66  C   UNL     1       0.753  16.371   1.039  1.00  0.00     0.031 A 
BRANCH  53  67
ATOM     67  C   UNL     1       3.472  13.607   5.854  1.00  0.00    -0.014 A 
ATOM     68  C   UNL     1       4.765  13.867   6.343  1.00  0.00     0.010 A 
ATOM     69  C   UNL     1       2.429  13.368   6.766  1.00  0.00     0.010 A 
ATOM     70  C   UNL     1       5.021  13.838   7.716  1.00  0.00     0.020 A 
ATOM     71  C   UNL     1       2.676  13.363   8.142  1.00  0.00     0.020 A 
ATOM     72  C   UNL     1       3.976  13.576   8.607  1.00  0.00     0.054 A 
BRANCH  72  73
ATOM     73  S   UNL     1       4.333  13.546  10.385  1.00  0.00     0.124 S 
ATOM     74  O   UNL     1       4.980  12.245  10.537  1.00  0.00    -0.237 OA
ATOM     75  O   UNL     1       5.205  14.704  10.560  1.00  0.00    -0.237 OA
ATOM     76  O   UNL     1       3.015  13.663  11.004  1.00  0.00    -0.744 OA
ENDBRANCH  72  73
ENDBRANCH  53  67
BRANCH  54  77
ATOM     77  C   UNL     1       1.566  12.990  -3.916  1.00  0.00    -0.014 A 
ATOM     78  C   UNL     1       2.193  13.848  -4.836  1.00  0.00     0.010 A 
ATOM     79  C   UNL     1       0.661  12.023  -4.386  1.00  0.00     0.010 A 
ATOM     80  C   UNL     1       1.911  13.749  -6.202  1.00  0.00     0.020 A 
ATOM     81  C   UNL     1       0.393  11.906  -5.753  1.00  0.00     0.020 A 
ATOM     82  C   UNL     1       1.013  12.777  -6.652  1.00  0.00     0.054 A 
BRANCH  82  83
ATOM     83  S   UNL     1       0.709  12.621  -8.434  1.00  0.00     0.124 S 
ATOM     84  O   UNL     1      -0.192  13.741  -8.687  1.00  0.00    -0.237 OA
ATOM     85  O   UNL     1       2.051  12.748  -8.998  1.00  0.00    -0.237 OA
ATOM     86  O   UNL     1       0.113  11.293  -8.562  1.00  0.00    -0.744 OA
ENDBRANCH  82  83
ENDBRANCH  54  77
BRANCH  66  87
ATOM     87  C   UNL     1       0.009  17.677   1.003  1.00  0.00    -0.014 A 
ATOM     88  C   UNL     1      -1.394  17.712   0.909  1.00  0.00     0.010 A 
ATOM     89  C   UNL     1       0.721  18.885   1.121  1.00  0.00     0.010 A 
ATOM     90  C   UNL     1      -2.070  18.936   0.910  1.00  0.00     0.020 A 
ATOM     91  C   UNL     1       0.046  20.108   1.143  1.00  0.00     0.020 A 
ATOM     92  C   UNL     1      -1.345  20.126   1.025  1.00  0.00     0.054 A 
BRANCH  92  93
ATOM     93  S   UNL     1      -2.246  21.700   1.075  1.00  0.00     0.124 S 
ATOM     94  O   UNL     1      -2.586  21.899  -0.332  1.00  0.00    -0.237 OA
ATOM     95  O   UNL     1      -3.372  21.401   1.957  1.00  0.00    -0.237 OA
ATOM     96  O   UNL     1      -1.269  22.640   1.619  1.00  0.00    -0.744 OA
ENDBRANCH  92  93
ENDBRANCH  66  87
ENDBRANCH  40  41
ENDBRANCH  32  35
ENDBRANCH  30  31
ENDBRANCH   1  30
TORSDOF 17
