REMARK SMILES O=C(NCCCCNC(=O)c1cc(-c2ccn(C(F)F)c(=O)c2)ccc1O)c1ccc(-c2c3nc(c(-c4ccc(S(=O)(=O)[O-])cc4)c4ccc([nH]4)c(-c4ccc(S(=O)(=O)[O-])cc4)c4nc(c(-c5ccc(S(=O)(=O)[O-])cc5)c5ccc2[nH]5)C=C4)C=C3)cc1
REMARK SMILES IDX 5 1 4 2 3 3 1 4 2 5 28 7 29 8 87 9 30 10 86 11 31 12 32 13
REMARK SMILES IDX 33 14 80 15 34 16 85 17 79 18 81 19 35 20 84 21 78 22 77 23
REMARK SMILES IDX 36 25 66 26 47 27 65 28 48 29 51 30 64 31 82 32 49 33 50 34
REMARK SMILES IDX 63 36 83 37 52 38 37 39 38 40 46 41 39 42 45 43 40 44 41 45
REMARK SMILES IDX 42 46 43 47 44 48 67 49 68 50 76 51 69 52 75 53 70 54 71 55
REMARK SMILES IDX 72 56 73 57 74 58 53 59 54 60 62 61 55 62 61 63 56 64 57 65
REMARK SMILES IDX 58 66 59 67 60 68 6 69 7 70 8 71 9 72 10 74 11 75 12 76
REMARK SMILES IDX 26 77 13 78 25 79 24 80 27 81 14 83 15 84 23 85 16 86 21 87
REMARK SMILES IDX 17 88 22 89 18 90 19 91 20 92
REMARK H PARENT 3 6 81 24 51 35 8 73 27 82
REMARK Flexibility Score: inf
ROOT
ATOM      1  C   UNL     1       4.996   2.521   0.346  1.00  0.00     0.023 C 
ENDROOT
BRANCH   1   2
ATOM      2  C   UNL     1       4.579   1.091   0.679  1.00  0.00     0.116 C 
BRANCH   2   3
ATOM      3  N   UNL     1       3.134   0.931   0.743  1.00  0.00    -0.352 N 
ATOM      4  O   UNL     1       1.101   0.167   0.172  1.00  0.00    -0.269 OA
ATOM      5  C   UNL     1       2.321   0.031   0.102  1.00  0.00     0.251 C 
ATOM      6  H   UNL     1       2.670   1.565   1.336  1.00  0.00     0.163 HD
BRANCH   5   7
ATOM      7  C   UNL     1       2.893  -1.092  -0.675  1.00  0.00     0.039 A 
ATOM      8  C   UNL     1       2.315  -1.422  -1.906  1.00  0.00     0.014 A 
ATOM      9  C   UNL     1       3.954  -1.854  -0.177  1.00  0.00     0.014 A 
ATOM     10  C   UNL     1       2.822  -2.490  -2.651  1.00  0.00     0.010 A 
ATOM     11  C   UNL     1       4.496  -2.880  -0.949  1.00  0.00     0.010 A 
ATOM     12  C   UNL     1       3.926  -3.219  -2.185  1.00  0.00    -0.014 A 
BRANCH  12  13
ATOM     13  C   UNL     1       4.479  -4.365  -2.950  1.00  0.00     0.031 A 
ATOM     14  C   UNL     1       4.378  -5.757  -2.391  1.00  0.00     0.074 A 
ATOM     15  C   UNL     1       5.122  -4.154  -4.115  1.00  0.00     0.049 A 
ATOM     16  N   UNL     1       4.873  -6.872  -2.863  1.00  0.00    -0.248 NA
ATOM     17  C   UNL     1       3.640  -5.915  -1.126  1.00  0.00     0.031 C 
ATOM     18  C   UNL     1       5.289  -2.852  -4.760  1.00  0.00     0.029 A 
ATOM     19  N   UNL     1       5.760  -5.030  -4.958  1.00  0.00    -0.354 N 
ATOM     20  C   UNL     1       4.530  -7.856  -1.944  1.00  0.00     0.074 A 
ATOM     21  C   UNL     1       3.817  -7.203  -0.869  1.00  0.00     0.031 C 
ATOM     22  C   UNL     1       5.963  -3.017  -5.908  1.00  0.00     0.029 A 
ATOM     23  C   UNL     1       6.320  -4.427  -6.059  1.00  0.00     0.049 A 
ATOM     24  H   UNL     1       5.811  -5.999  -4.790  1.00  0.00     0.167 HD
ATOM     25  C   UNL     1       4.773  -9.186  -2.002  1.00  0.00     0.031 A 
ATOM     26  C   UNL     1       7.048  -4.940  -7.072  1.00  0.00     0.031 A 
ATOM     27  C   UNL     1       5.455  -9.832  -3.090  1.00  0.00     0.049 A 
ATOM     28  C   UNL     1       7.343  -6.413  -7.100  1.00  0.00     0.074 A 
ATOM     29  C   UNL     1       5.669 -11.186  -3.279  1.00  0.00     0.029 A 
ATOM     30  N   UNL     1       6.038  -9.179  -4.165  1.00  0.00    -0.354 N 
ATOM     31  N   UNL     1       6.961  -7.339  -6.254  1.00  0.00    -0.248 NA
ATOM     32  C   UNL     1       8.166  -6.913  -8.210  1.00  0.00     0.031 C 
ATOM     33  C   UNL     1       6.442 -11.346  -4.430  1.00  0.00     0.029 A 
ATOM     34  C   UNL     1       6.655 -10.098  -4.997  1.00  0.00     0.049 A 
ATOM     35  H   UNL     1       6.017  -8.206  -4.315  1.00  0.00     0.167 HD
ATOM     36  C   UNL     1       7.492  -8.532  -6.729  1.00  0.00     0.074 A 
ATOM     37  C   UNL     1       8.211  -8.215  -7.946  1.00  0.00     0.031 C 
ATOM     38  C   UNL     1       7.387  -9.775  -6.198  1.00  0.00     0.031 A 
BRANCH  25  39
ATOM     39  C   UNL     1       4.302 -10.043  -0.856  1.00  0.00    -0.014 A 
ATOM     40  C   UNL     1       5.248 -10.669  -0.023  1.00  0.00     0.010 A 
ATOM     41  C   UNL     1       2.935 -10.298  -0.651  1.00  0.00     0.010 A 
ATOM     42  C   UNL     1       4.837 -11.542   0.987  1.00  0.00     0.020 A 
ATOM     43  C   UNL     1       2.518 -11.149   0.377  1.00  0.00     0.020 A 
ATOM     44  C   UNL     1       3.474 -11.780   1.178  1.00  0.00     0.054 A 
BRANCH  44  45
ATOM     45  S   UNL     1       2.954 -12.903   2.505  1.00  0.00     0.124 S 
ATOM     46  O   UNL     1       3.191 -14.214   1.909  1.00  0.00    -0.237 OA
ATOM     47  O   UNL     1       3.845 -12.537   3.604  1.00  0.00    -0.237 OA
ATOM     48  O   UNL     1       1.550 -12.554   2.714  1.00  0.00    -0.744 OA
ENDBRANCH  44  45
ENDBRANCH  25  39
BRANCH  26  49
ATOM     49  C   UNL     1       7.507  -4.022  -8.150  1.00  0.00    -0.014 A 
ATOM     50  C   UNL     1       8.502  -3.060  -7.892  1.00  0.00     0.010 A 
ATOM     51  C   UNL     1       6.840  -4.005  -9.386  1.00  0.00     0.010 A 
ATOM     52  C   UNL     1       8.761  -2.045  -8.817  1.00  0.00     0.020 A 
ATOM     53  C   UNL     1       7.113  -3.004 -10.325  1.00  0.00     0.020 A 
ATOM     54  C   UNL     1       8.043  -2.008 -10.015  1.00  0.00     0.054 A 
BRANCH  54  55
ATOM     55  S   UNL     1       8.297  -0.607 -11.140  1.00  0.00     0.124 S 
ATOM     56  O   UNL     1       7.595   0.467 -10.442  1.00  0.00    -0.237 OA
ATOM     57  O   UNL     1       9.752  -0.487 -11.178  1.00  0.00    -0.237 OA
ATOM     58  O   UNL     1       7.678  -1.051 -12.386  1.00  0.00    -0.744 OA
ENDBRANCH  54  55
ENDBRANCH  26  49
BRANCH  38  59
ATOM     59  C   UNL     1       8.085 -10.915  -6.891  1.00  0.00    -0.014 A 
ATOM     60  C   UNL     1       7.327 -11.924  -7.516  1.00  0.00     0.010 A 
ATOM     61  C   UNL     1       9.475 -11.081  -6.764  1.00  0.00     0.010 A 
ATOM     62  C   UNL     1       7.937 -13.103  -7.948  1.00  0.00     0.020 A 
ATOM     63  C   UNL     1      10.093 -12.249  -7.220  1.00  0.00     0.020 A 
ATOM     64  C   UNL     1       9.315 -13.266  -7.779  1.00  0.00     0.054 A 
BRANCH  64  65
ATOM     65  S   UNL     1      10.076 -14.837  -8.273  1.00  0.00     0.124 S 
ATOM     66  O   UNL     1       9.655 -15.733  -7.200  1.00  0.00    -0.237 OA
ATOM     67  O   UNL     1       9.473 -15.090  -9.579  1.00  0.00    -0.237 OA
ATOM     68  O   UNL     1      11.505 -14.531  -8.305  1.00  0.00    -0.744 OA
ENDBRANCH  64  65
ENDBRANCH  38  59
ENDBRANCH  12  13
ENDBRANCH   5   7
ENDBRANCH   2   3
ENDBRANCH   1   2
BRANCH   1  69
ATOM     69  C   UNL     1       4.522   3.596   1.326  1.00  0.00     0.023 C 
BRANCH  69  70
ATOM     70  C   UNL     1       4.878   3.358   2.791  1.00  0.00     0.116 C 
BRANCH  70  71
ATOM     71  N   UNL     1       6.311   3.293   3.016  1.00  0.00    -0.352 N 
ATOM     72  C   UNL     1       7.063   3.940   3.963  1.00  0.00     0.255 C 
ATOM     73  H   UNL     1       6.811   2.704   2.406  1.00  0.00     0.163 HD
ATOM     74  O   UNL     1       8.286   3.811   3.978  1.00  0.00    -0.269 OA
BRANCH  72  75
ATOM     75  C   UNL     1       6.431   4.864   4.927  1.00  0.00     0.082 A 
ATOM     76  C   UNL     1       6.926   6.177   4.968  1.00  0.00     0.026 A 
ATOM     77  C   UNL     1       5.425   4.468   5.815  1.00  0.00     0.128 A 
ATOM     78  C   UNL     1       6.380   7.107   5.859  1.00  0.00    -0.017 A 
ATOM     79  C   UNL     1       4.865   5.394   6.693  1.00  0.00     0.047 A 
ATOM     80  C   UNL     1       5.338   6.709   6.709  1.00  0.00     0.012 A 
BRANCH  77  81
ATOM     81  O   UNL     1       4.986   3.175   5.835  1.00  0.00    -0.507 OA
ATOM     82  H   UNL     1       5.356   2.545   5.248  1.00  0.00     0.293 HD
ENDBRANCH  77  81
BRANCH  78  83
ATOM     83  C   UNL     1       6.899   8.485   5.947  1.00  0.00    -0.011 A 
ATOM     84  C   UNL     1       7.536   8.991   7.149  1.00  0.00     0.027 A 
ATOM     85  C   UNL     1       6.739   9.309   4.897  1.00  0.00     0.080 A 
ATOM     86  C   UNL     1       7.925  10.268   7.229  1.00  0.00     0.095 A 
ATOM     87  C   UNL     1       7.174  10.733   4.970  1.00  0.00     0.255 A 
ATOM     88  N   UNL     1       7.742  11.134   6.168  1.00  0.00    -0.258 N 
ATOM     89  O   UNL     1       6.988  11.455   3.993  1.00  0.00    -0.269 OA
BRANCH  88  90
ATOM     90  C   UNL     1       8.125  12.518   6.282  1.00  0.00     0.451 C 
ATOM     91  F   UNL     1       9.024  12.865   5.331  1.00  0.00    -0.185 F 
ATOM     92  F   UNL     1       7.047  13.331   6.160  1.00  0.00    -0.185 F 
ENDBRANCH  88  90
ENDBRANCH  78  83
ENDBRANCH  72  75
ENDBRANCH  70  71
ENDBRANCH  69  70
ENDBRANCH   1  69
TORSDOF 17
