REMARK SMILES COC[C@H](C)CNC(=O)N[C@@H]1CCCCC[C@@H]1C(=O)NCCCCNC(=O)c1ccc(-c2c3nc(c(-c4ccc(S(=O)(=O)[O-])cc4)c4ccc([nH]4)c(-c4ccc(S(=O)(=O)[O-])cc4)c4nc(c(-c5ccc(S(=O)(=O)[O-])cc5)c5ccc2[nH]5)C=C4)C=C3)cc1
REMARK SMILES IDX 21 1 20 2 18 3 19 4 17 6 11 7 10 8 7 9 8 10 9 12 6 14 4 15
REMARK SMILES IDX 5 16 3 17 2 18 1 19 12 20 13 21 14 22 16 24 15 25 22 27
REMARK SMILES IDX 23 28 24 29 25 30 26 31 27 33 28 34 29 35 87 36 30 37 86 38
REMARK SMILES IDX 31 39 32 40 33 41 80 42 34 43 85 44 79 45 81 46 35 47 84 48
REMARK SMILES IDX 78 49 77 50 36 52 66 53 47 54 65 55 48 56 51 57 64 58 82 59
REMARK SMILES IDX 49 60 50 61 63 63 83 64 52 65 37 66 38 67 46 68 39 69 45 70
REMARK SMILES IDX 40 71 41 72 42 73 43 74 44 75 67 76 68 77 76 78 69 79 75 80
REMARK SMILES IDX 70 81 71 82 72 83 73 84 74 85 53 86 54 87 62 88 55 89 61 90
REMARK SMILES IDX 56 91 57 92 58 93 59 94 60 95
REMARK H PARENT 20 5 7 11 10 13 25 32 81 51 51 62
REMARK Flexibility Score: 100.00
ROOT
ATOM      1  C   UNL     1       1.732   2.255  -9.933  1.00  0.00     0.116 C 
ENDROOT
BRANCH   1   2
ATOM      2  N   UNL     1       1.620   0.990  -9.236  1.00  0.00    -0.356 N 
ATOM      3  C   UNL     1       1.028   0.661  -8.052  1.00  0.00     0.225 C 
ATOM      4  O   UNL     1       1.199  -0.506  -7.699  1.00  0.00    -0.275 OA
ATOM      5  H   UNL     1       2.047   0.234  -9.699  1.00  0.00     0.163 HD
BRANCH   3   6
ATOM      6  C   UNL     1       0.333   1.717  -7.165  1.00  0.00     0.101 C 
BRANCH   6   7
ATOM      7  C   UNL     1      -0.274   1.168  -5.831  1.00  0.00     0.096 C 
BRANCH   7   8
ATOM      8  N   UNL     1      -0.896  -0.148  -5.935  1.00  0.00    -0.335 N 
ATOM      9  N   UNL     1       0.474  -1.669  -4.729  1.00  0.00    -0.338 N 
ATOM     10  C   UNL     1      -0.558  -1.380  -5.529  1.00  0.00     0.315 C 
ATOM     11  H   UNL     1       0.621  -2.639  -4.655  1.00  0.00     0.165 HD
ATOM     12  O   UNL     1      -1.269  -2.318  -5.902  1.00  0.00    -0.249 OA
ATOM     13  H   UNL     1      -1.758  -0.126  -6.409  1.00  0.00     0.165 HD
BRANCH   9  14
ATOM     14  C   UNL     1       1.431  -0.914  -3.941  1.00  0.00     0.123 C 
BRANCH  14  15
ATOM     15  C   UNL     1       0.892  -0.627  -2.524  1.00  0.00     0.031 C 
ATOM     16  C   UNL     1       1.207  -1.826  -1.620  1.00  0.00     0.012 C 
BRANCH  15  17
ATOM     17  C   UNL     1       1.449   0.703  -1.981  1.00  0.00     0.164 C 
BRANCH  17  18
ATOM     18  O   UNL     1       1.535   0.757  -0.557  1.00  0.00    -0.384 OA
ATOM     19  C   UNL     1       0.292   0.977   0.094  1.00  0.00     0.194 C 
ENDBRANCH  17  18
ENDBRANCH  15  17
ENDBRANCH  14  15
ENDBRANCH   9  14
ENDBRANCH   7   8
BRANCH   7  20
ATOM     20  C   UNL     1      -1.291   2.093  -5.130  1.00  0.00     0.026 C 
BRANCH  20  21
ATOM     21  C   UNL     1      -0.798   3.524  -4.935  1.00  0.00     0.002 C 
BRANCH  21  22
ATOM     22  C   UNL     1      -1.116   4.449  -6.108  1.00  0.00     0.000 CG0
ATOM     23  G   UNL     1      -0.466   4.098  -7.444  1.00  0.00     0.000 G0
ENDBRANCH  21  22
ENDBRANCH  20  21
ENDBRANCH   7  20
ENDBRANCH   6   7
BRANCH   6  24
ATOM     24  C   UNL     1      -0.659   2.642  -7.894  1.00  0.00     0.015 C 
BRANCH  24  25
ATOM     25  C   UNL     1      -0.466   4.098  -7.444  1.00  0.00     0.001 CG0
ATOM     26  G   UNL     1      -1.116   4.449  -6.108  1.00  0.00     0.000 G0
ENDBRANCH  24  25
ENDBRANCH   6  24
ENDBRANCH   3   6
ENDBRANCH   1   2
BRANCH   1  27
ATOM     27  C   UNL     1       2.966   2.345 -10.826  1.00  0.00     0.023 C 
BRANCH  27  28
ATOM     28  C   UNL     1       3.065   1.295 -11.937  1.00  0.00     0.023 C 
BRANCH  28  29
ATOM     29  C   UNL     1       1.821   1.111 -12.800  1.00  0.00     0.116 C 
BRANCH  29  30
ATOM     30  N   UNL     1       1.413   2.331 -13.484  1.00  0.00    -0.352 N 
ATOM     31  C   UNL     1       1.292   2.590 -14.828  1.00  0.00     0.251 C 
ATOM     32  H   UNL     1       1.191   3.086 -12.892  1.00  0.00     0.163 HD
ATOM     33  O   UNL     1       1.056   3.736 -15.205  1.00  0.00    -0.269 OA
BRANCH  31  34
ATOM     34  C   UNL     1       1.475   1.507 -15.819  1.00  0.00     0.039 A 
ATOM     35  C   UNL     1       2.272   1.746 -16.942  1.00  0.00     0.014 A 
ATOM     36  C   UNL     1       0.871   0.260 -15.643  1.00  0.00     0.014 A 
ATOM     37  C   UNL     1       2.527   0.710 -17.844  1.00  0.00     0.010 A 
ATOM     38  C   UNL     1       1.192  -0.791 -16.498  1.00  0.00     0.010 A 
ATOM     39  C   UNL     1       2.023  -0.579 -17.609  1.00  0.00    -0.014 A 
BRANCH  39  40
ATOM     40  C   UNL     1       2.343  -1.716 -18.513  1.00  0.00     0.031 A 
ATOM     41  C   UNL     1       1.242  -2.416 -19.263  1.00  0.00     0.074 A 
ATOM     42  C   UNL     1       3.612  -2.162 -18.608  1.00  0.00     0.049 A 
ATOM     43  N   UNL     1       1.309  -3.474 -20.031  1.00  0.00    -0.248 NA
ATOM     44  C   UNL     1      -0.118  -1.873 -19.108  1.00  0.00     0.031 C 
ATOM     45  C   UNL     1       4.765  -1.604 -17.896  1.00  0.00     0.029 A 
ATOM     46  N   UNL     1       4.144  -3.199 -19.334  1.00  0.00    -0.354 N 
ATOM     47  C   UNL     1       0.004  -3.732 -20.434  1.00  0.00     0.074 A 
ATOM     48  C   UNL     1      -0.841  -2.755 -19.782  1.00  0.00     0.031 C 
ATOM     49  C   UNL     1       5.868  -2.290 -18.237  1.00  0.00     0.029 A 
ATOM     50  C   UNL     1       5.499  -3.359 -19.160  1.00  0.00     0.049 A 
ATOM     51  H   UNL     1       3.606  -3.774 -19.925  1.00  0.00     0.167 HD
ATOM     52  C   UNL     1      -0.452  -4.680 -21.288  1.00  0.00     0.031 A 
ATOM     53  C   UNL     1       6.350  -4.266 -19.679  1.00  0.00     0.031 A 
ATOM     54  C   UNL     1       0.390  -5.642 -21.948  1.00  0.00     0.049 A 
ATOM     55  C   UNL     1       5.825  -5.301 -20.636  1.00  0.00     0.074 A 
ATOM     56  C   UNL     1       0.029  -6.620 -22.860  1.00  0.00     0.029 A 
ATOM     57  N   UNL     1       1.762  -5.744 -21.774  1.00  0.00    -0.354 N 
ATOM     58  N   UNL     1       4.593  -5.498 -21.041  1.00  0.00    -0.248 NA
ATOM     59  C   UNL     1       6.807  -6.225 -21.220  1.00  0.00     0.031 C 
ATOM     60  C   UNL     1       1.179  -7.335 -23.210  1.00  0.00     0.029 A 
ATOM     61  C   UNL     1       2.263  -6.769 -22.557  1.00  0.00     0.049 A 
ATOM     62  H   UNL     1       2.300  -5.171 -21.181  1.00  0.00     0.167 HD
ATOM     63  C   UNL     1       4.657  -6.548 -21.951  1.00  0.00     0.074 A 
ATOM     64  C   UNL     1       6.050  -6.935 -22.046  1.00  0.00     0.031 C 
ATOM     65  C   UNL     1       3.653  -7.137 -22.646  1.00  0.00     0.031 A 
BRANCH  52  66
ATOM     66  C   UNL     1      -1.933  -4.710 -21.563  1.00  0.00    -0.014 A 
ATOM     67  C   UNL     1      -2.550  -3.687 -22.305  1.00  0.00     0.010 A 
ATOM     68  C   UNL     1      -2.713  -5.785 -21.101  1.00  0.00     0.010 A 
ATOM     69  C   UNL     1      -3.926  -3.713 -22.541  1.00  0.00     0.020 A 
ATOM     70  C   UNL     1      -4.087  -5.830 -21.360  1.00  0.00     0.020 A 
ATOM     71  C   UNL     1      -4.687  -4.783 -22.062  1.00  0.00     0.054 A 
BRANCH  71  72
ATOM     72  S   UNL     1      -6.469  -4.800 -22.399  1.00  0.00     0.124 S 
ATOM     73  O   UNL     1      -6.958  -3.777 -21.478  1.00  0.00    -0.237 OA
ATOM     74  O   UNL     1      -6.532  -4.449 -23.816  1.00  0.00    -0.237 OA
ATOM     75  O   UNL     1      -6.870  -6.168 -22.080  1.00  0.00    -0.744 OA
ENDBRANCH  71  72
ENDBRANCH  52  66
BRANCH  53  76
ATOM     76  C   UNL     1       7.794  -4.224 -19.317  1.00  0.00    -0.014 A 
ATOM     77  C   UNL     1       8.755  -3.812 -20.257  1.00  0.00     0.010 A 
ATOM     78  C   UNL     1       8.214  -4.588 -18.025  1.00  0.00     0.010 A 
ATOM     79  C   UNL     1      10.112  -3.786 -19.919  1.00  0.00     0.020 A 
ATOM     80  C   UNL     1       9.566  -4.537 -17.674  1.00  0.00     0.020 A 
ATOM     81  C   UNL     1      10.508  -4.148 -18.628  1.00  0.00     0.054 A 
BRANCH  81  82
ATOM     82  S   UNL     1      12.269  -4.061 -18.195  1.00  0.00     0.124 S 
ATOM     83  O   UNL     1      12.807  -5.235 -18.875  1.00  0.00    -0.237 OA
ATOM     84  O   UNL     1      12.667  -2.769 -18.750  1.00  0.00    -0.237 OA
ATOM     85  O   UNL     1      12.264  -4.127 -16.736  1.00  0.00    -0.744 OA
ENDBRANCH  81  82
ENDBRANCH  53  76
BRANCH  65  86
ATOM     86  C   UNL     1       4.026  -8.232 -23.610  1.00  0.00    -0.014 A 
ATOM     87  C   UNL     1       4.421  -9.502 -23.157  1.00  0.00     0.010 A 
ATOM     88  C   UNL     1       3.928  -7.995 -24.994  1.00  0.00     0.010 A 
ATOM     89  C   UNL     1       4.744 -10.508 -24.073  1.00  0.00     0.020 A 
ATOM     90  C   UNL     1       4.224  -9.006 -25.911  1.00  0.00     0.020 A 
ATOM     91  C   UNL     1       4.645 -10.252 -25.444  1.00  0.00     0.054 A 
BRANCH  91  92
ATOM     92  S   UNL     1       5.032 -11.585 -26.613  1.00  0.00     0.124 S 
ATOM     93  O   UNL     1       6.490 -11.630 -26.550  1.00  0.00    -0.237 OA
ATOM     94  O   UNL     1       4.342 -12.733 -26.031  1.00  0.00    -0.237 OA
ATOM     95  O   UNL     1       4.476 -11.108 -27.878  1.00  0.00    -0.744 OA
ENDBRANCH  91  92
ENDBRANCH  65  86
ENDBRANCH  39  40
ENDBRANCH  31  34
ENDBRANCH  29  30
ENDBRANCH  28  29
ENDBRANCH  27  28
ENDBRANCH   1  27
TORSDOF 19
