REMARK SMILES CC(C)CCOc1ccccc1-c1cc(C(=O)NCCCCNC(=O)c2ccc(-c3c4nc(c(-c5ccc(S(=O)(=O)[O-])cc5)c5ccc([nH]5)c(-c5ccc(S(=O)(=O)[O-])cc5)c5nc(c(-c6ccc(S(=O)(=O)[O-])cc6)c6ccc3[nH]6)C=C5)C=C4)cc2)no1
REMARK SMILES IDX 19 1 18 2 16 3 17 4 15 6 13 7 14 8 87 9 86 10 12 11 7 12
REMARK SMILES IDX 8 13 9 14 11 15 10 16 6 17 5 18 4 19 2 20 1 21 3 22 20 23
REMARK SMILES IDX 21 24 22 25 23 26 24 27 25 29 26 30 27 31 85 32 28 33 84 34
REMARK SMILES IDX 29 35 30 36 31 37 78 38 32 39 83 40 77 41 79 42 33 43 82 44
REMARK SMILES IDX 76 45 75 46 34 48 64 49 45 50 63 51 46 52 49 53 62 54 80 55
REMARK SMILES IDX 47 56 48 57 61 59 81 60 50 61 35 62 36 63 44 64 37 65 43 66
REMARK SMILES IDX 38 67 39 68 40 69 41 70 42 71 65 72 66 73 74 74 67 75 73 76
REMARK SMILES IDX 68 77 69 78 70 79 71 80 72 81 51 82 52 83 60 84 53 85 59 86
REMARK SMILES IDX 54 87 55 88 56 89 57 90 58 91
REMARK H PARENT 18 5 23 28 79 47 49 58
REMARK Flexibility Score: inf
ROOT
ATOM      1  C   UNL     1      -2.826   4.312   1.193  1.00  0.00     0.116 C 
ENDROOT
BRANCH   1   2
ATOM      2  N   UNL     1      -2.529   4.510  -0.217  1.00  0.00    -0.351 N 
ATOM      3  C   UNL     1      -1.654   3.882  -1.087  1.00  0.00     0.273 C 
ATOM      4  O   UNL     1      -1.809   4.100  -2.288  1.00  0.00    -0.267 OA
ATOM      5  H   UNL     1      -3.051   5.233  -0.635  1.00  0.00     0.163 HD
BRANCH   3   6
ATOM      6  C   UNL     1      -0.555   3.037  -0.586  1.00  0.00     0.171 A 
ATOM      7  C   UNL     1       1.362   2.082   1.348  1.00  0.00     0.171 A 
ATOM      8  C   UNL     1       0.037   2.985   1.160  1.00  0.00     0.088 A 
ATOM      9  O   UNL     1       1.893   1.490  -0.362  1.00  0.00    -0.355 OA
ATOM     10  N   UNL     1       0.479   2.186  -1.619  1.00  0.00    -0.074 NA
BRANCH   7  11
ATOM     11  C   UNL     1       1.741   1.279   2.498  1.00  0.00     0.062 A 
ATOM     12  C   UNL     1       0.703   0.615   3.202  1.00  0.00     0.130 A 
ATOM     13  C   UNL     1       1.005  -0.216   4.271  1.00  0.00     0.047 A 
ATOM     14  C   UNL     1       2.337  -0.381   4.649  1.00  0.00     0.004 A 
ATOM     15  C   UNL     1       3.067   1.117   2.881  1.00  0.00     0.016 A 
ATOM     16  C   UNL     1       3.360   0.294   3.969  1.00  0.00     0.001 A 
BRANCH  12  17
ATOM     17  O   UNL     1      -0.632   0.867   2.949  1.00  0.00    -0.493 OA
BRANCH  17  18
ATOM     18  C   UNL     1      -1.210   0.086   1.887  1.00  0.00     0.230 C 
BRANCH  18  19
ATOM     19  C   UNL     1      -1.303   0.872   0.555  1.00  0.00     0.044 C 
BRANCH  19  20
ATOM     20  C   UNL     1       0.218   1.219  -0.059  1.00  0.00    -0.014 C 
ATOM     21  C   UNL     1       0.374  -0.124  -1.203  1.00  0.00     0.007 C 
ATOM     22  C   UNL     1       1.423   3.120  -0.343  1.00  0.00     0.007 C 
ENDBRANCH  19  20
ENDBRANCH  18  19
ENDBRANCH  17  18
ENDBRANCH  12  17
ENDBRANCH   7  11
ENDBRANCH   3   6
ENDBRANCH   1   2
BRANCH   1  23
ATOM     23  C   UNL     1      -2.311   5.434   2.094  1.00  0.00     0.023 C 
BRANCH  23  24
ATOM     24  C   UNL     1      -3.214   6.663   2.139  1.00  0.00     0.023 C 
BRANCH  24  25
ATOM     25  C   UNL     1      -4.652   6.388   2.565  1.00  0.00     0.116 C 
BRANCH  25  26
ATOM     26  N   UNL     1      -4.762   5.795   3.891  1.00  0.00    -0.352 N 
ATOM     27  C   UNL     1      -5.686   6.081   4.871  1.00  0.00     0.251 C 
ATOM     28  H   UNL     1      -4.094   5.107   4.114  1.00  0.00     0.163 HD
ATOM     29  O   UNL     1      -5.575   5.596   5.991  1.00  0.00    -0.269 OA
BRANCH  27  30
ATOM     30  C   UNL     1      -6.787   7.015   4.559  1.00  0.00     0.039 A 
ATOM     31  C   UNL     1      -7.023   8.091   5.415  1.00  0.00     0.014 A 
ATOM     32  C   UNL     1      -7.527   6.869   3.382  1.00  0.00     0.014 A 
ATOM     33  C   UNL     1      -7.950   9.068   5.047  1.00  0.00     0.010 A 
ATOM     34  C   UNL     1      -8.381   7.888   2.975  1.00  0.00     0.010 A 
ATOM     35  C   UNL     1      -8.598   9.001   3.801  1.00  0.00    -0.014 A 
BRANCH  35  36
ATOM     36  C   UNL     1      -9.477  10.105   3.335  1.00  0.00     0.031 A 
ATOM     37  C   UNL     1     -10.933   9.853   3.054  1.00  0.00     0.074 A 
ATOM     38  C   UNL     1      -8.947  11.326   3.116  1.00  0.00     0.049 A 
ATOM     39  N   UNL     1     -11.843  10.687   2.620  1.00  0.00    -0.248 NA
ATOM     40  C   UNL     1     -11.429   8.483   3.268  1.00  0.00     0.031 C 
ATOM     41  C   UNL     1      -7.540  11.687   3.312  1.00  0.00     0.029 A 
ATOM     42  N   UNL     1      -9.528  12.492   2.681  1.00  0.00    -0.354 N 
ATOM     43  C   UNL     1     -13.012   9.945   2.504  1.00  0.00     0.074 A 
ATOM     44  C   UNL     1     -12.684   8.581   2.855  1.00  0.00     0.031 C 
ATOM     45  C   UNL     1      -7.378  12.991   3.040  1.00  0.00     0.029 A 
ATOM     46  C   UNL     1      -8.650  13.547   2.594  1.00  0.00     0.049 A 
ATOM     47  H   UNL     1     -10.482  12.565   2.452  1.00  0.00     0.167 HD
ATOM     48  C   UNL     1     -14.252  10.365   2.156  1.00  0.00     0.031 A 
ATOM     49  C   UNL     1      -8.841  14.819   2.189  1.00  0.00     0.031 A 
ATOM     50  C   UNL     1     -14.570  11.723   1.797  1.00  0.00     0.049 A 
ATOM     51  C   UNL     1     -10.218  15.248   1.760  1.00  0.00     0.074 A 
ATOM     52  C   UNL     1     -15.804  12.258   1.473  1.00  0.00     0.029 A 
ATOM     53  N   UNL     1     -13.649  12.756   1.701  1.00  0.00    -0.354 N 
ATOM     54  N   UNL     1     -11.328  14.550   1.734  1.00  0.00    -0.248 NA
ATOM     55  C   UNL     1     -10.369  16.639   1.314  1.00  0.00     0.031 C 
ATOM     56  C   UNL     1     -15.618  13.593   1.104  1.00  0.00     0.029 A 
ATOM     57  C   UNL     1     -14.282  13.915   1.281  1.00  0.00     0.049 A 
ATOM     58  H   UNL     1     -12.689  12.678   1.901  1.00  0.00     0.167 HD
ATOM     59  C   UNL     1     -12.315  15.425   1.294  1.00  0.00     0.074 A 
ATOM     60  C   UNL     1     -11.674  16.708   1.091  1.00  0.00     0.031 C 
ATOM     61  C   UNL     1     -13.632  15.187   1.075  1.00  0.00     0.031 A 
BRANCH  48  62
ATOM     62  C   UNL     1     -15.358   9.340   2.129  1.00  0.00    -0.014 A 
ATOM     63  C   UNL     1     -15.820   8.731   3.311  1.00  0.00     0.010 A 
ATOM     64  C   UNL     1     -15.981   9.017   0.909  1.00  0.00     0.010 A 
ATOM     65  C   UNL     1     -16.855   7.793   3.268  1.00  0.00     0.020 A 
ATOM     66  C   UNL     1     -17.040   8.106   0.866  1.00  0.00     0.020 A 
ATOM     67  C   UNL     1     -17.459   7.488   2.045  1.00  0.00     0.054 A 
BRANCH  67  68
ATOM     68  S   UNL     1     -18.820   6.289   2.027  1.00  0.00     0.124 S 
ATOM     69  O   UNL     1     -18.129   5.044   2.354  1.00  0.00    -0.237 OA
ATOM     70  O   UNL     1     -19.710   6.804   3.064  1.00  0.00    -0.237 OA
ATOM     71  O   UNL     1     -19.340   6.372   0.664  1.00  0.00    -0.744 OA
ENDBRANCH  67  68
ENDBRANCH  48  62
BRANCH  49  72
ATOM     72  C   UNL     1      -7.699  15.776   2.167  1.00  0.00    -0.014 A 
ATOM     73  C   UNL     1      -7.672  16.886   3.030  1.00  0.00     0.010 A 
ATOM     74  C   UNL     1      -6.625  15.580   1.278  1.00  0.00     0.010 A 
ATOM     75  C   UNL     1      -6.607  17.790   2.991  1.00  0.00     0.020 A 
ATOM     76  C   UNL     1      -5.540  16.460   1.262  1.00  0.00     0.020 A 
ATOM     77  C   UNL     1      -5.544  17.567   2.111  1.00  0.00     0.054 A 
BRANCH  77  78
ATOM     78  S   UNL     1      -4.149  18.727   2.115  1.00  0.00     0.124 S 
ATOM     79  O   UNL     1      -4.751  19.930   1.551  1.00  0.00    -0.237 OA
ATOM     80  O   UNL     1      -3.804  18.794   3.533  1.00  0.00    -0.237 OA
ATOM     81  O   UNL     1      -3.154  18.069   1.270  1.00  0.00    -0.744 OA
ENDBRANCH  77  78
ENDBRANCH  49  72
BRANCH  61  82
ATOM     82  C   UNL     1     -14.481  16.345   0.616  1.00  0.00    -0.014 A 
ATOM     83  C   UNL     1     -14.325  16.907  -0.663  1.00  0.00     0.010 A 
ATOM     84  C   UNL     1     -15.490  16.843   1.462  1.00  0.00     0.010 A 
ATOM     85  C   UNL     1     -15.137  17.968  -1.074  1.00  0.00     0.020 A 
ATOM     86  C   UNL     1     -16.330  17.877   1.041  1.00  0.00     0.020 A 
ATOM     87  C   UNL     1     -16.138  18.442  -0.221  1.00  0.00     0.054 A 
BRANCH  87  88
ATOM     88  S   UNL     1     -17.210  19.785  -0.801  1.00  0.00     0.124 S 
ATOM     89  O   UNL     1     -16.289  20.918  -0.834  1.00  0.00    -0.237 OA
ATOM     90  O   UNL     1     -17.653  19.297  -2.104  1.00  0.00    -0.237 OA
ATOM     91  O   UNL     1     -18.254  19.862   0.218  1.00  0.00    -0.744 OA
ENDBRANCH  87  88
ENDBRANCH  61  82
ENDBRANCH  35  36
ENDBRANCH  27  30
ENDBRANCH  25  26
ENDBRANCH  24  25
ENDBRANCH  23  24
ENDBRANCH   1  23
TORSDOF 19
