REMARK SMILES Cc1ccccc1NC(=O)C[NH+]1CCC(CC(=O)NCCCCNC(=O)c2ccc(-c3c4nc(c(-c5ccc(S(=O)(=O)[O-])cc5)c5ccc([nH]5)c(-c5ccc(S(=O)(=O)[O-])cc5)c5nc(c(-c6ccc(S(=O)(=O)[O-])cc6)c6ccc3[nH]6)C=C5)C=C4)cc2)CC1
REMARK SMILES IDX 21 1 20 2 19 3 17 4 18 5 16 7 15 8 12 9 13 10 88 11 14 13
REMARK SMILES IDX 87 14 11 15 9 16 8 17 10 19 7 20 1 21 2 22 3 23 4 24 6 25
REMARK SMILES IDX 5 26 22 27 23 28 24 29 25 30 26 32 27 33 28 34 86 35 29 36
REMARK SMILES IDX 85 37 30 38 31 39 32 40 79 41 33 42 84 43 78 44 80 45 34 46
REMARK SMILES IDX 83 47 77 48 76 49 35 51 65 52 46 53 64 54 47 55 50 56 63 57
REMARK SMILES IDX 81 58 48 59 49 60 62 62 82 63 51 64 36 65 37 66 45 67 38 68
REMARK SMILES IDX 44 69 39 70 40 71 41 72 42 73 43 74 66 75 67 76 75 77 68 78
REMARK SMILES IDX 74 79 69 80 70 81 71 82 72 83 73 84 52 85 53 86 61 87 54 88
REMARK SMILES IDX 60 89 55 90 56 91 57 92 58 93 59 94
REMARK H PARENT 19 6 12 12 8 18 24 31 80 50 50 61
REMARK Flexibility Score: inf
ROOT
ATOM      1  C   UNL     1      -1.581   5.178  -5.622  1.00  0.00     0.023 C 
ENDROOT
BRANCH   1   2
ATOM      2  C   UNL     1      -2.119   3.947  -6.379  1.00  0.00     0.116 C 
BRANCH   2   3
ATOM      3  N   UNL     1      -1.136   2.896  -6.644  1.00  0.00    -0.356 N 
ATOM      4  C   UNL     1      -1.012   1.629  -6.151  1.00  0.00     0.220 C 
ATOM      5  O   UNL     1      -0.118   0.904  -6.598  1.00  0.00    -0.275 OA
ATOM      6  H   UNL     1      -0.440   3.148  -7.293  1.00  0.00     0.163 HD
BRANCH   4   7
ATOM      7  C   UNL     1      -1.913   1.136  -5.034  1.00  0.00     0.104 C 
BRANCH   7   8
ATOM      8  C   UNL     1      -1.307   1.371  -3.639  1.00  0.00     0.009 C 
ATOM      9  N   UNL     1      -1.477   2.785  -1.063  1.00  0.00    -0.327 N 
ATOM     10  C   UNL     1      -0.482   3.204  -2.042  1.00  0.00     0.262 C 
ATOM     11  C   UNL     1      -1.774   1.361  -1.155  1.00  0.00     0.262 C 
ATOM     12  H   UNL     1      -2.365   3.226  -1.304  1.00  0.00     0.348 HD
ATOM     13  C   UNL     1      -0.961   2.840  -3.433  1.00  0.00     0.066 C 
ATOM     14  C   UNL     1      -2.291   0.956  -2.540  1.00  0.00     0.066 C 
BRANCH   9  15
ATOM     15  C   UNL     1      -1.209   3.318   0.289  1.00  0.00     0.363 C 
BRANCH  15  16
ATOM     16  C   UNL     1       0.259   3.281   0.752  1.00  0.00     0.279 C 
ATOM     17  N   UNL     1       0.915   2.128   1.081  1.00  0.00    -0.321 N 
ATOM     18  H   UNL     1       1.872   2.242   1.281  1.00  0.00     0.170 HD
ATOM     19  O   UNL     1       0.938   4.317   0.777  1.00  0.00    -0.268 OA
BRANCH  17  20
ATOM     20  C   UNL     1       0.450   0.813   1.180  1.00  0.00     0.044 A 
ATOM     21  C   UNL     1       2.587  -0.049   0.036  1.00  0.00     0.046 C 
ATOM     22  C   UNL     1       1.217  -0.234   0.633  1.00  0.00    -0.027 A 
ATOM     23  C   UNL     1       0.659  -1.524   0.587  1.00  0.00     0.005 A 
ATOM     24  C   UNL     1      -0.617  -1.774   1.090  1.00  0.00     0.000 A 
ATOM     25  C   UNL     1      -0.789   0.531   1.767  1.00  0.00     0.026 A 
ATOM     26  C   UNL     1      -1.331  -0.752   1.704  1.00  0.00     0.002 A 
ENDBRANCH  17  20
ENDBRANCH  15  16
ENDBRANCH   9  15
ENDBRANCH   7   8
ENDBRANCH   4   7
ENDBRANCH   2   3
ENDBRANCH   1   2
BRANCH   1  27
ATOM     27  C   UNL     1      -0.375   5.873  -6.247  1.00  0.00     0.023 C 
BRANCH  27  28
ATOM     28  C   UNL     1      -0.819   7.014  -7.136  1.00  0.00     0.116 C 
BRANCH  28  29
ATOM     29  N   UNL     1      -0.784   8.338  -6.526  1.00  0.00    -0.352 N 
ATOM     30  C   UNL     1      -1.157   9.545  -7.122  1.00  0.00     0.251 C 
ATOM     31  H   UNL     1      -0.464   8.386  -5.596  1.00  0.00     0.163 HD
ATOM     32  O   UNL     1      -0.947  10.634  -6.660  1.00  0.00    -0.269 OA
BRANCH  30  33
ATOM     33  C   UNL     1      -1.996   9.403  -8.339  1.00  0.00     0.039 A 
ATOM     34  C   UNL     1      -3.372   9.548  -8.127  1.00  0.00     0.014 A 
ATOM     35  C   UNL     1      -1.492   8.668  -9.409  1.00  0.00     0.014 A 
ATOM     36  C   UNL     1      -4.243   8.733  -8.834  1.00  0.00     0.010 A 
ATOM     37  C   UNL     1      -2.349   7.774 -10.023  1.00  0.00     0.010 A 
ATOM     38  C   UNL     1      -3.707   7.758  -9.678  1.00  0.00    -0.014 A 
BRANCH  38  39
ATOM     39  C   UNL     1      -4.514   6.640 -10.154  1.00  0.00     0.031 A 
ATOM     40  C   UNL     1      -4.968   6.665 -11.557  1.00  0.00     0.074 A 
ATOM     41  C   UNL     1      -4.945   5.662  -9.323  1.00  0.00     0.049 A 
ATOM     42  N   UNL     1      -6.145   6.310 -11.948  1.00  0.00    -0.248 NA
ATOM     43  C   UNL     1      -4.129   7.194 -12.626  1.00  0.00     0.031 C 
ATOM     44  C   UNL     1      -5.711   4.476  -9.704  1.00  0.00     0.029 A 
ATOM     45  N   UNL     1      -4.992   5.661  -7.926  1.00  0.00    -0.354 N 
ATOM     46  C   UNL     1      -6.125   6.306 -13.325  1.00  0.00     0.074 A 
ATOM     47  C   UNL     1      -4.890   6.957 -13.693  1.00  0.00     0.031 C 
ATOM     48  C   UNL     1      -6.412   4.065  -8.636  1.00  0.00     0.029 A 
ATOM     49  C   UNL     1      -6.184   5.017  -7.561  1.00  0.00     0.049 A 
ATOM     50  H   UNL     1      -4.318   6.038  -7.315  1.00  0.00     0.167 HD
ATOM     51  C   UNL     1      -7.065   5.614 -14.027  1.00  0.00     0.031 A 
ATOM     52  C   UNL     1      -7.148   5.580  -6.781  1.00  0.00     0.031 A 
ATOM     53  C   UNL     1      -8.038   4.977 -13.144  1.00  0.00     0.049 A 
ATOM     54  C   UNL     1      -8.481   5.693  -7.493  1.00  0.00     0.074 A 
ATOM     55  C   UNL     1      -8.148   3.687 -12.652  1.00  0.00     0.029 A 
ATOM     56  N   UNL     1      -8.889   5.764 -12.374  1.00  0.00    -0.354 N 
ATOM     57  N   UNL     1      -8.638   5.510  -8.777  1.00  0.00    -0.248 NA
ATOM     58  C   UNL     1      -9.731   6.059  -6.832  1.00  0.00     0.031 C 
ATOM     59  C   UNL     1      -9.007   3.717 -11.524  1.00  0.00     0.029 A 
ATOM     60  C   UNL     1      -9.450   5.016 -11.353  1.00  0.00     0.049 A 
ATOM     61  H   UNL     1      -9.068   6.719 -12.533  1.00  0.00     0.167 HD
ATOM     62  C   UNL     1      -9.948   5.728  -9.122  1.00  0.00     0.074 A 
ATOM     63  C   UNL     1     -10.595   6.055  -7.864  1.00  0.00     0.031 C 
ATOM     64  C   UNL     1     -10.386   5.626 -10.414  1.00  0.00     0.031 A 
BRANCH  51  65
ATOM     65  C   UNL     1      -6.828   5.237 -15.473  1.00  0.00    -0.014 A 
ATOM     66  C   UNL     1      -7.237   3.976 -15.947  1.00  0.00     0.010 A 
ATOM     67  C   UNL     1      -6.117   6.044 -16.383  1.00  0.00     0.010 A 
ATOM     68  C   UNL     1      -6.832   3.490 -17.199  1.00  0.00     0.020 A 
ATOM     69  C   UNL     1      -5.655   5.552 -17.613  1.00  0.00     0.020 A 
ATOM     70  C   UNL     1      -6.005   4.266 -18.008  1.00  0.00     0.054 A 
BRANCH  70  71
ATOM     71  S   UNL     1      -5.375   3.571 -19.559  1.00  0.00     0.124 S 
ATOM     72  O   UNL     1      -4.825   2.286 -19.133  1.00  0.00    -0.237 OA
ATOM     73  O   UNL     1      -6.581   3.500 -20.379  1.00  0.00    -0.237 OA
ATOM     74  O   UNL     1      -4.380   4.548 -19.997  1.00  0.00    -0.744 OA
ENDBRANCH  70  71
ENDBRANCH  51  65
BRANCH  52  75
ATOM     75  C   UNL     1      -6.644   6.483  -5.711  1.00  0.00    -0.014 A 
ATOM     76  C   UNL     1      -6.012   5.880  -4.602  1.00  0.00     0.010 A 
ATOM     77  C   UNL     1      -6.436   7.853  -5.941  1.00  0.00     0.010 A 
ATOM     78  C   UNL     1      -5.086   6.587  -3.829  1.00  0.00     0.020 A 
ATOM     79  C   UNL     1      -5.498   8.563  -5.173  1.00  0.00     0.020 A 
ATOM     80  C   UNL     1      -4.787   7.907  -4.163  1.00  0.00     0.054 A 
BRANCH  80  81
ATOM     81  S   UNL     1      -3.404   8.732  -3.315  1.00  0.00     0.124 S 
ATOM     82  O   UNL     1      -3.579   8.304  -1.930  1.00  0.00    -0.237 OA
ATOM     83  O   UNL     1      -2.245   8.165  -4.006  1.00  0.00    -0.237 OA
ATOM     84  O   UNL     1      -3.661  10.146  -3.566  1.00  0.00    -0.744 OA
ENDBRANCH  80  81
ENDBRANCH  52  75
BRANCH  64  85
ATOM     85  C   UNL     1     -11.758   5.999 -10.933  1.00  0.00    -0.014 A 
ATOM     86  C   UNL     1     -12.638   6.890 -10.300  1.00  0.00     0.010 A 
ATOM     87  C   UNL     1     -12.151   5.519 -12.209  1.00  0.00     0.010 A 
ATOM     88  C   UNL     1     -13.864   7.246 -10.886  1.00  0.00     0.020 A 
ATOM     89  C   UNL     1     -13.346   5.903 -12.822  1.00  0.00     0.020 A 
ATOM     90  C   UNL     1     -14.210   6.751 -12.144  1.00  0.00     0.054 A 
BRANCH  90  91
ATOM     91  S   UNL     1     -15.750   7.283 -12.935  1.00  0.00     0.124 S 
ATOM     92  O   UNL     1     -16.700   6.290 -12.441  1.00  0.00    -0.237 OA
ATOM     93  O   UNL     1     -15.935   8.637 -12.419  1.00  0.00    -0.237 OA
ATOM     94  O   UNL     1     -15.444   7.205 -14.361  1.00  0.00    -0.744 OA
ENDBRANCH  90  91
ENDBRANCH  64  85
ENDBRANCH  38  39
ENDBRANCH  30  33
ENDBRANCH  28  29
ENDBRANCH  27  28
ENDBRANCH   1  27
TORSDOF 18
