REMARK SMILES C[C@H](CC[NH2+]Cc1cc(C(=O)NCCCCNC(=O)c2ccc(-c3c4nc(c(-c5ccc(S(=O)(=O)[O-])cc5)c5ccc([nH]5)c(-c5ccc(S(=O)(=O)[O-])cc5)c5nc(c(-c6ccc(S(=O)(=O)[O-])cc6)c6ccc3[nH]6)C=C5)C=C4)cc2)cs1)c1ccccc1
REMARK SMILES IDX 13 1 12 2 10 3 11 4 9 6 7 7 8 8 81 9 80 10 6 11 5 12 4 15
REMARK SMILES IDX 3 16 2 17 1 18 82 19 83 20 87 21 84 22 86 23 85 24 14 25
REMARK SMILES IDX 15 26 16 27 17 28 18 29 19 31 20 32 21 33 79 34 22 35 78 36
REMARK SMILES IDX 23 37 24 38 25 39 72 40 26 41 77 42 71 43 73 44 27 45 76 46
REMARK SMILES IDX 70 47 69 48 28 50 58 51 39 52 57 53 40 54 43 55 56 56 74 57
REMARK SMILES IDX 41 58 42 59 55 61 75 62 44 63 29 64 30 65 38 66 31 67 37 68
REMARK SMILES IDX 32 69 33 70 34 71 35 72 36 73 59 74 60 75 68 76 61 77 67 78
REMARK SMILES IDX 62 79 63 80 64 81 65 82 66 83 45 84 46 85 54 86 47 87 53 88
REMARK SMILES IDX 48 89 49 90 50 91 51 92 52 93
REMARK H PARENT 12 5 5 13 5 14 17 30 73 49 43 60
REMARK Flexibility Score: inf
ROOT
ATOM      1  C   UNL     1      -2.951  -4.586  -1.435  1.00  0.00     0.116 C 
ENDROOT
BRANCH   1   2
ATOM      2  N   UNL     1      -4.247  -4.660  -0.790  1.00  0.00    -0.352 N 
ATOM      3  C   UNL     1      -4.734  -4.023   0.325  1.00  0.00     0.252 C 
ATOM      4  O   UNL     1      -5.952  -4.043   0.504  1.00  0.00    -0.269 OA
ATOM      5  H   UNL     1      -4.886  -5.270  -1.225  1.00  0.00     0.163 HD
BRANCH   3   6
ATOM      6  C   UNL     1      -3.843  -3.312   1.243  1.00  0.00     0.051 A 
ATOM      7  C   UNL     1      -1.912  -2.619   2.399  1.00  0.00     0.059 A 
ATOM      8  C   UNL     1      -2.477  -3.585   1.587  1.00  0.00     0.035 A 
ATOM      9  S   UNL     1      -3.093  -1.515   2.954  1.00  0.00    -0.142 S 
ATOM     10  C   UNL     1      -4.302  -2.240   1.992  1.00  0.00     0.079 A 
BRANCH   7  11
ATOM     11  C   UNL     1      -0.471  -2.480   2.798  1.00  0.00     0.308 C 
BRANCH  11  12
ATOM     12  N   UNL     1       0.361  -2.017   1.675  1.00  0.00    -0.342 N 
ATOM     13  H   UNL     1       1.335  -2.248   1.868  1.00  0.00     0.346 HD
ATOM     14  H   UNL     1       0.035  -2.482   0.827  1.00  0.00     0.346 HD
BRANCH  12  15
ATOM     15  C   UNL     1       0.248  -0.573   1.472  1.00  0.00     0.261 C 
BRANCH  15  16
ATOM     16  C   UNL     1       1.081  -0.047   0.290  1.00  0.00     0.069 C 
BRANCH  16  17
ATOM     17  C   UNL     1       0.604  -0.388  -1.148  1.00  0.00     0.021 C 
ATOM     18  C   UNL     1       1.145  -1.747  -1.618  1.00  0.00     0.013 C 
BRANCH  17  19
ATOM     19  C   UNL     1      -0.890  -0.161  -1.343  1.00  0.00    -0.045 A 
ATOM     20  C   UNL     1      -1.429   1.118  -1.119  1.00  0.00     0.004 A 
ATOM     21  C   UNL     1      -1.772  -1.182  -1.718  1.00  0.00     0.004 A 
ATOM     22  C   UNL     1      -2.804   1.350  -1.206  1.00  0.00     0.000 A 
ATOM     23  C   UNL     1      -3.148  -0.950  -1.809  1.00  0.00     0.000 A 
ATOM     24  C   UNL     1      -3.666   0.311  -1.539  1.00  0.00     0.000 A 
ENDBRANCH  17  19
ENDBRANCH  16  17
ENDBRANCH  15  16
ENDBRANCH  12  15
ENDBRANCH  11  12
ENDBRANCH   7  11
ENDBRANCH   3   6
ENDBRANCH   1   2
BRANCH   1  25
ATOM     25  C   UNL     1      -2.413  -5.962  -1.810  1.00  0.00     0.023 C 
BRANCH  25  26
ATOM     26  C   UNL     1      -2.910  -6.465  -3.167  1.00  0.00     0.023 C 
BRANCH  26  27
ATOM     27  C   UNL     1      -2.494  -5.618  -4.371  1.00  0.00     0.116 C 
BRANCH  27  28
ATOM     28  N   UNL     1      -1.052  -5.493  -4.520  1.00  0.00    -0.352 N 
ATOM     29  C   UNL     1      -0.287  -5.646  -5.655  1.00  0.00     0.251 C 
ATOM     30  H   UNL     1      -0.556  -5.268  -3.699  1.00  0.00     0.163 HD
ATOM     31  O   UNL     1       0.935  -5.614  -5.585  1.00  0.00    -0.269 OA
BRANCH  29  32
ATOM     32  C   UNL     1      -0.959  -5.888  -6.949  1.00  0.00     0.039 A 
ATOM     33  C   UNL     1      -0.566  -6.984  -7.720  1.00  0.00     0.014 A 
ATOM     34  C   UNL     1      -2.009  -5.067  -7.368  1.00  0.00     0.014 A 
ATOM     35  C   UNL     1      -1.282  -7.304  -8.876  1.00  0.00     0.010 A 
ATOM     36  C   UNL     1      -2.763  -5.428  -8.481  1.00  0.00     0.010 A 
ATOM     37  C   UNL     1      -2.411  -6.553  -9.243  1.00  0.00    -0.014 A 
BRANCH  37  38
ATOM     38  C   UNL     1      -3.246  -6.938 -10.411  1.00  0.00     0.031 A 
ATOM     39  C   UNL     1      -3.365  -6.014 -11.592  1.00  0.00     0.074 A 
ATOM     40  C   UNL     1      -3.954  -8.085 -10.379  1.00  0.00     0.049 A 
ATOM     41  N   UNL     1      -4.092  -6.146 -12.672  1.00  0.00    -0.248 NA
ATOM     42  C   UNL     1      -2.586  -4.765 -11.542  1.00  0.00     0.031 C 
ATOM     43  C   UNL     1      -3.966  -9.045  -9.271  1.00  0.00     0.029 A 
ATOM     44  N   UNL     1      -4.808  -8.636 -11.301  1.00  0.00    -0.354 N 
ATOM     45  C   UNL     1      -3.876  -4.993 -13.417  1.00  0.00     0.074 A 
ATOM     46  C   UNL     1      -2.987  -4.152 -12.646  1.00  0.00     0.031 C 
ATOM     47  C   UNL     1      -4.765 -10.076  -9.591  1.00  0.00     0.029 A 
ATOM     48  C   UNL     1      -5.351  -9.837 -10.906  1.00  0.00     0.049 A 
ATOM     49  H   UNL     1      -5.014  -8.211 -12.165  1.00  0.00     0.167 HD
ATOM     50  C   UNL     1      -4.356  -4.671 -14.642  1.00  0.00     0.031 A 
ATOM     51  C   UNL     1      -6.223 -10.653 -11.529  1.00  0.00     0.031 A 
ATOM     52  C   UNL     1      -5.224  -5.516 -15.417  1.00  0.00     0.049 A 
ATOM     53  C   UNL     1      -6.731 -10.281 -12.895  1.00  0.00     0.074 A 
ATOM     54  C   UNL     1      -5.716  -5.304 -16.693  1.00  0.00     0.029 A 
ATOM     55  N   UNL     1      -5.726  -6.737 -14.993  1.00  0.00    -0.354 N 
ATOM     56  N   UNL     1      -6.462  -9.215 -13.611  1.00  0.00    -0.248 NA
ATOM     57  C   UNL     1      -7.649 -11.229 -13.543  1.00  0.00     0.031 C 
ATOM     58  C   UNL     1      -6.549  -6.378 -17.024  1.00  0.00     0.029 A 
ATOM     59  C   UNL     1      -6.534  -7.283 -15.975  1.00  0.00     0.049 A 
ATOM     60  H   UNL     1      -5.535  -7.154 -14.121  1.00  0.00     0.167 HD
ATOM     61  C   UNL     1      -7.154  -9.379 -14.806  1.00  0.00     0.074 A 
ATOM     62  C   UNL     1      -7.843 -10.650 -14.721  1.00  0.00     0.031 C 
ATOM     63  C   UNL     1      -7.209  -8.552 -15.879  1.00  0.00     0.031 A 
BRANCH  50  64
ATOM     64  C   UNL     1      -3.950  -3.341 -15.219  1.00  0.00    -0.014 A 
ATOM     65  C   UNL     1      -2.631  -3.111 -15.651  1.00  0.00     0.010 A 
ATOM     66  C   UNL     1      -4.905  -2.319 -15.364  1.00  0.00     0.010 A 
ATOM     67  C   UNL     1      -2.264  -1.870 -16.176  1.00  0.00     0.020 A 
ATOM     68  C   UNL     1      -4.549  -1.085 -15.915  1.00  0.00     0.020 A 
ATOM     69  C   UNL     1      -3.225  -0.862 -16.301  1.00  0.00     0.054 A 
BRANCH  69  70
ATOM     70  S   UNL     1      -2.726   0.733 -17.005  1.00  0.00     0.124 S 
ATOM     71  O   UNL     1      -1.973   1.325 -15.902  1.00  0.00    -0.237 OA
ATOM     72  O   UNL     1      -1.933   0.338 -18.166  1.00  0.00    -0.237 OA
ATOM     73  O   UNL     1      -3.995   1.387 -17.314  1.00  0.00    -0.744 OA
ENDBRANCH  69  70
ENDBRANCH  50  64
BRANCH  51  74
ATOM     74  C   UNL     1      -6.654 -11.919 -10.875  1.00  0.00    -0.014 A 
ATOM     75  C   UNL     1      -6.201 -13.160 -11.357  1.00  0.00     0.010 A 
ATOM     76  C   UNL     1      -7.514 -11.891  -9.762  1.00  0.00     0.010 A 
ATOM     77  C   UNL     1      -6.613 -14.350 -10.750  1.00  0.00     0.020 A 
ATOM     78  C   UNL     1      -7.907 -13.077  -9.136  1.00  0.00     0.020 A 
ATOM     79  C   UNL     1      -7.464 -14.301  -9.643  1.00  0.00     0.054 A 
BRANCH  79  80
ATOM     80  S   UNL     1      -7.946 -15.854  -8.839  1.00  0.00     0.124 S 
ATOM     81  O   UNL     1      -8.930 -16.387  -9.775  1.00  0.00    -0.237 OA
ATOM     82  O   UNL     1      -6.680 -16.580  -8.768  1.00  0.00    -0.237 OA
ATOM     83  O   UNL     1      -8.478 -15.419  -7.549  1.00  0.00    -0.744 OA
ENDBRANCH  79  80
ENDBRANCH  51  74
BRANCH  63  84
ATOM     84  C   UNL     1      -8.009  -9.010 -17.068  1.00  0.00    -0.014 A 
ATOM     85  C   UNL     1      -9.415  -9.012 -17.045  1.00  0.00     0.010 A 
ATOM     86  C   UNL     1      -7.341  -9.389 -18.246  1.00  0.00     0.010 A 
ATOM     87  C   UNL     1     -10.138  -9.413 -18.172  1.00  0.00     0.020 A 
ATOM     88  C   UNL     1      -8.060  -9.766 -19.383  1.00  0.00     0.020 A 
ATOM     89  C   UNL     1      -9.455  -9.788 -19.334  1.00  0.00     0.054 A 
BRANCH  89  90
ATOM     90  S   UNL     1     -10.415 -10.260 -20.799  1.00  0.00     0.124 S 
ATOM     91  O   UNL     1     -10.876 -11.598 -20.442  1.00  0.00    -0.237 OA
ATOM     92  O   UNL     1     -11.450  -9.231 -20.851  1.00  0.00    -0.237 OA
ATOM     93  O   UNL     1      -9.438 -10.206 -21.885  1.00  0.00    -0.744 OA
ENDBRANCH  89  90
ENDBRANCH  63  84
ENDBRANCH  37  38
ENDBRANCH  29  32
ENDBRANCH  27  28
ENDBRANCH  26  27
ENDBRANCH  25  26
ENDBRANCH   1  25
TORSDOF 20
