REMARK SMILES Cc1ccc([C@@H](CC(=O)NCCCCNC(=O)c2ccc(-c3c4nc(c(-c5ccc(S(=O)(=O)[O-])cc5)c5ccc([nH]5)c(-c5ccc(S(=O)(=O)[O-])cc5)c5nc(c(-c6ccc(S(=O)(=O)[O-])cc6)c6ccc3[nH]6)C=C5)C=C4)cc2)NC(=O)c2ccc(OC(F)F)cc2)cc1
REMARK SMILES IDX 11 1 10 2 8 3 9 4 7 6 6 7 5 8 1 9 2 10 3 11 92 12 4 13 91 14
REMARK SMILES IDX 78 15 79 16 80 18 81 19 82 20 90 21 83 22 89 23 84 24 85 25
REMARK SMILES IDX 86 26 87 27 88 28 12 29 13 30 14 31 15 32 16 33 17 35 18 36
REMARK SMILES IDX 19 37 77 38 20 39 76 40 21 41 22 42 23 43 70 44 24 45 75 46
REMARK SMILES IDX 69 47 71 48 25 49 74 50 68 51 67 52 26 54 56 55 37 56 55 57
REMARK SMILES IDX 38 58 41 59 54 60 72 61 39 62 40 63 53 65 73 66 42 67 27 68
REMARK SMILES IDX 28 69 36 70 29 71 35 72 30 73 31 74 32 75 33 76 34 77 57 78
REMARK SMILES IDX 58 79 66 80 59 81 65 82 60 83 61 84 62 85 63 86 64 87 43 88
REMARK SMILES IDX 44 89 52 90 45 91 51 92 46 93 47 94 48 95 49 96 50 97
REMARK H PARENT 10 5 78 17 15 34 71 53 41 64
REMARK Flexibility Score: inf
ROOT
ATOM      1  C   UNL     1      -0.932  -2.346  -0.998  1.00  0.00     0.116 C 
ENDROOT
BRANCH   1   2
ATOM      2  N   UNL     1      -2.343  -2.700  -1.042  1.00  0.00    -0.356 N 
ATOM      3  C   UNL     1      -3.442  -1.899  -1.101  1.00  0.00     0.222 C 
ATOM      4  O   UNL     1      -4.556  -2.431  -1.104  1.00  0.00    -0.275 OA
ATOM      5  H   UNL     1      -2.531  -3.667  -1.028  1.00  0.00     0.163 HD
BRANCH   3   6
ATOM      6  C   UNL     1      -3.315  -0.394  -1.192  1.00  0.00     0.129 C 
BRANCH   6   7
ATOM      7  C   UNL     1      -3.316   0.376   0.148  1.00  0.00     0.122 C 
BRANCH   7   8
ATOM      8  C   UNL     1      -1.921   0.902   0.477  1.00  0.00    -0.025 A 
ATOM      9  C   UNL     1       2.274   1.912   0.653  1.00  0.00     0.044 C 
ATOM     10  C   UNL     1       0.797   1.645   0.682  1.00  0.00    -0.051 A 
ATOM     11  C   UNL     1       0.255   0.697   1.549  1.00  0.00     0.004 A 
ATOM     12  C   UNL     1      -0.049   2.310  -0.207  1.00  0.00     0.004 A 
ATOM     13  C   UNL     1      -1.097   0.345   1.462  1.00  0.00     0.006 A 
ATOM     14  C   UNL     1      -1.392   1.942  -0.309  1.00  0.00     0.006 A 
ENDBRANCH   7   8
BRANCH   7  15
ATOM     15  N   UNL     1      -3.926  -0.353   1.258  1.00  0.00    -0.345 N 
ATOM     16  C   UNL     1      -5.087  -0.099   1.940  1.00  0.00     0.251 C 
ATOM     17  H   UNL     1      -3.427  -1.145   1.563  1.00  0.00     0.164 HD
ATOM     18  O   UNL     1      -5.298  -0.633   3.026  1.00  0.00    -0.269 OA
BRANCH  16  19
ATOM     19  C   UNL     1      -6.101   0.817   1.379  1.00  0.00     0.040 A 
ATOM     20  C   UNL     1      -6.665   1.793   2.203  1.00  0.00     0.017 A 
ATOM     21  C   UNL     1      -6.571   0.653   0.074  1.00  0.00     0.017 A 
ATOM     22  C   UNL     1      -7.661   2.633   1.699  1.00  0.00     0.047 A 
ATOM     23  C   UNL     1      -7.557   1.507  -0.431  1.00  0.00     0.047 A 
ATOM     24  C   UNL     1      -8.105   2.505   0.378  1.00  0.00     0.126 A 
BRANCH  24  25
ATOM     25  O   UNL     1      -9.080   3.391   0.017  1.00  0.00    -0.435 OA
BRANCH  25  26
ATOM     26  C   UNL     1      -9.501   3.407  -1.341  1.00  0.00     0.542 C 
ATOM     27  F   UNL     1      -8.444   3.639  -2.155  1.00  0.00    -0.167 F 
ATOM     28  F   UNL     1     -10.049   2.214  -1.675  1.00  0.00    -0.167 F 
ENDBRANCH  25  26
ENDBRANCH  24  25
ENDBRANCH  16  19
ENDBRANCH   7  15
ENDBRANCH   6   7
ENDBRANCH   3   6
ENDBRANCH   1   2
BRANCH   1  29
ATOM     29  C   UNL     1      -0.345  -2.581   0.399  1.00  0.00     0.023 C 
BRANCH  29  30
ATOM     30  C   UNL     1       0.239  -3.964   0.651  1.00  0.00     0.023 C 
BRANCH  30  31
ATOM     31  C   UNL     1       1.506  -4.228  -0.145  1.00  0.00     0.116 C 
BRANCH  31  32
ATOM     32  N   UNL     1       2.738  -3.698   0.418  1.00  0.00    -0.352 N 
ATOM     33  C   UNL     1       4.029  -3.948  -0.023  1.00  0.00     0.251 C 
ATOM     34  H   UNL     1       2.646  -3.098   1.193  1.00  0.00     0.163 HD
ATOM     35  O   UNL     1       4.997  -3.829   0.729  1.00  0.00    -0.269 OA
BRANCH  33  36
ATOM     36  C   UNL     1       4.222  -4.209  -1.468  1.00  0.00     0.039 A 
ATOM     37  C   UNL     1       5.010  -3.309  -2.199  1.00  0.00     0.014 A 
ATOM     38  C   UNL     1       3.401  -5.114  -2.125  1.00  0.00     0.014 A 
ATOM     39  C   UNL     1       4.822  -3.186  -3.577  1.00  0.00     0.010 A 
ATOM     40  C   UNL     1       3.103  -4.884  -3.447  1.00  0.00     0.010 A 
ATOM     41  C   UNL     1       3.800  -3.912  -4.178  1.00  0.00    -0.014 A 
BRANCH  41  42
ATOM     42  C   UNL     1       3.349  -3.791  -5.559  1.00  0.00     0.031 A 
ATOM     43  C   UNL     1       3.561  -4.938  -6.478  1.00  0.00     0.074 A 
ATOM     44  C   UNL     1       2.562  -2.764  -5.943  1.00  0.00     0.049 A 
ATOM     45  N   UNL     1       3.322  -4.923  -7.744  1.00  0.00    -0.248 NA
ATOM     46  C   UNL     1       4.087  -6.221  -6.016  1.00  0.00     0.031 C 
ATOM     47  C   UNL     1       1.663  -2.720  -7.097  1.00  0.00     0.029 A 
ATOM     48  N   UNL     1       2.476  -1.477  -5.454  1.00  0.00    -0.354 N 
ATOM     49  C   UNL     1       3.357  -6.224  -8.192  1.00  0.00     0.074 A 
ATOM     50  C   UNL     1       3.893  -6.987  -7.091  1.00  0.00     0.031 C 
ATOM     51  C   UNL     1       1.364  -1.438  -7.367  1.00  0.00     0.029 A 
ATOM     52  C   UNL     1       2.210  -0.615  -6.523  1.00  0.00     0.049 A 
ATOM     53  H   UNL     1       2.584  -1.210  -4.513  1.00  0.00     0.167 HD
ATOM     54  C   UNL     1       2.821  -6.524  -9.408  1.00  0.00     0.031 A 
ATOM     55  C   UNL     1       3.156   0.254  -7.005  1.00  0.00     0.031 A 
ATOM     56  C   UNL     1       2.435  -5.319 -10.146  1.00  0.00     0.049 A 
ATOM     57  C   UNL     1       3.627  -0.049  -8.428  1.00  0.00     0.074 A 
ATOM     58  C   UNL     1       1.240  -4.700 -10.469  1.00  0.00     0.029 A 
ATOM     59  N   UNL     1       3.428  -4.396 -10.437  1.00  0.00    -0.354 N 
ATOM     60  N   UNL     1       3.178  -1.019  -9.179  1.00  0.00    -0.248 NA
ATOM     61  C   UNL     1       4.724   0.679  -9.074  1.00  0.00     0.031 C 
ATOM     62  C   UNL     1       1.534  -3.380 -10.933  1.00  0.00     0.029 A 
ATOM     63  C   UNL     1       2.906  -3.209 -10.909  1.00  0.00     0.049 A 
ATOM     64  H   UNL     1       4.390  -4.568 -10.320  1.00  0.00     0.167 HD
ATOM     65  C   UNL     1       3.948  -1.120 -10.307  1.00  0.00     0.074 A 
ATOM     66  C   UNL     1       4.883  -0.013 -10.214  1.00  0.00     0.031 C 
ATOM     67  C   UNL     1       3.830  -2.131 -11.215  1.00  0.00     0.031 A 
BRANCH  54  68
ATOM     68  C   UNL     1       2.481  -7.929  -9.854  1.00  0.00    -0.014 A 
ATOM     69  C   UNL     1       1.508  -8.127 -10.854  1.00  0.00     0.010 A 
ATOM     70  C   UNL     1       3.041  -9.098  -9.303  1.00  0.00     0.010 A 
ATOM     71  C   UNL     1       1.061  -9.409 -11.216  1.00  0.00     0.020 A 
ATOM     72  C   UNL     1       2.581 -10.382  -9.624  1.00  0.00     0.020 A 
ATOM     73  C   UNL     1       1.584 -10.531 -10.577  1.00  0.00     0.054 A 
BRANCH  73  74
ATOM     74  S   UNL     1       0.955 -12.175 -11.001  1.00  0.00     0.124 S 
ATOM     75  O   UNL     1      -0.478 -12.037 -10.754  1.00  0.00    -0.237 OA
ATOM     76  O   UNL     1       1.347 -12.308 -12.400  1.00  0.00    -0.237 OA
ATOM     77  O   UNL     1       1.655 -13.063 -10.073  1.00  0.00    -0.744 OA
ENDBRANCH  73  74
ENDBRANCH  54  68
BRANCH  55  78
ATOM     78  C   UNL     1       4.028   0.815  -5.929  1.00  0.00    -0.014 A 
ATOM     79  C   UNL     1       3.405   1.612  -4.943  1.00  0.00     0.010 A 
ATOM     80  C   UNL     1       5.272   0.227  -5.643  1.00  0.00     0.010 A 
ATOM     81  C   UNL     1       3.900   1.635  -3.639  1.00  0.00     0.020 A 
ATOM     82  C   UNL     1       5.787   0.276  -4.341  1.00  0.00     0.020 A 
ATOM     83  C   UNL     1       5.050   0.906  -3.335  1.00  0.00     0.054 A 
BRANCH  83  84
ATOM     84  S   UNL     1       5.429   0.604  -1.584  1.00  0.00     0.124 S 
ATOM     85  O   UNL     1       5.457   1.954  -1.029  1.00  0.00    -0.237 OA
ATOM     86  O   UNL     1       4.290  -0.217  -1.177  1.00  0.00    -0.237 OA
ATOM     87  O   UNL     1       6.713  -0.088  -1.629  1.00  0.00    -0.744 OA
ENDBRANCH  83  84
ENDBRANCH  55  78
BRANCH  67  88
ATOM     88  C   UNL     1       4.664  -2.200 -12.464  1.00  0.00    -0.014 A 
ATOM     89  C   UNL     1       4.842  -1.080 -13.293  1.00  0.00     0.010 A 
ATOM     90  C   UNL     1       5.197  -3.431 -12.907  1.00  0.00     0.010 A 
ATOM     91  C   UNL     1       5.577  -1.171 -14.482  1.00  0.00     0.020 A 
ATOM     92  C   UNL     1       5.914  -3.536 -14.101  1.00  0.00     0.020 A 
ATOM     93  C   UNL     1       6.119  -2.398 -14.873  1.00  0.00     0.054 A 
BRANCH  93  94
ATOM     94  S   UNL     1       7.043  -2.506 -16.426  1.00  0.00     0.124 S 
ATOM     95  O   UNL     1       6.255  -1.670 -17.329  1.00  0.00    -0.237 OA
ATOM     96  O   UNL     1       8.342  -1.960 -16.040  1.00  0.00    -0.237 OA
ATOM     97  O   UNL     1       7.032  -3.932 -16.739  1.00  0.00    -0.744 OA
ENDBRANCH  93  94
ENDBRANCH  67  88
ENDBRANCH  41  42
ENDBRANCH  33  36
ENDBRANCH  31  32
ENDBRANCH  30  31
ENDBRANCH  29  30
ENDBRANCH   1  29
TORSDOF 20
