REMARK SMILES C[C@@H](C(=O)NCCCCNC(=O)c1ccc(-c2c3nc(c(-c4ccc(S(=O)(=O)[O-])cc4)c4ccc([nH]4)c(-c4ccc(S(=O)(=O)[O-])cc4)c4nc(c(-c5ccc(S(=O)(=O)[O-])cc5)c5ccc2[nH]5)C=C4)C=C3)cc1)c1ccc(C[C@H]2CCCC2=O)c(-c2ccccc2)c1
REMARK SMILES IDX 7 1 6 2 5 3 3 4 4 5 2 7 1 8 73 9 74 10 91 11 75 12 84 13
REMARK SMILES IDX 76 14 85 15 86 16 90 17 87 18 89 19 88 20 77 21 78 22 79 23
REMARK SMILES IDX 82 24 80 25 81 26 83 27 8 28 9 29 10 30 11 31 12 33 13 34
REMARK SMILES IDX 14 35 72 36 15 37 71 38 16 39 17 40 18 41 65 42 19 43 70 44
REMARK SMILES IDX 64 45 66 46 20 47 69 48 63 49 62 50 21 52 51 53 32 54 50 55
REMARK SMILES IDX 33 56 36 57 49 58 67 59 34 60 35 61 48 63 68 64 37 65 22 66
REMARK SMILES IDX 23 67 31 68 24 69 30 70 25 71 26 72 27 73 28 74 29 75 52 76
REMARK SMILES IDX 53 77 61 78 54 79 60 80 55 81 56 82 57 83 58 84 59 85 38 86
REMARK SMILES IDX 39 87 47 88 40 89 46 90 41 91 42 92 43 93 44 94 45 95
REMARK H PARENT 5 6 10 32 66 51 36 62
REMARK Flexibility Score: inf
ROOT
ATOM      1  C   UNL     1       4.276  -1.271   0.090  1.00  0.00     0.023 C 
ENDROOT
BRANCH   1   2
ATOM      2  C   UNL     1       3.462  -1.474  -1.193  1.00  0.00     0.116 C 
BRANCH   2   3
ATOM      3  N   UNL     1       2.450  -2.492  -0.998  1.00  0.00    -0.356 N 
ATOM      4  C   UNL     1       1.141  -2.348  -0.634  1.00  0.00     0.227 C 
ATOM      5  O   UNL     1       0.628  -3.323  -0.084  1.00  0.00    -0.274 OA
ATOM      6  H   UNL     1       2.748  -3.418  -1.149  1.00  0.00     0.163 HD
BRANCH   4   7
ATOM      7  C   UNL     1       0.419  -1.011  -0.891  1.00  0.00     0.105 C 
ATOM      8  C   UNL     1       0.738  -0.068   0.280  1.00  0.00     0.023 C 
BRANCH   7   9
ATOM      9  C   UNL     1      -1.101  -1.061  -1.096  1.00  0.00    -0.035 A 
ATOM     10  C   UNL     1      -1.798   0.134  -1.317  1.00  0.00     0.005 A 
ATOM     11  C   UNL     1      -1.865  -2.234  -1.036  1.00  0.00     0.013 A 
ATOM     12  C   UNL     1      -3.193   0.165  -1.326  1.00  0.00     0.004 A 
ATOM     13  C   UNL     1      -3.280  -2.236  -1.008  1.00  0.00    -0.015 A 
ATOM     14  C   UNL     1      -3.951  -0.998  -1.103  1.00  0.00    -0.039 A 
BRANCH  13  15
ATOM     15  C   UNL     1      -3.960  -3.536  -0.823  1.00  0.00    -0.018 A 
ATOM     16  C   UNL     1      -4.886  -4.028  -1.756  1.00  0.00     0.009 A 
ATOM     17  C   UNL     1      -3.659  -4.341   0.291  1.00  0.00     0.009 A 
ATOM     18  C   UNL     1      -5.528  -5.253  -1.555  1.00  0.00     0.001 A 
ATOM     19  C   UNL     1      -4.287  -5.573   0.486  1.00  0.00     0.001 A 
ATOM     20  C   UNL     1      -5.231  -6.023  -0.432  1.00  0.00     0.000 A 
ENDBRANCH  13  15
BRANCH  14  21
ATOM     21  C   UNL     1      -5.449  -0.838  -0.923  1.00  0.00     0.047 C 
BRANCH  21  22
ATOM     22  C   UNL     1      -5.926  -0.291   0.431  1.00  0.00     0.060 C 
ATOM     23  C   UNL     1      -5.436  -1.013   1.690  1.00  0.00     0.012 C 
ATOM     24  C   UNL     1      -5.474   1.128   0.685  1.00  0.00     0.136 C 
ATOM     25  C   UNL     1      -4.261  -0.201   2.220  1.00  0.00     0.009 C 
ATOM     26  C   UNL     1      -4.593   1.249   1.900  1.00  0.00     0.076 C 
ATOM     27  O   UNL     1      -5.808   2.084  -0.006  1.00  0.00    -0.299 OA
ENDBRANCH  21  22
ENDBRANCH  14  21
ENDBRANCH   7   9
ENDBRANCH   4   7
ENDBRANCH   2   3
ENDBRANCH   1   2
BRANCH   1  28
ATOM     28  C   UNL     1       5.052  -2.504   0.564  1.00  0.00     0.023 C 
BRANCH  28  29
ATOM     29  C   UNL     1       6.020  -3.087  -0.456  1.00  0.00     0.116 C 
BRANCH  29  30
ATOM     30  N   UNL     1       7.012  -2.121  -0.898  1.00  0.00    -0.352 N 
ATOM     31  C   UNL     1       8.367  -2.283  -1.054  1.00  0.00     0.251 C 
ATOM     32  H   UNL     1       6.665  -1.226  -1.116  1.00  0.00     0.163 HD
ATOM     33  O   UNL     1       9.075  -1.309  -1.292  1.00  0.00    -0.269 OA
BRANCH  31  34
ATOM     34  C   UNL     1       8.968  -3.625  -0.900  1.00  0.00     0.039 A 
ATOM     35  C   UNL     1      10.121  -3.760  -0.124  1.00  0.00     0.014 A 
ATOM     36  C   UNL     1       8.388  -4.745  -1.501  1.00  0.00     0.014 A 
ATOM     37  C   UNL     1      10.654  -5.030   0.103  1.00  0.00     0.010 A 
ATOM     38  C   UNL     1       8.878  -6.016  -1.214  1.00  0.00     0.010 A 
ATOM     39  C   UNL     1      10.016  -6.172  -0.409  1.00  0.00    -0.014 A 
BRANCH  39  40
ATOM     40  C   UNL     1      10.516  -7.535  -0.093  1.00  0.00     0.031 A 
ATOM     41  C   UNL     1      11.030  -8.430  -1.188  1.00  0.00     0.074 A 
ATOM     42  C   UNL     1      10.456  -7.985   1.177  1.00  0.00     0.049 A 
ATOM     43  N   UNL     1      11.473  -9.658  -1.106  1.00  0.00    -0.248 NA
ATOM     44  C   UNL     1      11.025  -7.884  -2.555  1.00  0.00     0.031 C 
ATOM     45  C   UNL     1       9.936  -7.230   2.321  1.00  0.00     0.029 A 
ATOM     46  N   UNL     1      10.833  -9.188   1.720  1.00  0.00    -0.354 N 
ATOM     47  C   UNL     1      11.789 -10.035  -2.406  1.00  0.00     0.074 A 
ATOM     48  C   UNL     1      11.439  -8.925  -3.264  1.00  0.00     0.031 C 
ATOM     49  C   UNL     1      10.055  -7.975   3.431  1.00  0.00     0.029 A 
ATOM     50  C   UNL     1      10.619  -9.273   3.076  1.00  0.00     0.049 A 
ATOM     51  H   UNL     1      11.220  -9.921   1.189  1.00  0.00     0.167 HD
ATOM     52  C   UNL     1      12.341 -11.192  -2.844  1.00  0.00     0.031 A 
ATOM     53  C   UNL     1      10.845 -10.283   3.938  1.00  0.00     0.031 A 
ATOM     54  C   UNL     1      12.695 -12.292  -1.986  1.00  0.00     0.049 A 
ATOM     55  C   UNL     1      11.446 -11.563   3.424  1.00  0.00     0.074 A 
ATOM     56  C   UNL     1      13.308 -13.486  -2.328  1.00  0.00     0.029 A 
ATOM     57  N   UNL     1      12.468 -12.337  -0.619  1.00  0.00    -0.354 N 
ATOM     58  N   UNL     1      11.803 -11.872   2.200  1.00  0.00    -0.248 NA
ATOM     59  C   UNL     1      11.687 -12.625   4.410  1.00  0.00     0.031 C 
ATOM     60  C   UNL     1      13.402 -14.274  -1.176  1.00  0.00     0.029 A 
ATOM     61  C   UNL     1      12.905 -13.547  -0.106  1.00  0.00     0.049 A 
ATOM     62  H   UNL     1      12.056 -11.616  -0.090  1.00  0.00     0.167 HD
ATOM     63  C   UNL     1      12.335 -13.155   2.274  1.00  0.00     0.074 A 
ATOM     64  C   UNL     1      12.271 -13.554   3.665  1.00  0.00     0.031 C 
ATOM     65  C   UNL     1      12.832 -13.932   1.281  1.00  0.00     0.031 A 
BRANCH  52  66
ATOM     66  C   UNL     1      12.597 -11.329  -4.322  1.00  0.00    -0.014 A 
ATOM     67  C   UNL     1      13.603 -10.577  -4.956  1.00  0.00     0.010 A 
ATOM     68  C   UNL     1      11.861 -12.260  -5.077  1.00  0.00     0.010 A 
ATOM     69  C   UNL     1      13.844 -10.728  -6.324  1.00  0.00     0.020 A 
ATOM     70  C   UNL     1      12.119 -12.435  -6.441  1.00  0.00     0.020 A 
ATOM     71  C   UNL     1      13.100 -11.657  -7.058  1.00  0.00     0.054 A 
BRANCH  71  72
ATOM     72  S   UNL     1      13.460 -11.855  -8.825  1.00  0.00     0.124 S 
ATOM     73  O   UNL     1      12.918 -10.618  -9.383  1.00  0.00    -0.237 OA
ATOM     74  O   UNL     1      14.916 -11.968  -8.844  1.00  0.00    -0.237 OA
ATOM     75  O   UNL     1      12.738 -13.071  -9.192  1.00  0.00    -0.744 OA
ENDBRANCH  71  72
ENDBRANCH  52  66
BRANCH  53  76
ATOM     76  C   UNL     1      10.510 -10.124   5.380  1.00  0.00    -0.014 A 
ATOM     77  C   UNL     1      11.528 -10.047   6.347  1.00  0.00     0.010 A 
ATOM     78  C   UNL     1       9.167 -10.052   5.795  1.00  0.00     0.010 A 
ATOM     79  C   UNL     1      11.210  -9.928   7.704  1.00  0.00     0.020 A 
ATOM     80  C   UNL     1       8.846  -9.901   7.147  1.00  0.00     0.020 A 
ATOM     81  C   UNL     1       9.870  -9.855   8.095  1.00  0.00     0.054 A 
BRANCH  81  82
ATOM     82  S   UNL     1       9.481  -9.663   9.857  1.00  0.00     0.124 S 
ATOM     83  O   UNL     1       9.771 -10.995  10.378  1.00  0.00    -0.237 OA
ATOM     84  O   UNL     1      10.401  -8.606  10.269  1.00  0.00    -0.237 OA
ATOM     85  O   UNL     1       8.070  -9.284   9.855  1.00  0.00    -0.744 OA
ENDBRANCH  81  82
ENDBRANCH  53  76
BRANCH  65  86
ATOM     86  C   UNL     1      13.375 -15.283   1.666  1.00  0.00    -0.014 A 
ATOM     87  C   UNL     1      12.522 -16.328   2.063  1.00  0.00     0.010 A 
ATOM     88  C   UNL     1      14.760 -15.521   1.587  1.00  0.00     0.010 A 
ATOM     89  C   UNL     1      13.047 -17.575   2.411  1.00  0.00     0.020 A 
ATOM     90  C   UNL     1      15.286 -16.776   1.905  1.00  0.00     0.020 A 
ATOM     91  C   UNL     1      14.427 -17.790   2.332  1.00  0.00     0.054 A 
BRANCH  91  92
ATOM     92  S   UNL     1      15.080 -19.428   2.756  1.00  0.00     0.124 S 
ATOM     93  O   UNL     1      14.956 -19.436   4.211  1.00  0.00    -0.237 OA
ATOM     94  O   UNL     1      14.178 -20.328   2.043  1.00  0.00    -0.237 OA
ATOM     95  O   UNL     1      16.450 -19.397   2.249  1.00  0.00    -0.744 OA
ENDBRANCH  91  92
ENDBRANCH  65  86
ENDBRANCH  39  40
ENDBRANCH  31  34
ENDBRANCH  29  30
ENDBRANCH  28  29
ENDBRANCH   1  28
TORSDOF 18
