REMARK SMILES CCCOC(=O)c1c(NC(=O)[C@@H]2CC=CC[C@H]2C(=O)NCCCCNC(=O)c2ccc(-c3c4nc(c(-c5ccc(S(=O)(=O)[O-])cc5)c5ccc([nH]5)c(-c5ccc(S(=O)(=O)[O-])cc5)c5nc(c(-c6ccc(S(=O)(=O)[O-])cc6)c6ccc3[nH]6)C=C5)C=C4)cc2)sc2c1CCCC2
REMARK SMILES IDX 21 1 20 2 18 3 19 4 17 6 12 7 13 8 14 9 16 10 15 11 10 12
REMARK SMILES IDX 9 13 11 15 8 16 7 17 90 18 88 19 89 20 91 21 94 22 92 23
REMARK SMILES IDX 93 24 5 25 6 26 4 27 3 28 2 29 1 30 22 31 23 32 24 33 25 34
REMARK SMILES IDX 26 35 27 37 28 38 29 39 87 40 30 41 86 42 31 43 32 44 33 45
REMARK SMILES IDX 80 46 34 47 85 48 79 49 81 50 35 51 84 52 78 53 77 54 36 56
REMARK SMILES IDX 66 57 47 58 65 59 48 60 51 61 64 62 82 63 49 64 50 65 63 67
REMARK SMILES IDX 83 68 52 69 37 70 38 71 46 72 39 73 45 74 40 75 41 76 42 77
REMARK SMILES IDX 43 78 44 79 67 80 68 81 76 82 69 83 75 84 70 85 71 86 72 87
REMARK SMILES IDX 73 88 74 89 53 90 54 91 62 92 55 93 61 94 56 95 57 96 58 97
REMARK SMILES IDX 59 98 60 99
REMARK H PARENT 20 5 9 14 25 36 81 55 51 66
REMARK Flexibility Score: inf
ROOT
ATOM      1  C   UNL     1      -0.499   3.591   0.496  1.00  0.00     0.116 C 
ENDROOT
BRANCH   1   2
ATOM      2  N   UNL     1       0.695   2.991   1.211  1.00  0.00    -0.356 N 
ATOM      3  C   UNL     1       1.708   2.123   0.846  1.00  0.00     0.224 C 
ATOM      4  O   UNL     1       2.751   2.694   0.482  1.00  0.00    -0.275 OA
ATOM      5  H   UNL     1       0.766   3.287   2.147  1.00  0.00     0.163 HD
BRANCH   3   6
ATOM      6  C   UNL     1       1.826   0.545   1.160  1.00  0.00     0.095 C 
ATOM      7  C   UNL     1       1.014  -0.087   2.279  1.00  0.00     0.095 C 
ATOM      8  C   UNL     1       1.617  -1.414   2.760  1.00  0.00     0.041 C 
ATOM      9  C   UNL     1       1.547  -2.384   1.621  1.00  0.00    -0.030 C 
ATOM     10  C   UNL     1       1.944  -0.495   0.009  1.00  0.00     0.041 C 
ATOM     11  C   UNL     1       1.675  -1.948   0.360  1.00  0.00    -0.030 C 
BRANCH   7  12
ATOM     12  C   UNL     1       0.905   0.882   3.381  1.00  0.00     0.229 C 
ATOM     13  N   UNL     1      -0.287   1.482   3.561  1.00  0.00    -0.317 N 
ATOM     14  H   UNL     1      -0.274   2.216   4.217  1.00  0.00     0.170 HD
ATOM     15  O   UNL     1       1.851   1.142   4.124  1.00  0.00    -0.274 OA
BRANCH  13  16
ATOM     16  C   UNL     1      -1.520   1.256   2.995  1.00  0.00     0.110 A 
ATOM     17  C   UNL     1      -2.187   0.751   1.863  1.00  0.00     0.098 A 
ATOM     18  C   UNL     1      -3.633   0.808   2.159  1.00  0.00    -0.017 A 
ATOM     19  S   UNL     1      -2.570   1.777   4.252  1.00  0.00    -0.122 S 
ATOM     20  C   UNL     1      -3.925   1.254   3.431  1.00  0.00     0.011 A 
ATOM     21  C   UNL     1      -4.759   0.459   1.220  1.00  0.00     0.038 C 
ATOM     22  C   UNL     1      -5.275   1.408   4.053  1.00  0.00     0.047 C 
ATOM     23  C   UNL     1      -6.066   1.120   1.683  1.00  0.00     0.005 C 
ATOM     24  C   UNL     1      -6.361   0.820   3.152  1.00  0.00     0.006 C 
BRANCH  17  25
ATOM     25  C   UNL     1      -1.756   0.235   0.502  1.00  0.00     0.341 C 
ATOM     26  O   UNL     1      -2.400  -0.638  -0.074  1.00  0.00    -0.246 OA
BRANCH  25  27
ATOM     27  O   UNL     1      -0.723   0.879  -0.150  1.00  0.00    -0.462 OA
BRANCH  27  28
ATOM     28  C   UNL     1      -0.716   0.801  -1.619  1.00  0.00     0.233 C 
BRANCH  28  29
ATOM     29  C   UNL     1       0.261   1.781  -2.349  1.00  0.00     0.038 C 
ATOM     30  C   UNL     1       1.747   1.439  -2.465  1.00  0.00     0.007 C 
ENDBRANCH  28  29
ENDBRANCH  27  28
ENDBRANCH  25  27
ENDBRANCH  17  25
ENDBRANCH  13  16
ENDBRANCH   7  12
ENDBRANCH   3   6
ENDBRANCH   1   2
BRANCH   1  31
ATOM     31  C   UNL     1      -1.537   4.221   1.447  1.00  0.00     0.023 C 
BRANCH  31  32
ATOM     32  C   UNL     1      -2.421   5.338   0.873  1.00  0.00     0.023 C 
BRANCH  32  33
ATOM     33  C   UNL     1      -3.288   5.017  -0.348  1.00  0.00     0.116 C 
BRANCH  33  34
ATOM     34  N   UNL     1      -4.425   4.136  -0.100  1.00  0.00    -0.352 N 
ATOM     35  C   UNL     1      -5.770   4.338  -0.387  1.00  0.00     0.251 C 
ATOM     36  H   UNL     1      -4.209   3.277   0.331  1.00  0.00     0.163 HD
ATOM     37  O   UNL     1      -6.607   3.479  -0.211  1.00  0.00    -0.269 OA
BRANCH  35  38
ATOM     38  C   UNL     1      -6.201   5.650  -0.897  1.00  0.00     0.039 A 
ATOM     39  C   UNL     1      -7.082   6.423  -0.135  1.00  0.00     0.014 A 
ATOM     40  C   UNL     1      -5.682   6.122  -2.100  1.00  0.00     0.014 A 
ATOM     41  C   UNL     1      -7.350   7.734  -0.526  1.00  0.00     0.010 A 
ATOM     42  C   UNL     1      -5.889   7.450  -2.445  1.00  0.00     0.010 A 
ATOM     43  C   UNL     1      -6.704   8.274  -1.650  1.00  0.00    -0.014 A 
BRANCH  43  44
ATOM     44  C   UNL     1      -6.824   9.708  -2.006  1.00  0.00     0.031 A 
ATOM     45  C   UNL     1      -7.409  10.094  -3.335  1.00  0.00     0.074 A 
ATOM     46  C   UNL     1      -6.293  10.640  -1.189  1.00  0.00     0.049 A 
ATOM     47  N   UNL     1      -7.450  11.268  -3.907  1.00  0.00    -0.248 NA
ATOM     48  C   UNL     1      -7.987   9.008  -4.145  1.00  0.00     0.031 C 
ATOM     49  C   UNL     1      -5.653  10.374   0.104  1.00  0.00     0.029 A 
ATOM     50  N   UNL     1      -6.185  12.000  -1.334  1.00  0.00    -0.354 N 
ATOM     51  C   UNL     1      -8.025  11.057  -5.154  1.00  0.00     0.074 A 
ATOM     52  C   UNL     1      -8.277   9.638  -5.274  1.00  0.00     0.031 C 
ATOM     53  C   UNL     1      -5.237  11.534   0.638  1.00  0.00     0.029 A 
ATOM     54  C   UNL     1      -5.535  12.618  -0.289  1.00  0.00     0.049 A 
ATOM     55  H   UNL     1      -6.539  12.489  -2.112  1.00  0.00     0.167 HD
ATOM     56  C   UNL     1      -8.331  11.969  -6.107  1.00  0.00     0.031 A 
ATOM     57  C   UNL     1      -5.205  13.912  -0.109  1.00  0.00     0.031 A 
ATOM     58  C   UNL     1      -8.102  13.381  -5.962  1.00  0.00     0.049 A 
ATOM     59  C   UNL     1      -5.575  14.907  -1.175  1.00  0.00     0.074 A 
ATOM     60  C   UNL     1      -8.439  14.400  -6.834  1.00  0.00     0.029 A 
ATOM     61  N   UNL     1      -7.486  13.973  -4.870  1.00  0.00    -0.354 N 
ATOM     62  N   UNL     1      -6.179  14.698  -2.321  1.00  0.00    -0.248 NA
ATOM     63  C   UNL     1      -5.230  16.312  -0.921  1.00  0.00     0.031 C 
ATOM     64  C   UNL     1      -7.984  15.605  -6.289  1.00  0.00     0.029 A 
ATOM     65  C   UNL     1      -7.415  15.342  -5.053  1.00  0.00     0.049 A 
ATOM     66  H   UNL     1      -7.148  13.490  -4.081  1.00  0.00     0.167 HD
ATOM     67  C   UNL     1      -6.307  15.948  -2.914  1.00  0.00     0.074 A 
ATOM     68  C   UNL     1      -5.737  16.909  -1.991  1.00  0.00     0.031 C 
ATOM     69  C   UNL     1      -6.845  16.275  -4.115  1.00  0.00     0.031 A 
BRANCH  56  70
ATOM     70  C   UNL     1      -8.948  11.466  -7.384  1.00  0.00    -0.014 A 
ATOM     71  C   UNL     1     -10.260  10.957  -7.406  1.00  0.00     0.010 A 
ATOM     72  C   UNL     1      -8.225  11.542  -8.588  1.00  0.00     0.010 A 
ATOM     73  C   UNL     1     -10.823  10.502  -8.600  1.00  0.00     0.020 A 
ATOM     74  C   UNL     1      -8.796  11.115  -9.791  1.00  0.00     0.020 A 
ATOM     75  C   UNL     1     -10.088  10.585  -9.786  1.00  0.00     0.054 A 
BRANCH  75  76
ATOM     76  S   UNL     1     -10.861  10.024 -11.327  1.00  0.00     0.124 S 
ATOM     77  O   UNL     1     -10.852   8.573 -11.158  1.00  0.00    -0.237 OA
ATOM     78  O   UNL     1     -12.178  10.654 -11.271  1.00  0.00    -0.237 OA
ATOM     79  O   UNL     1      -9.973  10.534 -12.368  1.00  0.00    -0.744 OA
ENDBRANCH  75  76
ENDBRANCH  56  70
BRANCH  57  80
ATOM     80  C   UNL     1      -4.492  14.342   1.126  1.00  0.00    -0.014 A 
ATOM     81  C   UNL     1      -5.149  15.128   2.090  1.00  0.00     0.010 A 
ATOM     82  C   UNL     1      -3.152  13.974   1.346  1.00  0.00     0.010 A 
ATOM     83  C   UNL     1      -4.472  15.561   3.235  1.00  0.00     0.020 A 
ATOM     84  C   UNL     1      -2.481  14.380   2.503  1.00  0.00     0.020 A 
ATOM     85  C   UNL     1      -3.141  15.185   3.434  1.00  0.00     0.054 A 
BRANCH  85  86
ATOM     86  S   UNL     1      -2.293  15.729   4.943  1.00  0.00     0.124 S 
ATOM     87  O   UNL     1      -2.048  17.140   4.661  1.00  0.00    -0.237 OA
ATOM     88  O   UNL     1      -3.284  15.453   5.980  1.00  0.00    -0.237 OA
ATOM     89  O   UNL     1      -1.103  14.883   4.989  1.00  0.00    -0.744 OA
ENDBRANCH  85  86
ENDBRANCH  57  80
BRANCH  69  90
ATOM     90  C   UNL     1      -6.872  17.733  -4.483  1.00  0.00    -0.014 A 
ATOM     91  C   UNL     1      -5.698  18.412  -4.852  1.00  0.00     0.010 A 
ATOM     92  C   UNL     1      -8.102  18.416  -4.516  1.00  0.00     0.010 A 
ATOM     93  C   UNL     1      -5.749  19.758  -5.219  1.00  0.00     0.020 A 
ATOM     94  C   UNL     1      -8.161  19.754  -4.910  1.00  0.00     0.020 A 
ATOM     95  C   UNL     1      -6.981  20.420  -5.246  1.00  0.00     0.054 A 
BRANCH  95  96
ATOM     96  S   UNL     1      -7.026  22.155  -5.771  1.00  0.00     0.124 S 
ATOM     97  O   UNL     1      -6.471  22.839  -4.607  1.00  0.00    -0.237 OA
ATOM     98  O   UNL     1      -6.180  22.152  -6.962  1.00  0.00    -0.237 OA
ATOM     99  O   UNL     1      -8.444  22.403  -6.023  1.00  0.00    -0.744 OA
ENDBRANCH  95  96
ENDBRANCH  69  90
ENDBRANCH  43  44
ENDBRANCH  35  38
ENDBRANCH  33  34
ENDBRANCH  32  33
ENDBRANCH  31  32
ENDBRANCH   1  31
TORSDOF 20
