REMARK SMILES [NH3+][C@H]1C=C[C@H](C(=O)N2CCCc3c(C(=O)NCCCCNC(=O)c4ccc(-c5c6nc(c(-c7ccc(S(=O)(=O)[O-])cc7)c7ccc([nH]7)c(-c7ccc(S(=O)(=O)[O-])cc7)c7nc(c(-c8ccc(S(=O)(=O)[O-])cc8)c8ccc5[nH]8)C=C7)C=C6)cc4)cccc32)C1
REMARK SMILES IDX 18 1 17 2 16 3 14 4 15 5 13 7 8 8 9 9 87 10 10 11 12 12
REMARK SMILES IDX 86 13 11 14 85 15 84 16 6 17 7 18 5 19 2 20 3 21 88 22 4 23
REMARK SMILES IDX 1 24 19 28 20 29 21 30 22 31 23 33 24 34 25 35 83 36 26 37
REMARK SMILES IDX 82 38 27 39 28 40 29 41 76 42 30 43 81 44 75 45 77 46 31 47
REMARK SMILES IDX 80 48 74 49 73 50 32 52 62 53 43 54 61 55 44 56 47 57 60 58
REMARK SMILES IDX 78 59 45 60 46 61 59 63 79 64 48 65 33 66 34 67 42 68 35 69
REMARK SMILES IDX 41 70 36 71 37 72 38 73 39 74 40 75 63 76 64 77 72 78 65 79
REMARK SMILES IDX 71 80 66 81 67 82 68 83 69 84 70 85 49 86 50 87 58 88 51 89
REMARK SMILES IDX 57 90 52 91 53 92 54 93 55 94 56 95
REMARK H PARENT 16 6 1 25 1 26 1 27 21 32 77 51 47 62
REMARK Flexibility Score: inf
ROOT
ATOM      1  C   UNL     1      -5.696  -7.997  -1.164  1.00  0.00     0.023 C 
ENDROOT
BRANCH   1   2
ATOM      2  C   UNL     1      -4.702  -9.161  -1.240  1.00  0.00     0.116 C 
BRANCH   2   3
ATOM      3  N   UNL     1      -4.306  -9.415  -2.608  1.00  0.00    -0.352 N 
ATOM      4  C   UNL     1      -3.363  -9.023  -3.512  1.00  0.00     0.251 C 
ATOM      5  O   UNL     1      -3.505  -9.602  -4.601  1.00  0.00    -0.269 OA
ATOM      6  H   UNL     1      -4.906 -10.081  -3.015  1.00  0.00     0.163 HD
BRANCH   4   7
ATOM      7  C   UNL     1      -2.209  -8.047  -3.401  1.00  0.00     0.045 A 
ATOM      8  N   UNL     1      -0.529  -5.039  -1.834  1.00  0.00    -0.312 N 
ATOM      9  C   UNL     1      -1.075  -5.178  -0.491  1.00  0.00     0.126 C 
ATOM     10  C   UNL     1      -0.843  -6.101  -2.749  1.00  0.00     0.048 A 
ATOM     11  C   UNL     1      -2.573  -5.326  -0.618  1.00  0.00     0.027 C 
ATOM     12  C   UNL     1      -1.963  -6.959  -2.521  1.00  0.00    -0.011 A 
ATOM     13  C   UNL     1       0.007  -6.316  -3.839  1.00  0.00     0.027 A 
ATOM     14  C   UNL     1      -2.872  -6.611  -1.380  1.00  0.00     0.040 C 
ATOM     15  C   UNL     1      -0.201  -7.388  -4.685  1.00  0.00     0.003 A 
ATOM     16  C   UNL     1      -1.279  -8.236  -4.458  1.00  0.00     0.014 A 
BRANCH   8  17
ATOM     17  C   UNL     1       0.072  -3.858  -2.282  1.00  0.00     0.234 C 
ATOM     18  O   UNL     1      -0.079  -3.429  -3.428  1.00  0.00    -0.274 OA
BRANCH  17  19
ATOM     19  C   UNL     1       1.010  -3.157  -1.286  1.00  0.00     0.108 C 
ATOM     20  C   UNL     1       0.707  -0.727  -1.044  1.00  0.00     0.205 C 
ATOM     21  C   UNL     1       1.881  -1.052  -1.897  1.00  0.00     0.033 C 
ATOM     22  C   UNL     1       0.340  -2.082  -0.420  1.00  0.00     0.087 C 
ATOM     23  C   UNL     1       2.058  -2.372  -2.025  1.00  0.00    -0.012 C 
BRANCH  20  24
ATOM     24  N   UNL     1       1.056   0.265  -0.040  1.00  0.00    -0.352 N 
ATOM     25  H   UNL     1       1.291   1.145  -0.499  1.00  0.00     0.345 HD
ATOM     26  H   UNL     1       1.858  -0.063   0.498  1.00  0.00     0.345 HD
ATOM     27  H   UNL     1       0.263   0.409   0.586  1.00  0.00     0.345 HD
ENDBRANCH  20  24
ENDBRANCH  17  19
ENDBRANCH   8  17
ENDBRANCH   4   7
ENDBRANCH   2   3
ENDBRANCH   1   2
BRANCH   1  28
ATOM     28  C   UNL     1      -7.119  -8.377  -0.775  1.00  0.00     0.023 C 
BRANCH  28  29
ATOM     29  C   UNL     1      -7.254  -8.876   0.655  1.00  0.00     0.116 C 
BRANCH  29  30
ATOM     30  N   UNL     1      -6.867  -7.896   1.662  1.00  0.00    -0.352 N 
ATOM     31  C   UNL     1      -7.317  -7.810   2.964  1.00  0.00     0.251 C 
ATOM     32  H   UNL     1      -6.209  -7.219   1.382  1.00  0.00     0.163 HD
ATOM     33  O   UNL     1      -6.956  -6.902   3.695  1.00  0.00    -0.269 OA
BRANCH  31  34
ATOM     34  C   UNL     1      -8.299  -8.816   3.420  1.00  0.00     0.039 A 
ATOM     35  C   UNL     1      -9.539  -8.381   3.889  1.00  0.00     0.014 A 
ATOM     36  C   UNL     1      -8.037 -10.177   3.244  1.00  0.00     0.014 A 
ATOM     37  C   UNL     1     -10.554  -9.315   4.098  1.00  0.00     0.010 A 
ATOM     38  C   UNL     1      -9.073 -11.092   3.370  1.00  0.00     0.010 A 
ATOM     39  C   UNL     1     -10.344 -10.670   3.791  1.00  0.00    -0.014 A 
BRANCH  39  40
ATOM     40  C   UNL     1     -11.440 -11.664   3.896  1.00  0.00     0.031 A 
ATOM     41  C   UNL     1     -11.325 -12.804   4.869  1.00  0.00     0.074 A 
ATOM     42  C   UNL     1     -12.498 -11.584   3.064  1.00  0.00     0.049 A 
ATOM     43  N   UNL     1     -12.141 -13.807   5.062  1.00  0.00    -0.248 NA
ATOM     44  C   UNL     1     -10.119 -12.838   5.713  1.00  0.00     0.031 C 
ATOM     45  C   UNL     1     -12.698 -10.560   2.034  1.00  0.00     0.029 A 
ATOM     46  N   UNL     1     -13.607 -12.385   2.952  1.00  0.00    -0.354 N 
ATOM     47  C   UNL     1     -11.538 -14.601   6.029  1.00  0.00     0.074 A 
ATOM     48  C   UNL     1     -10.264 -13.993   6.345  1.00  0.00     0.031 C 
ATOM     49  C   UNL     1     -13.874 -10.775   1.421  1.00  0.00     0.029 A 
ATOM     50  C   UNL     1     -14.496 -11.967   1.989  1.00  0.00     0.049 A 
ATOM     51  H   UNL     1     -13.753 -13.184   3.508  1.00  0.00     0.167 HD
ATOM     52  C   UNL     1     -12.011 -15.723   6.622  1.00  0.00     0.031 A 
ATOM     53  C   UNL     1     -15.682 -12.482   1.612  1.00  0.00     0.031 A 
ATOM     54  C   UNL     1     -13.289 -16.311   6.330  1.00  0.00     0.049 A 
ATOM     55  C   UNL     1     -16.202 -13.709   2.307  1.00  0.00     0.074 A 
ATOM     56  C   UNL     1     -13.884 -17.413   6.915  1.00  0.00     0.029 A 
ATOM     57  N   UNL     1     -14.173 -15.836   5.373  1.00  0.00    -0.354 N 
ATOM     58  N   UNL     1     -15.642 -14.414   3.262  1.00  0.00    -0.248 NA
ATOM     59  C   UNL     1     -17.520 -14.203   1.885  1.00  0.00     0.031 C 
ATOM     60  C   UNL     1     -15.120 -17.623   6.292  1.00  0.00     0.029 A 
ATOM     61  C   UNL     1     -15.308 -16.628   5.347  1.00  0.00     0.049 A 
ATOM     62  H   UNL     1     -14.017 -15.053   4.798  1.00  0.00     0.167 HD
ATOM     63  C   UNL     1     -16.550 -15.419   3.571  1.00  0.00     0.074 A 
ATOM     64  C   UNL     1     -17.700 -15.225   2.711  1.00  0.00     0.031 C 
ATOM     65  C   UNL     1     -16.442 -16.415   4.485  1.00  0.00     0.031 A 
BRANCH  52  66
ATOM     66  C   UNL     1     -11.133 -16.374   7.655  1.00  0.00    -0.014 A 
ATOM     67  C   UNL     1     -10.925 -15.770   8.909  1.00  0.00     0.010 A 
ATOM     68  C   UNL     1     -10.513 -17.605   7.376  1.00  0.00     0.010 A 
ATOM     69  C   UNL     1     -10.072 -16.358   9.845  1.00  0.00     0.020 A 
ATOM     70  C   UNL     1      -9.680 -18.210   8.321  1.00  0.00     0.020 A 
ATOM     71  C   UNL     1      -9.448 -17.572   9.541  1.00  0.00     0.054 A 
BRANCH  71  72
ATOM     72  S   UNL     1      -8.348 -18.318  10.775  1.00  0.00     0.124 S 
ATOM     73  O   UNL     1      -7.144 -17.502  10.635  1.00  0.00    -0.237 OA
ATOM     74  O   UNL     1      -9.088 -18.135  12.021  1.00  0.00    -0.237 OA
ATOM     75  O   UNL     1      -8.218 -19.703  10.329  1.00  0.00    -0.744 OA
ENDBRANCH  71  72
ENDBRANCH  52  66
BRANCH  53  76
ATOM     76  C   UNL     1     -16.479 -11.814   0.549  1.00  0.00    -0.014 A 
ATOM     77  C   UNL     1     -17.631 -11.080   0.885  1.00  0.00     0.010 A 
ATOM     78  C   UNL     1     -16.087 -11.894  -0.799  1.00  0.00     0.010 A 
ATOM     79  C   UNL     1     -18.386 -10.452  -0.109  1.00  0.00     0.020 A 
ATOM     80  C   UNL     1     -16.828 -11.249  -1.794  1.00  0.00     0.020 A 
ATOM     81  C   UNL     1     -17.980 -10.540  -1.443  1.00  0.00     0.054 A 
BRANCH  81  82
ATOM     82  S   UNL     1     -18.943  -9.672  -2.713  1.00  0.00     0.124 S 
ATOM     83  O   UNL     1     -20.095 -10.553  -2.875  1.00  0.00    -0.237 OA
ATOM     84  O   UNL     1     -19.216  -8.384  -2.079  1.00  0.00    -0.237 OA
ATOM     85  O   UNL     1     -18.030  -9.615  -3.852  1.00  0.00    -0.744 OA
ENDBRANCH  81  82
ENDBRANCH  53  76
BRANCH  65  86
ATOM     86  C   UNL     1     -17.610 -17.350   4.625  1.00  0.00    -0.014 A 
ATOM     87  C   UNL     1     -17.864 -18.342   3.662  1.00  0.00     0.010 A 
ATOM     88  C   UNL     1     -18.433 -17.267   5.763  1.00  0.00     0.010 A 
ATOM     89  C   UNL     1     -18.940 -19.219   3.822  1.00  0.00     0.020 A 
ATOM     90  C   UNL     1     -19.495 -18.156   5.937  1.00  0.00     0.020 A 
ATOM     91  C   UNL     1     -19.751 -19.118   4.957  1.00  0.00     0.054 A 
BRANCH  91  92
ATOM     92  S   UNL     1     -21.115 -20.295   5.167  1.00  0.00     0.124 S 
ATOM     93  O   UNL     1     -22.122 -19.756   4.258  1.00  0.00    -0.237 OA
ATOM     94  O   UNL     1     -20.514 -21.563   4.760  1.00  0.00    -0.237 OA
ATOM     95  O   UNL     1     -21.440 -20.196   6.588  1.00  0.00    -0.744 OA
ENDBRANCH  91  92
ENDBRANCH  65  86
ENDBRANCH  39  40
ENDBRANCH  31  34
ENDBRANCH  29  30
ENDBRANCH  28  29
ENDBRANCH   1  28
TORSDOF 17
