REMARK SMILES CC[C@@](CC(F)(F)F)(C(=O)NCCCCNC(=O)c1ccc(-c2c3nc(c(-c4ccc(S(=O)(=O)[O-])cc4)c4ccc([nH]4)c(-c4ccc(S(=O)(=O)[O-])cc4)c4nc(c(-c5ccc(S(=O)(=O)[O-])cc5)c5ccc2[nH]5)C=C4)C=C3)cc1)c1ccccc1
REMARK SMILES IDX 14 1 13 2 12 3 11 4 9 5 10 6 3 8 2 9 1 10 4 11 5 12 6 13
REMARK SMILES IDX 7 14 8 15 79 16 80 17 84 18 81 19 83 20 82 21 15 22 16 23
REMARK SMILES IDX 17 24 18 26 19 27 20 28 78 29 21 30 77 31 22 32 23 33 24 34
REMARK SMILES IDX 71 35 25 36 76 37 70 38 72 39 26 40 75 41 69 42 68 43 27 45
REMARK SMILES IDX 57 46 38 47 56 48 39 49 42 50 55 51 73 52 40 53 41 54 54 56
REMARK SMILES IDX 74 57 43 58 28 59 29 60 37 61 30 62 36 63 31 64 32 65 33 66
REMARK SMILES IDX 34 67 35 68 58 69 59 70 67 71 60 72 66 73 61 74 62 75 63 76
REMARK SMILES IDX 64 77 65 78 44 79 45 80 53 81 46 82 52 83 47 84 48 85 49 86
REMARK SMILES IDX 50 87 51 88
REMARK H PARENT 11 7 16 25 72 44 42 55
REMARK Flexibility Score: inf
ROOT
ATOM      1  C   UNL     1      -3.652   4.326  -0.943  1.00  0.00     0.023 C 
ENDROOT
BRANCH   1   2
ATOM      2  C   UNL     1      -2.858   3.080  -0.552  1.00  0.00     0.023 C 
BRANCH   2   3
ATOM      3  C   UNL     1      -2.094   2.417  -1.690  1.00  0.00     0.116 C 
BRANCH   3   4
ATOM      4  N   UNL     1      -0.927   3.165  -2.130  1.00  0.00    -0.355 N 
ATOM      5  C   UNL     1       0.345   2.791  -2.454  1.00  0.00     0.230 C 
ATOM      6  O   UNL     1       0.906   3.545  -3.259  1.00  0.00    -0.274 OA
ATOM      7  H   UNL     1      -1.087   4.133  -2.211  1.00  0.00     0.163 HD
BRANCH   5   8
ATOM      8  C   UNL     1       1.060   1.491  -1.928  1.00  0.00     0.082 C 
BRANCH   8   9
ATOM      9  C   UNL     1       0.688   1.191  -0.441  1.00  0.00     0.019 C 
ATOM     10  C   UNL     1       0.972  -0.214   0.078  1.00  0.00     0.005 C 
ENDBRANCH   8   9
BRANCH   8  11
ATOM     11  C   UNL     1       0.793   0.373  -2.985  1.00  0.00     0.137 C 
BRANCH  11  12
ATOM     12  C   UNL     1      -0.615   0.032  -3.398  1.00  0.00     0.390 C 
ATOM     13  F   UNL     1      -1.259   1.054  -3.983  1.00  0.00    -0.171 F 
ATOM     14  F   UNL     1      -0.585  -0.980  -4.300  1.00  0.00    -0.171 F 
ATOM     15  F   UNL     1      -1.345  -0.407  -2.353  1.00  0.00    -0.171 F 
ENDBRANCH  11  12
ENDBRANCH   8  11
BRANCH   8  16
ATOM     16  C   UNL     1       2.636   1.689  -1.872  1.00  0.00    -0.032 A 
ATOM     17  C   UNL     1       3.524   0.593  -1.970  1.00  0.00     0.005 A 
ATOM     18  C   UNL     1       3.216   2.948  -1.631  1.00  0.00     0.005 A 
ATOM     19  C   UNL     1       4.909   0.751  -1.871  1.00  0.00     0.000 A 
ATOM     20  C   UNL     1       4.606   3.109  -1.548  1.00  0.00     0.000 A 
ATOM     21  C   UNL     1       5.451   2.011  -1.668  1.00  0.00     0.000 A 
ENDBRANCH   8  16
ENDBRANCH   5   8
ENDBRANCH   3   4
ENDBRANCH   2   3
ENDBRANCH   1   2
BRANCH   1  22
ATOM     22  C   UNL     1      -4.558   4.187  -2.164  1.00  0.00     0.116 C 
BRANCH  22  23
ATOM     23  N   UNL     1      -5.477   3.059  -2.091  1.00  0.00    -0.352 N 
ATOM     24  C   UNL     1      -6.825   3.013  -2.367  1.00  0.00     0.251 C 
ATOM     25  H   UNL     1      -5.076   2.207  -1.803  1.00  0.00     0.163 HD
ATOM     26  O   UNL     1      -7.459   1.985  -2.179  1.00  0.00    -0.269 OA
BRANCH  24  27
ATOM     27  C   UNL     1      -7.508   4.235  -2.846  1.00  0.00     0.039 A 
ATOM     28  C   UNL     1      -8.652   4.668  -2.174  1.00  0.00     0.014 A 
ATOM     29  C   UNL     1      -6.984   4.978  -3.906  1.00  0.00     0.014 A 
ATOM     30  C   UNL     1      -9.215   5.904  -2.500  1.00  0.00     0.010 A 
ATOM     31  C   UNL     1      -7.506   6.239  -4.184  1.00  0.00     0.010 A 
ATOM     32  C   UNL     1      -8.613   6.723  -3.470  1.00  0.00    -0.014 A 
BRANCH  32  33
ATOM     33  C   UNL     1      -9.092   8.109  -3.708  1.00  0.00     0.031 A 
ATOM     34  C   UNL     1      -9.660   8.500  -5.044  1.00  0.00     0.074 A 
ATOM     35  C   UNL     1      -8.937   9.037  -2.741  1.00  0.00     0.049 A 
ATOM     36  N   UNL     1     -10.060   9.676  -5.454  1.00  0.00    -0.248 NA
ATOM     37  C   UNL     1      -9.770   7.440  -6.059  1.00  0.00     0.031 C 
ATOM     38  C   UNL     1      -8.349   8.796  -1.419  1.00  0.00     0.029 A 
ATOM     39  N   UNL     1      -9.249  10.373  -2.723  1.00  0.00    -0.354 N 
ATOM     40  C   UNL     1     -10.453   9.504  -6.775  1.00  0.00     0.074 A 
ATOM     41  C   UNL     1     -10.206   8.118  -7.112  1.00  0.00     0.031 C 
ATOM     42  C   UNL     1      -8.364   9.939  -0.715  1.00  0.00     0.029 A 
ATOM     43  C   UNL     1      -8.924  11.002  -1.543  1.00  0.00     0.049 A 
ATOM     44  H   UNL     1      -9.668  10.839  -3.483  1.00  0.00     0.167 HD
ATOM     45  C   UNL     1     -10.986  10.412  -7.626  1.00  0.00     0.031 A 
ATOM     46  C   UNL     1      -9.050  12.290  -1.171  1.00  0.00     0.031 A 
ATOM     47  C   UNL     1     -11.248  11.785  -7.284  1.00  0.00     0.049 A 
ATOM     48  C   UNL     1      -9.650  13.277  -2.135  1.00  0.00     0.074 A 
ATOM     49  C   UNL     1     -11.851  12.762  -8.057  1.00  0.00     0.029 A 
ATOM     50  N   UNL     1     -10.925  12.376  -6.073  1.00  0.00    -0.354 N 
ATOM     51  N   UNL     1     -10.086  13.074  -3.355  1.00  0.00    -0.248 NA
ATOM     52  C   UNL     1      -9.783  14.664  -1.668  1.00  0.00     0.031 C 
ATOM     53  C   UNL     1     -11.851  13.957  -7.330  1.00  0.00     0.029 A 
ATOM     54  C   UNL     1     -11.294  13.711  -6.086  1.00  0.00     0.049 A 
ATOM     55  H   UNL     1     -10.497  11.915  -5.316  1.00  0.00     0.167 HD
ATOM     56  C   UNL     1     -10.565  14.303  -3.793  1.00  0.00     0.074 A 
ATOM     57  C   UNL     1     -10.383  15.239  -2.702  1.00  0.00     0.031 C 
ATOM     58  C   UNL     1     -11.106  14.629  -4.992  1.00  0.00     0.031 A 
BRANCH  45  59
ATOM     59  C   UNL     1     -11.328   9.952  -9.018  1.00  0.00    -0.014 A 
ATOM     60  C   UNL     1     -12.429   9.108  -9.249  1.00  0.00     0.010 A 
ATOM     61  C   UNL     1     -10.580  10.420 -10.113  1.00  0.00     0.010 A 
ATOM     62  C   UNL     1     -12.760   8.720 -10.550  1.00  0.00     0.020 A 
ATOM     63  C   UNL     1     -10.922  10.053 -11.418  1.00  0.00     0.020 A 
ATOM     64  C   UNL     1     -12.004   9.194 -11.626  1.00  0.00     0.054 A 
BRANCH  64  65
ATOM     65  S   UNL     1     -12.485   8.710 -13.307  1.00  0.00     0.124 S 
ATOM     66  O   UNL     1     -12.048   7.317 -13.355  1.00  0.00    -0.237 OA
ATOM     67  O   UNL     1     -13.932   8.914 -13.298  1.00  0.00    -0.237 OA
ATOM     68  O   UNL     1     -11.735   9.628 -14.161  1.00  0.00    -0.744 OA
ENDBRANCH  64  65
ENDBRANCH  45  59
BRANCH  46  69
ATOM     69  C   UNL     1      -8.603  12.727   0.180  1.00  0.00    -0.014 A 
ATOM     70  C   UNL     1      -9.544  13.088   1.161  1.00  0.00     0.010 A 
ATOM     71  C   UNL     1      -7.233  12.792   0.489  1.00  0.00     0.010 A 
ATOM     72  C   UNL     1      -9.122  13.533   2.417  1.00  0.00     0.020 A 
ATOM     73  C   UNL     1      -6.808  13.211   1.753  1.00  0.00     0.020 A 
ATOM     74  C   UNL     1      -7.755  13.594   2.704  1.00  0.00     0.054 A 
BRANCH  74  75
ATOM     75  S   UNL     1      -7.228  14.142   4.352  1.00  0.00     0.124 S 
ATOM     76  O   UNL     1      -7.412  15.586   4.264  1.00  0.00    -0.237 OA
ATOM     77  O   UNL     1      -8.155  13.437   5.234  1.00  0.00    -0.237 OA
ATOM     78  O   UNL     1      -5.840  13.689   4.432  1.00  0.00    -0.744 OA
ENDBRANCH  74  75
ENDBRANCH  46  69
BRANCH  58  79
ATOM     79  C   UNL     1     -11.566  16.049  -5.180  1.00  0.00    -0.014 A 
ATOM     80  C   UNL     1     -10.641  17.094  -5.351  1.00  0.00     0.010 A 
ATOM     81  C   UNL     1     -12.942  16.332  -5.236  1.00  0.00     0.010 A 
ATOM     82  C   UNL     1     -11.086  18.404  -5.544  1.00  0.00     0.020 A 
ATOM     83  C   UNL     1     -13.391  17.637  -5.454  1.00  0.00     0.020 A 
ATOM     84  C   UNL     1     -12.459  18.668  -5.593  1.00  0.00     0.054 A 
BRANCH  84  85
ATOM     85  S   UNL     1     -13.013  20.369  -5.887  1.00  0.00     0.124 S 
ATOM     86  O   UNL     1     -12.781  20.993  -4.588  1.00  0.00    -0.237 OA
ATOM     87  O   UNL     1     -12.132  20.814  -6.965  1.00  0.00    -0.237 OA
ATOM     88  O   UNL     1     -14.417  20.216  -6.263  1.00  0.00    -0.744 OA
ENDBRANCH  84  85
ENDBRANCH  58  79
ENDBRANCH  32  33
ENDBRANCH  24  27
ENDBRANCH  22  23
ENDBRANCH   1  22
TORSDOF 18
