REMARK SMILES Cc1ccc(C#N)cc1S(=O)(=O)Nc1cccc(C(=O)NCCCCNC(=O)c2ccc(-c3c4nc(c(-c5ccc(S(=O)(=O)[O-])cc5)c5ccc([nH]5)c(-c5ccc(S(=O)(=O)[O-])cc5)c5nc(c(-c6ccc(S(=O)(=O)[O-])cc6)c6ccc3[nH]6)C=C5)C=C4)cc2)c1
REMARK SMILES IDX 23 1 22 2 21 3 19 4 20 5 18 7 14 8 15 9 89 10 16 11 17 12
REMARK SMILES IDX 13 13 10 15 11 16 12 17 9 18 1 19 2 20 3 21 4 22 8 23 5 24
REMARK SMILES IDX 6 25 7 26 24 27 25 28 26 29 27 30 28 32 29 33 30 34 88 35
REMARK SMILES IDX 31 36 87 37 32 38 33 39 34 40 81 41 35 42 86 43 80 44 82 45
REMARK SMILES IDX 36 46 85 47 79 48 78 49 37 51 67 52 48 53 66 54 49 55 52 56
REMARK SMILES IDX 65 57 83 58 50 59 51 60 64 62 84 63 53 64 38 65 39 66 47 67
REMARK SMILES IDX 40 68 46 69 41 70 42 71 43 72 44 73 45 74 68 75 69 76 77 77
REMARK SMILES IDX 70 78 76 79 71 80 72 81 73 82 74 83 75 84 54 85 55 86 63 87
REMARK SMILES IDX 56 88 62 89 57 90 58 91 59 92 60 93 61 94
REMARK H PARENT 21 6 13 14 26 31 82 50 52 61
REMARK Flexibility Score: inf
ROOT
ATOM      1  C   UNL     1      -0.840   3.531   3.680  1.00  0.00     0.023 C 
ENDROOT
BRANCH   1   2
ATOM      2  C   UNL     1      -0.061   3.686   2.380  1.00  0.00     0.116 C 
BRANCH   2   3
ATOM      3  N   UNL     1       1.385   3.628   2.495  1.00  0.00    -0.352 N 
ATOM      4  C   UNL     1       2.362   3.183   1.629  1.00  0.00     0.251 C 
ATOM      5  O   UNL     1       3.534   3.329   1.980  1.00  0.00    -0.269 OA
ATOM      6  H   UNL     1       1.732   3.969   3.351  1.00  0.00     0.163 HD
BRANCH   4   7
ATOM      7  C   UNL     1       2.086   2.441   0.353  1.00  0.00     0.041 A 
ATOM      8  C   UNL     1       0.574   1.367  -1.206  1.00  0.00     0.050 A 
ATOM      9  C   UNL     1       1.599   0.566  -1.691  1.00  0.00     0.027 A 
ATOM     10  C   UNL     1       0.849   2.396  -0.296  1.00  0.00     0.040 A 
ATOM     11  C   UNL     1       2.885   0.721  -1.187  1.00  0.00     0.003 A 
ATOM     12  C   UNL     1       3.117   1.618  -0.139  1.00  0.00     0.014 A 
BRANCH   8  13
ATOM     13  N   UNL     1      -0.773   1.055  -1.573  1.00  0.00    -0.280 N 
ATOM     14  H   UNL     1      -1.205   1.560  -2.299  1.00  0.00     0.180 HD
BRANCH  13  15
ATOM     15  S   UNL     1      -1.653  -0.184  -0.773  1.00  0.00     0.262 S 
ATOM     16  O   UNL     1      -2.615  -0.612  -1.773  1.00  0.00    -0.201 OA
ATOM     17  O   UNL     1      -2.125   0.377   0.475  1.00  0.00    -0.201 OA
BRANCH  15  18
ATOM     18  C   UNL     1      -0.666  -1.632  -0.368  1.00  0.00     0.092 A 
ATOM     19  C   UNL     1       0.707  -0.552   1.523  1.00  0.00     0.046 C 
ATOM     20  C   UNL     1       0.413  -1.641   0.534  1.00  0.00    -0.030 A 
ATOM     21  C   UNL     1       1.145  -2.834   0.712  1.00  0.00     0.006 A 
ATOM     22  C   UNL     1       0.697  -4.042   0.184  1.00  0.00     0.020 A 
ATOM     23  C   UNL     1      -1.151  -2.874  -0.838  1.00  0.00     0.042 A 
ATOM     24  C   UNL     1      -0.502  -4.076  -0.521  1.00  0.00     0.053 A 
BRANCH  24  25
ATOM     25  C   UNL     1      -1.093  -5.341  -0.841  1.00  0.00     0.099 C 
ATOM     26  N   UNL     1      -1.570  -6.382  -1.055  1.00  0.00    -0.192 NA
ENDBRANCH  24  25
ENDBRANCH  15  18
ENDBRANCH  13  15
ENDBRANCH   8  13
ENDBRANCH   4   7
ENDBRANCH   2   3
ENDBRANCH   1   2
BRANCH   1  27
ATOM     27  C   UNL     1      -0.635   4.597   4.744  1.00  0.00     0.023 C 
BRANCH  27  28
ATOM     28  C   UNL     1      -0.797   6.037   4.284  1.00  0.00     0.116 C 
BRANCH  28  29
ATOM     29  N   UNL     1      -2.115   6.351   3.740  1.00  0.00    -0.352 N 
ATOM     30  C   UNL     1      -2.984   7.369   4.077  1.00  0.00     0.251 C 
ATOM     31  H   UNL     1      -2.429   5.748   3.028  1.00  0.00     0.163 HD
ATOM     32  O   UNL     1      -4.097   7.425   3.563  1.00  0.00    -0.269 OA
BRANCH  30  33
ATOM     33  C   UNL     1      -2.583   8.359   5.102  1.00  0.00     0.039 A 
ATOM     34  C   UNL     1      -1.295   8.887   5.094  1.00  0.00     0.014 A 
ATOM     35  C   UNL     1      -3.466   8.685   6.135  1.00  0.00     0.014 A 
ATOM     36  C   UNL     1      -0.807   9.502   6.238  1.00  0.00     0.010 A 
ATOM     37  C   UNL     1      -3.008   9.435   7.225  1.00  0.00     0.010 A 
ATOM     38  C   UNL     1      -1.651   9.778   7.327  1.00  0.00    -0.014 A 
BRANCH  38  39
ATOM     39  C   UNL     1      -1.071  10.405   8.548  1.00  0.00     0.031 A 
ATOM     40  C   UNL     1      -1.132   9.714   9.888  1.00  0.00     0.074 A 
ATOM     41  C   UNL     1      -0.409  11.574   8.432  1.00  0.00     0.049 A 
ATOM     42  N   UNL     1      -0.590  10.079  11.023  1.00  0.00    -0.248 NA
ATOM     43  C   UNL     1      -1.902   8.462   9.977  1.00  0.00     0.031 C 
ATOM     44  C   UNL     1      -0.272  12.334   7.187  1.00  0.00     0.029 A 
ATOM     45  N   UNL     1       0.308  12.305   9.346  1.00  0.00    -0.354 N 
ATOM     46  C   UNL     1      -0.977   9.127  11.960  1.00  0.00     0.074 A 
ATOM     47  C   UNL     1      -1.829   8.184  11.272  1.00  0.00     0.031 C 
ATOM     48  C   UNL     1       0.549  13.371   7.394  1.00  0.00     0.029 A 
ATOM     49  C   UNL     1       0.922  13.411   8.805  1.00  0.00     0.049 A 
ATOM     50  H   UNL     1       0.376  12.062  10.298  1.00  0.00     0.167 HD
ATOM     51  C   UNL     1      -0.643   9.041  13.270  1.00  0.00     0.031 A 
ATOM     52  C   UNL     1       1.693  14.365   9.366  1.00  0.00     0.031 A 
ATOM     53  C   UNL     1       0.229   9.976  13.939  1.00  0.00     0.049 A 
ATOM     54  C   UNL     1       2.038  14.261  10.821  1.00  0.00     0.074 A 
ATOM     55  C   UNL     1       0.674   9.937  15.249  1.00  0.00     0.029 A 
ATOM     56  N   UNL     1       0.781  11.114  13.366  1.00  0.00    -0.354 N 
ATOM     57  N   UNL     1       1.704  13.324  11.677  1.00  0.00    -0.248 NA
ATOM     58  C   UNL     1       2.872  15.327  11.388  1.00  0.00     0.031 C 
ATOM     59  C   UNL     1       1.400  11.102  15.498  1.00  0.00     0.029 A 
ATOM     60  C   UNL     1       1.516  11.811  14.312  1.00  0.00     0.049 A 
ATOM     61  H   UNL     1       0.666  11.386  12.427  1.00  0.00     0.167 HD
ATOM     62  C   UNL     1       2.304  13.677  12.880  1.00  0.00     0.074 A 
ATOM     63  C   UNL     1       3.038  14.902  12.634  1.00  0.00     0.031 C 
ATOM     64  C   UNL     1       2.246  13.037  14.074  1.00  0.00     0.031 A 
BRANCH  51  65
ATOM     65  C   UNL     1      -1.227   7.916  14.097  1.00  0.00    -0.014 A 
ATOM     66  C   UNL     1      -2.049   8.226  15.199  1.00  0.00     0.010 A 
ATOM     67  C   UNL     1      -0.880   6.572  13.871  1.00  0.00     0.010 A 
ATOM     68  C   UNL     1      -2.479   7.226  16.076  1.00  0.00     0.020 A 
ATOM     69  C   UNL     1      -1.344   5.562  14.722  1.00  0.00     0.020 A 
ATOM     70  C   UNL     1      -2.118   5.899  15.834  1.00  0.00     0.054 A 
BRANCH  70  71
ATOM     71  S   UNL     1      -2.664   4.622  17.000  1.00  0.00     0.124 S 
ATOM     72  O   UNL     1      -1.834   4.895  18.169  1.00  0.00    -0.237 OA
ATOM     73  O   UNL     1      -4.087   4.917  17.152  1.00  0.00    -0.237 OA
ATOM     74  O   UNL     1      -2.368   3.372  16.302  1.00  0.00    -0.744 OA
ENDBRANCH  70  71
ENDBRANCH  51  65
BRANCH  52  75
ATOM     75  C   UNL     1       2.208  15.461   8.495  1.00  0.00    -0.014 A 
ATOM     76  C   UNL     1       1.308  16.351   7.876  1.00  0.00     0.010 A 
ATOM     77  C   UNL     1       3.569  15.516   8.148  1.00  0.00     0.010 A 
ATOM     78  C   UNL     1       1.737  17.194   6.849  1.00  0.00     0.020 A 
ATOM     79  C   UNL     1       4.010  16.390   7.148  1.00  0.00     0.020 A 
ATOM     80  C   UNL     1       3.082  17.188   6.474  1.00  0.00     0.054 A 
BRANCH  80  81
ATOM     81  S   UNL     1       3.582  18.177   5.038  1.00  0.00     0.124 S 
ATOM     82  O   UNL     1       2.948  17.451   3.941  1.00  0.00    -0.237 OA
ATOM     83  O   UNL     1       3.010  19.486   5.341  1.00  0.00    -0.237 OA
ATOM     84  O   UNL     1       5.041  18.113   5.067  1.00  0.00    -0.744 OA
ENDBRANCH  80  81
ENDBRANCH  52  75
BRANCH  64  85
ATOM     85  C   UNL     1       3.001  13.626  15.243  1.00  0.00    -0.014 A 
ATOM     86  C   UNL     1       4.028  12.879  15.853  1.00  0.00     0.010 A 
ATOM     87  C   UNL     1       2.612  14.845  15.825  1.00  0.00     0.010 A 
ATOM     88  C   UNL     1       4.614  13.310  17.045  1.00  0.00     0.020 A 
ATOM     89  C   UNL     1       3.228  15.304  16.995  1.00  0.00     0.020 A 
ATOM     90  C   UNL     1       4.203  14.518  17.613  1.00  0.00     0.054 A 
BRANCH  90  91
ATOM     91  S   UNL     1       4.948  15.038  19.183  1.00  0.00     0.124 S 
ATOM     92  O   UNL     1       4.353  14.101  20.132  1.00  0.00    -0.237 OA
ATOM     93  O   UNL     1       6.376  14.859  18.933  1.00  0.00    -0.237 OA
ATOM     94  O   UNL     1       4.517  16.427  19.325  1.00  0.00    -0.744 OA
ENDBRANCH  90  91
ENDBRANCH  64  85
ENDBRANCH  38  39
ENDBRANCH  30  33
ENDBRANCH  28  29
ENDBRANCH  27  28
ENDBRANCH   1  27
TORSDOF 18
