REMARK SMILES CCn1cnc(S(=O)(=O)N[C@H](Cc2cnc[nH]2)C(=O)NCCCCNC(=O)c2ccc(-c3c4nc(c(-c5ccc(S(=O)(=O)[O-])cc5)c5ccc([nH]5)c(-c5ccc(S(=O)(=O)[O-])cc5)c5nc(c(-c6ccc(S(=O)(=O)[O-])cc6)c6ccc3[nH]6)C=C5)C=C4)cc2)c1
REMARK SMILES IDX 22 1 21 2 20 3 18 4 19 5 11 7 10 8 7 10 8 11 9 12 6 13 3 14
REMARK SMILES IDX 4 15 88 16 5 17 2 18 1 19 12 20 13 21 14 22 17 23 15 24
REMARK SMILES IDX 16 25 23 27 24 28 25 29 26 30 27 32 28 33 29 34 87 35 30 36
REMARK SMILES IDX 86 37 31 38 32 39 33 40 80 41 34 42 85 43 79 44 81 45 35 46
REMARK SMILES IDX 84 47 78 48 77 49 36 51 66 52 47 53 65 54 48 55 51 56 64 57
REMARK SMILES IDX 82 58 49 59 50 60 63 62 83 63 52 64 37 65 38 66 46 67 39 68
REMARK SMILES IDX 45 69 40 70 41 71 42 72 43 73 44 74 67 75 68 76 76 77 69 78
REMARK SMILES IDX 75 79 70 80 71 81 72 82 73 83 74 84 53 85 54 86 62 87 55 88
REMARK SMILES IDX 61 89 56 90 57 91 58 92 59 93 60 94
REMARK H PARENT 20 6 10 9 17 26 25 31 81 50 51 61
REMARK Flexibility Score: inf
ROOT
ATOM      1  C   UNL     1       2.792  -7.053   7.420  1.00  0.00     0.023 C 
ENDROOT
BRANCH   1   2
ATOM      2  C   UNL     1       3.751  -6.468   6.388  1.00  0.00     0.116 C 
BRANCH   2   3
ATOM      3  N   UNL     1       3.280  -6.707   5.041  1.00  0.00    -0.355 N 
ATOM      4  C   UNL     1       3.056  -5.834   4.028  1.00  0.00     0.238 C 
ATOM      5  O   UNL     1       2.548  -6.266   2.988  1.00  0.00    -0.273 OA
ATOM      6  H   UNL     1       3.092  -7.650   4.827  1.00  0.00     0.163 HD
BRANCH   4   7
ATOM      7  C   UNL     1       3.377  -4.350   4.158  1.00  0.00     0.165 C 
BRANCH   7   8
ATOM      8  N   UNL     1       4.773  -3.934   4.459  1.00  0.00    -0.197 NA
ATOM      9  H   UNL     1       4.870  -2.982   4.107  1.00  0.00     0.142 HD
BRANCH   8  10
ATOM     10  S   UNL     1       6.105  -4.795   3.873  1.00  0.00     0.260 S 
ATOM     11  O   UNL     1       6.437  -5.723   4.934  1.00  0.00    -0.205 OA
ATOM     12  O   UNL     1       7.049  -3.793   3.430  1.00  0.00    -0.205 OA
BRANCH  10  13
ATOM     13  C   UNL     1       5.782  -5.756   2.466  1.00  0.00     0.188 A 
ATOM     14  N   UNL     1       5.076  -6.472   0.527  1.00  0.00    -0.336 N 
ATOM     15  C   UNL     1       5.757  -7.466   1.168  1.00  0.00     0.201 A 
ATOM     16  C   UNL     1       5.123  -5.354   1.320  1.00  0.00     0.129 A 
ATOM     17  N   UNL     1       6.179  -7.077   2.348  1.00  0.00    -0.224 NA
BRANCH  14  18
ATOM     18  C   UNL     1       4.427  -6.548  -0.767  1.00  0.00     0.120 C 
ATOM     19  C   UNL     1       3.910  -7.926  -1.153  1.00  0.00     0.027 C 
ENDBRANCH  14  18
ENDBRANCH  10  13
ENDBRANCH   8  10
ENDBRANCH   7   8
BRANCH   7  20
ATOM     20  C   UNL     1       2.330  -3.642   5.067  1.00  0.00     0.085 C 
BRANCH  20  21
ATOM     21  C   UNL     1       2.874  -2.860   6.223  1.00  0.00     0.037 A 
ATOM     22  C   UNL     1       2.788  -3.042   7.588  1.00  0.00     0.134 A 
ATOM     23  N   UNL     1       3.632  -1.720   6.077  1.00  0.00    -0.348 N 
ATOM     24  N   UNL     1       3.525  -2.099   8.253  1.00  0.00    -0.245 NA
ATOM     25  C   UNL     1       4.034  -1.329   7.321  1.00  0.00     0.196 A 
ATOM     26  H   UNL     1       3.846  -1.269   5.228  1.00  0.00     0.167 HD
ENDBRANCH  20  21
ENDBRANCH   7  20
ENDBRANCH   4   7
ENDBRANCH   2   3
ENDBRANCH   1   2
BRANCH   1  27
ATOM     27  C   UNL     1       2.774  -8.582   7.460  1.00  0.00     0.023 C 
BRANCH  27  28
ATOM     28  C   UNL     1       4.143  -9.240   7.612  1.00  0.00     0.116 C 
BRANCH  28  29
ATOM     29  N   UNL     1       4.877  -8.758   8.772  1.00  0.00    -0.352 N 
ATOM     30  C   UNL     1       5.601  -9.484   9.686  1.00  0.00     0.251 C 
ATOM     31  H   UNL     1       4.852  -7.785   8.922  1.00  0.00     0.163 HD
ATOM     32  O   UNL     1       6.062  -8.947  10.688  1.00  0.00    -0.269 OA
BRANCH  30  33
ATOM     33  C   UNL     1       5.780 -10.931   9.462  1.00  0.00     0.039 A 
ATOM     34  C   UNL     1       5.424 -11.820  10.478  1.00  0.00     0.014 A 
ATOM     35  C   UNL     1       6.237 -11.402   8.228  1.00  0.00     0.014 A 
ATOM     36  C   UNL     1       5.458 -13.192  10.229  1.00  0.00     0.010 A 
ATOM     37  C   UNL     1       6.207 -12.766   7.962  1.00  0.00     0.010 A 
ATOM     38  C   UNL     1       5.812 -13.673   8.957  1.00  0.00    -0.014 A 
BRANCH  38  39
ATOM     39  C   UNL     1       5.762 -15.122   8.645  1.00  0.00     0.031 A 
ATOM     40  C   UNL     1       7.026 -15.865   8.315  1.00  0.00     0.074 A 
ATOM     41  C   UNL     1       4.571 -15.750   8.590  1.00  0.00     0.049 A 
ATOM     42  N   UNL     1       7.177 -17.115   7.959  1.00  0.00    -0.248 NA
ATOM     43  C   UNL     1       8.281 -15.098   8.368  1.00  0.00     0.031 C 
ATOM     44  C   UNL     1       3.269 -15.126   8.843  1.00  0.00     0.029 A 
ATOM     45  N   UNL     1       4.260 -17.054   8.295  1.00  0.00    -0.354 N 
ATOM     46  C   UNL     1       8.537 -17.279   7.728  1.00  0.00     0.074 A 
ATOM     47  C   UNL     1       9.162 -15.991   7.940  1.00  0.00     0.031 C 
ATOM     48  C   UNL     1       2.305 -16.052   8.716  1.00  0.00     0.029 A 
ATOM     49  C   UNL     1       2.912 -17.324   8.340  1.00  0.00     0.049 A 
ATOM     50  H   UNL     1       4.938 -17.732   8.073  1.00  0.00     0.167 HD
ATOM     51  C   UNL     1       9.209 -18.404   7.388  1.00  0.00     0.031 A 
ATOM     52  C   UNL     1       2.240 -18.466   8.100  1.00  0.00     0.031 A 
ATOM     53  C   UNL     1       8.588 -19.686   7.192  1.00  0.00     0.049 A 
ATOM     54  C   UNL     1       3.009 -19.705   7.732  1.00  0.00     0.074 A 
ATOM     55  C   UNL     1       9.188 -20.899   6.903  1.00  0.00     0.029 A 
ATOM     56  N   UNL     1       7.223 -19.923   7.267  1.00  0.00    -0.354 N 
ATOM     57  N   UNL     1       4.303 -19.855   7.580  1.00  0.00    -0.248 NA
ATOM     58  C   UNL     1       2.228 -20.930   7.514  1.00  0.00     0.031 C 
ATOM     59  C   UNL     1       8.183 -21.861   6.762  1.00  0.00     0.029 A 
ATOM     60  C   UNL     1       6.960 -21.258   7.012  1.00  0.00     0.049 A 
ATOM     61  H   UNL     1       6.542 -19.242   7.472  1.00  0.00     0.167 HD
ATOM     62  C   UNL     1       4.494 -21.197   7.272  1.00  0.00     0.074 A 
ATOM     63  C   UNL     1       3.185 -21.817   7.272  1.00  0.00     0.031 C 
ATOM     64  C   UNL     1       5.650 -21.857   7.015  1.00  0.00     0.031 A 
BRANCH  51  65
ATOM     65  C   UNL     1      10.699 -18.291   7.204  1.00  0.00    -0.014 A 
ATOM     66  C   UNL     1      11.552 -18.095   8.306  1.00  0.00     0.010 A 
ATOM     67  C   UNL     1      11.257 -18.410   5.919  1.00  0.00     0.010 A 
ATOM     68  C   UNL     1      12.931 -17.976   8.120  1.00  0.00     0.020 A 
ATOM     69  C   UNL     1      12.639 -18.319   5.732  1.00  0.00     0.020 A 
ATOM     70  C   UNL     1      13.466 -18.084   6.833  1.00  0.00     0.054 A 
BRANCH  70  71
ATOM     71  S   UNL     1      15.262 -17.945   6.622  1.00  0.00     0.124 S 
ATOM     72  O   UNL     1      15.473 -16.509   6.778  1.00  0.00    -0.237 OA
ATOM     73  O   UNL     1      15.779 -18.777   7.705  1.00  0.00    -0.237 OA
ATOM     74  O   UNL     1      15.494 -18.466   5.277  1.00  0.00    -0.744 OA
ENDBRANCH  70  71
ENDBRANCH  51  65
BRANCH  52  75
ATOM     75  C   UNL     1       0.758 -18.495   8.223  1.00  0.00    -0.014 A 
ATOM     76  C   UNL     1       0.146 -19.148   9.307  1.00  0.00     0.010 A 
ATOM     77  C   UNL     1      -0.049 -17.855   7.265  1.00  0.00     0.010 A 
ATOM     78  C   UNL     1      -1.246 -19.175   9.423  1.00  0.00     0.020 A 
ATOM     79  C   UNL     1      -1.441 -17.859   7.391  1.00  0.00     0.020 A 
ATOM     80  C   UNL     1      -2.032 -18.529   8.464  1.00  0.00     0.054 A 
BRANCH  80  81
ATOM     81  S   UNL     1      -3.836 -18.528   8.663  1.00  0.00     0.124 S 
ATOM     82  O   UNL     1      -4.187 -19.883   8.251  1.00  0.00    -0.237 OA
ATOM     83  O   UNL     1      -3.998 -18.235  10.085  1.00  0.00    -0.237 OA
ATOM     84  O   UNL     1      -4.276 -17.464   7.763  1.00  0.00    -0.744 OA
ENDBRANCH  80  81
ENDBRANCH  52  75
BRANCH  64  85
ATOM     85  C   UNL     1       5.556 -23.333   6.740  1.00  0.00    -0.014 A 
ATOM     86  C   UNL     1       5.061 -23.814   5.516  1.00  0.00     0.010 A 
ATOM     87  C   UNL     1       6.022 -24.249   7.701  1.00  0.00     0.010 A 
ATOM     88  C   UNL     1       5.007 -25.188   5.268  1.00  0.00     0.020 A 
ATOM     89  C   UNL     1       5.993 -25.622   7.447  1.00  0.00     0.020 A 
ATOM     90  C   UNL     1       5.473 -26.083   6.236  1.00  0.00     0.054 A 
BRANCH  90  91
ATOM     91  S   UNL     1       5.436 -27.860   5.873  1.00  0.00     0.124 S 
ATOM     92  O   UNL     1       4.021 -28.176   6.046  1.00  0.00    -0.237 OA
ATOM     93  O   UNL     1       5.931 -27.920   4.500  1.00  0.00    -0.237 OA
ATOM     94  O   UNL     1       6.330 -28.436   6.876  1.00  0.00    -0.744 OA
ENDBRANCH  90  91
ENDBRANCH  64  85
ENDBRANCH  38  39
ENDBRANCH  30  33
ENDBRANCH  28  29
ENDBRANCH  27  28
ENDBRANCH   1  27
TORSDOF 20
