REMARK SMILES Cc1ccccc1[C@@H]1[NH2+][C@@H](C(=O)NCCCCNC(=O)c2ccc(-c3c4nc(c(-c5ccc(S(=O)(=O)[O-])cc5)c5ccc([nH]5)c(-c5ccc(S(=O)(=O)[O-])cc5)c5nc(c(-c6ccc(S(=O)(=O)[O-])cc6)c6ccc3[nH]6)C=C5)C=C4)cc2)CC2=c3ccccc3=N[C@H]21
REMARK SMILES IDX 16 1 15 2 14 3 13 4 11 5 12 6 10 8 8 9 9 10 90 11 82 14
REMARK SMILES IDX 89 15 81 16 83 17 88 18 84 19 87 20 85 21 86 22 7 23 1 24
REMARK SMILES IDX 2 25 3 26 4 27 6 28 5 29 17 30 18 31 19 32 20 34 21 35 22 36
REMARK SMILES IDX 80 37 23 38 79 39 24 40 25 41 26 42 73 43 27 44 78 45 72 46
REMARK SMILES IDX 74 47 28 48 77 49 71 50 70 51 29 53 59 54 40 55 58 56 41 57
REMARK SMILES IDX 44 58 57 59 75 60 42 61 43 62 56 64 76 65 45 66 30 67 31 68
REMARK SMILES IDX 39 69 32 70 38 71 33 72 34 73 35 74 36 75 37 76 60 77 61 78
REMARK SMILES IDX 69 79 62 80 68 81 63 82 64 83 65 84 66 85 67 86 46 87 47 88
REMARK SMILES IDX 55 89 48 90 54 91 49 92 50 93 51 94 52 95 53 96
REMARK H PARENT 13 7 9 12 9 13 18 33 74 52 44 63
REMARK Flexibility Score: inf
ROOT
ATOM      1  C   UNL     1      -3.094   8.910   0.103  1.00  0.00     0.023 C 
ENDROOT
BRANCH   1   2
ATOM      2  C   UNL     1      -2.490   7.369   0.066  1.00  0.00     0.023 C 
BRANCH   2   3
ATOM      3  C   UNL     1      -3.220   5.968  -0.125  1.00  0.00     0.116 C 
BRANCH   3   4
ATOM      4  N   UNL     1      -2.857   5.077  -1.235  1.00  0.00    -0.351 N 
ATOM      5  C   UNL     1      -2.141   3.907  -1.165  1.00  0.00     0.278 C 
ATOM      6  O   UNL     1      -2.547   2.903  -1.759  1.00  0.00    -0.268 OA
ATOM      7  H   UNL     1      -3.161   5.350  -2.131  1.00  0.00     0.163 HD
BRANCH   5   8
ATOM      8  C   UNL     1      -0.744   3.944  -0.501  1.00  0.00     0.277 C 
ATOM      9  C   UNL     1       0.838   2.145   0.413  1.00  0.00     0.243 C 
ATOM     10  N   UNL     1      -0.045   2.632  -0.681  1.00  0.00    -0.327 N 
ATOM     11  C   UNL     1       0.796   2.824   1.823  1.00  0.00     0.196 C 
ATOM     12  H   UNL     1      -0.765   1.924  -0.825  1.00  0.00     0.347 HD
ATOM     13  H   UNL     1       0.589   2.791  -1.464  1.00  0.00     0.347 HD
ATOM     14  C   UNL     1      -0.504   3.511   1.936  1.00  0.00    -0.024 C 
ATOM     15  N   UNL     1       0.799   1.854   2.961  1.00  0.00    -0.270 NA
ATOM     16  C   UNL     1      -0.725   4.529   0.907  1.00  0.00     0.109 C 
ATOM     17  C   UNL     1      -1.278   3.007   2.883  1.00  0.00     0.002 A 
ATOM     18  C   UNL     1      -0.366   2.041   3.510  1.00  0.00     0.066 A 
ATOM     19  C   UNL     1      -2.632   3.167   3.298  1.00  0.00     0.010 A 
ATOM     20  C   UNL     1      -0.873   1.387   4.734  1.00  0.00     0.028 A 
ATOM     21  C   UNL     1      -3.053   2.467   4.365  1.00  0.00     0.001 A 
ATOM     22  C   UNL     1      -2.142   1.616   5.115  1.00  0.00     0.002 A 
BRANCH   9  23
ATOM     23  C   UNL     1       2.293   2.014  -0.047  1.00  0.00     0.015 A 
ATOM     24  C   UNL     1       2.763   4.545  -0.294  1.00  0.00     0.045 C 
ATOM     25  C   UNL     1       3.174   3.099  -0.268  1.00  0.00    -0.042 A 
ATOM     26  C   UNL     1       4.548   2.841  -0.416  1.00  0.00     0.004 A 
ATOM     27  C   UNL     1       5.043   1.540  -0.427  1.00  0.00     0.000 A 
ATOM     28  C   UNL     1       2.806   0.704  -0.140  1.00  0.00     0.010 A 
ATOM     29  C   UNL     1       4.166   0.469  -0.325  1.00  0.00     0.001 A 
ENDBRANCH   9  23
ENDBRANCH   5   8
ENDBRANCH   3   4
ENDBRANCH   2   3
ENDBRANCH   1   2
BRANCH   1  30
ATOM     30  C   UNL     1      -4.008   9.457   1.313  1.00  0.00     0.116 C 
BRANCH  30  31
ATOM     31  N   UNL     1      -4.814  10.833   1.338  1.00  0.00    -0.352 N 
ATOM     32  C   UNL     1      -6.147  11.401   1.505  1.00  0.00     0.251 C 
ATOM     33  H   UNL     1      -4.178  11.569   1.185  1.00  0.00     0.163 HD
ATOM     34  O   UNL     1      -6.154  12.390   2.265  1.00  0.00    -0.269 OA
BRANCH  32  35
ATOM     35  C   UNL     1      -7.592  11.050   0.969  1.00  0.00     0.039 A 
ATOM     36  C   UNL     1      -8.683  10.852   1.852  1.00  0.00     0.014 A 
ATOM     37  C   UNL     1      -7.944  10.851  -0.360  1.00  0.00     0.014 A 
ATOM     38  C   UNL     1      -9.708   9.895   1.532  1.00  0.00     0.010 A 
ATOM     39  C   UNL     1      -8.946   9.891  -0.687  1.00  0.00     0.010 A 
ATOM     40  C   UNL     1      -9.700   9.239   0.298  1.00  0.00    -0.014 A 
BRANCH  40  41
ATOM     41  C   UNL     1     -10.326   7.885   0.045  1.00  0.00     0.031 A 
ATOM     42  C   UNL     1     -11.555   7.746  -0.726  1.00  0.00     0.074 A 
ATOM     43  C   UNL     1      -9.828   6.654   0.362  1.00  0.00     0.049 A 
ATOM     44  N   UNL     1     -12.584   7.061  -0.343  1.00  0.00    -0.248 NA
ATOM     45  C   UNL     1     -11.649   8.293  -2.066  1.00  0.00     0.031 C 
ATOM     46  C   UNL     1     -10.270   5.274   0.077  1.00  0.00     0.029 A 
ATOM     47  N   UNL     1      -8.670   6.386   1.049  1.00  0.00    -0.354 N 
ATOM     48  C   UNL     1     -13.305   6.807  -1.488  1.00  0.00     0.074 A 
ATOM     49  C   UNL     1     -12.786   7.730  -2.480  1.00  0.00     0.031 C 
ATOM     50  C   UNL     1      -9.616   4.409   0.888  1.00  0.00     0.029 A 
ATOM     51  C   UNL     1      -8.749   5.185   1.749  1.00  0.00     0.049 A 
ATOM     52  H   UNL     1      -7.879   6.972   1.046  1.00  0.00     0.167 HD
ATOM     53  C   UNL     1     -14.090   5.694  -1.602  1.00  0.00     0.031 A 
ATOM     54  C   UNL     1      -8.674   5.229   3.115  1.00  0.00     0.031 A 
ATOM     55  C   UNL     1     -13.880   4.743  -0.496  1.00  0.00     0.049 A 
ATOM     56  C   UNL     1     -10.034   4.975   3.708  1.00  0.00     0.074 A 
ATOM     57  C   UNL     1     -13.270   3.497  -0.444  1.00  0.00     0.029 A 
ATOM     58  N   UNL     1     -14.028   5.148   0.829  1.00  0.00    -0.354 N 
ATOM     59  N   UNL     1     -11.088   4.789   2.967  1.00  0.00    -0.248 NA
ATOM     60  C   UNL     1     -10.355   4.900   5.129  1.00  0.00     0.031 C 
ATOM     61  C   UNL     1     -12.967   3.204   0.914  1.00  0.00     0.029 A 
ATOM     62  C   UNL     1     -13.429   4.247   1.697  1.00  0.00     0.049 A 
ATOM     63  H   UNL     1     -14.498   5.966   1.112  1.00  0.00     0.167 HD
ATOM     64  C   UNL     1     -12.198   4.627   3.729  1.00  0.00     0.074 A 
ATOM     65  C   UNL     1     -11.683   4.666   5.088  1.00  0.00     0.031 C 
ATOM     66  C   UNL     1     -13.425   4.487   3.144  1.00  0.00     0.031 A 
BRANCH  53  67
ATOM     67  C   UNL     1     -14.802   5.338  -2.897  1.00  0.00    -0.014 A 
ATOM     68  C   UNL     1     -15.204   4.016  -3.171  1.00  0.00     0.010 A 
ATOM     69  C   UNL     1     -15.137   6.294  -3.879  1.00  0.00     0.010 A 
ATOM     70  C   UNL     1     -15.813   3.659  -4.387  1.00  0.00     0.020 A 
ATOM     71  C   UNL     1     -15.685   5.948  -5.121  1.00  0.00     0.020 A 
ATOM     72  C   UNL     1     -16.027   4.626  -5.368  1.00  0.00     0.054 A 
BRANCH  72  73
ATOM     73  S   UNL     1     -16.807   4.157  -6.934  1.00  0.00     0.124 S 
ATOM     74  O   UNL     1     -15.923   3.105  -7.430  1.00  0.00    -0.237 OA
ATOM     75  O   UNL     1     -18.131   3.718  -6.504  1.00  0.00    -0.237 OA
ATOM     76  O   UNL     1     -16.791   5.393  -7.716  1.00  0.00    -0.744 OA
ENDBRANCH  72  73
ENDBRANCH  53  67
BRANCH  54  77
ATOM     77  C   UNL     1      -7.576   6.166   3.636  1.00  0.00    -0.014 A 
ATOM     78  C   UNL     1      -6.296   5.764   3.213  1.00  0.00     0.010 A 
ATOM     79  C   UNL     1      -7.803   7.530   3.500  1.00  0.00     0.010 A 
ATOM     80  C   UNL     1      -5.735   6.369   2.069  1.00  0.00     0.020 A 
ATOM     81  C   UNL     1      -7.138   8.184   2.435  1.00  0.00     0.020 A 
ATOM     82  C   UNL     1      -6.312   7.503   1.538  1.00  0.00     0.054 A 
BRANCH  82  83
ATOM     83  S   UNL     1      -6.233   7.958  -0.411  1.00  0.00     0.124 S 
ATOM     84  O   UNL     1      -5.120   7.270  -1.013  1.00  0.00    -0.237 OA
ATOM     85  O   UNL     1      -7.485   7.431  -0.935  1.00  0.00    -0.237 OA
ATOM     86  O   UNL     1      -6.009   9.368  -0.486  1.00  0.00    -0.744 OA
ENDBRANCH  82  83
ENDBRANCH  54  77
BRANCH  66  87
ATOM     87  C   UNL     1     -14.740   4.467   3.875  1.00  0.00    -0.014 A 
ATOM     88  C   UNL     1     -14.927   4.943   5.179  1.00  0.00     0.010 A 
ATOM     89  C   UNL     1     -15.891   4.021   3.182  1.00  0.00     0.010 A 
ATOM     90  C   UNL     1     -16.184   4.896   5.794  1.00  0.00     0.020 A 
ATOM     91  C   UNL     1     -17.158   4.024   3.762  1.00  0.00     0.020 A 
ATOM     92  C   UNL     1     -17.289   4.430   5.083  1.00  0.00     0.054 A 
BRANCH  92  93
ATOM     93  S   UNL     1     -18.906   4.397   5.888  1.00  0.00     0.124 S 
ATOM     94  O   UNL     1     -18.813   3.181   6.693  1.00  0.00    -0.237 OA
ATOM     95  O   UNL     1     -18.916   5.648   6.643  1.00  0.00    -0.237 OA
ATOM     96  O   UNL     1     -19.848   4.341   4.774  1.00  0.00    -0.744 OA
ENDBRANCH  92  93
ENDBRANCH  66  87
ENDBRANCH  40  41
ENDBRANCH  32  35
ENDBRANCH  30  31
ENDBRANCH   1  30
TORSDOF 15
