REMARK SMILES O=C(NCCCCNC(=O)c1ccc(-c2c3nc(c(-c4ccc(S(=O)(=O)[O-])cc4)c4ccc([nH]4)c(-c4ccc(S(=O)(=O)[O-])cc4)c4nc(c(-c5ccc(S(=O)(=O)[O-])cc5)c5ccc2[nH]5)C=C4)C=C3)cc1)C1=Cc2cc(S(F)(F)(F)(F)F)ccc2O[C@H]1C(F)(F)F
REMARK SMILES IDX 6 1 5 2 4 3 3 4 1 5 2 6 71 8 72 9 86 10 73 11 85 12 74 13
REMARK SMILES IDX 84 14 75 15 83 16 82 17 87 18 88 19 89 20 90 21 76 22 77 23
REMARK SMILES IDX 78 24 79 25 80 26 81 27 7 28 8 29 9 30 10 32 11 33 12 34
REMARK SMILES IDX 70 35 13 36 69 37 14 38 15 39 16 40 63 41 17 42 68 43 62 44
REMARK SMILES IDX 64 45 18 46 67 47 61 48 60 49 19 51 49 52 30 53 48 54 31 55
REMARK SMILES IDX 34 56 47 57 65 58 32 59 33 60 46 62 66 63 35 64 20 65 21 66
REMARK SMILES IDX 29 67 22 68 28 69 23 70 24 71 25 72 26 73 27 74 50 75 51 76
REMARK SMILES IDX 59 77 52 78 58 79 53 80 54 81 55 82 56 83 57 84 36 85 37 86
REMARK SMILES IDX 45 87 38 88 44 89 39 90 40 91 41 92 42 93 43 94
REMARK H PARENT 3 7 8 31 64 50 34 61
REMARK Flexibility Score: inf
ROOT
ATOM      1  C   UNL     1       4.406   3.361  -1.390  1.00  0.00     0.023 C 
ENDROOT
BRANCH   1   2
ATOM      2  C   UNL     1       4.912   1.928  -1.355  1.00  0.00     0.023 C 
BRANCH   2   3
ATOM      3  C   UNL     1       4.406   1.243  -0.096  1.00  0.00     0.116 C 
BRANCH   3   4
ATOM      4  N   UNL     1       2.936   1.243  -0.096  1.00  0.00    -0.352 N 
ATOM      5  O   UNL     1       0.930  -0.030  -0.065  1.00  0.00    -0.270 OA
ATOM      6  C   UNL     1       2.201  -0.030  -0.065  1.00  0.00     0.251 C 
ATOM      7  H   UNL     1       2.443   2.095  -0.117  1.00  0.00     0.163 HD
BRANCH   6   8
ATOM      8  C   UNL     1       2.961  -1.346  -0.032  1.00  0.00     0.067 C 
ATOM      9  C   UNL     1       4.321  -1.346  -0.032  1.00  0.00     0.025 C 
ATOM     10  C   UNL     1       2.201  -2.662   0.001  1.00  0.00     0.314 C 
ATOM     11  C   UNL     1       5.081  -0.030  -0.065  1.00  0.00     0.019 A 
ATOM     12  O   UNL     1       3.508   0.863   1.477  1.00  0.00    -0.475 OA
ATOM     13  C   UNL     1       6.157   0.098  -0.927  1.00  0.00     0.036 A 
ATOM     14  C   UNL     1       4.708   0.971   0.725  1.00  0.00     0.128 A 
ATOM     15  C   UNL     1       6.962   1.234  -0.675  1.00  0.00     0.107 A 
ATOM     16  C   UNL     1       5.472   2.108   0.820  1.00  0.00     0.048 A 
ATOM     17  C   UNL     1       6.582   2.278   0.040  1.00  0.00     0.028 A 
BRANCH  10  18
ATOM     18  C   UNL     1       0.706  -2.384  -0.006  1.00  0.00     0.429 C 
ATOM     19  F   UNL     1       0.238  -2.576   1.224  1.00  0.00    -0.167 F 
ATOM     20  F   UNL     1       0.387  -1.160  -0.416  1.00  0.00    -0.167 F 
ATOM     21  F   UNL     1       0.171  -3.281  -0.830  1.00  0.00    -0.167 F 
ENDBRANCH  10  18
BRANCH  15  22
ATOM     22  S   UNL     1       8.629   1.259  -1.380  1.00  0.00     0.310 S 
ATOM     23  F   UNL     1       9.304   1.263   0.055  1.00  0.00    -0.094 F 
ATOM     24  F   UNL     1       8.608   2.833  -1.300  1.00  0.00    -0.094 F 
ATOM     25  F   UNL     1      10.060   1.281  -1.986  1.00  0.00    -0.094 F 
ATOM     26  F   UNL     1       8.685  -0.318  -1.322  1.00  0.00    -0.094 F 
ATOM     27  F   UNL     1       7.221   1.220  -0.661  1.00  0.00    -0.094 F 
ENDBRANCH  15  22
ENDBRANCH   6   8
ENDBRANCH   3   4
ENDBRANCH   2   3
ENDBRANCH   1   2
BRANCH   1  28
ATOM     28  C   UNL     1       4.912   4.108  -0.167  1.00  0.00     0.116 C 
BRANCH  28  29
ATOM     29  N   UNL     1       6.382   4.108  -0.167  1.00  0.00    -0.352 N 
ATOM     30  C   UNL     1       7.117   5.381  -0.199  1.00  0.00     0.251 C 
ATOM     31  H   UNL     1       6.875   3.256  -0.146  1.00  0.00     0.163 HD
ATOM     32  O   UNL     1       8.388   5.381  -0.199  1.00  0.00    -0.269 OA
BRANCH  30  33
ATOM     33  C   UNL     1       6.357   6.697  -0.231  1.00  0.00     0.039 A 
ATOM     34  C   UNL     1       6.745   7.697  -1.107  1.00  0.00     0.014 A 
ATOM     35  C   UNL     1       5.325   6.860   0.588  1.00  0.00     0.014 A 
ATOM     36  C   UNL     1       6.154   8.954  -0.839  1.00  0.00     0.010 A 
ATOM     37  C   UNL     1       4.707   8.082   0.699  1.00  0.00     0.010 A 
ATOM     38  C   UNL     1       5.079   9.133  -0.093  1.00  0.00    -0.014 A 
BRANCH  38  39
ATOM     39  C   UNL     1       4.297  10.436  -0.115  1.00  0.00     0.031 A 
ATOM     40  C   UNL     1       4.176  11.148   1.080  1.00  0.00     0.074 A 
ATOM     41  C   UNL     1       3.747  10.844  -1.318  1.00  0.00     0.049 A 
ATOM     42  N   UNL     1       3.566  12.318   1.271  1.00  0.00    -0.248 NA
ATOM     43  C   UNL     1       4.729  10.699   2.366  1.00  0.00     0.031 C 
ATOM     44  C   UNL     1       3.872  10.136  -2.529  1.00  0.00     0.029 A 
ATOM     45  N   UNL     1       2.999  11.974  -1.566  1.00  0.00    -0.354 N 
ATOM     46  C   UNL     1       3.676  12.693   2.548  1.00  0.00     0.074 A 
ATOM     47  C   UNL     1       4.420  11.653   3.272  1.00  0.00     0.031 C 
ATOM     48  C   UNL     1       3.200  10.822  -3.490  1.00  0.00     0.029 A 
ATOM     49  C   UNL     1       2.644  11.971  -2.897  1.00  0.00     0.049 A 
ATOM     50  H   UNL     1       2.760  12.664  -0.906  1.00  0.00     0.167 HD
ATOM     51  C   UNL     1       3.186  13.860   3.135  1.00  0.00     0.031 A 
ATOM     52  C   UNL     1       1.878  12.908  -3.572  1.00  0.00     0.031 A 
ATOM     53  C   UNL     1       2.457  14.818   2.450  1.00  0.00     0.049 A 
ATOM     54  C   UNL     1       1.338  14.048  -2.970  1.00  0.00     0.074 A 
ATOM     55  C   UNL     1       1.963  16.004   3.025  1.00  0.00     0.029 A 
ATOM     56  N   UNL     1       2.081  14.804   1.125  1.00  0.00    -0.354 N 
ATOM     57  N   UNL     1       1.482  14.441  -1.704  1.00  0.00    -0.248 NA
ATOM     58  C   UNL     1       0.498  15.030  -3.668  1.00  0.00     0.031 C 
ATOM     59  C   UNL     1       1.290  16.691   2.064  1.00  0.00     0.029 A 
ATOM     60  C   UNL     1       1.352  15.945   0.872  1.00  0.00     0.049 A 
ATOM     61  H   UNL     1       2.296  14.099   0.471  1.00  0.00     0.167 HD
ATOM     62  C   UNL     1       0.836  15.591  -1.504  1.00  0.00     0.074 A 
ATOM     63  C   UNL     1       0.188  15.983  -2.763  1.00  0.00     0.031 C 
ATOM     64  C   UNL     1       0.765  16.332  -0.323  1.00  0.00     0.031 A 
BRANCH  51  65
ATOM     65  C   UNL     1       3.469  14.094   4.611  1.00  0.00    -0.014 A 
ATOM     66  C   UNL     1       4.780  14.117   5.058  1.00  0.00     0.010 A 
ATOM     67  C   UNL     1       2.451  14.219   5.454  1.00  0.00     0.010 A 
ATOM     68  C   UNL     1       4.909  13.987   6.461  1.00  0.00     0.020 A 
ATOM     69  C   UNL     1       2.664  14.221   6.811  1.00  0.00     0.020 A 
ATOM     70  C   UNL     1       3.930  14.186   7.325  1.00  0.00     0.054 A 
BRANCH  70  71
ATOM     71  S   UNL     1       4.249  14.402   9.094  1.00  0.00     0.124 S 
ATOM     72  O   UNL     1       4.944  13.154   9.643  1.00  0.00    -0.237 OA
ATOM     73  O   UNL     1       5.148  15.622   9.305  1.00  0.00    -0.237 OA
ATOM     74  O   UNL     1       2.767  14.636   9.915  1.00  0.00    -0.744 OA
ENDBRANCH  70  71
ENDBRANCH  51  65
BRANCH  52  75
ATOM     75  C   UNL     1       1.609  12.683  -5.051  1.00  0.00    -0.014 A 
ATOM     76  C   UNL     1       2.075  13.597  -5.981  1.00  0.00     0.010 A 
ATOM     77  C   UNL     1       0.972  11.580  -5.428  1.00  0.00     0.010 A 
ATOM     78  C   UNL     1       1.563  13.399  -7.285  1.00  0.00     0.020 A 
ATOM     79  C   UNL     1       0.621  11.390  -6.742  1.00  0.00     0.020 A 
ATOM     80  C   UNL     1       0.998  12.283  -7.707  1.00  0.00     0.054 A 
BRANCH  80  81
ATOM     81  S   UNL     1       0.735  11.952  -9.467  1.00  0.00     0.124 S 
ATOM     82  O   UNL     1      -0.163  13.038 -10.062  1.00  0.00    -0.237 OA
ATOM     83  O   UNL     1       2.083  11.951 -10.192  1.00  0.00    -0.237 OA
ATOM     84  O   UNL     1      -0.014  10.426  -9.655  1.00  0.00    -0.744 OA
ENDBRANCH  80  81
ENDBRANCH  52  75
BRANCH  64  85
ATOM     85  C   UNL     1      -0.004  17.643  -0.348  1.00  0.00    -0.014 A 
ATOM     86  C   UNL     1      -1.350  17.649  -0.674  1.00  0.00     0.010 A 
ATOM     87  C   UNL     1       0.638  18.767  -0.052  1.00  0.00     0.010 A 
ATOM     88  C   UNL     1      -1.869  18.937  -0.943  1.00  0.00     0.020 A 
ATOM     89  C   UNL     1       0.023  19.986  -0.210  1.00  0.00     0.020 A 
ATOM     90  C   UNL     1      -1.288  20.069  -0.587  1.00  0.00     0.054 A 
BRANCH  90  91
ATOM     91  S   UNL     1      -2.181  21.643  -0.596  1.00  0.00     0.124 S 
ATOM     92  O   UNL     1      -2.674  21.941  -2.014  1.00  0.00    -0.237 OA
ATOM     93  O   UNL     1      -3.378  21.557   0.353  1.00  0.00    -0.237 OA
ATOM     94  O   UNL     1      -1.135  22.894  -0.082  1.00  0.00    -0.744 OA
ENDBRANCH  90  91
ENDBRANCH  64  85
ENDBRANCH  38  39
ENDBRANCH  30  33
ENDBRANCH  28  29
ENDBRANCH   1  28
TORSDOF 16
