REMARK SMILES Cc1ccc2c(=O)c3cccc(CC(=O)NCCCCNC(=O)c4ccc(-c5c6nc(c(-c7ccc(S(=O)(=O)[O-])cc7)c7ccc([nH]7)c(-c7ccc(S(=O)(=O)[O-])cc7)c7nc(c(-c8ccc(S(=O)(=O)[O-])cc8)c8ccc5[nH]8)C=C7)C=C6)cc4)c3oc2c1C
REMARK SMILES IDX 19 1 18 2 17 3 16 4 14 5 15 6 13 8 12 9 1 10 2 11 3 12 87 13
REMARK SMILES IDX 4 14 86 15 88 16 5 17 85 18 6 19 84 20 7 21 8 22 9 23 11 24
REMARK SMILES IDX 10 25 20 26 21 27 22 28 23 30 24 31 25 32 83 33 26 34 82 35
REMARK SMILES IDX 27 36 28 37 29 38 76 39 30 40 81 41 75 42 77 43 31 44 80 45
REMARK SMILES IDX 74 46 73 47 32 49 62 50 43 51 61 52 44 53 47 54 60 55 78 56
REMARK SMILES IDX 45 57 46 58 59 60 79 61 48 62 33 63 34 64 42 65 35 66 41 67
REMARK SMILES IDX 36 68 37 69 38 70 39 71 40 72 63 73 64 74 72 75 65 76 71 77
REMARK SMILES IDX 66 78 67 79 68 80 69 81 70 82 49 83 50 84 58 85 51 86 57 87
REMARK SMILES IDX 52 88 53 89 54 90 55 91 56 92
REMARK H PARENT 16 7 21 29 77 48 47 59
REMARK Flexibility Score: inf
ROOT
ATOM      1  C   UNL     1      -0.046  -4.494   7.394  1.00  0.00     0.023 C 
ENDROOT
BRANCH   1   2
ATOM      2  C   UNL     1      -1.364  -4.977   6.786  1.00  0.00     0.023 C 
BRANCH   2   3
ATOM      3  C   UNL     1      -2.577  -4.093   7.081  1.00  0.00     0.116 C 
BRANCH   3   4
ATOM      4  N   UNL     1      -2.491  -2.801   6.431  1.00  0.00    -0.356 N 
ATOM      5  C   UNL     1      -3.079  -2.372   5.275  1.00  0.00     0.224 C 
ATOM      6  O   UNL     1      -2.894  -1.204   4.925  1.00  0.00    -0.275 OA
ATOM      7  H   UNL     1      -1.927  -2.136   6.888  1.00  0.00     0.163 HD
BRANCH   5   8
ATOM      8  C   UNL     1      -4.001  -3.292   4.490  1.00  0.00     0.139 C 
BRANCH   8   9
ATOM      9  C   UNL     1      -3.329  -4.497   3.869  1.00  0.00     0.005 A 
ATOM     10  C   UNL     1       0.947   0.037   0.051  1.00  0.00     0.045 C 
ATOM     11  C   UNL     1       0.534  -1.350   0.466  1.00  0.00    -0.044 A 
ATOM     12  C   UNL     1       1.238  -2.440  -0.073  1.00  0.00     0.005 A 
ATOM     13  C   UNL     1      -0.555  -1.586   1.338  1.00  0.00    -0.005 A 
ATOM     14  C   UNL     1       0.899  -3.748   0.266  1.00  0.00     0.016 A 
ATOM     15  C   UNL     1      -0.873  -2.914   1.695  1.00  0.00     0.141 A 
ATOM     16  C   UNL     1      -1.346  -0.452   1.942  1.00  0.00     0.049 C 
ATOM     17  C   UNL     1      -0.153  -3.977   1.151  1.00  0.00     0.066 A 
ATOM     18  O   UNL     1      -1.907  -3.093   2.587  1.00  0.00    -0.455 OA
ATOM     19  C   UNL     1      -0.527  -5.350   1.514  1.00  0.00     0.200 A 
ATOM     20  C   UNL     1      -2.270  -4.366   2.953  1.00  0.00     0.142 A 
ATOM     21  O   UNL     1       0.051  -6.322   1.044  1.00  0.00    -0.288 OA
ATOM     22  C   UNL     1      -1.642  -5.508   2.455  1.00  0.00     0.066 A 
ATOM     23  C   UNL     1      -2.061  -6.785   2.841  1.00  0.00     0.016 A 
ATOM     24  C   UNL     1      -3.769  -5.788   4.218  1.00  0.00     0.008 A 
ATOM     25  C   UNL     1      -3.133  -6.923   3.717  1.00  0.00     0.001 A 
ENDBRANCH   8   9
ENDBRANCH   5   8
ENDBRANCH   3   4
ENDBRANCH   2   3
ENDBRANCH   1   2
BRANCH   1  26
ATOM     26  C   UNL     1      -0.034  -4.360   8.912  1.00  0.00     0.116 C 
BRANCH  26  27
ATOM     27  N   UNL     1      -0.303  -5.608   9.614  1.00  0.00    -0.352 N 
ATOM     28  C   UNL     1       0.190  -6.022  10.832  1.00  0.00     0.251 C 
ATOM     29  H   UNL     1      -0.914  -6.234   9.162  1.00  0.00     0.163 HD
ATOM     30  O   UNL     1      -0.067  -7.147  11.253  1.00  0.00    -0.269 OA
BRANCH  28  31
ATOM     31  C   UNL     1       1.077  -5.119  11.598  1.00  0.00     0.039 A 
ATOM     32  C   UNL     1       0.733  -3.780  11.788  1.00  0.00     0.014 A 
ATOM     33  C   UNL     1       2.301  -5.605  12.069  1.00  0.00     0.014 A 
ATOM     34  C   UNL     1       1.682  -2.892  12.283  1.00  0.00     0.010 A 
ATOM     35  C   UNL     1       3.224  -4.722  12.639  1.00  0.00     0.010 A 
ATOM     36  C   UNL     1       2.945  -3.348  12.695  1.00  0.00    -0.014 A 
BRANCH  36  37
ATOM     37  C   UNL     1       3.964  -2.363  13.145  1.00  0.00     0.031 A 
ATOM     38  C   UNL     1       5.215  -2.131  12.336  1.00  0.00     0.074 A 
ATOM     39  C   UNL     1       3.722  -1.612  14.238  1.00  0.00     0.049 A 
ATOM     40  N   UNL     1       6.181  -1.274  12.549  1.00  0.00    -0.248 NA
ATOM     41  C   UNL     1       5.408  -2.960  11.134  1.00  0.00     0.031 C 
ATOM     42  C   UNL     1       2.531  -1.721  15.084  1.00  0.00     0.029 A 
ATOM     43  N   UNL     1       4.437  -0.585  14.801  1.00  0.00    -0.354 N 
ATOM     44  C   UNL     1       7.097  -1.466  11.520  1.00  0.00     0.074 A 
ATOM     45  C   UNL     1       6.589  -2.541  10.698  1.00  0.00     0.031 C 
ATOM     46  C   UNL     1       2.565  -0.755  16.013  1.00  0.00     0.029 A 
ATOM     47  C   UNL     1       3.806   0.002  15.872  1.00  0.00     0.049 A 
ATOM     48  H   UNL     1       5.318  -0.296  14.469  1.00  0.00     0.167 HD
ATOM     49  C   UNL     1       8.248  -0.797  11.275  1.00  0.00     0.031 A 
ATOM     50  C   UNL     1       4.176   1.033  16.657  1.00  0.00     0.031 A 
ATOM     51  C   UNL     1       8.743   0.285  12.085  1.00  0.00     0.049 A 
ATOM     52  C   UNL     1       5.479   1.730  16.391  1.00  0.00     0.074 A 
ATOM     53  C   UNL     1       9.905   1.018  11.913  1.00  0.00     0.029 A 
ATOM     54  N   UNL     1       8.108   0.798  13.204  1.00  0.00    -0.354 N 
ATOM     55  N   UNL     1       6.340   1.516  15.426  1.00  0.00    -0.248 NA
ATOM     56  C   UNL     1       5.866   2.802  17.319  1.00  0.00     0.031 C 
ATOM     57  C   UNL     1       9.996   1.943  12.956  1.00  0.00     0.029 A 
ATOM     58  C   UNL     1       8.861   1.827  13.743  1.00  0.00     0.049 A 
ATOM     59  H   UNL     1       7.248   0.478  13.563  1.00  0.00     0.167 HD
ATOM     60  C   UNL     1       7.367   2.431  15.624  1.00  0.00     0.074 A 
ATOM     61  C   UNL     1       7.012   3.214  16.790  1.00  0.00     0.031 C 
ATOM     62  C   UNL     1       8.502   2.600  14.905  1.00  0.00     0.031 A 
BRANCH  49  63
ATOM     63  C   UNL     1       9.070  -1.201  10.079  1.00  0.00    -0.014 A 
ATOM     64  C   UNL     1      10.315  -1.828  10.267  1.00  0.00     0.010 A 
ATOM     65  C   UNL     1       8.670  -0.847   8.778  1.00  0.00     0.010 A 
ATOM     66  C   UNL     1      11.160  -2.068   9.181  1.00  0.00     0.020 A 
ATOM     67  C   UNL     1       9.503  -1.108   7.686  1.00  0.00     0.020 A 
ATOM     68  C   UNL     1      10.753  -1.696   7.897  1.00  0.00     0.054 A 
BRANCH  68  69
ATOM     69  S   UNL     1      11.872  -1.992   6.500  1.00  0.00     0.124 S 
ATOM     70  O   UNL     1      12.836  -0.905   6.641  1.00  0.00    -0.237 OA
ATOM     71  O   UNL     1      12.385  -3.332   6.777  1.00  0.00    -0.237 OA
ATOM     72  O   UNL     1      10.993  -1.902   5.335  1.00  0.00    -0.744 OA
ENDBRANCH  68  69
ENDBRANCH  49  63
BRANCH  50  73
ATOM     73  C   UNL     1       3.272   1.468  17.756  1.00  0.00    -0.014 A 
ATOM     74  C   UNL     1       3.052   0.635  18.868  1.00  0.00     0.010 A 
ATOM     75  C   UNL     1       2.561   2.677  17.656  1.00  0.00     0.010 A 
ATOM     76  C   UNL     1       2.099   0.973  19.831  1.00  0.00     0.020 A 
ATOM     77  C   UNL     1       1.626   3.033  18.633  1.00  0.00     0.020 A 
ATOM     78  C   UNL     1       1.380   2.163  19.698  1.00  0.00     0.054 A 
BRANCH  78  79
ATOM     79  S   UNL     1       0.112   2.562  20.933  1.00  0.00     0.124 S 
ATOM     80  O   UNL     1      -1.010   1.743  20.483  1.00  0.00    -0.237 OA
ATOM     81  O   UNL     1       0.737   2.141  22.184  1.00  0.00    -0.237 OA
ATOM     82  O   UNL     1      -0.065   4.004  20.784  1.00  0.00    -0.744 OA
ENDBRANCH  78  79
ENDBRANCH  50  73
BRANCH  62  83
ATOM     83  C   UNL     1       9.466   3.671  15.337  1.00  0.00    -0.014 A 
ATOM     84  C   UNL     1       9.637   4.817  14.539  1.00  0.00     0.010 A 
ATOM     85  C   UNL     1      10.299   3.478  16.452  1.00  0.00     0.010 A 
ATOM     86  C   UNL     1      10.649   5.736  14.828  1.00  0.00     0.020 A 
ATOM     87  C   UNL     1      11.297   4.408  16.758  1.00  0.00     0.020 A 
ATOM     88  C   UNL     1      11.482   5.517  15.928  1.00  0.00     0.054 A 
BRANCH  88  89
ATOM     89  S   UNL     1      12.816   6.698  16.267  1.00  0.00     0.124 S 
ATOM     90  O   UNL     1      13.832   6.300  15.297  1.00  0.00    -0.237 OA
ATOM     91  O   UNL     1      12.178   7.989  16.016  1.00  0.00    -0.237 OA
ATOM     92  O   UNL     1      13.152   6.441  17.666  1.00  0.00    -0.744 OA
ENDBRANCH  88  89
ENDBRANCH  62  83
ENDBRANCH  36  37
ENDBRANCH  28  31
ENDBRANCH  26  27
ENDBRANCH   1  26
TORSDOF 15
