REMARK SMILES O=C1C=C/C(=C\NCc2ccc(C(=O)NCCCCNC(=O)c3ccc(-c4c5nc(c(-c6ccc(S(=O)(=O)[O-])cc6)c6ccc([nH]6)c(-c6ccc(S(=O)(=O)[O-])cc6)c6nc(c(-c7ccc(S(=O)(=O)[O-])cc7)c7ccc4[nH]7)C=C6)C=C5)cc3)cc2)C=C1[N+](=O)[O-]
REMARK SMILES IDX 17 1 16 2 15 3 13 4 14 5 12 7 9 8 10 9 84 10 11 11 83 12
REMARK SMILES IDX 8 13 7 14 6 16 1 17 2 18 3 19 86 20 4 21 85 22 5 23 87 24
REMARK SMILES IDX 88 25 89 26 18 27 19 28 20 29 21 30 22 32 23 33 24 34 82 35
REMARK SMILES IDX 25 36 81 37 26 38 27 39 28 40 75 41 29 42 80 43 74 44 76 45
REMARK SMILES IDX 30 46 79 47 73 48 72 49 31 51 61 52 42 53 60 54 43 55 46 56
REMARK SMILES IDX 59 57 77 58 44 59 45 60 58 62 78 63 47 64 32 65 33 66 41 67
REMARK SMILES IDX 34 68 40 69 35 70 36 71 37 72 38 73 39 74 62 75 63 76 71 77
REMARK SMILES IDX 64 78 70 79 65 80 66 81 67 82 68 83 69 84 48 85 49 86 57 87
REMARK SMILES IDX 50 88 56 89 51 90 52 91 53 92 54 93 55 94
REMARK H PARENT 15 6 7 15 20 31 76 50 46 61
REMARK Flexibility Score: inf
ROOT
ATOM      1  C   UNL     1       5.658   1.244  -7.186  1.00  0.00     0.023 C 
ENDROOT
BRANCH   1   2
ATOM      2  C   UNL     1       6.833   1.902  -6.460  1.00  0.00     0.116 C 
BRANCH   2   3
ATOM      3  N   UNL     1       6.516   3.277  -6.133  1.00  0.00    -0.352 N 
ATOM      4  C   UNL     1       6.055   3.863  -4.983  1.00  0.00     0.251 C 
ATOM      5  O   UNL     1       5.880   5.082  -4.992  1.00  0.00    -0.269 OA
ATOM      6  H   UNL     1       6.657   3.908  -6.876  1.00  0.00     0.163 HD
BRANCH   4   7
ATOM      7  C   UNL     1       5.805   3.111  -3.720  1.00  0.00     0.039 A 
ATOM      8  C   UNL     1       5.380   1.858  -1.223  1.00  0.00    -0.029 A 
ATOM      9  C   UNL     1       5.694   3.220  -1.287  1.00  0.00     0.006 A 
ATOM     10  C   UNL     1       5.242   1.141  -2.417  1.00  0.00     0.006 A 
ATOM     11  C   UNL     1       5.912   3.836  -2.522  1.00  0.00     0.014 A 
ATOM     12  C   UNL     1       5.427   1.769  -3.651  1.00  0.00     0.014 A 
BRANCH   8  13
ATOM     13  C   UNL     1       5.079   1.191   0.094  1.00  0.00     0.148 C 
BRANCH  13  14
ATOM     14  N   UNL     1       3.641   1.197   0.281  1.00  0.00    -0.386 N 
ATOM     15  H   UNL     1       3.227   2.065   0.490  1.00  0.00     0.160 HD
BRANCH  14  16
ATOM     16  C   UNL     1       2.797   0.116   0.197  1.00  0.00     0.086 C 
ATOM     17  O   UNL     1      -2.637   0.015   0.018  1.00  0.00    -0.282 OA
ATOM     18  C   UNL     1      -1.413  -0.024   0.031  1.00  0.00     0.255 C 
ATOM     19  C   UNL     1      -0.676   1.271   0.038  1.00  0.00     0.060 C 
ATOM     20  C   UNL     1      -0.582  -1.256   0.039  1.00  0.00     0.316 C 
ATOM     21  C   UNL     1       0.661   1.313   0.081  1.00  0.00     0.014 C 
ATOM     22  C   UNL     1       0.763  -1.196   0.069  1.00  0.00     0.099 C 
ATOM     23  C   UNL     1       1.451   0.091   0.121  1.00  0.00    -0.003 C 
BRANCH  20  24
ATOM     24  N   UNL     1      -1.204  -2.571   0.035  1.00  0.00     0.067 N 
ATOM     25  O   UNL     1      -0.457  -3.563   0.001  1.00  0.00    -0.258 OA
ATOM     26  O   UNL     1      -2.435  -2.650   0.083  1.00  0.00    -0.258 OA
ENDBRANCH  20  24
ENDBRANCH  14  16
ENDBRANCH  13  14
ENDBRANCH   8  13
ENDBRANCH   4   7
ENDBRANCH   2   3
ENDBRANCH   1   2
BRANCH   1  27
ATOM     27  C   UNL     1       5.565   1.602  -8.672  1.00  0.00     0.023 C 
BRANCH  27  28
ATOM     28  C   UNL     1       6.766   1.173  -9.509  1.00  0.00     0.116 C 
BRANCH  28  29
ATOM     29  N   UNL     1       7.047  -0.249  -9.412  1.00  0.00    -0.352 N 
ATOM     30  C   UNL     1       7.570  -1.091 -10.363  1.00  0.00     0.251 C 
ATOM     31  H   UNL     1       6.832  -0.667  -8.546  1.00  0.00     0.163 HD
ATOM     32  O   UNL     1       7.618  -2.295 -10.150  1.00  0.00    -0.269 OA
BRANCH  30  33
ATOM     33  C   UNL     1       8.038  -0.536 -11.651  1.00  0.00     0.039 A 
ATOM     34  C   UNL     1       7.671  -1.188 -12.829  1.00  0.00     0.014 A 
ATOM     35  C   UNL     1       8.821   0.621 -11.700  1.00  0.00     0.014 A 
ATOM     36  C   UNL     1       8.052  -0.650 -14.059  1.00  0.00     0.010 A 
ATOM     37  C   UNL     1       9.129   1.199 -12.928  1.00  0.00     0.010 A 
ATOM     38  C   UNL     1       8.758   0.564 -14.120  1.00  0.00    -0.014 A 
BRANCH  38  39
ATOM     39  C   UNL     1       9.102   1.169 -15.432  1.00  0.00     0.031 A 
ATOM     40  C   UNL     1      10.540   1.333 -15.846  1.00  0.00     0.074 A 
ATOM     41  C   UNL     1       8.111   1.589 -16.243  1.00  0.00     0.049 A 
ATOM     42  N   UNL     1      11.023   1.789 -16.974  1.00  0.00    -0.248 NA
ATOM     43  C   UNL     1      11.569   0.960 -14.862  1.00  0.00     0.031 C 
ATOM     44  C   UNL     1       6.681   1.539 -15.927  1.00  0.00     0.029 A 
ATOM     45  N   UNL     1       8.153   2.129 -17.504  1.00  0.00    -0.354 N 
ATOM     46  C   UNL     1      12.406   1.761 -16.833  1.00  0.00     0.074 A 
ATOM     47  C   UNL     1      12.684   1.304 -15.490  1.00  0.00     0.031 C 
ATOM     48  C   UNL     1       5.981   1.981 -16.985  1.00  0.00     0.029 A 
ATOM     49  C   UNL     1       6.910   2.379 -18.037  1.00  0.00     0.049 A 
ATOM     50  H   UNL     1       8.992   2.319 -17.981  1.00  0.00     0.167 HD
ATOM     51  C   UNL     1      13.359   2.064 -17.747  1.00  0.00     0.031 A 
ATOM     52  C   UNL     1       6.556   2.866 -19.242  1.00  0.00     0.031 A 
ATOM     53  C   UNL     1      13.075   2.518 -19.084  1.00  0.00     0.049 A 
ATOM     54  C   UNL     1       7.632   3.191 -20.241  1.00  0.00     0.074 A 
ATOM     55  C   UNL     1      13.967   2.800 -20.104  1.00  0.00     0.029 A 
ATOM     56  N   UNL     1      11.805   2.762 -19.585  1.00  0.00    -0.354 N 
ATOM     57  N   UNL     1       8.934   3.079 -20.117  1.00  0.00    -0.248 NA
ATOM     58  C   UNL     1       7.189   3.688 -21.550  1.00  0.00     0.031 C 
ATOM     59  C   UNL     1      13.240   3.271 -21.202  1.00  0.00     0.029 A 
ATOM     60  C   UNL     1      11.890   3.216 -20.891  1.00  0.00     0.049 A 
ATOM     61  H   UNL     1      10.966   2.631 -19.086  1.00  0.00     0.167 HD
ATOM     62  C   UNL     1       9.464   3.468 -21.343  1.00  0.00     0.074 A 
ATOM     63  C   UNL     1       8.341   3.793 -22.198  1.00  0.00     0.031 C 
ATOM     64  C   UNL     1      10.763   3.549 -21.726  1.00  0.00     0.031 A 
BRANCH  51  65
ATOM     65  C   UNL     1      14.800   1.918 -17.328  1.00  0.00    -0.014 A 
ATOM     66  C   UNL     1      15.361   0.651 -17.079  1.00  0.00     0.010 A 
ATOM     67  C   UNL     1      15.617   3.058 -17.218  1.00  0.00     0.010 A 
ATOM     68  C   UNL     1      16.698   0.531 -16.690  1.00  0.00     0.020 A 
ATOM     69  C   UNL     1      16.963   2.939 -16.860  1.00  0.00     0.020 A 
ATOM     70  C   UNL     1      17.490   1.677 -16.581  1.00  0.00     0.054 A 
BRANCH  70  71
ATOM     71  S   UNL     1      19.228   1.487 -16.097  1.00  0.00     0.124 S 
ATOM     72  O   UNL     1      19.110   1.126 -14.687  1.00  0.00    -0.237 OA
ATOM     73  O   UNL     1      19.691   0.421 -16.982  1.00  0.00    -0.237 OA
ATOM     74  O   UNL     1      19.806   2.804 -16.356  1.00  0.00    -0.744 OA
ENDBRANCH  70  71
ENDBRANCH  51  65
BRANCH  52  75
ATOM     75  C   UNL     1       5.116   3.046 -19.578  1.00  0.00    -0.014 A 
ATOM     76  C   UNL     1       4.495   2.230 -20.539  1.00  0.00     0.010 A 
ATOM     77  C   UNL     1       4.354   4.032 -18.925  1.00  0.00     0.010 A 
ATOM     78  C   UNL     1       3.146   2.410 -20.858  1.00  0.00     0.020 A 
ATOM     79  C   UNL     1       2.997   4.195 -19.218  1.00  0.00     0.020 A 
ATOM     80  C   UNL     1       2.405   3.391 -20.193  1.00  0.00     0.054 A 
BRANCH  80  81
ATOM     81  S   UNL     1       0.643   3.575 -20.587  1.00  0.00     0.124 S 
ATOM     82  O   UNL     1       0.691   4.187 -21.911  1.00  0.00    -0.237 OA
ATOM     83  O   UNL     1       0.165   2.196 -20.544  1.00  0.00    -0.237 OA
ATOM     84  O   UNL     1       0.142   4.434 -19.517  1.00  0.00    -0.744 OA
ENDBRANCH  80  81
ENDBRANCH  52  75
BRANCH  64  85
ATOM     85  C   UNL     1      11.035   3.979 -23.144  1.00  0.00    -0.014 A 
ATOM     86  C   UNL     1      10.781   5.294 -23.574  1.00  0.00     0.010 A 
ATOM     87  C   UNL     1      11.571   3.053 -24.058  1.00  0.00     0.010 A 
ATOM     88  C   UNL     1      11.005   5.659 -24.904  1.00  0.00     0.020 A 
ATOM     89  C   UNL     1      11.830   3.423 -25.380  1.00  0.00     0.020 A 
ATOM     90  C   UNL     1      11.523   4.718 -25.800  1.00  0.00     0.054 A 
BRANCH  90  91
ATOM     91  S   UNL     1      11.811   5.217 -27.519  1.00  0.00     0.124 S 
ATOM     92  O   UNL     1      10.451   5.287 -28.046  1.00  0.00    -0.237 OA
ATOM     93  O   UNL     1      12.495   6.500 -27.371  1.00  0.00    -0.237 OA
ATOM     94  O   UNL     1      12.634   4.138 -28.060  1.00  0.00    -0.744 OA
ENDBRANCH  90  91
ENDBRANCH  64  85
ENDBRANCH  38  39
ENDBRANCH  30  33
ENDBRANCH  28  29
ENDBRANCH  27  28
ENDBRANCH   1  27
TORSDOF 18
