REMARK SMILES COc1cc2cc(C(=O)NCCCCNC(=O)c3ccc(-c4c5nc(c(-c6ccc(S(=O)(=O)[O-])cc6)c6ccc([nH]6)c(-c6ccc(S(=O)(=O)[O-])cc6)c6nc(c(-c7ccc(S(=O)(=O)[O-])cc7)c7ccc4[nH]7)C=C6)C=C5)cc3)n(Cc3ccccc3)c2c(OC)c1OC
REMARK SMILES IDX 13 1 12 2 11 3 10 4 8 5 9 6 7 8 3 9 4 10 90 11 5 12 87 13
REMARK SMILES IDX 6 14 86 15 78 16 2 17 1 18 91 19 92 20 88 21 89 22 79 23
REMARK SMILES IDX 80 24 81 25 85 26 82 27 84 28 83 29 14 30 15 31 16 32 17 34
REMARK SMILES IDX 18 35 19 36 77 37 20 38 76 39 21 40 22 41 23 42 70 43 24 44
REMARK SMILES IDX 75 45 69 46 71 47 25 48 74 49 68 50 67 51 26 53 56 54 37 55
REMARK SMILES IDX 55 56 38 57 41 58 54 59 72 60 39 61 40 62 53 64 73 65 42 66
REMARK SMILES IDX 27 67 28 68 36 69 29 70 35 71 30 72 31 73 32 74 33 75 34 76
REMARK SMILES IDX 57 77 58 78 66 79 59 80 65 81 60 82 61 83 62 84 63 85 64 86
REMARK SMILES IDX 43 87 44 88 52 89 45 90 51 91 46 92 47 93 48 94 49 95 50 96
REMARK H PARENT 10 7 15 33 71 52 41 63
REMARK Flexibility Score: inf
ROOT
ATOM      1  C   UNL     1       2.805  -8.181   8.521  1.00  0.00     0.023 C 
ENDROOT
BRANCH   1   2
ATOM      2  C   UNL     1       2.878  -7.173   7.368  1.00  0.00     0.023 C 
BRANCH   2   3
ATOM      3  C   UNL     1       1.864  -7.330   6.232  1.00  0.00     0.116 C 
BRANCH   3   4
ATOM      4  N   UNL     1       0.616  -6.663   6.541  1.00  0.00    -0.351 N 
ATOM      5  C   UNL     1      -0.049  -5.570   6.053  1.00  0.00     0.267 C 
ATOM      6  O   UNL     1      -1.194  -5.450   6.506  1.00  0.00    -0.268 OA
ATOM      7  H   UNL     1       0.129  -7.100   7.277  1.00  0.00     0.163 HD
BRANCH   5   8
ATOM      8  C   UNL     1       0.449  -4.615   5.064  1.00  0.00     0.108 A 
ATOM      9  C   UNL     1       1.035  -1.228   1.902  1.00  0.00     0.165 A 
ATOM     10  C   UNL     1       0.006  -1.841   2.643  1.00  0.00     0.061 A 
ATOM     11  C   UNL     1       2.348  -1.733   1.912  1.00  0.00     0.205 A 
ATOM     12  C   UNL     1       0.319  -2.914   3.498  1.00  0.00     0.008 A 
ATOM     13  C   UNL     1       2.649  -2.863   2.712  1.00  0.00     0.189 A 
ATOM     14  C   UNL     1      -0.415  -3.758   4.365  1.00  0.00     0.042 A 
ATOM     15  C   UNL     1       1.634  -3.338   3.581  1.00  0.00     0.096 A 
ATOM     16  N   UNL     1       1.713  -4.149   4.729  1.00  0.00    -0.329 N 
BRANCH   9  17
ATOM     17  O   UNL     1       0.736  -0.036   1.287  1.00  0.00    -0.493 OA
ATOM     18  C   UNL     1       0.003  -0.213   0.078  1.00  0.00     0.278 C 
ENDBRANCH   9  17
BRANCH  11  19
ATOM     19  O   UNL     1       3.419  -1.179   1.260  1.00  0.00    -0.490 OA
ATOM     20  C   UNL     1       3.244  -0.240   0.219  1.00  0.00     0.278 C 
ENDBRANCH  11  19
BRANCH  13  21
ATOM     21  O   UNL     1       3.812  -3.582   2.737  1.00  0.00    -0.491 OA
ATOM     22  C   UNL     1       4.985  -3.079   2.124  1.00  0.00     0.278 C 
ENDBRANCH  13  21
BRANCH  16  23
ATOM     23  C   UNL     1       2.991  -4.268   5.436  1.00  0.00     0.158 C 
BRANCH  23  24
ATOM     24  C   UNL     1       3.103  -3.913   6.899  1.00  0.00    -0.028 A 
ATOM     25  C   UNL     1       2.050  -3.615   7.768  1.00  0.00     0.005 A 
ATOM     26  C   UNL     1       4.410  -3.970   7.434  1.00  0.00     0.005 A 
ATOM     27  C   UNL     1       2.283  -3.491   9.142  1.00  0.00     0.000 A 
ATOM     28  C   UNL     1       4.644  -3.821   8.799  1.00  0.00     0.000 A 
ATOM     29  C   UNL     1       3.573  -3.607   9.657  1.00  0.00     0.000 A 
ENDBRANCH  23  24
ENDBRANCH  16  23
ENDBRANCH   5   8
ENDBRANCH   3   4
ENDBRANCH   2   3
ENDBRANCH   1   2
BRANCH   1  30
ATOM     30  C   UNL     1       3.209  -9.607   8.159  1.00  0.00     0.116 C 
BRANCH  30  31
ATOM     31  N   UNL     1       4.470  -9.673   7.449  1.00  0.00    -0.352 N 
ATOM     32  C   UNL     1       5.785  -9.785   7.802  1.00  0.00     0.251 C 
ATOM     33  H   UNL     1       4.350  -9.624   6.473  1.00  0.00     0.163 HD
ATOM     34  O   UNL     1       6.579  -9.838   6.857  1.00  0.00    -0.269 OA
BRANCH  32  35
ATOM     35  C   UNL     1       6.322  -9.842   9.191  1.00  0.00     0.039 A 
ATOM     36  C   UNL     1       5.598  -9.626  10.363  1.00  0.00     0.014 A 
ATOM     37  C   UNL     1       7.704 -10.101   9.301  1.00  0.00     0.014 A 
ATOM     38  C   UNL     1       6.239  -9.641  11.605  1.00  0.00     0.010 A 
ATOM     39  C   UNL     1       8.347 -10.123  10.537  1.00  0.00     0.010 A 
ATOM     40  C   UNL     1       7.617  -9.868  11.693  1.00  0.00    -0.014 A 
BRANCH  40  41
ATOM     41  C   UNL     1       8.230  -9.920  13.023  1.00  0.00     0.031 A 
ATOM     42  C   UNL     1       7.752 -11.015  13.919  1.00  0.00     0.074 A 
ATOM     43  C   UNL     1       9.265  -9.147  13.412  1.00  0.00     0.049 A 
ATOM     44  N   UNL     1       7.172 -10.916  15.071  1.00  0.00    -0.248 NA
ATOM     45  C   UNL     1       7.874 -12.396  13.428  1.00  0.00     0.031 C 
ATOM     46  C   UNL     1      10.082  -8.252  12.590  1.00  0.00     0.029 A 
ATOM     47  N   UNL     1       9.879  -9.094  14.631  1.00  0.00    -0.354 N 
ATOM     48  C   UNL     1       6.993 -12.221  15.535  1.00  0.00     0.074 A 
ATOM     49  C   UNL     1       7.336 -13.087  14.434  1.00  0.00     0.031 C 
ATOM     50  C   UNL     1      11.213  -7.938  13.264  1.00  0.00     0.029 A 
ATOM     51  C   UNL     1      11.124  -8.480  14.609  1.00  0.00     0.049 A 
ATOM     52  H   UNL     1       9.475  -9.459  15.451  1.00  0.00     0.167 HD
ATOM     53  C   UNL     1       6.729 -12.507  16.842  1.00  0.00     0.031 A 
ATOM     54  C   UNL     1      12.047  -8.482  15.602  1.00  0.00     0.031 A 
ATOM     55  C   UNL     1       6.316 -11.342  17.575  1.00  0.00     0.049 A 
ATOM     56  C   UNL     1      11.346  -8.787  16.871  1.00  0.00     0.074 A 
ATOM     57  C   UNL     1       5.247 -10.473  17.510  1.00  0.00     0.029 A 
ATOM     58  N   UNL     1       7.255 -10.734  18.371  1.00  0.00    -0.354 N 
ATOM     59  N   UNL     1      10.480  -7.992  17.433  1.00  0.00    -0.248 NA
ATOM     60  C   UNL     1      11.333 -10.161  17.346  1.00  0.00     0.031 C 
ATOM     61  C   UNL     1       5.779  -9.206  17.883  1.00  0.00     0.029 A 
ATOM     62  C   UNL     1       7.130  -9.382  18.193  1.00  0.00     0.049 A 
ATOM     63  H   UNL     1       7.900 -11.187  18.962  1.00  0.00     0.167 HD
ATOM     64  C   UNL     1       9.547  -8.838  18.013  1.00  0.00     0.074 A 
ATOM     65  C   UNL     1      10.189 -10.149  18.032  1.00  0.00     0.031 C 
ATOM     66  C   UNL     1       8.246  -8.455  18.171  1.00  0.00     0.031 A 
BRANCH  53  67
ATOM     67  C   UNL     1       7.145 -13.778  17.550  1.00  0.00    -0.014 A 
ATOM     68  C   UNL     1       8.072 -14.693  17.016  1.00  0.00     0.010 A 
ATOM     69  C   UNL     1       6.806 -13.943  18.913  1.00  0.00     0.010 A 
ATOM     70  C   UNL     1       8.650 -15.702  17.791  1.00  0.00     0.020 A 
ATOM     71  C   UNL     1       7.414 -14.923  19.712  1.00  0.00     0.020 A 
ATOM     72  C   UNL     1       8.338 -15.794  19.143  1.00  0.00     0.054 A 
BRANCH  72  73
ATOM     73  S   UNL     1       9.241 -16.998  20.149  1.00  0.00     0.124 S 
ATOM     74  O   UNL     1       8.686 -18.263  19.674  1.00  0.00    -0.237 OA
ATOM     75  O   UNL     1      10.628 -16.738  19.775  1.00  0.00    -0.237 OA
ATOM     76  O   UNL     1       8.887 -16.634  21.518  1.00  0.00    -0.744 OA
ENDBRANCH  72  73
ENDBRANCH  53  67
BRANCH  54  77
ATOM     77  C   UNL     1      13.516  -8.643  15.457  1.00  0.00    -0.014 A 
ATOM     78  C   UNL     1      14.037  -9.324  14.337  1.00  0.00     0.010 A 
ATOM     79  C   UNL     1      14.374  -8.420  16.550  1.00  0.00     0.010 A 
ATOM     80  C   UNL     1      15.336  -9.839  14.340  1.00  0.00     0.020 A 
ATOM     81  C   UNL     1      15.680  -8.939  16.562  1.00  0.00     0.020 A 
ATOM     82  C   UNL     1      16.136  -9.680  15.469  1.00  0.00     0.054 A 
BRANCH  82  83
ATOM     83  S   UNL     1      17.733 -10.541  15.520  1.00  0.00     0.124 S 
ATOM     84  O   UNL     1      17.317 -11.946  15.544  1.00  0.00    -0.237 OA
ATOM     85  O   UNL     1      18.364 -10.104  14.271  1.00  0.00    -0.237 OA
ATOM     86  O   UNL     1      18.358 -10.052  16.735  1.00  0.00    -0.744 OA
ENDBRANCH  82  83
ENDBRANCH  54  77
BRANCH  66  87
ATOM     87  C   UNL     1       7.883  -6.994  18.016  1.00  0.00    -0.014 A 
ATOM     88  C   UNL     1       7.108  -6.407  19.033  1.00  0.00     0.010 A 
ATOM     89  C   UNL     1       8.103  -6.262  16.833  1.00  0.00     0.010 A 
ATOM     90  C   UNL     1       6.533  -5.146  18.862  1.00  0.00     0.020 A 
ATOM     91  C   UNL     1       7.551  -4.983  16.666  1.00  0.00     0.020 A 
ATOM     92  C   UNL     1       6.745  -4.446  17.673  1.00  0.00     0.054 A 
BRANCH  92  93
ATOM     93  S   UNL     1       5.921  -2.845  17.461  1.00  0.00     0.124 S 
ATOM     94  O   UNL     1       4.525  -3.237  17.281  1.00  0.00    -0.237 OA
ATOM     95  O   UNL     1       6.218  -2.159  18.717  1.00  0.00    -0.237 OA
ATOM     96  O   UNL     1       6.560  -2.271  16.278  1.00  0.00    -0.744 OA
ENDBRANCH  92  93
ENDBRANCH  66  87
ENDBRANCH  40  41
ENDBRANCH  32  35
ENDBRANCH  30  31
ENDBRANCH   1  30
TORSDOF 19
