REMARK SMILES COc1ccc(C(=O)Nc2cccc(C(=O)NCCCCNC(=O)c3ccc(-c4c5nc(c(-c6ccc(S(=O)(=O)[O-])cc6)c6ccc([nH]6)c(-c6ccc(S(=O)(=O)[O-])cc6)c6nc(c(-c7ccc(S(=O)(=O)[O-])cc7)c7ccc4[nH]7)C=C6)C=C5)cc3)c2)cc1
REMARK SMILES IDX 19 1 18 2 17 3 15 4 16 5 14 7 10 8 11 9 85 10 12 11 13 12
REMARK SMILES IDX 9 13 7 14 8 15 6 17 3 18 4 19 87 20 5 21 86 22 2 23 1 24
REMARK SMILES IDX 20 25 21 26 22 27 23 28 24 30 25 31 26 32 84 33 27 34 83 35
REMARK SMILES IDX 28 36 29 37 30 38 77 39 31 40 82 41 76 42 78 43 32 44 81 45
REMARK SMILES IDX 75 46 74 47 33 49 63 50 44 51 62 52 45 53 48 54 61 55 79 56
REMARK SMILES IDX 46 57 47 58 60 60 80 61 49 62 34 63 35 64 43 65 36 66 42 67
REMARK SMILES IDX 37 68 38 69 39 70 40 71 41 72 64 73 65 74 73 75 66 76 72 77
REMARK SMILES IDX 67 78 68 79 69 80 70 81 71 82 50 83 51 84 59 85 52 86 58 87
REMARK SMILES IDX 53 88 54 89 55 90 56 91 57 92
REMARK H PARENT 17 6 9 16 22 29 78 48 48 59
REMARK Flexibility Score: inf
ROOT
ATOM      1  C   UNL     1       3.720  -3.978   4.566  1.00  0.00     0.023 C 
ENDROOT
BRANCH   1   2
ATOM      2  C   UNL     1       3.655  -3.002   3.390  1.00  0.00     0.116 C 
BRANCH   2   3
ATOM      3  N   UNL     1       4.978  -2.524   3.041  1.00  0.00    -0.352 N 
ATOM      4  C   UNL     1       5.915  -2.945   2.131  1.00  0.00     0.251 C 
ATOM      5  O   UNL     1       6.959  -2.294   2.062  1.00  0.00    -0.269 OA
ATOM      6  H   UNL     1       5.261  -1.737   3.561  1.00  0.00     0.163 HD
BRANCH   4   7
ATOM      7  C   UNL     1       5.724  -4.091   1.191  1.00  0.00     0.041 A 
ATOM      8  C   UNL     1       4.548  -6.021   0.306  1.00  0.00     0.042 A 
ATOM      9  C   UNL     1       5.433  -6.106  -0.764  1.00  0.00     0.026 A 
ATOM     10  C   UNL     1       4.763  -5.091   1.328  1.00  0.00     0.040 A 
ATOM     11  C   UNL     1       6.440  -5.153  -0.890  1.00  0.00     0.003 A 
ATOM     12  C   UNL     1       6.564  -4.137   0.064  1.00  0.00     0.014 A 
BRANCH   8  13
ATOM     13  N   UNL     1       3.397  -6.821   0.286  1.00  0.00    -0.322 N 
ATOM     14  C   UNL     1       2.097  -6.479   0.621  1.00  0.00     0.255 C 
ATOM     15  O   UNL     1       1.271  -7.374   0.799  1.00  0.00    -0.269 OA
ATOM     16  H   UNL     1       3.530  -7.752  -0.007  1.00  0.00     0.170 HD
BRANCH  14  17
ATOM     17  C   UNL     1       1.633  -5.052   0.654  1.00  0.00     0.040 A 
ATOM     18  C   UNL     1       0.678  -2.392   0.763  1.00  0.00     0.118 A 
ATOM     19  C   UNL     1       0.051  -3.406   1.492  1.00  0.00     0.047 A 
ATOM     20  C   UNL     1       1.764  -2.716  -0.047  1.00  0.00     0.047 A 
ATOM     21  C   UNL     1       0.522  -4.726   1.442  1.00  0.00     0.017 A 
ATOM     22  C   UNL     1       2.210  -4.041  -0.129  1.00  0.00     0.017 A 
BRANCH  18  23
ATOM     23  O   UNL     1       0.140  -1.146   0.919  1.00  0.00    -0.497 OA
ATOM     24  C   UNL     1       0.691  -0.099   0.127  1.00  0.00     0.278 C 
ENDBRANCH  18  23
ENDBRANCH  14  17
ENDBRANCH   8  13
ENDBRANCH   4   7
ENDBRANCH   2   3
ENDBRANCH   1   2
BRANCH   1  25
ATOM     25  C   UNL     1       3.715  -3.287   5.931  1.00  0.00     0.023 C 
BRANCH  25  26
ATOM     26  C   UNL     1       2.445  -2.499   6.239  1.00  0.00     0.116 C 
BRANCH  26  27
ATOM     27  N   UNL     1       1.238  -3.309   6.185  1.00  0.00    -0.352 N 
ATOM     28  C   UNL     1       0.106  -3.207   6.961  1.00  0.00     0.251 C 
ATOM     29  H   UNL     1       1.230  -4.022   5.506  1.00  0.00     0.163 HD
ATOM     30  O   UNL     1      -0.785  -4.036   6.869  1.00  0.00    -0.269 OA
BRANCH  28  31
ATOM     31  C   UNL     1       0.008  -2.098   7.935  1.00  0.00     0.039 A 
ATOM     32  C   UNL     1      -0.333  -2.393   9.256  1.00  0.00     0.014 A 
ATOM     33  C   UNL     1       0.295  -0.785   7.552  1.00  0.00     0.014 A 
ATOM     34  C   UNL     1      -0.324  -1.374  10.210  1.00  0.00     0.010 A 
ATOM     35  C   UNL     1       0.376   0.212   8.518  1.00  0.00     0.010 A 
ATOM     36  C   UNL     1       0.065  -0.071   9.856  1.00  0.00    -0.014 A 
BRANCH  36  37
ATOM     37  C   UNL     1       0.148   1.006  10.874  1.00  0.00     0.031 A 
ATOM     38  C   UNL     1      -0.764   2.200  10.784  1.00  0.00     0.074 A 
ATOM     39  C   UNL     1       1.074   0.932  11.850  1.00  0.00     0.049 A 
ATOM     40  N   UNL     1      -0.823   3.251  11.560  1.00  0.00    -0.248 NA
ATOM     41  C   UNL     1      -1.720   2.227   9.664  1.00  0.00     0.031 C 
ATOM     42  C   UNL     1       2.044  -0.153  12.020  1.00  0.00     0.029 A 
ATOM     43  N   UNL     1       1.351   1.787  12.888  1.00  0.00    -0.354 N 
ATOM     44  C   UNL     1      -1.812   4.065  11.020  1.00  0.00     0.074 A 
ATOM     45  C   UNL     1      -2.286   3.415   9.818  1.00  0.00     0.031 C 
ATOM     46  C   UNL     1       2.784   0.084  13.116  1.00  0.00     0.029 A 
ATOM     47  C   UNL     1       2.369   1.353  13.705  1.00  0.00     0.049 A 
ATOM     48  H   UNL     1       0.867   2.631  13.034  1.00  0.00     0.167 HD
ATOM     49  C   UNL     1      -2.301   5.235  11.494  1.00  0.00     0.031 A 
ATOM     50  C   UNL     1       2.908   1.914  14.805  1.00  0.00     0.031 A 
ATOM     51  C   UNL     1      -1.835   5.875  12.695  1.00  0.00     0.049 A 
ATOM     52  C   UNL     1       2.358   3.223  15.302  1.00  0.00     0.074 A 
ATOM     53  C   UNL     1      -2.295   7.040  13.284  1.00  0.00     0.029 A 
ATOM     54  N   UNL     1      -0.804   5.403  13.493  1.00  0.00    -0.354 N 
ATOM     55  N   UNL     1       1.379   3.946  14.811  1.00  0.00    -0.248 NA
ATOM     56  C   UNL     1       2.977   3.787  16.510  1.00  0.00     0.031 C 
ATOM     57  C   UNL     1      -1.511   7.298  14.412  1.00  0.00     0.029 A 
ATOM     58  C   UNL     1      -0.600   6.263  14.559  1.00  0.00     0.049 A 
ATOM     59  H   UNL     1      -0.292   4.579  13.327  1.00  0.00     0.167 HD
ATOM     60  C   UNL     1       1.246   5.034  15.667  1.00  0.00     0.074 A 
ATOM     61  C   UNL     1       2.233   4.865  16.714  1.00  0.00     0.031 C 
ATOM     62  C   UNL     1       0.384   6.078  15.594  1.00  0.00     0.031 A 
BRANCH  49  63
ATOM     63  C   UNL     1      -3.405   5.896  10.711  1.00  0.00    -0.014 A 
ATOM     64  C   UNL     1      -4.696   5.336  10.669  1.00  0.00     0.010 A 
ATOM     65  C   UNL     1      -3.165   7.111  10.045  1.00  0.00     0.010 A 
ATOM     66  C   UNL     1      -5.714   5.958   9.943  1.00  0.00     0.020 A 
ATOM     67  C   UNL     1      -4.189   7.751   9.341  1.00  0.00     0.020 A 
ATOM     68  C   UNL     1      -5.454   7.161   9.282  1.00  0.00     0.054 A 
BRANCH  68  69
ATOM     69  S   UNL     1      -6.803   7.960   8.370  1.00  0.00     0.124 S 
ATOM     70  O   UNL     1      -6.937   7.088   7.206  1.00  0.00    -0.237 OA
ATOM     71  O   UNL     1      -7.909   7.908   9.324  1.00  0.00    -0.237 OA
ATOM     72  O   UNL     1      -6.288   9.298   8.090  1.00  0.00    -0.744 OA
ENDBRANCH  68  69
ENDBRANCH  49  63
BRANCH  50  73
ATOM     73  C   UNL     1       4.018   1.232  15.527  1.00  0.00    -0.014 A 
ATOM     74  C   UNL     1       3.804   0.677  16.801  1.00  0.00     0.010 A 
ATOM     75  C   UNL     1       5.296   1.142  14.948  1.00  0.00     0.010 A 
ATOM     76  C   UNL     1       4.855   0.070  17.495  1.00  0.00     0.020 A 
ATOM     77  C   UNL     1       6.343   0.510  15.627  1.00  0.00     0.020 A 
ATOM     78  C   UNL     1       6.119  -0.009  16.904  1.00  0.00     0.054 A 
BRANCH  78  79
ATOM     79  S   UNL     1       7.461  -0.828  17.809  1.00  0.00     0.124 S 
ATOM     80  O   UNL     1       7.789   0.164  18.828  1.00  0.00    -0.237 OA
ATOM     81  O   UNL     1       6.817  -2.046  18.295  1.00  0.00    -0.237 OA
ATOM     82  O   UNL     1       8.483  -1.039  16.787  1.00  0.00    -0.744 OA
ENDBRANCH  78  79
ENDBRANCH  50  73
BRANCH  62  83
ATOM     83  C   UNL     1       0.442   7.102  16.696  1.00  0.00    -0.014 A 
ATOM     84  C   UNL     1       1.510   8.012  16.791  1.00  0.00     0.010 A 
ATOM     85  C   UNL     1      -0.618   7.188  17.617  1.00  0.00     0.010 A 
ATOM     86  C   UNL     1       1.532   8.970  17.808  1.00  0.00     0.020 A 
ATOM     87  C   UNL     1      -0.613   8.163  18.618  1.00  0.00     0.020 A 
ATOM     88  C   UNL     1       0.469   9.039  18.715  1.00  0.00     0.054 A 
BRANCH  88  89
ATOM     89  S   UNL     1       0.499  10.320  19.998  1.00  0.00     0.124 S 
ATOM     90  O   UNL     1       1.506   9.803  20.921  1.00  0.00    -0.237 OA
ATOM     91  O   UNL     1       0.886  11.514  19.250  1.00  0.00    -0.237 OA
ATOM     92  O   UNL     1      -0.869  10.330  20.511  1.00  0.00    -0.744 OA
ENDBRANCH  88  89
ENDBRANCH  62  83
ENDBRANCH  36  37
ENDBRANCH  28  31
ENDBRANCH  26  27
ENDBRANCH  25  26
ENDBRANCH   1  25
TORSDOF 17
