REMARK SMILES C[C@H](C(=O)NCCCCNC(=O)c1ccc(-c2c3nc(c(-c4ccc(S(=O)(=O)[O-])cc4)c4ccc([nH]4)c(-c4ccc(S(=O)(=O)[O-])cc4)c4nc(c(-c5ccc(S(=O)(=O)[O-])cc5)c5ccc2[nH]5)C=C4)C=C3)cc1)c1ccc(-c2ccccc2)c(F)c1
REMARK SMILES IDX 8 1 7 2 6 3 5 4 3 5 4 6 2 8 1 9 73 10 74 11 85 12 75 13
REMARK SMILES IDX 83 14 76 15 84 16 77 17 78 18 82 19 79 20 81 21 80 22 9 23
REMARK SMILES IDX 10 24 11 25 12 27 13 28 14 29 72 30 15 31 71 32 16 33 17 34
REMARK SMILES IDX 18 35 65 36 19 37 70 38 64 39 66 40 20 41 69 42 63 43 62 44
REMARK SMILES IDX 21 46 51 47 32 48 50 49 33 50 36 51 49 52 67 53 34 54 35 55
REMARK SMILES IDX 48 57 68 58 37 59 22 60 23 61 31 62 24 63 30 64 25 65 26 66
REMARK SMILES IDX 27 67 28 68 29 69 52 70 53 71 61 72 54 73 60 74 55 75 56 76
REMARK SMILES IDX 57 77 58 78 59 79 38 80 39 81 47 82 40 83 46 84 41 85 42 86
REMARK SMILES IDX 43 87 44 88 45 89
REMARK H PARENT 5 7 10 26 66 45 36 56
REMARK Flexibility Score: inf
ROOT
ATOM      1  C   UNL     1      -0.355   3.866   1.026  1.00  0.00     0.023 C 
ENDROOT
BRANCH   1   2
ATOM      2  C   UNL     1      -0.479   3.072  -0.273  1.00  0.00     0.023 C 
BRANCH   2   3
ATOM      3  C   UNL     1       0.782   2.318  -0.697  1.00  0.00     0.116 C 
BRANCH   3   4
ATOM      4  N   UNL     1       1.044   1.176   0.158  1.00  0.00    -0.356 N 
ATOM      5  C   UNL     1       0.880  -0.161  -0.071  1.00  0.00     0.227 C 
ATOM      6  O   UNL     1       1.154  -0.933   0.852  1.00  0.00    -0.274 OA
ATOM      7  H   UNL     1       1.398   1.401   1.049  1.00  0.00     0.163 HD
BRANCH   5   8
ATOM      8  C   UNL     1       0.373  -0.670  -1.430  1.00  0.00     0.105 C 
ATOM      9  C   UNL     1       1.079  -1.992  -1.764  1.00  0.00     0.023 C 
BRANCH   8  10
ATOM     10  C   UNL     1      -1.147  -0.771  -1.450  1.00  0.00    -0.033 A 
ATOM     11  C   UNL     1      -1.905   0.329  -1.869  1.00  0.00     0.005 A 
ATOM     12  C   UNL     1      -1.843  -1.903  -1.008  1.00  0.00     0.044 A 
ATOM     13  C   UNL     1      -3.300   0.334  -1.770  1.00  0.00     0.012 A 
ATOM     14  C   UNL     1      -3.243  -1.910  -0.962  1.00  0.00     0.131 A 
ATOM     15  C   UNL     1      -4.009  -0.787  -1.311  1.00  0.00     0.017 A 
ATOM     16  F   UNL     1      -3.842  -3.043  -0.561  1.00  0.00    -0.206 F 
BRANCH  15  17
ATOM     17  C   UNL     1      -5.482  -0.741  -1.181  1.00  0.00    -0.015 A 
ATOM     18  C   UNL     1      -6.278  -0.063  -2.124  1.00  0.00     0.009 A 
ATOM     19  C   UNL     1      -6.142  -1.324  -0.084  1.00  0.00     0.009 A 
ATOM     20  C   UNL     1      -7.663   0.044  -1.970  1.00  0.00     0.001 A 
ATOM     21  C   UNL     1      -7.529  -1.227   0.068  1.00  0.00     0.001 A 
ATOM     22  C   UNL     1      -8.288  -0.537  -0.873  1.00  0.00     0.000 A 
ENDBRANCH  15  17
ENDBRANCH   8  10
ENDBRANCH   5   8
ENDBRANCH   3   4
ENDBRANCH   2   3
ENDBRANCH   1   2
BRANCH   1  23
ATOM     23  C   UNL     1       0.733   4.933   1.040  1.00  0.00     0.116 C 
BRANCH  23  24
ATOM     24  N   UNL     1       0.586   5.919  -0.021  1.00  0.00    -0.352 N 
ATOM     25  C   UNL     1       0.724   7.286   0.046  1.00  0.00     0.251 C 
ATOM     26  H   UNL     1       0.357   5.558  -0.908  1.00  0.00     0.163 HD
ATOM     27  O   UNL     1       0.454   7.978  -0.932  1.00  0.00    -0.269 OA
BRANCH  25  28
ATOM     28  C   UNL     1       1.159   7.916   1.311  1.00  0.00     0.039 A 
ATOM     29  C   UNL     1       0.440   9.007   1.804  1.00  0.00     0.014 A 
ATOM     30  C   UNL     1       2.245   7.405   2.028  1.00  0.00     0.014 A 
ATOM     31  C   UNL     1       0.759   9.534   3.058  1.00  0.00     0.010 A 
ATOM     32  C   UNL     1       2.513   7.884   3.307  1.00  0.00     0.010 A 
ATOM     33  C   UNL     1       1.769   8.948   3.838  1.00  0.00    -0.014 A 
BRANCH  33  34
ATOM     34  C   UNL     1       2.047   9.415   5.221  1.00  0.00     0.031 A 
ATOM     35  C   UNL     1       3.386  10.009   5.564  1.00  0.00     0.074 A 
ATOM     36  C   UNL     1       1.121   9.232   6.184  1.00  0.00     0.049 A 
ATOM     37  N   UNL     1       3.839  10.400   6.727  1.00  0.00    -0.248 NA
ATOM     38  C   UNL     1       4.352  10.158   4.462  1.00  0.00     0.031 C 
ATOM     39  C   UNL     1      -0.197   8.620   5.991  1.00  0.00     0.029 A 
ATOM     40  N   UNL     1       1.152   9.531   7.523  1.00  0.00    -0.354 N 
ATOM     41  C   UNL     1       5.145  10.821   6.503  1.00  0.00     0.074 A 
ATOM     42  C   UNL     1       5.426  10.598   5.102  1.00  0.00     0.031 C 
ATOM     43  C   UNL     1      -0.855   8.612   7.161  1.00  0.00     0.029 A 
ATOM     44  C   UNL     1       0.004   9.179   8.195  1.00  0.00     0.049 A 
ATOM     45  H   UNL     1       1.923   9.958   7.962  1.00  0.00     0.167 HD
ATOM     46  C   UNL     1       6.024  11.361   7.380  1.00  0.00     0.031 A 
ATOM     47  C   UNL     1      -0.319   9.293   9.498  1.00  0.00     0.031 A 
ATOM     48  C   UNL     1       5.734  11.603   8.768  1.00  0.00     0.049 A 
ATOM     49  C   UNL     1       0.672   9.906  10.449  1.00  0.00     0.074 A 
ATOM     50  C   UNL     1       6.537  12.206   9.721  1.00  0.00     0.029 A 
ATOM     51  N   UNL     1       4.551  11.258   9.402  1.00  0.00    -0.354 N 
ATOM     52  N   UNL     1       1.877  10.361  10.201  1.00  0.00    -0.248 NA
ATOM     53  C   UNL     1       0.255  10.031  11.853  1.00  0.00     0.031 C 
ATOM     54  C   UNL     1       5.856  12.187  10.942  1.00  0.00     0.029 A 
ATOM     55  C   UNL     1       4.609  11.618  10.738  1.00  0.00     0.049 A 
ATOM     56  H   UNL     1       3.784  10.821   8.967  1.00  0.00     0.167 HD
ATOM     57  C   UNL     1       2.352  10.849  11.414  1.00  0.00     0.074 A 
ATOM     58  C   UNL     1       1.299  10.648  12.388  1.00  0.00     0.031 C 
ATOM     59  C   UNL     1       3.552  11.414  11.694  1.00  0.00     0.031 A 
BRANCH  46  60
ATOM     60  C   UNL     1       7.387  11.733   6.862  1.00  0.00    -0.014 A 
ATOM     61  C   UNL     1       7.560  12.837   6.007  1.00  0.00     0.010 A 
ATOM     62  C   UNL     1       8.517  11.005   7.277  1.00  0.00     0.010 A 
ATOM     63  C   UNL     1       8.834  13.185   5.551  1.00  0.00     0.020 A 
ATOM     64  C   UNL     1       9.796  11.366   6.843  1.00  0.00     0.020 A 
ATOM     65  C   UNL     1       9.944  12.446   5.970  1.00  0.00     0.054 A 
BRANCH  65  66
ATOM     66  S   UNL     1      11.589  12.943   5.390  1.00  0.00     0.124 S 
ATOM     67  O   UNL     1      11.566  12.492   4.001  1.00  0.00    -0.237 OA
ATOM     68  O   UNL     1      11.572  14.391   5.580  1.00  0.00    -0.237 OA
ATOM     69  O   UNL     1      12.501  12.213   6.267  1.00  0.00    -0.744 OA
ENDBRANCH  65  66
ENDBRANCH  46  60
BRANCH  47  70
ATOM     70  C   UNL     1      -1.647   8.826   9.982  1.00  0.00    -0.014 A 
ATOM     71  C   UNL     1      -2.627   9.754  10.378  1.00  0.00     0.010 A 
ATOM     72  C   UNL     1      -1.938   7.452  10.051  1.00  0.00     0.010 A 
ATOM     73  C   UNL     1      -3.864   9.315  10.859  1.00  0.00     0.020 A 
ATOM     74  C   UNL     1      -3.184   7.010  10.507  1.00  0.00     0.020 A 
ATOM     75  C   UNL     1      -4.134   7.945  10.922  1.00  0.00     0.054 A 
BRANCH  75  76
ATOM     76  S   UNL     1      -5.760   7.398  11.513  1.00  0.00     0.124 S 
ATOM     77  O   UNL     1      -5.638   7.590  12.954  1.00  0.00    -0.237 OA
ATOM     78  O   UNL     1      -6.671   8.311  10.827  1.00  0.00    -0.237 OA
ATOM     79  O   UNL     1      -5.833   6.008  11.069  1.00  0.00    -0.744 OA
ENDBRANCH  75  76
ENDBRANCH  47  70
BRANCH  59  80
ATOM     80  C   UNL     1       3.781  11.887  13.103  1.00  0.00    -0.014 A 
ATOM     81  C   UNL     1       4.007  10.975  14.149  1.00  0.00     0.010 A 
ATOM     82  C   UNL     1       3.824  13.267  13.373  1.00  0.00     0.010 A 
ATOM     83  C   UNL     1       4.243  11.435  15.447  1.00  0.00     0.020 A 
ATOM     84  C   UNL     1       4.085  13.731  14.664  1.00  0.00     0.020 A 
ATOM     85  C   UNL     1       4.279  12.811  15.697  1.00  0.00     0.054 A 
BRANCH  85  86
ATOM     86  S   UNL     1       4.631  13.386  17.381  1.00  0.00     0.124 S 
ATOM     87  O   UNL     1       3.361  13.136  18.058  1.00  0.00    -0.237 OA
ATOM     88  O   UNL     1       5.741  12.528  17.788  1.00  0.00    -0.237 OA
ATOM     89  O   UNL     1       4.974  14.795  17.201  1.00  0.00    -0.744 OA
ENDBRANCH  85  86
ENDBRANCH  59  80
ENDBRANCH  33  34
ENDBRANCH  25  28
ENDBRANCH  23  24
ENDBRANCH   1  23
TORSDOF 16
