REMARK SMILES Cc1cccc(-c2cccc(O)c2)c1C(=O)NCCCCNC(=O)c1ccc(-c2c3nc(c(-c4ccc(S(=O)(=O)[O-])cc4)c4ccc([nH]4)c(-c4ccc(S(=O)(=O)[O-])cc4)c4nc(c(-c5ccc(S(=O)(=O)[O-])cc5)c5ccc2[nH]5)C=C4)C=C3)cc1
REMARK SMILES IDX 20 1 19 2 18 3 17 4 15 5 16 6 14 8 1 9 2 10 3 11 4 12 6 13
REMARK SMILES IDX 5 14 7 15 8 16 13 17 9 18 11 19 10 20 12 21 21 23 22 24
REMARK SMILES IDX 23 25 24 27 25 28 26 29 84 30 27 31 83 32 28 33 29 34 30 35
REMARK SMILES IDX 77 36 31 37 82 38 76 39 78 40 32 41 81 42 75 43 74 44 33 46
REMARK SMILES IDX 63 47 44 48 62 49 45 50 48 51 61 52 79 53 46 54 47 55 60 57
REMARK SMILES IDX 80 58 49 59 34 60 35 61 43 62 36 63 42 64 37 65 38 66 39 67
REMARK SMILES IDX 40 68 41 69 64 70 65 71 73 72 66 73 72 74 67 75 68 76 69 77
REMARK SMILES IDX 70 78 71 79 50 80 51 81 59 82 52 83 58 84 53 85 54 86 55 87
REMARK SMILES IDX 56 88 57 89
REMARK H PARENT 17 7 12 22 22 26 78 45 48 56
REMARK Flexibility Score: inf
ROOT
ATOM      1  C   UNL     1       5.027   2.135  -1.888  1.00  0.00     0.023 C 
ENDROOT
BRANCH   1   2
ATOM      2  C   UNL     1       4.329   0.967  -1.187  1.00  0.00     0.023 C 
BRANCH   2   3
ATOM      3  C   UNL     1       3.562   1.337   0.100  1.00  0.00     0.116 C 
BRANCH   3   4
ATOM      4  N   UNL     1       2.401   2.162  -0.192  1.00  0.00    -0.352 N 
ATOM      5  C   UNL     1       1.046   2.072  -0.353  1.00  0.00     0.252 C 
ATOM      6  O   UNL     1       0.586   3.178  -0.660  1.00  0.00    -0.269 OA
ATOM      7  H   UNL     1       2.685   3.096  -0.313  1.00  0.00     0.163 HD
BRANCH   5   8
ATOM      8  C   UNL     1       0.107   0.880  -0.185  1.00  0.00     0.050 A 
ATOM      9  C   UNL     1       1.759  -1.018  -0.863  1.00  0.00     0.045 C 
ATOM     10  C   UNL     1       0.470  -0.492  -0.312  1.00  0.00    -0.038 A 
ATOM     11  C   UNL     1      -0.459  -1.523  -0.026  1.00  0.00     0.004 A 
ATOM     12  C   UNL     1      -1.778  -1.252   0.264  1.00  0.00     0.001 A 
ATOM     13  C   UNL     1      -1.293   1.148   0.061  1.00  0.00    -0.005 A 
ATOM     14  C   UNL     1      -2.191   0.066   0.272  1.00  0.00     0.009 A 
BRANCH  13  15
ATOM     15  C   UNL     1      -1.969   2.475   0.065  1.00  0.00    -0.014 A 
ATOM     16  C   UNL     1      -2.063   3.259  -1.099  1.00  0.00     0.009 A 
ATOM     17  C   UNL     1      -2.674   2.916   1.200  1.00  0.00     0.055 A 
ATOM     18  C   UNL     1      -2.760   4.472  -1.110  1.00  0.00     0.004 A 
ATOM     19  C   UNL     1      -3.406   4.101   1.170  1.00  0.00     0.116 A 
ATOM     20  C   UNL     1      -3.440   4.894   0.029  1.00  0.00     0.046 A 
BRANCH  19  21
ATOM     21  O   UNL     1      -4.104   4.448   2.291  1.00  0.00    -0.508 OA
ATOM     22  H   UNL     1      -4.606   5.238   2.304  1.00  0.00     0.293 HD
ENDBRANCH  19  21
ENDBRANCH  13  15
ENDBRANCH   5   8
ENDBRANCH   3   4
ENDBRANCH   2   3
ENDBRANCH   1   2
BRANCH   1  23
ATOM     23  C   UNL     1       6.309   2.551  -1.190  1.00  0.00     0.116 C 
BRANCH  23  24
ATOM     24  N   UNL     1       7.533   2.119  -1.859  1.00  0.00    -0.352 N 
ATOM     25  C   UNL     1       8.830   2.411  -1.486  1.00  0.00     0.251 C 
ATOM     26  H   UNL     1       7.421   1.559  -2.662  1.00  0.00     0.163 HD
ATOM     27  O   UNL     1       9.788   2.230  -2.233  1.00  0.00    -0.269 OA
BRANCH  25  28
ATOM     28  C   UNL     1       9.040   2.843  -0.088  1.00  0.00     0.039 A 
ATOM     29  C   UNL     1       9.661   1.929   0.771  1.00  0.00     0.014 A 
ATOM     30  C   UNL     1       8.321   3.925   0.410  1.00  0.00     0.014 A 
ATOM     31  C   UNL     1       9.385   1.980   2.134  1.00  0.00     0.010 A 
ATOM     32  C   UNL     1       7.949   3.896   1.738  1.00  0.00     0.010 A 
ATOM     33  C   UNL     1       8.440   2.895   2.592  1.00  0.00    -0.014 A 
BRANCH  33  34
ATOM     34  C   UNL     1       7.832   2.843   3.919  1.00  0.00     0.031 A 
ATOM     35  C   UNL     1       8.127   3.915   4.900  1.00  0.00     0.074 A 
ATOM     36  C   UNL     1       6.913   1.896   4.216  1.00  0.00     0.049 A 
ATOM     37  N   UNL     1       7.934   3.824   6.174  1.00  0.00    -0.248 NA
ATOM     38  C   UNL     1       8.747   5.178   4.509  1.00  0.00     0.031 C 
ATOM     39  C   UNL     1       5.969   1.920   5.331  1.00  0.00     0.029 A 
ATOM     40  N   UNL     1       6.780   0.605   3.698  1.00  0.00    -0.354 N 
ATOM     41  C   UNL     1       8.069   5.090   6.701  1.00  0.00     0.074 A 
ATOM     42  C   UNL     1       8.694   5.861   5.654  1.00  0.00     0.031 C 
ATOM     43  C   UNL     1       5.598   0.661   5.608  1.00  0.00     0.029 A 
ATOM     44  C   UNL     1       6.405  -0.214   4.776  1.00  0.00     0.049 A 
ATOM     45  H   UNL     1       6.922   0.326   2.764  1.00  0.00     0.167 HD
ATOM     46  C   UNL     1       7.488   5.387   7.899  1.00  0.00     0.031 A 
ATOM     47  C   UNL     1       7.139  -1.272   5.232  1.00  0.00     0.031 A 
ATOM     48  C   UNL     1       6.984   4.183   8.563  1.00  0.00     0.049 A 
ATOM     49  C   UNL     1       7.532  -1.140   6.688  1.00  0.00     0.074 A 
ATOM     50  C   UNL     1       5.716   3.652   8.736  1.00  0.00     0.029 A 
ATOM     51  N   UNL     1       7.881   3.183   8.925  1.00  0.00    -0.354 N 
ATOM     52  N   UNL     1       7.421  -0.035   7.371  1.00  0.00    -0.248 NA
ATOM     53  C   UNL     1       8.130  -2.216   7.477  1.00  0.00     0.031 C 
ATOM     54  C   UNL     1       5.860   2.288   9.107  1.00  0.00     0.029 A 
ATOM     55  C   UNL     1       7.212   2.004   9.194  1.00  0.00     0.049 A 
ATOM     56  H   UNL     1       8.857   3.299   8.983  1.00  0.00     0.167 HD
ATOM     57  C   UNL     1       7.920  -0.213   8.633  1.00  0.00     0.074 A 
ATOM     58  C   UNL     1       8.339  -1.603   8.657  1.00  0.00     0.031 C 
ATOM     59  C   UNL     1       7.958   0.802   9.544  1.00  0.00     0.031 A 
BRANCH  46  60
ATOM     60  C   UNL     1       7.107   6.798   8.319  1.00  0.00    -0.014 A 
ATOM     61  C   UNL     1       6.095   6.990   9.284  1.00  0.00     0.010 A 
ATOM     62  C   UNL     1       7.622   7.974   7.741  1.00  0.00     0.010 A 
ATOM     63  C   UNL     1       5.564   8.261   9.572  1.00  0.00     0.020 A 
ATOM     64  C   UNL     1       7.090   9.246   7.999  1.00  0.00     0.020 A 
ATOM     65  C   UNL     1       6.047   9.381   8.903  1.00  0.00     0.054 A 
BRANCH  65  66
ATOM     66  S   UNL     1       5.300  11.002   9.208  1.00  0.00     0.124 S 
ATOM     67  O   UNL     1       3.902  10.778   8.848  1.00  0.00    -0.237 OA
ATOM     68  O   UNL     1       5.562  11.207  10.629  1.00  0.00    -0.237 OA
ATOM     69  O   UNL     1       6.029  11.896   8.309  1.00  0.00    -0.744 OA
ENDBRANCH  65  66
ENDBRANCH  46  60
BRANCH  47  70
ATOM     70  C   UNL     1       7.941  -1.960   4.184  1.00  0.00    -0.014 A 
ATOM     71  C   UNL     1       7.228  -2.710   3.224  1.00  0.00     0.010 A 
ATOM     72  C   UNL     1       9.239  -1.514   3.877  1.00  0.00     0.010 A 
ATOM     73  C   UNL     1       7.716  -2.838   1.923  1.00  0.00     0.020 A 
ATOM     74  C   UNL     1       9.732  -1.647   2.571  1.00  0.00     0.020 A 
ATOM     75  C   UNL     1       8.931  -2.241   1.590  1.00  0.00     0.054 A 
BRANCH  75  76
ATOM     76  S   UNL     1       9.327  -2.054  -0.175  1.00  0.00     0.124 S 
ATOM     77  O   UNL     1       9.291  -3.433  -0.652  1.00  0.00    -0.237 OA
ATOM     78  O   UNL     1       8.232  -1.200  -0.632  1.00  0.00    -0.237 OA
ATOM     79  O   UNL     1      10.645  -1.427  -0.157  1.00  0.00    -0.744 OA
ENDBRANCH  75  76
ENDBRANCH  47  70
BRANCH  59  80
ATOM     80  C   UNL     1       8.643   0.753  10.887  1.00  0.00    -0.014 A 
ATOM     81  C   UNL     1       9.749  -0.061  11.178  1.00  0.00     0.010 A 
ATOM     82  C   UNL     1       8.242   1.675  11.884  1.00  0.00     0.010 A 
ATOM     83  C   UNL     1      10.388   0.001  12.426  1.00  0.00     0.020 A 
ATOM     84  C   UNL     1       8.897   1.774  13.114  1.00  0.00     0.020 A 
ATOM     85  C   UNL     1       9.955   0.915  13.388  1.00  0.00     0.054 A 
BRANCH  85  86
ATOM     86  S   UNL     1      10.825   1.040  14.972  1.00  0.00     0.124 S 
ATOM     87  O   UNL     1      10.106   0.064  15.786  1.00  0.00    -0.237 OA
ATOM     88  O   UNL     1      12.197   0.675  14.624  1.00  0.00    -0.237 OA
ATOM     89  O   UNL     1      10.638   2.437  15.354  1.00  0.00    -0.744 OA
ENDBRANCH  85  86
ENDBRANCH  59  80
ENDBRANCH  33  34
ENDBRANCH  25  28
ENDBRANCH  23  24
ENDBRANCH   1  23
TORSDOF 16
