REMARK SMILES NS(=O)(=O)c1ccc(-n2nc(C(=O)NCCCCNC(=O)c3ccc(-c4c5nc(c(-c6ccc(S(=O)(=O)[O-])cc6)c6ccc([nH]6)c(-c6ccc(S(=O)(=O)[O-])cc6)c6nc(c(-c7ccc(S(=O)(=O)[O-])cc7)c7ccc4[nH]7)C=C6)C=C5)cc3)cc2-c2cc3ccccc3s2)cc1
REMARK SMILES IDX 16 1 15 2 14 3 12 4 13 5 11 7 9 8 10 9 83 10 82 11 8 12 5 13
REMARK SMILES IDX 6 14 94 15 7 16 93 17 2 18 3 19 4 20 1 21 84 24 85 25 92 26
REMARK SMILES IDX 86 27 91 28 87 29 90 30 88 31 89 32 17 33 18 34 19 35 20 36
REMARK SMILES IDX 21 38 22 39 23 40 81 41 24 42 80 43 25 44 26 45 27 46 74 47
REMARK SMILES IDX 28 48 79 49 73 50 75 51 29 52 78 53 72 54 71 55 30 57 60 58
REMARK SMILES IDX 41 59 59 60 42 61 45 62 58 63 76 64 43 65 44 66 57 68 77 69
REMARK SMILES IDX 46 70 31 71 32 72 40 73 33 74 39 75 34 76 35 77 36 78 37 79
REMARK SMILES IDX 38 80 61 81 62 82 70 83 63 84 69 85 64 86 65 87 66 88 67 89
REMARK SMILES IDX 68 90 47 91 48 92 56 93 49 94 55 95 50 96 51 97 52 98 53 99
REMARK SMILES IDX 54 100
REMARK H PARENT 14 6 1 22 1 23 19 37 75 56 45 67
REMARK Flexibility Score: inf
ROOT
ATOM      1  C   UNL     1       3.424  10.869   5.459  1.00  0.00     0.023 C 
ENDROOT
BRANCH   1   2
ATOM      2  C   UNL     1       2.305   9.886   5.833  1.00  0.00     0.116 C 
BRANCH   2   3
ATOM      3  N   UNL     1       1.129  10.040   4.986  1.00  0.00    -0.351 N 
ATOM      4  C   UNL     1       0.645   9.320   3.905  1.00  0.00     0.271 C 
ATOM      5  O   UNL     1      -0.449   9.671   3.461  1.00  0.00    -0.267 OA
ATOM      6  H   UNL     1       0.567  10.810   5.231  1.00  0.00     0.163 HD
BRANCH   4   7
ATOM      7  C   UNL     1       1.385   8.162   3.360  1.00  0.00     0.151 A 
ATOM      8  N   UNL     1       1.654   6.143   2.649  1.00  0.00    -0.231 N 
ATOM      9  N   UNL     1       0.787   7.196   2.634  1.00  0.00    -0.162 NA
ATOM     10  C   UNL     1       2.813   6.479   3.316  1.00  0.00     0.085 A 
ATOM     11  C   UNL     1       2.748   7.852   3.476  1.00  0.00     0.066 A 
BRANCH   8  12
ATOM     12  C   UNL     1       1.352   4.971   1.910  1.00  0.00     0.065 A 
ATOM     13  C   UNL     1       0.818   2.744   0.315  1.00  0.00     0.082 A 
ATOM     14  C   UNL     1       1.386   2.572   1.581  1.00  0.00     0.024 A 
ATOM     15  C   UNL     1       0.498   4.020  -0.153  1.00  0.00     0.024 A 
ATOM     16  C   UNL     1       1.678   3.691   2.372  1.00  0.00     0.030 A 
ATOM     17  C   UNL     1       0.736   5.130   0.658  1.00  0.00     0.030 A 
BRANCH  13  18
ATOM     18  S   UNL     1       0.519   1.378  -0.766  1.00  0.00     0.238 S 
ATOM     19  O   UNL     1       1.291   1.568  -1.966  1.00  0.00    -0.207 OA
ATOM     20  O   UNL     1      -0.903   1.104  -0.786  1.00  0.00    -0.207 OA
BRANCH  18  21
ATOM     21  N   UNL     1       1.219   0.056   0.000  1.00  0.00    -0.225 NA
ATOM     22  H   UNL     1       1.085  -0.779  -0.571  1.00  0.00     0.137 HD
ATOM     23  H   UNL     1       0.779  -0.082   0.910  1.00  0.00     0.137 HD
ENDBRANCH  18  21
ENDBRANCH  13  18
ENDBRANCH   8  12
BRANCH  10  24
ATOM     24  C   UNL     1       3.843   5.670   3.910  1.00  0.00     0.054 A 
ATOM     25  C   UNL     1       5.202   5.966   3.868  1.00  0.00     0.031 A 
ATOM     26  S   UNL     1       3.545   5.079   5.519  1.00  0.00    -0.134 S 
ATOM     27  C   UNL     1       5.507   6.668   5.108  1.00  0.00    -0.007 A 
ATOM     28  C   UNL     1       4.571   6.351   6.102  1.00  0.00     0.035 A 
ATOM     29  C   UNL     1       6.459   7.675   5.388  1.00  0.00     0.009 A 
ATOM     30  C   UNL     1       4.516   7.027   7.330  1.00  0.00     0.019 A 
ATOM     31  C   UNL     1       6.372   8.396   6.585  1.00  0.00     0.001 A 
ATOM     32  C   UNL     1       5.401   8.088   7.533  1.00  0.00     0.001 A 
ENDBRANCH  10  24
ENDBRANCH   4   7
ENDBRANCH   2   3
ENDBRANCH   1   2
BRANCH   1  33
ATOM     33  C   UNL     1       3.219  12.318   5.930  1.00  0.00     0.023 C 
BRANCH  33  34
ATOM     34  C   UNL     1       3.204  12.520   7.445  1.00  0.00     0.116 C 
BRANCH  34  35
ATOM     35  N   UNL     1       4.481  12.213   8.088  1.00  0.00    -0.352 N 
ATOM     36  C   UNL     1       4.761  12.169   9.443  1.00  0.00     0.251 C 
ATOM     37  H   UNL     1       5.232  12.012   7.485  1.00  0.00     0.163 HD
ATOM     38  O   UNL     1       5.912  12.320   9.839  1.00  0.00    -0.269 OA
BRANCH  36  39
ATOM     39  C   UNL     1       3.663  11.935  10.405  1.00  0.00     0.039 A 
ATOM     40  C   UNL     1       3.613  12.614  11.626  1.00  0.00     0.014 A 
ATOM     41  C   UNL     1       2.661  11.029  10.063  1.00  0.00     0.014 A 
ATOM     42  C   UNL     1       2.495  12.449  12.444  1.00  0.00     0.010 A 
ATOM     43  C   UNL     1       1.503  10.964  10.806  1.00  0.00     0.010 A 
ATOM     44  C   UNL     1       1.420  11.650  12.013  1.00  0.00    -0.014 A 
BRANCH  44  45
ATOM     45  C   UNL     1       0.139  11.685  12.723  1.00  0.00     0.031 A 
ATOM     46  C   UNL     1      -0.373  13.063  12.951  1.00  0.00     0.074 A 
ATOM     47  C   UNL     1      -0.640  10.609  12.978  1.00  0.00     0.049 A 
ATOM     48  N   UNL     1      -0.359  13.720  14.062  1.00  0.00    -0.248 NA
ATOM     49  C   UNL     1      -0.769  13.873  11.786  1.00  0.00     0.031 C 
ATOM     50  C   UNL     1      -0.417   9.219  12.569  1.00  0.00     0.029 A 
ATOM     51  N   UNL     1      -1.866  10.547  13.575  1.00  0.00    -0.354 N 
ATOM     52  C   UNL     1      -1.014  14.916  13.795  1.00  0.00     0.074 A 
ATOM     53  C   UNL     1      -1.017  15.053  12.360  1.00  0.00     0.031 C 
ATOM     54  C   UNL     1      -1.562   8.512  12.713  1.00  0.00     0.029 A 
ATOM     55  C   UNL     1      -2.548   9.346  13.376  1.00  0.00     0.049 A 
ATOM     56  H   UNL     1      -2.240  11.290  14.102  1.00  0.00     0.167 HD
ATOM     57  C   UNL     1      -1.779  15.521  14.748  1.00  0.00     0.031 A 
ATOM     58  C   UNL     1      -3.831   9.055  13.718  1.00  0.00     0.031 A 
ATOM     59  C   UNL     1      -1.535  14.960  16.057  1.00  0.00     0.049 A 
ATOM     60  C   UNL     1      -4.223  10.006  14.784  1.00  0.00     0.074 A 
ATOM     61  C   UNL     1      -0.415  14.754  16.841  1.00  0.00     0.029 A 
ATOM     62  N   UNL     1      -2.507  14.129  16.564  1.00  0.00    -0.354 N 
ATOM     63  N   UNL     1      -3.703   9.986  15.977  1.00  0.00    -0.248 NA
ATOM     64  C   UNL     1      -4.856  11.255  14.400  1.00  0.00     0.031 C 
ATOM     65  C   UNL     1      -0.623  13.482  17.453  1.00  0.00     0.029 A 
ATOM     66  C   UNL     1      -1.891  13.026  17.088  1.00  0.00     0.049 A 
ATOM     67  H   UNL     1      -3.477  14.299  16.551  1.00  0.00     0.167 HD
ATOM     68  C   UNL     1      -3.517  11.321  16.297  1.00  0.00     0.074 A 
ATOM     69  C   UNL     1      -4.350  12.054  15.343  1.00  0.00     0.031 C 
ATOM     70  C   UNL     1      -2.490  11.709  17.110  1.00  0.00     0.031 A 
BRANCH  57  71
ATOM     71  C   UNL     1      -3.069  16.251  14.434  1.00  0.00    -0.014 A 
ATOM     72  C   UNL     1      -3.789  16.831  15.500  1.00  0.00     0.010 A 
ATOM     73  C   UNL     1      -3.746  16.127  13.203  1.00  0.00     0.010 A 
ATOM     74  C   UNL     1      -5.140  17.173  15.364  1.00  0.00     0.020 A 
ATOM     75  C   UNL     1      -5.078  16.511  13.043  1.00  0.00     0.020 A 
ATOM     76  C   UNL     1      -5.778  16.996  14.137  1.00  0.00     0.054 A 
BRANCH  76  77
ATOM     77  S   UNL     1      -7.544  17.355  13.995  1.00  0.00     0.124 S 
ATOM     78  O   UNL     1      -8.126  16.320  14.843  1.00  0.00    -0.237 OA
ATOM     79  O   UNL     1      -7.621  18.719  14.510  1.00  0.00    -0.237 OA
ATOM     80  O   UNL     1      -7.804  17.218  12.564  1.00  0.00    -0.744 OA
ENDBRANCH  76  77
ENDBRANCH  57  71
BRANCH  58  81
ATOM     81  C   UNL     1      -4.822   8.172  13.048  1.00  0.00    -0.014 A 
ATOM     82  C   UNL     1      -6.048   7.855  13.671  1.00  0.00     0.010 A 
ATOM     83  C   UNL     1      -4.701   7.891  11.673  1.00  0.00     0.010 A 
ATOM     84  C   UNL     1      -7.135   7.359  12.929  1.00  0.00     0.020 A 
ATOM     85  C   UNL     1      -5.777   7.389  10.929  1.00  0.00     0.020 A 
ATOM     86  C   UNL     1      -7.000   7.155  11.554  1.00  0.00     0.054 A 
BRANCH  86  87
ATOM     87  S   UNL     1      -8.463   6.719  10.564  1.00  0.00     0.124 S 
ATOM     88  O   UNL     1      -8.713   5.338  10.965  1.00  0.00    -0.237 OA
ATOM     89  O   UNL     1      -9.454   7.696  11.009  1.00  0.00    -0.237 OA
ATOM     90  O   UNL     1      -8.007   6.891   9.185  1.00  0.00    -0.744 OA
ENDBRANCH  86  87
ENDBRANCH  58  81
BRANCH  70  91
ATOM     91  C   UNL     1      -1.794  10.658  17.946  1.00  0.00    -0.014 A 
ATOM     92  C   UNL     1      -1.179   9.500  17.430  1.00  0.00     0.010 A 
ATOM     93  C   UNL     1      -1.683  10.914  19.324  1.00  0.00     0.010 A 
ATOM     94  C   UNL     1      -0.522   8.598  18.282  1.00  0.00     0.020 A 
ATOM     95  C   UNL     1      -1.012  10.034  20.173  1.00  0.00     0.020 A 
ATOM     96  C   UNL     1      -0.452   8.868  19.652  1.00  0.00     0.054 A 
BRANCH  96  97
ATOM     97  S   UNL     1       0.383   7.696  20.755  1.00  0.00     0.124 S 
ATOM     98  O   UNL     1      -0.495   6.530  20.704  1.00  0.00    -0.237 OA
ATOM     99  O   UNL     1       1.690   7.528  20.122  1.00  0.00    -0.237 OA
ATOM    100  O   UNL     1       0.413   8.390  22.043  1.00  0.00    -0.744 OA
ENDBRANCH  96  97
ENDBRANCH  70  91
ENDBRANCH  44  45
ENDBRANCH  36  39
ENDBRANCH  34  35
ENDBRANCH  33  34
ENDBRANCH   1  33
TORSDOF 18
