REMARK SMILES O=C(NC[C@@H]1CC[C@H](C(=O)NCCCCNC(=O)c2ccc(-c3c4nc(c(-c5ccc(S(=O)(=O)[O-])cc5)c5ccc([nH]5)c(-c5ccc(S(=O)(=O)[O-])cc5)c5nc(c(-c6ccc(S(=O)(=O)[O-])cc6)c6ccc3[nH]6)C=C5)C=C4)cc2)O1)Nc1ncccn1
REMARK SMILES IDX 13 1 12 2 11 3 9 4 10 5 8 7 5 8 6 9 79 10 7 11 4 12 3 13
REMARK SMILES IDX 1 14 2 15 80 16 81 19 82 20 86 21 83 22 85 23 84 24 14 25
REMARK SMILES IDX 15 26 16 27 17 28 18 30 19 31 20 32 78 33 21 34 77 35 22 36
REMARK SMILES IDX 23 37 24 38 71 39 25 40 76 41 70 42 72 43 26 44 75 45 69 46
REMARK SMILES IDX 68 47 27 49 57 50 38 51 56 52 39 53 42 54 55 55 73 56 40 57
REMARK SMILES IDX 41 58 54 60 74 61 43 62 28 63 29 64 37 65 30 66 36 67 31 68
REMARK SMILES IDX 32 69 33 70 34 71 35 72 58 73 59 74 67 75 60 76 66 77 61 78
REMARK SMILES IDX 62 79 63 80 64 81 65 82 44 83 45 84 53 85 46 86 52 87 47 88
REMARK SMILES IDX 48 89 49 90 50 91 51 92
REMARK H PARENT 11 6 3 17 80 18 16 29 72 48 42 59
REMARK Flexibility Score: inf
ROOT
ATOM      1  C   UNL     1       0.949   1.029  -3.033  1.00  0.00     0.023 C 
ENDROOT
BRANCH   1   2
ATOM      2  C   UNL     1       1.504  -0.276  -2.459  1.00  0.00     0.116 C 
BRANCH   2   3
ATOM      3  N   UNL     1       1.759  -1.266  -3.483  1.00  0.00    -0.354 N 
ATOM      4  C   UNL     1       2.956  -1.691  -3.980  1.00  0.00     0.249 C 
ATOM      5  O   UNL     1       2.947  -2.607  -4.809  1.00  0.00    -0.272 OA
ATOM      6  H   UNL     1       0.961  -1.691  -3.873  1.00  0.00     0.163 HD
BRANCH   4   7
ATOM      7  C   UNL     1       4.288  -1.002  -3.594  1.00  0.00     0.207 C 
ATOM      8  C   UNL     1       5.305   0.373  -2.032  1.00  0.00     0.138 C 
ATOM      9  C   UNL     1       4.738   1.308  -3.085  1.00  0.00     0.037 C 
ATOM     10  O   UNL     1       4.588  -0.860  -2.201  1.00  0.00    -0.363 OA
ATOM     11  C   UNL     1       4.441   0.375  -4.239  1.00  0.00     0.045 C 
BRANCH   8  12
ATOM     12  C   UNL     1       5.239   0.884  -0.579  1.00  0.00     0.149 C 
BRANCH  12  13
ATOM     13  N   UNL     1       3.896   1.251  -0.152  1.00  0.00    -0.335 N 
ATOM     14  O   UNL     1       1.808   0.903   0.461  1.00  0.00    -0.248 OA
ATOM     15  C   UNL     1       2.976   0.532   0.549  1.00  0.00     0.321 C 
ATOM     16  N   UNL     1       3.441  -0.489   1.302  1.00  0.00    -0.276 N 
ATOM     17  H   UNL     1       3.610   2.157  -0.409  1.00  0.00     0.165 HD
ATOM     18  H   UNL     1       4.416  -0.584   1.394  1.00  0.00     0.175 HD
BRANCH  16  19
ATOM     19  C   UNL     1       2.636  -1.411   1.955  1.00  0.00     0.230 A 
ATOM     20  N   UNL     1       3.205  -1.980   3.033  1.00  0.00    -0.221 NA
ATOM     21  N   UNL     1       1.406  -1.701   1.507  1.00  0.00    -0.221 NA
ATOM     22  C   UNL     1       2.431  -2.825   3.742  1.00  0.00     0.117 A 
ATOM     23  C   UNL     1       0.692  -2.588   2.226  1.00  0.00     0.117 A 
ATOM     24  C   UNL     1       1.153  -3.173   3.379  1.00  0.00     0.040 A 
ENDBRANCH  16  19
ENDBRANCH  12  13
ENDBRANCH   8  12
ENDBRANCH   4   7
ENDBRANCH   2   3
ENDBRANCH   1   2
BRANCH   1  25
ATOM     25  C   UNL     1      -0.561   1.197  -2.857  1.00  0.00     0.023 C 
BRANCH  25  26
ATOM     26  C   UNL     1      -1.036   1.282  -1.407  1.00  0.00     0.116 C 
BRANCH  26  27
ATOM     27  N   UNL     1      -0.508   2.425  -0.679  1.00  0.00    -0.352 N 
ATOM     28  C   UNL     1      -1.056   3.057   0.416  1.00  0.00     0.251 C 
ATOM     29  H   UNL     1       0.344   2.792  -1.008  1.00  0.00     0.163 HD
ATOM     30  O   UNL     1      -0.530   4.046   0.910  1.00  0.00    -0.269 OA
BRANCH  28  31
ATOM     31  C   UNL     1      -2.332   2.540   0.955  1.00  0.00     0.039 A 
ATOM     32  C   UNL     1      -3.425   3.403   1.047  1.00  0.00     0.014 A 
ATOM     33  C   UNL     1      -2.461   1.187   1.283  1.00  0.00     0.014 A 
ATOM     34  C   UNL     1      -4.679   2.886   1.378  1.00  0.00     0.010 A 
ATOM     35  C   UNL     1      -3.723   0.664   1.548  1.00  0.00     0.010 A 
ATOM     36  C   UNL     1      -4.846   1.506   1.580  1.00  0.00    -0.014 A 
BRANCH  36  37
ATOM     37  C   UNL     1      -6.195   0.920   1.782  1.00  0.00     0.031 A 
ATOM     38  C   UNL     1      -6.553   0.267   3.086  1.00  0.00     0.074 A 
ATOM     39  C   UNL     1      -7.073   0.914   0.760  1.00  0.00     0.049 A 
ATOM     40  N   UNL     1      -7.664  -0.333   3.428  1.00  0.00    -0.248 NA
ATOM     41  C   UNL     1      -5.519   0.266   4.133  1.00  0.00     0.031 C 
ATOM     42  C   UNL     1      -6.828   1.472  -0.572  1.00  0.00     0.029 A 
ATOM     43  N   UNL     1      -8.350   0.415   0.680  1.00  0.00    -0.354 N 
ATOM     44  C   UNL     1      -7.460  -0.797   4.722  1.00  0.00     0.074 A 
ATOM     45  C   UNL     1      -6.103  -0.447   5.085  1.00  0.00     0.031 C 
ATOM     46  C   UNL     1      -7.928   1.312  -1.325  1.00  0.00     0.029 A 
ATOM     47  C   UNL     1      -8.943   0.612  -0.544  1.00  0.00     0.049 A 
ATOM     48  H   UNL     1      -8.798  -0.040   1.429  1.00  0.00     0.167 HD
ATOM     49  C   UNL     1      -8.327  -1.441   5.539  1.00  0.00     0.031 A 
ATOM     50  C   UNL     1     -10.166   0.268  -0.990  1.00  0.00     0.031 A 
ATOM     51  C   UNL     1      -9.677  -1.782   5.179  1.00  0.00     0.049 A 
ATOM     52  C   UNL     1     -11.114  -0.441  -0.065  1.00  0.00     0.074 A 
ATOM     53  C   UNL     1     -10.650  -2.384   5.957  1.00  0.00     0.029 A 
ATOM     54  N   UNL     1     -10.244  -1.555   3.934  1.00  0.00    -0.354 N 
ATOM     55  N   UNL     1     -10.925  -0.813   1.179  1.00  0.00    -0.248 NA
ATOM     56  C   UNL     1     -12.444  -0.767  -0.599  1.00  0.00     0.031 C 
ATOM     57  C   UNL     1     -11.794  -2.556   5.170  1.00  0.00     0.029 A 
ATOM     58  C   UNL     1     -11.548  -2.021   3.915  1.00  0.00     0.049 A 
ATOM     59  H   UNL     1      -9.787  -1.125   3.175  1.00  0.00     0.167 HD
ATOM     60  C   UNL     1     -12.120  -1.396   1.584  1.00  0.00     0.074 A 
ATOM     61  C   UNL     1     -13.027  -1.319   0.456  1.00  0.00     0.031 C 
ATOM     62  C   UNL     1     -12.437  -1.942   2.784  1.00  0.00     0.031 A 
BRANCH  49  63
ATOM     63  C   UNL     1      -7.821  -1.826   6.904  1.00  0.00    -0.014 A 
ATOM     64  C   UNL     1      -7.579  -0.850   7.888  1.00  0.00     0.010 A 
ATOM     65  C   UNL     1      -7.582  -3.178   7.205  1.00  0.00     0.010 A 
ATOM     66  C   UNL     1      -7.047  -1.214   9.128  1.00  0.00     0.020 A 
ATOM     67  C   UNL     1      -7.075  -3.549   8.454  1.00  0.00     0.020 A 
ATOM     68  C   UNL     1      -6.787  -2.560   9.398  1.00  0.00     0.054 A 
BRANCH  68  69
ATOM     69  S   UNL     1      -6.077  -3.008  11.006  1.00  0.00     0.124 S 
ATOM     70  O   UNL     1      -4.675  -2.639  10.827  1.00  0.00    -0.237 OA
ATOM     71  O   UNL     1      -6.832  -2.173  11.938  1.00  0.00    -0.237 OA
ATOM     72  O   UNL     1      -6.336  -4.442  11.111  1.00  0.00    -0.744 OA
ENDBRANCH  68  69
ENDBRANCH  49  63
BRANCH  50  73
ATOM     73  C   UNL     1     -10.573   0.629  -2.374  1.00  0.00    -0.014 A 
ATOM     74  C   UNL     1     -11.473   1.687  -2.593  1.00  0.00     0.010 A 
ATOM     75  C   UNL     1     -10.036  -0.055  -3.480  1.00  0.00     0.010 A 
ATOM     76  C   UNL     1     -11.832   2.053  -3.893  1.00  0.00     0.020 A 
ATOM     77  C   UNL     1     -10.378   0.322  -4.782  1.00  0.00     0.020 A 
ATOM     78  C   UNL     1     -11.279   1.370  -4.980  1.00  0.00     0.054 A 
BRANCH  78  79
ATOM     79  S   UNL     1     -11.702   1.910  -6.661  1.00  0.00     0.124 S 
ATOM     80  O   UNL     1     -13.049   1.372  -6.823  1.00  0.00    -0.237 OA
ATOM     81  O   UNL     1     -11.609   3.365  -6.559  1.00  0.00    -0.237 OA
ATOM     82  O   UNL     1     -10.672   1.286  -7.488  1.00  0.00    -0.744 OA
ENDBRANCH  78  79
ENDBRANCH  50  73
BRANCH  62  83
ATOM     83  C   UNL     1     -13.832  -2.478   2.950  1.00  0.00    -0.014 A 
ATOM     84  C   UNL     1     -14.218  -3.695   2.360  1.00  0.00     0.010 A 
ATOM     85  C   UNL     1     -14.753  -1.781   3.753  1.00  0.00     0.010 A 
ATOM     86  C   UNL     1     -15.510  -4.192   2.551  1.00  0.00     0.020 A 
ATOM     87  C   UNL     1     -16.038  -2.286   3.964  1.00  0.00     0.020 A 
ATOM     88  C   UNL     1     -16.413  -3.483   3.350  1.00  0.00     0.054 A 
BRANCH  88  89
ATOM     89  S   UNL     1     -18.069  -4.172   3.624  1.00  0.00     0.124 S 
ATOM     90  O   UNL     1     -18.740  -3.858   2.366  1.00  0.00    -0.237 OA
ATOM     91  O   UNL     1     -17.796  -5.588   3.855  1.00  0.00    -0.237 OA
ATOM     92  O   UNL     1     -18.557  -3.441   4.792  1.00  0.00    -0.744 OA
ENDBRANCH  88  89
ENDBRANCH  62  83
ENDBRANCH  36  37
ENDBRANCH  28  31
ENDBRANCH  26  27
ENDBRANCH  25  26
ENDBRANCH   1  25
TORSDOF 17
