REMARK SMILES CC1(C)CC(=O)C(C)(C)c2ccc(NC(=O)c3ccc(C(=O)NCCCCNC(=O)c4ccc(-c5c6nc(c(-c7ccc(S(=O)(=O)[O-])cc7)c7ccc([nH]7)c(-c7ccc(S(=O)(=O)[O-])cc7)c7nc(c(-c8ccc(S(=O)(=O)[O-])cc8)c8ccc5[nH]8)C=C7)C=C6)cc4)cc3)cc21
REMARK SMILES IDX 26 1 25 2 24 3 23 4 21 5 22 6 20 8 17 9 18 10 92 11 19 12
REMARK SMILES IDX 91 13 15 14 14 15 16 17 13 18 1 19 2 20 3 21 4 22 94 23 5 24
REMARK SMILES IDX 10 25 93 26 6 27 7 28 11 29 8 30 9 31 12 32 27 33 28 34
REMARK SMILES IDX 29 35 30 37 31 38 32 39 90 40 33 41 89 42 34 43 35 44 36 45
REMARK SMILES IDX 83 46 37 47 88 48 82 49 84 50 38 51 87 52 81 53 80 54 39 56
REMARK SMILES IDX 69 57 50 58 68 59 51 60 54 61 67 62 85 63 52 64 53 65 66 67
REMARK SMILES IDX 86 68 55 69 40 70 41 71 49 72 42 73 48 74 43 75 44 76 45 77
REMARK SMILES IDX 46 78 47 79 70 80 71 81 79 82 72 83 78 84 73 85 74 86 75 87
REMARK SMILES IDX 76 88 77 89 56 90 57 91 65 92 58 93 64 94 59 95 60 96 61 97
REMARK SMILES IDX 62 98 63 99
REMARK H PARENT 23 7 14 16 28 36 84 55 54 66
REMARK Flexibility Score: inf
ROOT
ATOM      1  C   UNL     1      -2.609  -2.244  -5.853  1.00  0.00     0.023 C 
ENDROOT
BRANCH   1   2
ATOM      2  C   UNL     1      -3.042  -2.071  -4.403  1.00  0.00     0.023 C 
BRANCH   2   3
ATOM      3  C   UNL     1      -2.296  -2.873  -3.342  1.00  0.00     0.116 C 
BRANCH   3   4
ATOM      4  N   UNL     1      -0.849  -2.769  -3.360  1.00  0.00    -0.352 N 
ATOM      5  C   UNL     1       0.077  -2.953  -2.354  1.00  0.00     0.251 C 
ATOM      6  O   UNL     1       1.272  -2.903  -2.642  1.00  0.00    -0.269 OA
ATOM      7  H   UNL     1      -0.464  -2.526  -4.233  1.00  0.00     0.163 HD
BRANCH   5   8
ATOM      8  C   UNL     1      -0.317  -3.075  -0.920  1.00  0.00     0.039 A 
ATOM      9  C   UNL     1      -1.215  -2.559   1.669  1.00  0.00     0.040 A 
ATOM     10  C   UNL     1       0.112  -2.281   1.341  1.00  0.00     0.014 A 
ATOM     11  C   UNL     1      -1.998  -3.321   0.797  1.00  0.00     0.014 A 
ATOM     12  C   UNL     1       0.549  -2.515   0.033  1.00  0.00     0.014 A 
ATOM     13  C   UNL     1      -1.529  -3.612  -0.485  1.00  0.00     0.014 A 
BRANCH   9  14
ATOM     14  C   UNL     1      -1.848  -2.051   2.899  1.00  0.00     0.255 C 
ATOM     15  N   UNL     1      -1.824  -0.723   3.271  1.00  0.00    -0.322 N 
ATOM     16  H   UNL     1      -2.241  -0.572   4.150  1.00  0.00     0.170 HD
ATOM     17  O   UNL     1      -2.444  -2.859   3.614  1.00  0.00    -0.269 OA
BRANCH  15  18
ATOM     18  C   UNL     1      -1.344   0.472   2.691  1.00  0.00     0.041 A 
ATOM     19  C   UNL     1       1.784   0.899  -0.302  1.00  0.00     0.016 C 
ATOM     20  C   UNL     1       0.499   1.756  -0.436  1.00  0.00    -0.003 C 
ATOM     21  C   UNL     1      -0.400   1.152  -1.542  1.00  0.00     0.016 C 
ATOM     22  C   UNL     1       0.896   3.156  -0.931  1.00  0.00     0.087 C 
ATOM     23  C   UNL     1      -0.211   1.788   0.933  1.00  0.00    -0.036 A 
ATOM     24  C   UNL     1       1.499   3.958   0.190  1.00  0.00     0.143 C 
ATOM     25  C   UNL     1      -0.119   2.892   1.806  1.00  0.00    -0.031 A 
ATOM     26  C   UNL     1      -0.884   0.621   1.385  1.00  0.00     0.030 A 
ATOM     27  O   UNL     1       2.621   4.453   0.074  1.00  0.00    -0.299 OA
ATOM     28  C   UNL     1       0.603   4.185   1.411  1.00  0.00     0.049 C 
ATOM     29  C   UNL     1      -0.729   2.788   3.072  1.00  0.00     0.007 A 
ATOM     30  C   UNL     1       1.487   4.724   2.558  1.00  0.00     0.024 C 
ATOM     31  C   UNL     1      -0.432   5.259   1.032  1.00  0.00     0.024 C 
ATOM     32  C   UNL     1      -1.309   1.594   3.513  1.00  0.00     0.026 A 
ENDBRANCH  15  18
ENDBRANCH   9  14
ENDBRANCH   5   8
ENDBRANCH   3   4
ENDBRANCH   2   3
ENDBRANCH   1   2
BRANCH   1  33
ATOM     33  C   UNL     1      -2.314  -3.663  -6.319  1.00  0.00     0.116 C 
BRANCH  33  34
ATOM     34  N   UNL     1      -3.440  -4.579  -6.213  1.00  0.00    -0.352 N 
ATOM     35  C   UNL     1      -4.095  -5.306  -7.185  1.00  0.00     0.251 C 
ATOM     36  H   UNL     1      -3.791  -4.699  -5.301  1.00  0.00     0.163 HD
ATOM     37  O   UNL     1      -5.052  -6.004  -6.881  1.00  0.00    -0.269 OA
BRANCH  35  38
ATOM     38  C   UNL     1      -3.683  -5.185  -8.603  1.00  0.00     0.039 A 
ATOM     39  C   UNL     1      -2.340  -5.251  -8.975  1.00  0.00     0.014 A 
ATOM     40  C   UNL     1      -4.664  -4.928  -9.564  1.00  0.00     0.014 A 
ATOM     41  C   UNL     1      -1.960  -4.829 -10.245  1.00  0.00     0.010 A 
ATOM     42  C   UNL     1      -4.285  -4.600 -10.869  1.00  0.00     0.010 A 
ATOM     43  C   UNL     1      -2.927  -4.472 -11.199  1.00  0.00    -0.014 A 
BRANCH  43  44
ATOM     44  C   UNL     1      -2.508  -3.909 -12.510  1.00  0.00     0.031 A 
ATOM     45  C   UNL     1      -2.870  -2.491 -12.878  1.00  0.00     0.074 A 
ATOM     46  C   UNL     1      -1.748  -4.644 -13.345  1.00  0.00     0.049 A 
ATOM     47  N   UNL     1      -2.631  -1.843 -13.990  1.00  0.00    -0.248 NA
ATOM     48  C   UNL     1      -3.590  -1.694 -11.868  1.00  0.00     0.031 C 
ATOM     49  C   UNL     1      -1.279  -6.005 -13.077  1.00  0.00     0.029 A 
ATOM     50  N   UNL     1      -1.211  -4.343 -14.572  1.00  0.00    -0.354 N 
ATOM     51  C   UNL     1      -3.186  -0.579 -13.823  1.00  0.00     0.074 A 
ATOM     52  C   UNL     1      -3.797  -0.554 -12.513  1.00  0.00     0.031 C 
ATOM     53  C   UNL     1      -0.477  -6.397 -14.078  1.00  0.00     0.029 A 
ATOM     54  C   UNL     1      -0.441  -5.353 -15.098  1.00  0.00     0.049 A 
ATOM     55  H   UNL     1      -1.363  -3.486 -15.031  1.00  0.00     0.167 HD
ATOM     56  C   UNL     1      -3.175   0.470 -14.679  1.00  0.00     0.031 A 
ATOM     57  C   UNL     1       0.208  -5.446 -16.276  1.00  0.00     0.031 A 
ATOM     58  C   UNL     1      -2.546   0.447 -15.973  1.00  0.00     0.049 A 
ATOM     59  C   UNL     1       0.134  -4.303 -17.247  1.00  0.00     0.074 A 
ATOM     60  C   UNL     1      -2.488   1.460 -16.913  1.00  0.00     0.029 A 
ATOM     61  N   UNL     1      -1.857  -0.633 -16.503  1.00  0.00    -0.354 N 
ATOM     62  N   UNL     1      -0.437  -3.134 -17.090  1.00  0.00    -0.248 NA
ATOM     63  C   UNL     1       0.770  -4.495 -18.557  1.00  0.00     0.031 C 
ATOM     64  C   UNL     1      -1.811   0.976 -18.034  1.00  0.00     0.029 A 
ATOM     65  C   UNL     1      -1.393  -0.319 -17.768  1.00  0.00     0.049 A 
ATOM     66  H   UNL     1      -1.718  -1.495 -16.047  1.00  0.00     0.167 HD
ATOM     67  C   UNL     1      -0.226  -2.447 -18.279  1.00  0.00     0.074 A 
ATOM     68  C   UNL     1       0.538  -3.324 -19.141  1.00  0.00     0.031 C 
ATOM     69  C   UNL     1      -0.636  -1.202 -18.620  1.00  0.00     0.031 A 
BRANCH  56  70
ATOM     70  C   UNL     1      -3.868   1.741 -14.264  1.00  0.00    -0.014 A 
ATOM     71  C   UNL     1      -5.049   2.138 -14.920  1.00  0.00     0.010 A 
ATOM     72  C   UNL     1      -3.296   2.599 -13.309  1.00  0.00     0.010 A 
ATOM     73  C   UNL     1      -5.633   3.378 -14.646  1.00  0.00     0.020 A 
ATOM     74  C   UNL     1      -3.891   3.830 -13.013  1.00  0.00     0.020 A 
ATOM     75  C   UNL     1      -5.044   4.220 -13.699  1.00  0.00     0.054 A 
BRANCH  75  76
ATOM     76  S   UNL     1      -5.810   5.829 -13.356  1.00  0.00     0.124 S 
ATOM     77  O   UNL     1      -5.371   6.629 -14.494  1.00  0.00    -0.237 OA
ATOM     78  O   UNL     1      -7.235   5.506 -13.322  1.00  0.00    -0.237 OA
ATOM     79  O   UNL     1      -5.240   6.207 -12.065  1.00  0.00    -0.744 OA
ENDBRANCH  75  76
ENDBRANCH  56  70
BRANCH  57  80
ATOM     80  C   UNL     1       0.975  -6.685 -16.579  1.00  0.00    -0.014 A 
ATOM     81  C   UNL     1       0.303  -7.906 -16.776  1.00  0.00     0.010 A 
ATOM     82  C   UNL     1       2.380  -6.672 -16.559  1.00  0.00     0.010 A 
ATOM     83  C   UNL     1       1.018  -9.101 -16.877  1.00  0.00     0.020 A 
ATOM     84  C   UNL     1       3.100  -7.864 -16.689  1.00  0.00     0.020 A 
ATOM     85  C   UNL     1       2.412  -9.074 -16.812  1.00  0.00     0.054 A 
BRANCH  85  86
ATOM     86  S   UNL     1       3.320 -10.644 -16.869  1.00  0.00     0.124 S 
ATOM     87  O   UNL     1       3.148 -11.137 -15.505  1.00  0.00    -0.237 OA
ATOM     88  O   UNL     1       2.606 -11.390 -17.902  1.00  0.00    -0.237 OA
ATOM     89  O   UNL     1       4.678 -10.240 -17.223  1.00  0.00    -0.744 OA
ENDBRANCH  85  86
ENDBRANCH  57  80
BRANCH  69  90
ATOM     90  C   UNL     1      -0.289  -0.684 -19.989  1.00  0.00    -0.014 A 
ATOM     91  C   UNL     1       0.650   0.355 -20.123  1.00  0.00     0.010 A 
ATOM     92  C   UNL     1      -1.020  -1.102 -21.114  1.00  0.00     0.010 A 
ATOM     93  C   UNL     1       0.815   1.005 -21.348  1.00  0.00     0.020 A 
ATOM     94  C   UNL     1      -0.841  -0.469 -22.347  1.00  0.00     0.020 A 
ATOM     95  C   UNL     1       0.053   0.601 -22.447  1.00  0.00     0.054 A 
BRANCH  95  96
ATOM     96  S   UNL     1       0.223   1.509 -24.009  1.00  0.00     0.124 S 
ATOM     97  O   UNL     1      -0.527   2.731 -23.736  1.00  0.00    -0.237 OA
ATOM     98  O   UNL     1       1.669   1.672 -24.131  1.00  0.00    -0.237 OA
ATOM     99  O   UNL     1      -0.380   0.612 -24.993  1.00  0.00    -0.744 OA
ENDBRANCH  95  96
ENDBRANCH  69  90
ENDBRANCH  43  44
ENDBRANCH  35  38
ENDBRANCH  33  34
ENDBRANCH   1  33
TORSDOF 16
