REMARK SMILES COC(=O)c1ccc(C[N@@H+](CC(=O)NCCCCNC(=O)c2ccc(-c3c4nc(c(-c5ccc(S(=O)(=O)[O-])cc5)c5ccc([nH]5)c(-c5ccc(S(=O)(=O)[O-])cc5)c5nc(c(-c6ccc(S(=O)(=O)[O-])cc6)c6ccc3[nH]6)C=C5)C=C4)cc2)C(C)(C)C)cc1
REMARK SMILES IDX 15 1 14 2 12 3 13 4 11 6 10 7 9 9 8 10 5 11 6 12 87 13 7 14
REMARK SMILES IDX 86 15 3 16 4 17 2 18 1 19 82 20 83 21 84 22 85 23 16 24
REMARK SMILES IDX 17 25 18 26 19 27 20 28 21 30 22 31 23 32 81 33 24 34 80 35
REMARK SMILES IDX 25 36 26 37 27 38 74 39 28 40 79 41 73 42 75 43 29 44 78 45
REMARK SMILES IDX 72 46 71 47 30 49 60 50 41 51 59 52 42 53 45 54 58 55 76 56
REMARK SMILES IDX 43 57 44 58 57 60 77 61 46 62 31 63 32 64 40 65 33 66 39 67
REMARK SMILES IDX 34 68 35 69 36 70 37 71 38 72 61 73 62 74 70 75 63 76 69 77
REMARK SMILES IDX 64 78 65 79 66 80 67 81 68 82 47 83 48 84 56 85 49 86 55 87
REMARK SMILES IDX 50 88 51 89 52 90 53 91 54 92
REMARK H PARENT 14 5 10 8 19 29 75 48 45 59
REMARK Flexibility Score: inf
ROOT
ATOM      1  C   UNL     1      -2.735   6.281   6.527  1.00  0.00     0.116 C 
ENDROOT
BRANCH   1   2
ATOM      2  N   UNL     1      -3.383   5.634   7.652  1.00  0.00    -0.351 N 
ATOM      3  C   UNL     1      -2.913   4.775   8.603  1.00  0.00     0.275 C 
ATOM      4  O   UNL     1      -3.705   4.475   9.505  1.00  0.00    -0.269 OA
ATOM      5  H   UNL     1      -4.337   5.856   7.748  1.00  0.00     0.163 HD
BRANCH   3   6
ATOM      6  C   UNL     1      -1.469   4.240   8.634  1.00  0.00     0.364 C 
BRANCH   6   7
ATOM      7  N   UNL     1      -1.113   3.094   7.729  1.00  0.00    -0.319 N 
ATOM      8  H   UNL     1      -0.314   2.569   8.086  1.00  0.00     0.349 HD
BRANCH   7   9
ATOM      9  C   UNL     1      -0.639   3.640   6.457  1.00  0.00     0.299 C 
BRANCH   9  10
ATOM     10  C   UNL     1      -0.106   2.792   5.335  1.00  0.00     0.006 A 
ATOM     11  C   UNL     1       0.893   1.363   3.130  1.00  0.00     0.060 A 
ATOM     12  C   UNL     1       1.695   1.579   4.260  1.00  0.00     0.016 A 
ATOM     13  C   UNL     1      -0.408   1.872   3.099  1.00  0.00     0.016 A 
ATOM     14  C   UNL     1       1.200   2.292   5.356  1.00  0.00     0.010 A 
ATOM     15  C   UNL     1      -0.898   2.584   4.191  1.00  0.00     0.010 A 
BRANCH  11  16
ATOM     16  C   UNL     1       1.442   0.570   2.002  1.00  0.00     0.337 C 
ATOM     17  O   UNL     1       2.478  -0.084   2.074  1.00  0.00    -0.246 OA
BRANCH  16  18
ATOM     18  O   UNL     1       0.639   0.675   0.918  1.00  0.00    -0.465 OA
ATOM     19  C   UNL     1       1.041  -0.103  -0.208  1.00  0.00     0.282 C 
ENDBRANCH  16  18
ENDBRANCH  11  16
ENDBRANCH   9  10
ENDBRANCH   7   9
BRANCH   7  20
ATOM     20  C   UNL     1      -1.990   1.889   7.794  1.00  0.00     0.090 C 
ATOM     21  C   UNL     1      -3.421   2.074   7.247  1.00  0.00     0.078 C 
ATOM     22  C   UNL     1      -1.390   0.676   7.036  1.00  0.00     0.078 C 
ATOM     23  C   UNL     1      -2.085   1.409   9.267  1.00  0.00     0.078 C 
ENDBRANCH   7  20
ENDBRANCH   6   7
ENDBRANCH   3   6
ENDBRANCH   1   2
BRANCH   1  24
ATOM     24  C   UNL     1      -3.076   5.590   5.201  1.00  0.00     0.023 C 
BRANCH  24  25
ATOM     25  C   UNL     1      -4.334   6.041   4.490  1.00  0.00     0.023 C 
BRANCH  25  26
ATOM     26  C   UNL     1      -4.322   7.484   4.034  1.00  0.00     0.116 C 
BRANCH  26  27
ATOM     27  N   UNL     1      -3.202   7.830   3.165  1.00  0.00    -0.352 N 
ATOM     28  C   UNL     1      -3.218   8.586   2.013  1.00  0.00     0.251 C 
ATOM     29  H   UNL     1      -2.323   7.480   3.437  1.00  0.00     0.163 HD
ATOM     30  O   UNL     1      -2.198   8.738   1.349  1.00  0.00    -0.269 OA
BRANCH  28  31
ATOM     31  C   UNL     1      -4.504   9.161   1.568  1.00  0.00     0.039 A 
ATOM     32  C   UNL     1      -4.933   8.942   0.258  1.00  0.00     0.014 A 
ATOM     33  C   UNL     1      -5.335   9.797   2.491  1.00  0.00     0.014 A 
ATOM     34  C   UNL     1      -6.241   9.275  -0.096  1.00  0.00     0.010 A 
ATOM     35  C   UNL     1      -6.668  10.005   2.174  1.00  0.00     0.010 A 
ATOM     36  C   UNL     1      -7.135   9.757   0.875  1.00  0.00    -0.014 A 
BRANCH  36  37
ATOM     37  C   UNL     1      -8.560  10.034   0.562  1.00  0.00     0.031 A 
ATOM     38  C   UNL     1      -9.108  11.420   0.772  1.00  0.00     0.074 A 
ATOM     39  C   UNL     1      -9.377   9.030   0.186  1.00  0.00     0.049 A 
ATOM     40  N   UNL     1     -10.338  11.848   0.659  1.00  0.00    -0.248 NA
ATOM     41  C   UNL     1      -8.153  12.452   1.214  1.00  0.00     0.031 C 
ATOM     42  C   UNL     1      -8.986   7.627   0.021  1.00  0.00     0.029 A 
ATOM     43  N   UNL     1     -10.717   9.035  -0.115  1.00  0.00    -0.354 N 
ATOM     44  C   UNL     1     -10.309  13.181   1.050  1.00  0.00     0.074 A 
ATOM     45  C   UNL     1      -8.957  13.472   1.468  1.00  0.00     0.031 C 
ATOM     46  C   UNL     1     -10.053   6.915  -0.379  1.00  0.00     0.029 A 
ATOM     47  C   UNL     1     -11.211   7.800  -0.463  1.00  0.00     0.049 A 
ATOM     48  H   UNL     1     -11.272   9.847  -0.084  1.00  0.00     0.167 HD
ATOM     49  C   UNL     1     -11.308  14.094   1.034  1.00  0.00     0.031 A 
ATOM     50  C   UNL     1     -12.457   7.421  -0.808  1.00  0.00     0.031 A 
ATOM     51  C   UNL     1     -12.641  13.809   0.581  1.00  0.00     0.049 A 
ATOM     52  C   UNL     1     -13.543   8.459  -0.867  1.00  0.00     0.074 A 
ATOM     53  C   UNL     1     -13.709  14.677   0.447  1.00  0.00     0.029 A 
ATOM     54  N   UNL     1     -13.086  12.558   0.182  1.00  0.00    -0.354 N 
ATOM     55  N   UNL     1     -13.478   9.736  -0.572  1.00  0.00    -0.248 NA
ATOM     56  C   UNL     1     -14.867   8.011  -1.321  1.00  0.00     0.031 C 
ATOM     57  C   UNL     1     -14.813  13.941   0.005  1.00  0.00     0.029 A 
ATOM     58  C   UNL     1     -14.418  12.626  -0.185  1.00  0.00     0.049 A 
ATOM     59  H   UNL     1     -12.535  11.742   0.162  1.00  0.00     0.167 HD
ATOM     60  C   UNL     1     -14.745  10.248  -0.824  1.00  0.00     0.074 A 
ATOM     61  C   UNL     1     -15.551   9.147  -1.311  1.00  0.00     0.031 C 
ATOM     62  C   UNL     1     -15.201  11.515  -0.665  1.00  0.00     0.031 A 
BRANCH  49  63
ATOM     63  C   UNL     1     -10.979  15.482   1.517  1.00  0.00    -0.014 A 
ATOM     64  C   UNL     1     -10.107  16.316   0.793  1.00  0.00     0.010 A 
ATOM     65  C   UNL     1     -11.541  15.957   2.716  1.00  0.00     0.010 A 
ATOM     66  C   UNL     1      -9.751  17.572   1.290  1.00  0.00     0.020 A 
ATOM     67  C   UNL     1     -11.213  17.227   3.200  1.00  0.00     0.020 A 
ATOM     68  C   UNL     1     -10.300  18.015   2.497  1.00  0.00     0.054 A 
BRANCH  68  69
ATOM     69  S   UNL     1      -9.815  19.646   3.124  1.00  0.00     0.124 S 
ATOM     70  O   UNL     1      -8.470  19.384   3.630  1.00  0.00    -0.237 OA
ATOM     71  O   UNL     1      -9.885  20.484   1.930  1.00  0.00    -0.237 OA
ATOM     72  O   UNL     1     -10.819  19.936   4.145  1.00  0.00    -0.744 OA
ENDBRANCH  68  69
ENDBRANCH  49  63
BRANCH  50  73
ATOM     73  C   UNL     1     -12.729   5.998  -1.150  1.00  0.00    -0.014 A 
ATOM     74  C   UNL     1     -12.948   5.613  -2.484  1.00  0.00     0.010 A 
ATOM     75  C   UNL     1     -12.732   5.013  -0.145  1.00  0.00     0.010 A 
ATOM     76  C   UNL     1     -13.173   4.271  -2.808  1.00  0.00     0.020 A 
ATOM     77  C   UNL     1     -12.933   3.667  -0.468  1.00  0.00     0.020 A 
ATOM     78  C   UNL     1     -13.159   3.305  -1.797  1.00  0.00     0.054 A 
BRANCH  78  79
ATOM     79  S   UNL     1     -13.379   1.561  -2.249  1.00  0.00     0.124 S 
ATOM     80  O   UNL     1     -14.809   1.498  -2.529  1.00  0.00    -0.237 OA
ATOM     81  O   UNL     1     -12.500   1.422  -3.408  1.00  0.00    -0.237 OA
ATOM     82  O   UNL     1     -12.939   0.842  -1.056  1.00  0.00    -0.744 OA
ENDBRANCH  78  79
ENDBRANCH  50  73
BRANCH  62  83
ATOM     83  C   UNL     1     -16.631  11.788  -1.045  1.00  0.00    -0.014 A 
ATOM     84  C   UNL     1     -17.694  11.343  -0.240  1.00  0.00     0.010 A 
ATOM     85  C   UNL     1     -16.908  12.558  -2.190  1.00  0.00     0.010 A 
ATOM     86  C   UNL     1     -19.013  11.641  -0.589  1.00  0.00     0.020 A 
ATOM     87  C   UNL     1     -18.225  12.879  -2.527  1.00  0.00     0.020 A 
ATOM     88  C   UNL     1     -19.270  12.408  -1.730  1.00  0.00     0.054 A 
BRANCH  88  89
ATOM     89  S   UNL     1     -20.988  12.823  -2.135  1.00  0.00     0.124 S 
ATOM     90  O   UNL     1     -21.491  11.557  -2.659  1.00  0.00    -0.237 OA
ATOM     91  O   UNL     1     -21.534  13.229  -0.842  1.00  0.00    -0.237 OA
ATOM     92  O   UNL     1     -20.862  13.899  -3.116  1.00  0.00    -0.744 OA
ENDBRANCH  88  89
ENDBRANCH  62  83
ENDBRANCH  36  37
ENDBRANCH  28  31
ENDBRANCH  26  27
ENDBRANCH  25  26
ENDBRANCH  24  25
ENDBRANCH   1  24
TORSDOF 20
