REMARK SMILES Cc1cc(Oc2ccnc(C(=O)NCCCCNC(=O)c3ccc(-c4c5nc(c(-c6ccc(S(=O)(=O)[O-])cc6)c6ccc([nH]6)c(-c6ccc(S(=O)(=O)[O-])cc6)c6nc(c(-c7ccc(S(=O)(=O)[O-])cc7)c7ccc4[nH]7)C=C6)C=C5)cc3)c2)cc(C)c1Cl
REMARK SMILES IDX 16 1 15 2 14 3 13 4 11 5 12 6 10 8 6 9 7 10 81 11 8 12 9 13
REMARK SMILES IDX 5 14 4 15 1 16 2 17 3 18 85 19 83 20 86 21 82 22 84 23 17 24
REMARK SMILES IDX 18 25 19 26 20 28 21 29 22 30 80 31 23 32 79 33 24 34 25 35
REMARK SMILES IDX 26 36 73 37 27 38 78 39 72 40 74 41 28 42 77 43 71 44 70 45
REMARK SMILES IDX 29 47 59 48 40 49 58 50 41 51 44 52 57 53 75 54 42 55 43 56
REMARK SMILES IDX 56 58 76 59 45 60 30 61 31 62 39 63 32 64 38 65 33 66 34 67
REMARK SMILES IDX 35 68 36 69 37 70 60 71 61 72 69 73 62 74 68 75 63 76 64 77
REMARK SMILES IDX 65 78 66 79 67 80 46 81 47 82 55 83 48 84 54 85 49 86 50 87
REMARK SMILES IDX 51 88 52 89 53 90
REMARK H PARENT 13 7 18 27 74 46 44 57
REMARK Flexibility Score: inf
ROOT
ATOM      1  C   UNL     1       6.040   1.030  -5.765  1.00  0.00     0.023 C 
ENDROOT
BRANCH   1   2
ATOM      2  C   UNL     1       5.662   0.792  -4.297  1.00  0.00     0.023 C 
BRANCH   2   3
ATOM      3  C   UNL     1       6.838   0.897  -3.323  1.00  0.00     0.116 C 
BRANCH   3   4
ATOM      4  N   UNL     1       7.127   2.284  -3.020  1.00  0.00    -0.351 N 
ATOM      5  C   UNL     1       6.763   3.127  -1.994  1.00  0.00     0.270 C 
ATOM      6  O   UNL     1       7.205   4.277  -2.063  1.00  0.00    -0.268 OA
ATOM      7  H   UNL     1       7.706   2.715  -3.689  1.00  0.00     0.163 HD
BRANCH   5   8
ATOM      8  C   UNL     1       5.915   2.730  -0.811  1.00  0.00     0.131 A 
ATOM      9  C   UNL     1       4.399   1.363   0.419  1.00  0.00     0.131 A 
ATOM     10  C   UNL     1       4.555   2.176   1.532  1.00  0.00     0.067 A 
ATOM     11  C   UNL     1       5.063   1.640  -0.774  1.00  0.00     0.081 A 
ATOM     12  C   UNL     1       5.368   3.278   1.393  1.00  0.00     0.116 A 
ATOM     13  N   UNL     1       6.048   3.561   0.263  1.00  0.00    -0.251 NA
BRANCH   9  14
ATOM     14  O   UNL     1       3.685   0.197   0.519  1.00  0.00    -0.457 OA
BRANCH  14  15
ATOM     15  C   UNL     1       2.325   0.233   0.311  1.00  0.00     0.128 A 
ATOM     16  C   UNL     1      -0.636   2.565  -0.143  1.00  0.00     0.046 C 
ATOM     17  C   UNL     1       0.161   1.295  -0.015  1.00  0.00    -0.028 A 
ATOM     18  C   UNL     1       1.552   1.384   0.164  1.00  0.00     0.052 A 
ATOM     19  C   UNL     1      -0.448   0.024  -0.053  1.00  0.00     0.047 A 
ATOM     20  C   UNL     1       0.325  -1.145   0.075  1.00  0.00    -0.028 A 
ATOM     21  Cl  UNL     1      -2.168  -0.100  -0.248  1.00  0.00    -0.084 Cl
ATOM     22  C   UNL     1       1.709  -1.021   0.267  1.00  0.00     0.052 A 
ATOM     23  C   UNL     1      -0.285  -2.519   0.030  1.00  0.00     0.046 C 
ENDBRANCH  14  15
ENDBRANCH   9  14
ENDBRANCH   5   8
ENDBRANCH   3   4
ENDBRANCH   2   3
ENDBRANCH   1   2
BRANCH   1  24
ATOM     24  C   UNL     1       7.024   0.022  -6.355  1.00  0.00     0.116 C 
BRANCH  24  25
ATOM     25  N   UNL     1       6.573  -1.357  -6.248  1.00  0.00    -0.352 N 
ATOM     26  C   UNL     1       6.880  -2.420  -7.068  1.00  0.00     0.251 C 
ATOM     27  H   UNL     1       5.972  -1.556  -5.494  1.00  0.00     0.163 HD
ATOM     28  O   UNL     1       6.345  -3.506  -6.899  1.00  0.00    -0.269 OA
BRANCH  26  29
ATOM     29  C   UNL     1       7.828  -2.212  -8.182  1.00  0.00     0.039 A 
ATOM     30  C   UNL     1       7.436  -2.569  -9.474  1.00  0.00     0.014 A 
ATOM     31  C   UNL     1       9.073  -1.623  -7.955  1.00  0.00     0.014 A 
ATOM     32  C   UNL     1       8.266  -2.264 -10.554  1.00  0.00     0.010 A 
ATOM     33  C   UNL     1       9.873  -1.267  -9.037  1.00  0.00     0.010 A 
ATOM     34  C   UNL     1       9.472  -1.576 -10.346  1.00  0.00    -0.014 A 
BRANCH  34  35
ATOM     35  C   UNL     1      10.328  -1.153 -11.482  1.00  0.00     0.031 A 
ATOM     36  C   UNL     1      11.703  -1.738 -11.646  1.00  0.00     0.074 A 
ATOM     37  C   UNL     1       9.899  -0.186 -12.316  1.00  0.00     0.049 A 
ATOM     38  N   UNL     1      12.634  -1.426 -12.510  1.00  0.00    -0.248 NA
ATOM     39  C   UNL     1      12.090  -2.794 -10.696  1.00  0.00     0.031 C 
ATOM     40  C   UNL     1       8.597   0.484 -12.242  1.00  0.00     0.029 A 
ATOM     41  N   UNL     1      10.518   0.412 -13.386  1.00  0.00    -0.354 N 
ATOM     42  C   UNL     1      13.723  -2.230 -12.197  1.00  0.00     0.074 A 
ATOM     43  C   UNL     1      13.352  -3.012 -11.037  1.00  0.00     0.031 C 
ATOM     44  C   UNL     1       8.508   1.382 -13.237  1.00  0.00     0.029 A 
ATOM     45  C   UNL     1       9.756   1.382 -13.993  1.00  0.00     0.049 A 
ATOM     46  H   UNL     1      11.422   0.169 -13.689  1.00  0.00     0.167 HD
ATOM     47  C   UNL     1      14.919  -2.321 -12.827  1.00  0.00     0.031 A 
ATOM     48  C   UNL     1      10.034   2.187 -15.037  1.00  0.00     0.031 A 
ATOM     49  C   UNL     1      15.280  -1.551 -13.986  1.00  0.00     0.049 A 
ATOM     50  C   UNL     1      11.371   2.074 -15.716  1.00  0.00     0.074 A 
ATOM     51  C   UNL     1      16.450  -1.602 -14.724  1.00  0.00     0.029 A 
ATOM     52  N   UNL     1      14.474  -0.590 -14.579  1.00  0.00    -0.354 N 
ATOM     53  N   UNL     1      12.371   1.274 -15.433  1.00  0.00    -0.248 NA
ATOM     54  C   UNL     1      11.613   2.965 -16.859  1.00  0.00     0.031 C 
ATOM     55  C   UNL     1      16.366  -0.647 -15.742  1.00  0.00     0.029 A 
ATOM     56  C   UNL     1      15.125  -0.033 -15.666  1.00  0.00     0.049 A 
ATOM     57  H   UNL     1      13.572  -0.342 -14.272  1.00  0.00     0.167 HD
ATOM     58  C   UNL     1      13.352   1.547 -16.381  1.00  0.00     0.074 A 
ATOM     59  C   UNL     1      12.821   2.580 -17.248  1.00  0.00     0.031 C 
ATOM     60  C   UNL     1      14.579   0.990 -16.521  1.00  0.00     0.031 A 
BRANCH  47  61
ATOM     61  C   UNL     1      15.922  -3.290 -12.262  1.00  0.00    -0.014 A 
ATOM     62  C   UNL     1      15.731  -4.679 -12.379  1.00  0.00     0.010 A 
ATOM     63  C   UNL     1      17.075  -2.809 -11.616  1.00  0.00     0.010 A 
ATOM     64  C   UNL     1      16.647  -5.569 -11.815  1.00  0.00     0.020 A 
ATOM     65  C   UNL     1      18.008  -3.697 -11.073  1.00  0.00     0.020 A 
ATOM     66  C   UNL     1      17.776  -5.072 -11.157  1.00  0.00     0.054 A 
BRANCH  66  67
ATOM     67  S   UNL     1      18.949  -6.249 -10.431  1.00  0.00     0.124 S 
ATOM     68  O   UNL     1      18.241  -6.673  -9.225  1.00  0.00    -0.237 OA
ATOM     69  O   UNL     1      19.076  -7.264 -11.473  1.00  0.00    -0.237 OA
ATOM     70  O   UNL     1      20.147  -5.445 -10.199  1.00  0.00    -0.744 OA
ENDBRANCH  66  67
ENDBRANCH  47  61
BRANCH  48  71
ATOM     71  C   UNL     1       9.013   3.155 -15.519  1.00  0.00    -0.014 A 
ATOM     72  C   UNL     1       8.330   2.920 -16.725  1.00  0.00     0.010 A 
ATOM     73  C   UNL     1       8.703   4.304 -14.769  1.00  0.00     0.010 A 
ATOM     74  C   UNL     1       7.365   3.822 -17.180  1.00  0.00     0.020 A 
ATOM     75  C   UNL     1       7.721   5.197 -15.209  1.00  0.00     0.020 A 
ATOM     76  C   UNL     1       7.065   4.955 -16.418  1.00  0.00     0.054 A 
BRANCH  76  77
ATOM     77  S   UNL     1       5.767   6.082 -16.999  1.00  0.00     0.124 S 
ATOM     78  O   UNL     1       6.447   6.801 -18.071  1.00  0.00    -0.237 OA
ATOM     79  O   UNL     1       4.713   5.162 -17.421  1.00  0.00    -0.237 OA
ATOM     80  O   UNL     1       5.451   6.876 -15.813  1.00  0.00    -0.744 OA
ENDBRANCH  76  77
ENDBRANCH  48  71
BRANCH  60  81
ATOM     81  C   UNL     1      15.423   1.454 -17.676  1.00  0.00    -0.014 A 
ATOM     82  C   UNL     1      16.072   2.701 -17.648  1.00  0.00     0.010 A 
ATOM     83  C   UNL     1      15.625   0.598 -18.774  1.00  0.00     0.010 A 
ATOM     84  C   UNL     1      16.895   3.091 -18.707  1.00  0.00     0.020 A 
ATOM     85  C   UNL     1      16.464   0.975 -19.824  1.00  0.00     0.020 A 
ATOM     86  C   UNL     1      17.087   2.225 -19.789  1.00  0.00     0.054 A 
BRANCH  86  87
ATOM     87  S   UNL     1      18.209   2.726 -21.123  1.00  0.00     0.124 S 
ATOM     88  O   UNL     1      17.398   3.694 -21.855  1.00  0.00    -0.237 OA
ATOM     89  O   UNL     1      19.347   3.281 -20.395  1.00  0.00    -0.237 OA
ATOM     90  O   UNL     1      18.482   1.477 -21.832  1.00  0.00    -0.744 OA
ENDBRANCH  86  87
ENDBRANCH  60  81
ENDBRANCH  34  35
ENDBRANCH  26  29
ENDBRANCH  24  25
ENDBRANCH   1  24
TORSDOF 16
