REMARK SMILES C[C@@H]1CC[C@H](C)[N@H+]1Cc1cc2c(cc1Cl)C=C(C(=O)NCCCCNC(=O)c1ccc(-c3c4nc(c(-c5ccc(S(=O)(=O)[O-])cc5)c5ccc([nH]5)c(-c5ccc(S(=O)(=O)[O-])cc5)c5nc(c(-c6ccc(S(=O)(=O)[O-])cc6)c6ccc3[nH]6)C=C5)C=C4)cc1)[C@@H](C(F)(F)F)O2
REMARK SMILES IDX 23 1 22 2 21 3 20 4 18 5 19 6 17 8 9 9 10 10 14 11 11 12
REMARK SMILES IDX 13 13 15 14 12 15 93 16 16 17 88 18 8 19 7 20 6 21 5 22 4 23
REMARK SMILES IDX 3 24 2 25 1 27 89 28 90 29 91 30 92 31 24 32 25 33 26 34
REMARK SMILES IDX 27 36 28 37 29 38 87 39 30 40 86 41 31 42 32 43 33 44 80 45
REMARK SMILES IDX 34 46 85 47 79 48 81 49 35 50 84 51 78 52 77 53 36 55 66 56
REMARK SMILES IDX 47 57 65 58 48 59 51 60 64 61 82 62 49 63 50 64 63 66 83 67
REMARK SMILES IDX 52 68 37 69 38 70 46 71 39 72 45 73 40 74 41 75 42 76 43 77
REMARK SMILES IDX 44 78 67 79 68 80 76 81 69 82 75 83 70 84 71 85 72 86 73 87
REMARK SMILES IDX 74 88 53 89 54 90 62 91 55 92 61 93 56 94 57 95 58 96 59 97
REMARK SMILES IDX 60 98
REMARK H PARENT 20 7 7 26 25 35 81 54 51 65
REMARK Flexibility Score: inf
ROOT
ATOM      1  C   UNL     1      -8.235  -1.739   6.645  1.00  0.00     0.023 C 
ENDROOT
BRANCH   1   2
ATOM      2  C   UNL     1      -7.471  -1.274   5.404  1.00  0.00     0.023 C 
BRANCH   2   3
ATOM      3  C   UNL     1      -7.945   0.062   4.839  1.00  0.00     0.116 C 
BRANCH   3   4
ATOM      4  N   UNL     1      -7.352   1.187   5.540  1.00  0.00    -0.352 N 
ATOM      5  C   UNL     1      -6.378   2.094   5.297  1.00  0.00     0.251 C 
ATOM      6  O   UNL     1      -6.195   2.926   6.191  1.00  0.00    -0.270 OA
ATOM      7  H   UNL     1      -7.767   1.325   6.422  1.00  0.00     0.163 HD
BRANCH   5   8
ATOM      8  C   UNL     1      -5.538   2.145   4.067  1.00  0.00     0.067 C 
ATOM      9  C   UNL     1      -1.928   3.249   0.705  1.00  0.00     0.029 A 
ATOM     10  C   UNL     1      -2.696   2.105   0.999  1.00  0.00     0.058 A 
ATOM     11  C   UNL     1      -2.203   4.423   1.427  1.00  0.00     0.050 A 
ATOM     12  C   UNL     1      -3.622   2.114   2.037  1.00  0.00     0.128 A 
ATOM     13  C   UNL     1      -3.094   4.409   2.510  1.00  0.00     0.033 A 
ATOM     14  Cl  UNL     1      -1.535   5.960   1.001  1.00  0.00    -0.084 Cl
ATOM     15  C   UNL     1      -3.786   3.245   2.833  1.00  0.00     0.019 A 
ATOM     16  O   UNL     1      -4.328   0.964   2.257  1.00  0.00    -0.475 OA
ATOM     17  C   UNL     1      -4.659   3.164   3.998  1.00  0.00     0.025 C 
ATOM     18  C   UNL     1      -5.607   1.165   2.930  1.00  0.00     0.314 C 
BRANCH   9  19
ATOM     19  C   UNL     1      -0.842   3.127  -0.349  1.00  0.00     0.301 C 
BRANCH  19  20
ATOM     20  N   UNL     1       0.486   2.686   0.112  1.00  0.00    -0.327 N 
ATOM     21  C   UNL     1       0.823   0.247  -0.164  1.00  0.00     0.075 C 
ATOM     22  C   UNL     1       0.553   1.390   0.806  1.00  0.00     0.181 C 
ATOM     23  C   UNL     1       1.675   1.543   1.830  1.00  0.00     0.071 C 
ATOM     24  C   UNL     1       1.591   3.009   2.196  1.00  0.00     0.071 C 
ATOM     25  C   UNL     1       1.251   3.682   0.873  1.00  0.00     0.181 C 
ATOM     26  H   UNL     1       0.935   2.557  -0.794  1.00  0.00     0.348 HD
ATOM     27  C   UNL     1       2.504   4.047   0.075  1.00  0.00     0.075 C 
ENDBRANCH  19  20
ENDBRANCH   9  19
BRANCH  18  28
ATOM     28  C   UNL     1      -6.696   1.544   1.902  1.00  0.00     0.429 C 
ATOM     29  F   UNL     1      -6.961   0.495   1.084  1.00  0.00    -0.167 F 
ATOM     30  F   UNL     1      -7.867   1.882   2.491  1.00  0.00    -0.167 F 
ATOM     31  F   UNL     1      -6.341   2.586   1.117  1.00  0.00    -0.167 F 
ENDBRANCH  18  28
ENDBRANCH   5   8
ENDBRANCH   3   4
ENDBRANCH   2   3
ENDBRANCH   1   2
BRANCH   1  32
ATOM     32  C   UNL     1      -9.750  -1.832   6.483  1.00  0.00     0.116 C 
BRANCH  32  33
ATOM     33  N   UNL     1     -10.184  -2.613   5.332  1.00  0.00    -0.352 N 
ATOM     34  C   UNL     1     -11.383  -3.275   5.173  1.00  0.00     0.251 C 
ATOM     35  H   UNL     1      -9.549  -2.676   4.582  1.00  0.00     0.163 HD
ATOM     36  O   UNL     1     -11.604  -3.952   4.179  1.00  0.00    -0.269 OA
BRANCH  34  37
ATOM     37  C   UNL     1     -12.367  -3.190   6.270  1.00  0.00     0.039 A 
ATOM     38  C   UNL     1     -12.769  -1.941   6.745  1.00  0.00     0.014 A 
ATOM     39  C   UNL     1     -12.770  -4.364   6.910  1.00  0.00     0.014 A 
ATOM     40  C   UNL     1     -13.425  -1.859   7.965  1.00  0.00     0.010 A 
ATOM     41  C   UNL     1     -13.498  -4.280   8.099  1.00  0.00     0.010 A 
ATOM     42  C   UNL     1     -13.777  -3.026   8.666  1.00  0.00    -0.014 A 
BRANCH  42  43
ATOM     43  C   UNL     1     -14.404  -2.906  10.006  1.00  0.00     0.031 A 
ATOM     44  C   UNL     1     -13.668  -3.353  11.241  1.00  0.00     0.074 A 
ATOM     45  C   UNL     1     -15.606  -2.309  10.113  1.00  0.00     0.049 A 
ATOM     46  N   UNL     1     -14.048  -3.283  12.492  1.00  0.00    -0.248 NA
ATOM     47  C   UNL     1     -12.335  -3.952  11.056  1.00  0.00     0.031 C 
ATOM     48  C   UNL     1     -16.390  -1.796   8.988  1.00  0.00     0.029 A 
ATOM     49  N   UNL     1     -16.356  -1.990  11.216  1.00  0.00    -0.354 N 
ATOM     50  C   UNL     1     -13.014  -3.838  13.238  1.00  0.00     0.074 A 
ATOM     51  C   UNL     1     -11.999  -4.264  12.300  1.00  0.00     0.031 C 
ATOM     52  C   UNL     1     -17.471  -1.160   9.462  1.00  0.00     0.029 A 
ATOM     53  C   UNL     1     -17.494  -1.280  10.917  1.00  0.00     0.049 A 
ATOM     54  H   UNL     1     -16.103  -2.244  12.133  1.00  0.00     0.167 HD
ATOM     55  C   UNL     1     -12.918  -3.970  14.582  1.00  0.00     0.031 A 
ATOM     56  C   UNL     1     -18.456  -0.782  11.718  1.00  0.00     0.031 A 
ATOM     57  C   UNL     1     -13.928  -3.533  15.510  1.00  0.00     0.049 A 
ATOM     58  C   UNL     1     -18.353  -0.988  13.200  1.00  0.00     0.074 A 
ATOM     59  C   UNL     1     -13.925  -3.636  16.890  1.00  0.00     0.029 A 
ATOM     60  N   UNL     1     -15.112  -2.903  15.158  1.00  0.00    -0.354 N 
ATOM     61  N   UNL     1     -17.387  -1.554  13.882  1.00  0.00    -0.248 NA
ATOM     62  C   UNL     1     -19.471  -0.503  14.019  1.00  0.00     0.031 C 
ATOM     63  C   UNL     1     -15.128  -3.111  17.369  1.00  0.00     0.029 A 
ATOM     64  C   UNL     1     -15.856  -2.629  16.293  1.00  0.00     0.049 A 
ATOM     65  H   UNL     1     -15.383  -2.683  14.237  1.00  0.00     0.167 HD
ATOM     66  C   UNL     1     -17.781  -1.498  15.212  1.00  0.00     0.074 A 
ATOM     67  C   UNL     1     -19.062  -0.821  15.242  1.00  0.00     0.031 C 
ATOM     68  C   UNL     1     -17.138  -1.970  16.307  1.00  0.00     0.031 A 
BRANCH  55  69
ATOM     69  C   UNL     1     -11.683  -4.622  15.145  1.00  0.00    -0.014 A 
ATOM     70  C   UNL     1     -11.771  -5.901  15.726  1.00  0.00     0.010 A 
ATOM     71  C   UNL     1     -10.457  -3.934  15.190  1.00  0.00     0.010 A 
ATOM     72  C   UNL     1     -10.663  -6.474  16.355  1.00  0.00     0.020 A 
ATOM     73  C   UNL     1      -9.340  -4.514  15.799  1.00  0.00     0.020 A 
ATOM     74  C   UNL     1      -9.455  -5.773  16.394  1.00  0.00     0.054 A 
BRANCH  74  75
ATOM     75  S   UNL     1      -8.022  -6.531  17.209  1.00  0.00     0.124 S 
ATOM     76  O   UNL     1      -8.296  -6.271  18.619  1.00  0.00    -0.237 OA
ATOM     77  O   UNL     1      -8.116  -7.929  16.793  1.00  0.00    -0.237 OA
ATOM     78  O   UNL     1      -6.888  -5.801  16.645  1.00  0.00    -0.744 OA
ENDBRANCH  74  75
ENDBRANCH  55  69
BRANCH  56  79
ATOM     79  C   UNL     1     -19.579  -0.026  11.104  1.00  0.00    -0.014 A 
ATOM     80  C   UNL     1     -20.526  -0.689  10.300  1.00  0.00     0.010 A 
ATOM     81  C   UNL     1     -19.637   1.373  11.220  1.00  0.00     0.010 A 
ATOM     82  C   UNL     1     -21.467   0.038   9.569  1.00  0.00     0.020 A 
ATOM     83  C   UNL     1     -20.596   2.102  10.510  1.00  0.00     0.020 A 
ATOM     84  C   UNL     1     -21.482   1.431   9.663  1.00  0.00     0.054 A 
BRANCH  84  85
ATOM     85  S   UNL     1     -22.661   2.364   8.648  1.00  0.00     0.124 S 
ATOM     86  O   UNL     1     -21.992   2.375   7.350  1.00  0.00    -0.237 OA
ATOM     87  O   UNL     1     -23.870   1.548   8.725  1.00  0.00    -0.237 OA
ATOM     88  O   UNL     1     -22.742   3.657   9.323  1.00  0.00    -0.744 OA
ENDBRANCH  84  85
ENDBRANCH  56  79
BRANCH  68  89
ATOM     89  C   UNL     1     -17.804  -1.796  17.644  1.00  0.00    -0.014 A 
ATOM     90  C   UNL     1     -17.274  -0.886  18.577  1.00  0.00     0.010 A 
ATOM     91  C   UNL     1     -18.878  -2.621  18.020  1.00  0.00     0.010 A 
ATOM     92  C   UNL     1     -17.786  -0.825  19.874  1.00  0.00     0.020 A 
ATOM     93  C   UNL     1     -19.407  -2.547  19.311  1.00  0.00     0.020 A 
ATOM     94  C   UNL     1     -18.842  -1.666  20.237  1.00  0.00     0.054 A 
BRANCH  94  95
ATOM     95  S   UNL     1     -19.477  -1.595  21.934  1.00  0.00     0.124 S 
ATOM     96  O   UNL     1     -18.493  -2.389  22.664  1.00  0.00    -0.237 OA
ATOM     97  O   UNL     1     -19.471  -0.163  22.224  1.00  0.00    -0.237 OA
ATOM     98  O   UNL     1     -20.807  -2.193  21.825  1.00  0.00    -0.744 OA
ENDBRANCH  94  95
ENDBRANCH  68  89
ENDBRANCH  42  43
ENDBRANCH  34  37
ENDBRANCH  32  33
ENDBRANCH   1  32
TORSDOF 17
