REMARK SMILES C[NH+]1CCC(C(=O)N2C[C@@H](C(=O)NCCCCNC(=O)c3ccc(-c4c5nc(c(-c6ccc(S(=O)(=O)[O-])cc6)c6ccc([nH]6)c(-c6ccc(S(=O)(=O)[O-])cc6)c6nc(c(-c7ccc(S(=O)(=O)[O-])cc7)c7ccc4[nH]7)C=C6)C=C5)cc3)[C@H](c3ccc4c(c3)OCO4)C2)CC1
REMARK SMILES IDX 16 1 15 2 14 3 13 4 11 5 12 6 10 8 8 9 9 10 91 11 81 12 6 13
REMARK SMILES IDX 7 14 5 15 1 16 2 17 3 18 93 19 4 21 92 22 82 23 83 24 87 25
REMARK SMILES IDX 84 26 86 27 85 28 88 29 90 30 89 31 17 32 18 33 19 34 20 36
REMARK SMILES IDX 21 37 22 38 80 39 23 40 79 41 24 42 25 43 26 44 73 45 27 46
REMARK SMILES IDX 78 47 72 48 74 49 28 50 77 51 71 52 70 53 29 55 59 56 40 57
REMARK SMILES IDX 58 58 41 59 44 60 57 61 75 62 42 63 43 64 56 66 76 67 45 68
REMARK SMILES IDX 30 69 31 70 39 71 32 72 38 73 33 74 34 75 35 76 36 77 37 78
REMARK SMILES IDX 60 79 61 80 69 81 62 82 68 83 63 84 64 85 65 86 66 87 67 88
REMARK SMILES IDX 46 89 47 90 55 91 48 92 54 93 49 94 50 95 51 96 52 97 53 98
REMARK H PARENT 13 7 2 20 18 35 74 54 44 65
REMARK Flexibility Score: inf
ROOT
ATOM      1  C   UNL     1      -0.029   0.156   8.234  1.00  0.00     0.023 C 
ENDROOT
BRANCH   1   2
ATOM      2  C   UNL     1       0.150   0.745   6.832  1.00  0.00     0.023 C 
BRANCH   2   3
ATOM      3  C   UNL     1       1.587   0.812   6.329  1.00  0.00     0.116 C 
BRANCH   3   4
ATOM      4  N   UNL     1       2.191  -0.493   6.121  1.00  0.00    -0.356 N 
ATOM      5  C   UNL     1       2.946  -0.946   5.076  1.00  0.00     0.225 C 
ATOM      6  O   UNL     1       3.487  -2.047   5.177  1.00  0.00    -0.275 OA
ATOM      7  H   UNL     1       2.033  -1.148   6.839  1.00  0.00     0.163 HD
BRANCH   5   8
ATOM      8  C   UNL     1       3.094  -0.100   3.831  1.00  0.00     0.107 C 
ATOM      9  N   UNL     1       3.616  -0.057   1.583  1.00  0.00    -0.341 N 
ATOM     10  C   UNL     1       3.135  -0.974   2.594  1.00  0.00     0.133 C 
ATOM     11  C   UNL     1       4.623   0.818   2.183  1.00  0.00     0.128 C 
ATOM     12  C   UNL     1       4.441   0.653   3.715  1.00  0.00     0.053 C 
BRANCH   9  13
ATOM     13  C   UNL     1       3.282   0.067   0.259  1.00  0.00     0.226 C 
ATOM     14  O   UNL     1       4.103   0.541  -0.538  1.00  0.00    -0.275 OA
BRANCH  13  15
ATOM     15  C   UNL     1       1.826  -0.077  -0.208  1.00  0.00     0.090 C 
ATOM     16  C   UNL     1      -2.473   0.016  -0.280  1.00  0.00     0.332 C 
ATOM     17  N   UNL     1      -1.067  -0.042   0.111  1.00  0.00    -0.337 N 
ATOM     18  C   UNL     1      -0.367   1.189  -0.270  1.00  0.00     0.262 C 
ATOM     19  C   UNL     1      -0.406  -1.223  -0.464  1.00  0.00     0.262 C 
ATOM     20  H   UNL     1      -1.028  -0.127   1.127  1.00  0.00     0.347 HD
ATOM     21  C   UNL     1       1.064   1.172   0.259  1.00  0.00     0.075 C 
ATOM     22  C   UNL     1       1.018  -1.337   0.092  1.00  0.00     0.075 C 
ENDBRANCH  13  15
ENDBRANCH   9  13
BRANCH  12  23
ATOM     23  C   UNL     1       4.418   1.899   4.580  1.00  0.00    -0.038 A 
ATOM     24  C   UNL     1       3.811   3.107   4.164  1.00  0.00     0.008 A 
ATOM     25  C   UNL     1       4.849   1.776   5.917  1.00  0.00     0.054 A 
ATOM     26  C   UNL     1       3.589   4.153   5.069  1.00  0.00     0.051 A 
ATOM     27  C   UNL     1       4.575   2.804   6.793  1.00  0.00     0.166 A 
ATOM     28  C   UNL     1       3.952   3.956   6.383  1.00  0.00     0.165 A 
ATOM     29  O   UNL     1       4.773   2.772   8.139  1.00  0.00    -0.454 OA
ATOM     30  O   UNL     1       3.693   4.799   7.418  1.00  0.00    -0.454 OA
ATOM     31  C   UNL     1       4.083   3.976   8.538  1.00  0.00     0.468 C 
ENDBRANCH  12  23
ENDBRANCH   5   8
ENDBRANCH   3   4
ENDBRANCH   2   3
ENDBRANCH   1   2
BRANCH   1  32
ATOM     32  C   UNL     1       0.832   0.761   9.342  1.00  0.00     0.116 C 
BRANCH  32  33
ATOM     33  N   UNL     1       0.683   2.200   9.489  1.00  0.00    -0.352 N 
ATOM     34  C   UNL     1       0.701   2.960  10.636  1.00  0.00     0.251 C 
ATOM     35  H   UNL     1       0.551   2.701   8.652  1.00  0.00     0.163 HD
ATOM     36  O   UNL     1       0.545   4.177  10.564  1.00  0.00    -0.269 OA
BRANCH  34  37
ATOM     37  C   UNL     1       0.867   2.315  11.958  1.00  0.00     0.039 A 
ATOM     38  C   UNL     1      -0.035   2.639  12.975  1.00  0.00     0.014 A 
ATOM     39  C   UNL     1       1.881   1.382  12.193  1.00  0.00     0.014 A 
ATOM     40  C   UNL     1       0.020   1.962  14.196  1.00  0.00     0.010 A 
ATOM     41  C   UNL     1       1.901   0.668  13.392  1.00  0.00     0.010 A 
ATOM     42  C   UNL     1       0.958   0.936  14.397  1.00  0.00    -0.014 A 
BRANCH  42  43
ATOM     43  C   UNL     1       0.920   0.095  15.621  1.00  0.00     0.031 A 
ATOM     44  C   UNL     1       2.048   0.126  16.614  1.00  0.00     0.074 A 
ATOM     45  C   UNL     1      -0.104  -0.764  15.796  1.00  0.00     0.049 A 
ATOM     46  N   UNL     1       2.197  -0.572  17.711  1.00  0.00    -0.248 NA
ATOM     47  C   UNL     1       3.162   1.042  16.325  1.00  0.00     0.031 C 
ATOM     48  C   UNL     1      -1.232  -0.933  14.877  1.00  0.00     0.029 A 
ATOM     49  N   UNL     1      -0.356  -1.667  16.799  1.00  0.00    -0.354 N 
ATOM     50  C   UNL     1       3.428  -0.196  18.235  1.00  0.00     0.074 A 
ATOM     51  C   UNL     1       3.999   0.767  17.316  1.00  0.00     0.031 C 
ATOM     52  C   UNL     1      -2.058  -1.874  15.362  1.00  0.00     0.029 A 
ATOM     53  C   UNL     1      -1.506  -2.397  16.608  1.00  0.00     0.049 A 
ATOM     54  H   UNL     1       0.232  -1.782  17.581  1.00  0.00     0.167 HD
ATOM     55  C   UNL     1       4.023  -0.605  19.382  1.00  0.00     0.031 A 
ATOM     56  C   UNL     1      -2.054  -3.383  17.344  1.00  0.00     0.031 A 
ATOM     57  C   UNL     1       3.453  -1.560  20.296  1.00  0.00     0.049 A 
ATOM     58  C   UNL     1      -1.387  -3.808  18.621  1.00  0.00     0.074 A 
ATOM     59  C   UNL     1       3.947  -1.982  21.518  1.00  0.00     0.029 A 
ATOM     60  N   UNL     1       2.269  -2.251  20.084  1.00  0.00    -0.354 N 
ATOM     61  N   UNL     1      -0.268  -3.372  19.147  1.00  0.00    -0.248 NA
ATOM     62  C   UNL     1      -2.063  -4.846  19.411  1.00  0.00     0.031 C 
ATOM     63  C   UNL     1       3.087  -2.964  22.023  1.00  0.00     0.029 A 
ATOM     64  C   UNL     1       2.030  -3.115  21.140  1.00  0.00     0.049 A 
ATOM     65  H   UNL     1       1.685  -2.143  19.299  1.00  0.00     0.167 HD
ATOM     66  C   UNL     1      -0.115  -4.069  20.340  1.00  0.00     0.074 A 
ATOM     67  C   UNL     1      -1.264  -4.944  20.465  1.00  0.00     0.031 C 
ATOM     68  C   UNL     1       0.887  -3.988  21.250  1.00  0.00     0.031 A 
BRANCH  55  69
ATOM     69  C   UNL     1       5.378  -0.029  19.701  1.00  0.00    -0.014 A 
ATOM     70  C   UNL     1       5.524   1.317  20.083  1.00  0.00     0.010 A 
ATOM     71  C   UNL     1       6.518  -0.850  19.639  1.00  0.00     0.010 A 
ATOM     72  C   UNL     1       6.792   1.845  20.343  1.00  0.00     0.020 A 
ATOM     73  C   UNL     1       7.785  -0.333  19.925  1.00  0.00     0.020 A 
ATOM     74  C   UNL     1       7.915   1.018  20.253  1.00  0.00     0.054 A 
BRANCH  74  75
ATOM     75  S   UNL     1       9.550   1.728  20.591  1.00  0.00     0.124 S 
ATOM     76  O   UNL     1       9.801   2.493  19.373  1.00  0.00    -0.237 OA
ATOM     77  O   UNL     1       9.314   2.523  21.794  1.00  0.00    -0.237 OA
ATOM     78  O   UNL     1      10.404   0.558  20.780  1.00  0.00    -0.744 OA
ENDBRANCH  74  75
ENDBRANCH  55  69
BRANCH  56  79
ATOM     79  C   UNL     1      -3.316  -4.024  16.885  1.00  0.00    -0.014 A 
ATOM     80  C   UNL     1      -4.535  -3.743  17.525  1.00  0.00     0.010 A 
ATOM     81  C   UNL     1      -3.308  -4.886  15.773  1.00  0.00     0.010 A 
ATOM     82  C   UNL     1      -5.724  -4.314  17.063  1.00  0.00     0.020 A 
ATOM     83  C   UNL     1      -4.498  -5.440  15.294  1.00  0.00     0.020 A 
ATOM     84  C   UNL     1      -5.699  -5.155  15.946  1.00  0.00     0.054 A 
BRANCH  84  85
ATOM     85  S   UNL     1      -7.264  -5.820  15.313  1.00  0.00     0.124 S 
ATOM     86  O   UNL     1      -7.562  -6.870  16.282  1.00  0.00    -0.237 OA
ATOM     87  O   UNL     1      -8.143  -4.654  15.353  1.00  0.00    -0.237 OA
ATOM     88  O   UNL     1      -6.919  -6.283  13.971  1.00  0.00    -0.744 OA
ENDBRANCH  84  85
ENDBRANCH  56  79
BRANCH  68  89
ATOM     89  C   UNL     1       0.780  -4.855  22.476  1.00  0.00    -0.014 A 
ATOM     90  C   UNL     1       1.003  -6.241  22.409  1.00  0.00     0.010 A 
ATOM     91  C   UNL     1       0.506  -4.263  23.723  1.00  0.00     0.010 A 
ATOM     92  C   UNL     1       0.926  -7.026  23.564  1.00  0.00     0.020 A 
ATOM     93  C   UNL     1       0.453  -5.040  24.883  1.00  0.00     0.020 A 
ATOM     94  C   UNL     1       0.651  -6.420  24.794  1.00  0.00     0.054 A 
BRANCH  94  95
ATOM     95  S   UNL     1       0.602  -7.450  26.286  1.00  0.00     0.124 S 
ATOM     96  O   UNL     1      -0.688  -8.120  26.151  1.00  0.00    -0.237 OA
ATOM     97  O   UNL     1       1.775  -8.307  26.125  1.00  0.00    -0.237 OA
ATOM     98  O   UNL     1       0.691  -6.483  27.377  1.00  0.00    -0.744 OA
ENDBRANCH  94  95
ENDBRANCH  68  89
ENDBRANCH  42  43
ENDBRANCH  34  37
ENDBRANCH  32  33
ENDBRANCH   1  32
TORSDOF 17
