REMARK SMILES O=C(Cc1ccc(F)cc1F)Nc1sccc1C(=O)NCCCCNC(=O)c1ccc(-c2c3nc(c(-c4ccc(S(=O)(=O)[O-])cc4)c4ccc([nH]4)c(-c4ccc(S(=O)(=O)[O-])cc4)c4nc(c(-c5ccc(S(=O)(=O)[O-])cc5)c5ccc2[nH]5)C=C4)C=C3)cc1
REMARK SMILES IDX 22 1 21 2 20 3 18 4 19 5 17 7 13 8 14 9 15 10 16 11 12 12
REMARK SMILES IDX 1 13 2 14 3 16 4 17 5 18 10 19 6 20 9 21 11 22 7 23 8 24
REMARK SMILES IDX 23 25 24 26 25 27 26 28 27 30 28 31 29 32 87 33 30 34 86 35
REMARK SMILES IDX 31 36 32 37 33 38 80 39 34 40 85 41 79 42 81 43 35 44 84 45
REMARK SMILES IDX 78 46 77 47 36 49 66 50 47 51 65 52 48 53 51 54 64 55 82 56
REMARK SMILES IDX 49 57 50 58 63 60 83 61 52 62 37 63 38 64 46 65 39 66 45 67
REMARK SMILES IDX 40 68 41 69 42 70 43 71 44 72 67 73 68 74 76 75 69 76 75 77
REMARK SMILES IDX 70 78 71 79 72 80 73 81 74 82 53 83 54 84 62 85 55 86 61 87
REMARK SMILES IDX 56 88 57 89 58 90 59 91 60 92
REMARK H PARENT 20 6 12 15 25 29 81 48 51 59
REMARK Flexibility Score: inf
ROOT
ATOM      1  C   UNL     1       3.538   1.945   2.886  1.00  0.00     0.023 C 
ENDROOT
BRANCH   1   2
ATOM      2  C   UNL     1       2.695   1.763   1.632  1.00  0.00     0.116 C 
BRANCH   2   3
ATOM      3  N   UNL     1       1.334   2.232   1.696  1.00  0.00    -0.352 N 
ATOM      4  C   UNL     1       0.484   2.585   0.667  1.00  0.00     0.254 C 
ATOM      5  O   UNL     1      -0.663   2.911   0.974  1.00  0.00    -0.269 OA
ATOM      6  H   UNL     1       0.957   2.311   2.602  1.00  0.00     0.163 HD
BRANCH   4   7
ATOM      7  C   UNL     1       0.969   2.764  -0.707  1.00  0.00     0.074 A 
ATOM      8  C   UNL     1       1.808   1.982  -1.484  1.00  0.00     0.108 A 
ATOM      9  S   UNL     1       2.301   2.758  -2.927  1.00  0.00    -0.126 S 
ATOM     10  C   UNL     1       1.207   4.040  -2.687  1.00  0.00     0.068 A 
ATOM     11  C   UNL     1       0.566   3.927  -1.475  1.00  0.00     0.028 A 
BRANCH   8  12
ATOM     12  N   UNL     1       2.396   0.741  -1.376  1.00  0.00    -0.317 N 
ATOM     13  O   UNL     1       0.697  -0.353  -0.275  1.00  0.00    -0.274 OA
ATOM     14  C   UNL     1       1.863  -0.307  -0.663  1.00  0.00     0.229 C 
ATOM     15  H   UNL     1       3.253   0.595  -1.838  1.00  0.00     0.170 HD
BRANCH  14  16
ATOM     16  C   UNL     1       2.874  -1.350  -0.202  1.00  0.00     0.139 C 
BRANCH  16  17
ATOM     17  C   UNL     1       3.725  -2.058  -1.221  1.00  0.00    -0.003 A 
ATOM     18  C   UNL     1       3.608  -3.446  -1.386  1.00  0.00     0.010 A 
ATOM     19  C   UNL     1       4.759  -1.395  -1.895  1.00  0.00     0.129 A 
ATOM     20  C   UNL     1       4.507  -4.136  -2.201  1.00  0.00     0.040 A 
ATOM     21  C   UNL     1       5.649  -2.069  -2.718  1.00  0.00     0.078 A 
ATOM     22  F   UNL     1       4.918  -0.073  -1.729  1.00  0.00    -0.207 F 
ATOM     23  C   UNL     1       5.518  -3.442  -2.858  1.00  0.00     0.126 A 
ATOM     24  F   UNL     1       6.387  -4.110  -3.627  1.00  0.00    -0.207 F 
ENDBRANCH  16  17
ENDBRANCH  14  16
ENDBRANCH   8  12
ENDBRANCH   4   7
ENDBRANCH   2   3
ENDBRANCH   1   2
BRANCH   1  25
ATOM     25  C   UNL     1       3.093   1.163   4.125  1.00  0.00     0.023 C 
BRANCH  25  26
ATOM     26  C   UNL     1       2.789  -0.326   3.955  1.00  0.00     0.116 C 
BRANCH  26  27
ATOM     27  N   UNL     1       3.900  -1.122   3.455  1.00  0.00    -0.352 N 
ATOM     28  C   UNL     1       4.410  -2.323   3.906  1.00  0.00     0.251 C 
ATOM     29  H   UNL     1       4.361  -0.744   2.671  1.00  0.00     0.163 HD
ATOM     30  O   UNL     1       5.350  -2.837   3.315  1.00  0.00    -0.269 OA
BRANCH  28  31
ATOM     31  C   UNL     1       3.873  -2.955   5.137  1.00  0.00     0.039 A 
ATOM     32  C   UNL     1       4.779  -3.372   6.118  1.00  0.00     0.014 A 
ATOM     33  C   UNL     1       2.502  -3.102   5.353  1.00  0.00     0.014 A 
ATOM     34  C   UNL     1       4.309  -3.828   7.354  1.00  0.00     0.010 A 
ATOM     35  C   UNL     1       2.035  -3.488   6.611  1.00  0.00     0.010 A 
ATOM     36  C   UNL     1       2.933  -3.834   7.633  1.00  0.00    -0.014 A 
BRANCH  36  37
ATOM     37  C   UNL     1       2.425  -4.150   8.997  1.00  0.00     0.031 A 
ATOM     38  C   UNL     1       1.532  -5.339   9.228  1.00  0.00     0.074 A 
ATOM     39  C   UNL     1       2.700  -3.312  10.019  1.00  0.00     0.049 A 
ATOM     40  N   UNL     1       0.951  -5.729  10.335  1.00  0.00    -0.248 NA
ATOM     41  C   UNL     1       1.230  -6.184   8.062  1.00  0.00     0.031 C 
ATOM     42  C   UNL     1       3.496  -2.085   9.922  1.00  0.00     0.029 A 
ATOM     43  N   UNL     1       2.329  -3.357  11.341  1.00  0.00    -0.354 N 
ATOM     44  C   UNL     1       0.192  -6.844   9.993  1.00  0.00     0.074 A 
ATOM     45  C   UNL     1       0.361  -7.048   8.571  1.00  0.00     0.031 C 
ATOM     46  C   UNL     1       3.566  -1.506  11.132  1.00  0.00     0.029 A 
ATOM     47  C   UNL     1       2.797  -2.299  12.085  1.00  0.00     0.049 A 
ATOM     48  H   UNL     1       1.778  -4.080  11.721  1.00  0.00     0.167 HD
ATOM     49  C   UNL     1      -0.564  -7.634  10.792  1.00  0.00     0.031 A 
ATOM     50  C   UNL     1       2.627  -1.994  13.387  1.00  0.00     0.031 A 
ATOM     51  C   UNL     1      -0.710  -7.453  12.212  1.00  0.00     0.049 A 
ATOM     52  C   UNL     1       1.824  -2.916  14.262  1.00  0.00     0.074 A 
ATOM     53  C   UNL     1      -1.388  -8.254  13.116  1.00  0.00     0.029 A 
ATOM     54  N   UNL     1      -0.170  -6.402  12.936  1.00  0.00    -0.354 N 
ATOM     55  N   UNL     1       1.190  -4.016  13.934  1.00  0.00    -0.248 NA
ATOM     56  C   UNL     1       1.730  -2.567  15.687  1.00  0.00     0.031 C 
ATOM     57  C   UNL     1      -1.291  -7.665  14.381  1.00  0.00     0.029 A 
ATOM     58  C   UNL     1      -0.513  -6.524  14.273  1.00  0.00     0.049 A 
ATOM     59  H   UNL     1       0.376  -5.676  12.557  1.00  0.00     0.167 HD
ATOM     60  C   UNL     1       0.644  -4.504  15.117  1.00  0.00     0.074 A 
ATOM     61  C   UNL     1       1.036  -3.589  16.169  1.00  0.00     0.031 C 
ATOM     62  C   UNL     1      -0.113  -5.611  15.312  1.00  0.00     0.031 A 
BRANCH  49  63
ATOM     63  C   UNL     1      -1.299  -8.779  10.146  1.00  0.00    -0.014 A 
ATOM     64  C   UNL     1      -0.612  -9.916   9.687  1.00  0.00     0.010 A 
ATOM     65  C   UNL     1      -2.702  -8.739  10.046  1.00  0.00     0.010 A 
ATOM     66  C   UNL     1      -1.310 -10.978   9.106  1.00  0.00     0.020 A 
ATOM     67  C   UNL     1      -3.406  -9.810   9.489  1.00  0.00     0.020 A 
ATOM     68  C   UNL     1      -2.703 -10.917   9.008  1.00  0.00     0.054 A 
BRANCH  68  69
ATOM     69  S   UNL     1      -3.587 -12.323   8.279  1.00  0.00     0.124 S 
ATOM     70  O   UNL     1      -3.305 -12.149   6.856  1.00  0.00    -0.237 OA
ATOM     71  O   UNL     1      -2.942 -13.471   8.911  1.00  0.00    -0.237 OA
ATOM     72  O   UNL     1      -4.976 -12.100   8.671  1.00  0.00    -0.744 OA
ENDBRANCH  68  69
ENDBRANCH  49  63
BRANCH  50  73
ATOM     73  C   UNL     1       3.244  -0.762  13.952  1.00  0.00    -0.014 A 
ATOM     74  C   UNL     1       4.346  -0.848  14.820  1.00  0.00     0.010 A 
ATOM     75  C   UNL     1       2.727   0.505  13.626  1.00  0.00     0.010 A 
ATOM     76  C   UNL     1       4.904   0.308  15.374  1.00  0.00     0.020 A 
ATOM     77  C   UNL     1       3.299   1.665  14.157  1.00  0.00     0.020 A 
ATOM     78  C   UNL     1       4.375   1.558  15.040  1.00  0.00     0.054 A 
BRANCH  78  79
ATOM     79  S   UNL     1       5.139   3.050  15.735  1.00  0.00     0.124 S 
ATOM     80  O   UNL     1       4.610   3.057  17.094  1.00  0.00    -0.237 OA
ATOM     81  O   UNL     1       6.567   2.764  15.612  1.00  0.00    -0.237 OA
ATOM     82  O   UNL     1       4.651   4.118  14.865  1.00  0.00    -0.744 OA
ENDBRANCH  78  79
ENDBRANCH  50  73
BRANCH  62  83
ATOM     83  C   UNL     1      -0.537  -5.918  16.723  1.00  0.00    -0.014 A 
ATOM     84  C   UNL     1      -1.533  -5.162  17.366  1.00  0.00     0.010 A 
ATOM     85  C   UNL     1       0.043  -7.007  17.398  1.00  0.00     0.010 A 
ATOM     86  C   UNL     1      -1.914  -5.468  18.676  1.00  0.00     0.020 A 
ATOM     87  C   UNL     1      -0.353  -7.331  18.698  1.00  0.00     0.020 A 
ATOM     88  C   UNL     1      -1.318  -6.548  19.335  1.00  0.00     0.054 A 
BRANCH  88  89
ATOM     89  S   UNL     1      -1.849  -6.947  21.023  1.00  0.00     0.124 S 
ATOM     90  O   UNL     1      -1.160  -5.925  21.807  1.00  0.00    -0.237 OA
ATOM     91  O   UNL     1      -3.301  -6.808  20.947  1.00  0.00    -0.237 OA
ATOM     92  O   UNL     1      -1.370  -8.313  21.221  1.00  0.00    -0.744 OA
ENDBRANCH  88  89
ENDBRANCH  62  83
ENDBRANCH  36  37
ENDBRANCH  28  31
ENDBRANCH  26  27
ENDBRANCH  25  26
ENDBRANCH   1  25
TORSDOF 17
