REMARK SMILES CC(C)=C1[C@H]2CC[C@@H]1[C@@H](C(=O)Nc1cc(C)cc(C)c1)[C@@H]2C(=O)NCCCCNC(=O)c1ccc(-c2c3nc(c(-c4ccc(S(=O)(=O)[O-])cc4)c4ccc([nH]4)c(-c4ccc(S(=O)(=O)[O-])cc4)c4nc(c(-c5ccc(S(=O)(=O)[O-])cc5)c5ccc2[nH]5)C=C4)C=C3)cc1
REMARK SMILES IDX 27 1 26 2 25 3 24 4 22 5 23 6 21 8 1 9 2 10 3 11 4 12 5 13
REMARK SMILES IDX 8 14 6 15 7 16 9 17 10 18 11 19 12 20 13 22 14 23 20 24
REMARK SMILES IDX 15 25 18 26 16 27 17 28 19 29 28 30 29 31 30 32 31 34 32 35
REMARK SMILES IDX 33 36 91 37 34 38 90 39 35 40 36 41 37 42 84 43 38 44 89 45
REMARK SMILES IDX 83 46 85 47 39 48 88 49 82 50 81 51 40 53 70 54 51 55 69 56
REMARK SMILES IDX 52 57 55 58 68 59 86 60 53 61 54 62 67 64 87 65 56 66 41 67
REMARK SMILES IDX 42 68 50 69 43 70 49 71 44 72 45 73 46 74 47 75 48 76 71 77
REMARK SMILES IDX 72 78 80 79 73 80 79 81 74 82 75 83 76 84 77 85 78 86 57 87
REMARK SMILES IDX 58 88 66 89 59 90 65 91 60 92 61 93 62 94 63 95 64 96
REMARK H PARENT 24 7 12 21 29 33 85 52 55 63
REMARK Flexibility Score: inf
ROOT
ATOM      1  C   UNL     1       0.981   3.634   8.167  1.00  0.00     0.023 C 
ENDROOT
BRANCH   1   2
ATOM      2  C   UNL     1       1.613   2.957   6.960  1.00  0.00     0.023 C 
BRANCH   2   3
ATOM      3  C   UNL     1       0.990   3.278   5.618  1.00  0.00     0.116 C 
BRANCH   3   4
ATOM      4  N   UNL     1       1.431   4.428   4.894  1.00  0.00    -0.356 N 
ATOM      5  C   UNL     1       1.363   4.618   3.545  1.00  0.00     0.224 C 
ATOM      6  O   UNL     1       1.492   5.786   3.155  1.00  0.00    -0.275 OA
ATOM      7  H   UNL     1       1.825   5.159   5.423  1.00  0.00     0.163 HD
BRANCH   5   8
ATOM      8  C   UNL     1       1.218   3.495   2.491  1.00  0.00     0.098 C 
ATOM      9  C   UNL     1       0.435  -0.452  -0.099  1.00  0.00     0.039 C 
ATOM     10  C   UNL     1      -0.143   0.862   0.358  1.00  0.00    -0.077 C 
ATOM     11  C   UNL     1      -1.470   1.243  -0.228  1.00  0.00     0.039 C 
ATOM     12  C   UNL     1       0.412   1.558   1.367  1.00  0.00    -0.064 C 
ATOM     13  C   UNL     1      -0.097   2.721   2.205  1.00  0.00     0.028 C 
ATOM     14  C   UNL     1       1.514   1.102   2.276  1.00  0.00     0.028 C 
ATOM     15  C   UNL     1      -0.579   1.801   3.324  1.00  0.00     0.009 C 
ATOM     16  C   UNL     1       0.545   0.730   3.424  1.00  0.00     0.009 C 
ATOM     17  C   UNL     1       2.296   2.411   2.519  1.00  0.00     0.099 C 
BRANCH  17  18
ATOM     18  C   UNL     1       3.505   2.547   1.563  1.00  0.00     0.228 C 
ATOM     19  O   UNL     1       4.638   2.423   2.058  1.00  0.00    -0.274 OA
ATOM     20  N   UNL     1       3.478   2.612   0.200  1.00  0.00    -0.326 N 
ATOM     21  H   UNL     1       4.352   2.428  -0.214  1.00  0.00     0.169 HD
BRANCH  20  22
ATOM     22  C   UNL     1       2.473   2.885  -0.737  1.00  0.00     0.041 A 
ATOM     23  C   UNL     1       1.717   4.054  -0.711  1.00  0.00     0.029 A 
ATOM     24  C   UNL     1       2.274   1.972  -1.776  1.00  0.00     0.029 A 
ATOM     25  C   UNL     1       0.620   4.219  -1.565  1.00  0.00    -0.049 A 
ATOM     26  C   UNL     1       1.203   2.133  -2.669  1.00  0.00    -0.049 A 
ATOM     27  C   UNL     1      -0.345   5.348  -1.348  1.00  0.00     0.044 C 
ATOM     28  C   UNL     1       0.363   3.246  -2.536  1.00  0.00     0.007 A 
ATOM     29  C   UNL     1       0.861   1.059  -3.659  1.00  0.00     0.044 C 
ENDBRANCH  20  22
ENDBRANCH  17  18
ENDBRANCH   5   8
ENDBRANCH   3   4
ENDBRANCH   2   3
ENDBRANCH   1   2
BRANCH   1  30
ATOM     30  C   UNL     1      -0.541   3.742   8.182  1.00  0.00     0.116 C 
BRANCH  30  31
ATOM     31  N   UNL     1      -1.264   2.480   8.028  1.00  0.00    -0.352 N 
ATOM     32  C   UNL     1      -2.359   2.043   8.747  1.00  0.00     0.251 C 
ATOM     33  H   UNL     1      -0.931   1.871   7.330  1.00  0.00     0.163 HD
ATOM     34  O   UNL     1      -2.893   0.965   8.509  1.00  0.00    -0.269 OA
BRANCH  32  35
ATOM     35  C   UNL     1      -2.829   2.892   9.858  1.00  0.00     0.039 A 
ATOM     36  C   UNL     1      -2.682   2.425  11.165  1.00  0.00     0.014 A 
ATOM     37  C   UNL     1      -3.186   4.216   9.599  1.00  0.00     0.014 A 
ATOM     38  C   UNL     1      -2.768   3.330  12.224  1.00  0.00     0.010 A 
ATOM     39  C   UNL     1      -3.181   5.127  10.648  1.00  0.00     0.010 A 
ATOM     40  C   UNL     1      -2.945   4.699  11.967  1.00  0.00    -0.014 A 
BRANCH  40  41
ATOM     41  C   UNL     1      -2.862   5.723  13.042  1.00  0.00     0.031 A 
ATOM     42  C   UNL     1      -4.041   6.622  13.290  1.00  0.00     0.074 A 
ATOM     43  C   UNL     1      -1.704   5.929  13.703  1.00  0.00     0.049 A 
ATOM     44  N   UNL     1      -4.117   7.700  14.024  1.00  0.00    -0.248 NA
ATOM     45  C   UNL     1      -5.287   6.284  12.581  1.00  0.00     0.031 C 
ATOM     46  C   UNL     1      -0.471   5.154  13.532  1.00  0.00     0.029 A 
ATOM     47  N   UNL     1      -1.367   6.873  14.643  1.00  0.00    -0.354 N 
ATOM     48  C   UNL     1      -5.400   8.196  13.827  1.00  0.00     0.074 A 
ATOM     49  C   UNL     1      -6.053   7.323  12.877  1.00  0.00     0.031 C 
ATOM     50  C   UNL     1       0.475   5.640  14.353  1.00  0.00     0.029 A 
ATOM     51  C   UNL     1      -0.062   6.790  15.072  1.00  0.00     0.049 A 
ATOM     52  H   UNL     1      -2.002   7.547  14.978  1.00  0.00     0.167 HD
ATOM     53  C   UNL     1      -5.989   9.272  14.398  1.00  0.00     0.031 A 
ATOM     54  C   UNL     1       0.629   7.562  15.934  1.00  0.00     0.031 A 
ATOM     55  C   UNL     1      -5.354  10.112  15.375  1.00  0.00     0.049 A 
ATOM     56  C   UNL     1      -0.056   8.736  16.581  1.00  0.00     0.074 A 
ATOM     57  C   UNL     1      -5.887  11.192  16.056  1.00  0.00     0.029 A 
ATOM     58  N   UNL     1      -4.051   9.957  15.821  1.00  0.00    -0.354 N 
ATOM     59  N   UNL     1      -1.282   9.168  16.410  1.00  0.00    -0.248 NA
ATOM     60  C   UNL     1       0.732   9.524  17.541  1.00  0.00     0.031 C 
ATOM     61  C   UNL     1      -4.895  11.708  16.896  1.00  0.00     0.029 A 
ATOM     62  C   UNL     1      -3.760  10.921  16.768  1.00  0.00     0.049 A 
ATOM     63  H   UNL     1      -3.426   9.262  15.510  1.00  0.00     0.167 HD
ATOM     64  C   UNL     1      -1.423  10.256  17.265  1.00  0.00     0.074 A 
ATOM     65  C   UNL     1      -0.159  10.416  17.953  1.00  0.00     0.031 C 
ATOM     66  C   UNL     1      -2.505  11.048  17.463  1.00  0.00     0.031 A 
BRANCH  53  67
ATOM     67  C   UNL     1      -7.395   9.594  13.972  1.00  0.00    -0.014 A 
ATOM     68  C   UNL     1      -8.473   8.771  14.347  1.00  0.00     0.010 A 
ATOM     69  C   UNL     1      -7.644  10.740  13.196  1.00  0.00     0.010 A 
ATOM     70  C   UNL     1      -9.767   9.059  13.909  1.00  0.00     0.020 A 
ATOM     71  C   UNL     1      -8.943  11.047  12.780  1.00  0.00     0.020 A 
ATOM     72  C   UNL     1      -9.992  10.191  13.121  1.00  0.00     0.054 A 
BRANCH  72  73
ATOM     73  S   UNL     1     -11.683  10.544  12.569  1.00  0.00     0.124 S 
ATOM     74  O   UNL     1     -11.854   9.573  11.491  1.00  0.00    -0.237 OA
ATOM     75  O   UNL     1     -12.474  10.294  13.771  1.00  0.00    -0.237 OA
ATOM     76  O   UNL     1     -11.623  11.941  12.146  1.00  0.00    -0.744 OA
ENDBRANCH  72  73
ENDBRANCH  53  67
BRANCH  54  77
ATOM     77  C   UNL     1       2.047   7.242  16.254  1.00  0.00    -0.014 A 
ATOM     78  C   UNL     1       2.385   6.700  17.507  1.00  0.00     0.010 A 
ATOM     79  C   UNL     1       3.066   7.467  15.310  1.00  0.00     0.010 A 
ATOM     80  C   UNL     1       3.716   6.406  17.818  1.00  0.00     0.020 A 
ATOM     81  C   UNL     1       4.396   7.151  15.609  1.00  0.00     0.020 A 
ATOM     82  C   UNL     1       4.714   6.633  16.866  1.00  0.00     0.054 A 
BRANCH  82  83
ATOM     83  S   UNL     1       6.428   6.196  17.272  1.00  0.00     0.124 S 
ATOM     84  O   UNL     1       6.817   7.286  18.160  1.00  0.00    -0.237 OA
ATOM     85  O   UNL     1       6.280   4.887  17.903  1.00  0.00    -0.237 OA
ATOM     86  O   UNL     1       7.092   6.179  15.970  1.00  0.00    -0.744 OA
ENDBRANCH  82  83
ENDBRANCH  54  77
BRANCH  66  87
ATOM     87  C   UNL     1      -2.404  12.126  18.505  1.00  0.00    -0.014 A 
ATOM     88  C   UNL     1      -1.714  13.323  18.251  1.00  0.00     0.010 A 
ATOM     89  C   UNL     1      -3.105  11.977  19.716  1.00  0.00     0.010 A 
ATOM     90  C   UNL     1      -1.724  14.354  19.195  1.00  0.00     0.020 A 
ATOM     91  C   UNL     1      -3.134  13.013  20.652  1.00  0.00     0.020 A 
ATOM     92  C   UNL     1      -2.438  14.194  20.387  1.00  0.00     0.054 A 
BRANCH  92  93
ATOM     93  S   UNL     1      -2.511  15.580  21.556  1.00  0.00     0.124 S 
ATOM     94  O   UNL     1      -1.187  15.531  22.168  1.00  0.00    -0.237 OA
ATOM     95  O   UNL     1      -2.759  16.725  20.683  1.00  0.00    -0.237 OA
ATOM     96  O   UNL     1      -3.620  15.228  22.440  1.00  0.00    -0.744 OA
ENDBRANCH  92  93
ENDBRANCH  66  87
ENDBRANCH  40  41
ENDBRANCH  32  35
ENDBRANCH  30  31
ENDBRANCH   1  30
TORSDOF 16
