REMARK SMILES O=C(NCCCCNC(=O)[C@@]1(Nc2ccc(Cl)c(Br)c2)CCCOCC1)c1ccc(-c2c3nc(c(-c4ccc(S(=O)(=O)[O-])cc4)c4ccc([nH]4)c(-c4ccc(S(=O)(=O)[O-])cc4)c4nc(c(-c5ccc(S(=O)(=O)[O-])cc5)c5ccc2[nH]5)C=C4)C=C3)cc1
REMARK SMILES IDX 6 1 5 2 4 3 3 4 1 5 2 6 27 8 28 9 86 10 29 11 85 12 30 13
REMARK SMILES IDX 31 14 32 15 79 16 33 17 84 18 78 19 80 20 34 21 83 22 77 23
REMARK SMILES IDX 76 24 35 26 65 27 46 28 64 29 47 30 50 31 63 32 81 33 48 34
REMARK SMILES IDX 49 35 62 37 82 38 51 39 36 40 37 41 45 42 38 43 44 44 39 45
REMARK SMILES IDX 40 46 41 47 42 48 43 49 66 50 67 51 75 52 68 53 74 54 69 55
REMARK SMILES IDX 70 56 71 57 72 58 73 59 52 60 53 61 61 62 54 63 60 64 55 65
REMARK SMILES IDX 56 66 57 67 58 68 59 69 7 70 8 71 9 72 10 74 11 75 21 76
REMARK SMILES IDX 22 77 26 79 25 80 24 81 23 82 12 84 13 86 14 87 20 88 15 89
REMARK SMILES IDX 18 90 16 91 19 92 17 93
REMARK H PARENT 3 7 80 25 50 36 8 73 12 85
REMARK Flexibility Score: 90.00
ROOT
ATOM      1  C   UNL     1       5.428   9.239  -1.938  1.00  0.00     0.023 C 
ENDROOT
BRANCH   1   2
ATOM      2  C   UNL     1       4.007   9.682  -2.288  1.00  0.00     0.023 C 
BRANCH   2   3
ATOM      3  C   UNL     1       3.297  10.589  -1.286  1.00  0.00     0.116 C 
BRANCH   3   4
ATOM      4  N   UNL     1       4.020  11.814  -0.974  1.00  0.00    -0.352 N 
ATOM      5  O   UNL     1       4.446  14.023  -0.883  1.00  0.00    -0.269 OA
ATOM      6  C   UNL     1       3.651  13.132  -1.144  1.00  0.00     0.251 C 
ATOM      7  H   UNL     1       4.912  11.681  -0.579  1.00  0.00     0.163 HD
BRANCH   6   8
ATOM      8  C   UNL     1       2.309  13.461  -1.673  1.00  0.00     0.039 A 
ATOM      9  C   UNL     1       2.196  14.404  -2.699  1.00  0.00     0.014 A 
ATOM     10  C   UNL     1       1.168  12.834  -1.171  1.00  0.00     0.014 A 
ATOM     11  C   UNL     1       0.946  14.661  -3.269  1.00  0.00     0.010 A 
ATOM     12  C   UNL     1      -0.056  13.017  -1.804  1.00  0.00     0.010 A 
ATOM     13  C   UNL     1      -0.186  13.945  -2.848  1.00  0.00    -0.014 A 
BRANCH  13  14
ATOM     14  C   UNL     1      -1.529  14.186  -3.438  1.00  0.00     0.031 A 
ATOM     15  C   UNL     1      -2.643  14.688  -2.558  1.00  0.00     0.074 A 
ATOM     16  C   UNL     1      -1.767  13.907  -4.735  1.00  0.00     0.049 A 
ATOM     17  N   UNL     1      -3.904  14.876  -2.851  1.00  0.00    -0.248 NA
ATOM     18  C   UNL     1      -2.304  14.987  -1.156  1.00  0.00     0.031 C 
ATOM     19  C   UNL     1      -0.779  13.394  -5.685  1.00  0.00     0.029 A 
ATOM     20  N   UNL     1      -2.916  14.017  -5.480  1.00  0.00    -0.354 N 
ATOM     21  C   UNL     1      -4.506  15.292  -1.670  1.00  0.00     0.074 A 
ATOM     22  C   UNL     1      -3.493  15.263  -0.641  1.00  0.00     0.031 C 
ATOM     23  C   UNL     1      -1.351  13.277  -6.894  1.00  0.00     0.029 A 
ATOM     24  C   UNL     1      -2.759  13.659  -6.799  1.00  0.00     0.049 A 
ATOM     25  H   UNL     1      -3.773  14.325  -5.105  1.00  0.00     0.167 HD
ATOM     26  C   UNL     1      -5.780  15.698  -1.466  1.00  0.00     0.031 A 
ATOM     27  C   UNL     1      -3.641  13.644  -7.820  1.00  0.00     0.031 A 
ATOM     28  C   UNL     1      -6.772  15.768  -2.504  1.00  0.00     0.049 A 
ATOM     29  C   UNL     1      -5.056  14.095  -7.574  1.00  0.00     0.074 A 
ATOM     30  C   UNL     1      -8.076  16.220  -2.409  1.00  0.00     0.029 A 
ATOM     31  N   UNL     1      -6.569  15.394  -3.824  1.00  0.00    -0.354 N 
ATOM     32  N   UNL     1      -5.597  14.522  -6.458  1.00  0.00    -0.248 NA
ATOM     33  C   UNL     1      -5.976  14.074  -8.720  1.00  0.00     0.031 C 
ATOM     34  C   UNL     1      -8.680  16.062  -3.658  1.00  0.00     0.029 A 
ATOM     35  C   UNL     1      -7.733  15.583  -4.549  1.00  0.00     0.049 A 
ATOM     36  H   UNL     1      -5.724  15.046  -4.190  1.00  0.00     0.167 HD
ATOM     37  C   UNL     1      -6.914  14.840  -6.771  1.00  0.00     0.074 A 
ATOM     38  C   UNL     1      -7.085  14.569  -8.184  1.00  0.00     0.031 C 
ATOM     39  C   UNL     1      -7.890  15.313  -5.958  1.00  0.00     0.031 A 
BRANCH  26  40
ATOM     40  C   UNL     1      -6.173  16.130  -0.077  1.00  0.00    -0.014 A 
ATOM     41  C   UNL     1      -7.136  15.397   0.639  1.00  0.00     0.010 A 
ATOM     42  C   UNL     1      -5.653  17.310   0.487  1.00  0.00     0.010 A 
ATOM     43  C   UNL     1      -7.589  15.846   1.883  1.00  0.00     0.020 A 
ATOM     44  C   UNL     1      -6.077  17.743   1.746  1.00  0.00     0.020 A 
ATOM     45  C   UNL     1      -7.060  17.020   2.425  1.00  0.00     0.054 A 
BRANCH  45  46
ATOM     46  S   UNL     1      -7.664  17.593   4.037  1.00  0.00     0.124 S 
ATOM     47  O   UNL     1      -8.964  18.159   3.694  1.00  0.00    -0.237 OA
ATOM     48  O   UNL     1      -7.697  16.361   4.822  1.00  0.00    -0.237 OA
ATOM     49  O   UNL     1      -6.650  18.559   4.456  1.00  0.00    -0.744 OA
ENDBRANCH  45  46
ENDBRANCH  26  40
BRANCH  27  50
ATOM     50  C   UNL     1      -3.172  13.244  -9.176  1.00  0.00    -0.014 A 
ATOM     51  C   UNL     1      -2.787  11.917  -9.442  1.00  0.00     0.010 A 
ATOM     52  C   UNL     1      -3.003  14.216 -10.179  1.00  0.00     0.010 A 
ATOM     53  C   UNL     1      -2.179  11.583 -10.656  1.00  0.00     0.020 A 
ATOM     54  C   UNL     1      -2.421  13.880 -11.406  1.00  0.00     0.020 A 
ATOM     55  C   UNL     1      -1.980  12.573 -11.622  1.00  0.00     0.054 A 
BRANCH  55  56
ATOM     56  S   UNL     1      -1.103  12.137 -13.149  1.00  0.00     0.124 S 
ATOM     57  O   UNL     1       0.274  12.018 -12.678  1.00  0.00    -0.237 OA
ATOM     58  O   UNL     1      -1.745  10.884 -13.539  1.00  0.00    -0.237 OA
ATOM     59  O   UNL     1      -1.366  13.271 -14.032  1.00  0.00    -0.744 OA
ENDBRANCH  55  56
ENDBRANCH  27  50
BRANCH  39  60
ATOM     60  C   UNL     1      -9.250  15.583  -6.548  1.00  0.00    -0.014 A 
ATOM     61  C   UNL     1      -9.730  16.905  -6.610  1.00  0.00     0.010 A 
ATOM     62  C   UNL     1     -10.113  14.524  -6.880  1.00  0.00     0.010 A 
ATOM     63  C   UNL     1     -11.062  17.162  -6.944  1.00  0.00     0.020 A 
ATOM     64  C   UNL     1     -11.438  14.779  -7.245  1.00  0.00     0.020 A 
ATOM     65  C   UNL     1     -11.912  16.094  -7.245  1.00  0.00     0.054 A 
BRANCH  65  66
ATOM     66  S   UNL     1     -13.652  16.442  -7.617  1.00  0.00     0.124 S 
ATOM     67  O   UNL     1     -14.198  16.728  -6.294  1.00  0.00    -0.237 OA
ATOM     68  O   UNL     1     -13.565  17.584  -8.524  1.00  0.00    -0.237 OA
ATOM     69  O   UNL     1     -14.125  15.203  -8.233  1.00  0.00    -0.744 OA
ENDBRANCH  65  66
ENDBRANCH  39  60
ENDBRANCH  13  14
ENDBRANCH   6   8
ENDBRANCH   3   4
ENDBRANCH   2   3
ENDBRANCH   1   2
BRANCH   1  70
ATOM     70  C   UNL     1       5.654   8.767  -0.507  1.00  0.00     0.116 C 
BRANCH  70  71
ATOM     71  N   UNL     1       5.088   7.477  -0.181  1.00  0.00    -0.354 N 
ATOM     72  C   UNL     1       5.246   6.637   0.878  1.00  0.00     0.245 C 
ATOM     73  H   UNL     1       4.463   7.138  -0.861  1.00  0.00     0.163 HD
ATOM     74  O   UNL     1       4.440   5.690   0.874  1.00  0.00    -0.272 OA
BRANCH  72  75
ATOM     75  C   UNL     1       6.408   6.660   1.988  1.00  0.00     0.119 C 
BRANCH  75  76
ATOM     76  C   UNL     1       7.344   7.895   2.038  1.00  0.00     0.041 C 
BRANCH  76  77
ATOM     77  C   UNL     1       6.718   9.232   2.418  1.00  0.00     0.031 CG0
ATOM     78  G   UNL     1       6.609   9.466   3.915  1.00  0.00     0.000 G0
ENDBRANCH  76  77
ENDBRANCH  75  76
BRANCH  75  79
ATOM     79  C   UNL     1       5.707   6.385   3.353  1.00  0.00     0.067 C 
BRANCH  79  80
ATOM     80  C   UNL     1       5.089   7.600   4.034  1.00  0.00     0.163 C 
BRANCH  80  81
ATOM     81  O   UNL     1       6.126   8.356   4.653  1.00  0.00    -0.381 OA
BRANCH  81  82
ATOM     82  C   UNL     1       6.609   9.466   3.915  1.00  0.00     0.160 CG0
ATOM     83  G   UNL     1       6.718   9.232   2.418  1.00  0.00     0.000 G0
ENDBRANCH  81  82
ENDBRANCH  80  81
ENDBRANCH  79  80
ENDBRANCH  75  79
BRANCH  75  84
ATOM     84  N   UNL     1       7.242   5.434   1.658  1.00  0.00    -0.371 N 
ATOM     85  H   UNL     1       6.817   4.705   1.153  1.00  0.00     0.161 HD
BRANCH  84  86
ATOM     86  C   UNL     1       8.570   5.288   2.030  1.00  0.00     0.036 A 
ATOM     87  C   UNL     1       8.951   5.144   3.367  1.00  0.00     0.027 A 
ATOM     88  C   UNL     1       9.579   5.435   1.071  1.00  0.00     0.043 A 
ATOM     89  C   UNL     1      10.293   5.208   3.752  1.00  0.00     0.024 A 
ATOM     90  C   UNL     1      10.928   5.507   1.447  1.00  0.00     0.038 A 
ATOM     91  C   UNL     1      11.285   5.410   2.795  1.00  0.00     0.055 A 
ATOM     92  Br  UNL     1      12.206   5.790   0.070  1.00  0.00    -0.049 Br
ATOM     93  Cl  UNL     1      12.914   5.553   3.350  1.00  0.00    -0.083 Cl
ENDBRANCH  84  86
ENDBRANCH  75  84
ENDBRANCH  72  75
ENDBRANCH  70  71
ENDBRANCH   1  70
TORSDOF 16
