REMARK SMILES Cc1[nH]ncc1S(=O)(=O)NC[C@@H]1CC[C@@H](C(=O)NCCCCNC(=O)c2ccc(-c3c4nc(c(-c5ccc(S(=O)(=O)[O-])cc5)c5ccc([nH]5)c(-c5ccc(S(=O)(=O)[O-])cc5)c5nc(c(-c6ccc(S(=O)(=O)[O-])cc6)c6ccc3[nH]6)C=C5)C=C4)cc2)O1
REMARK SMILES IDX 20 1 19 2 18 3 16 4 17 5 15 7 12 8 13 9 86 10 14 11 11 12
REMARK SMILES IDX 10 13 7 15 8 16 9 17 6 18 1 19 2 20 3 21 4 22 5 24 21 25
REMARK SMILES IDX 22 26 23 27 24 28 25 30 26 31 27 32 85 33 28 34 84 35 29 36
REMARK SMILES IDX 30 37 31 38 78 39 32 40 83 41 77 42 79 43 33 44 82 45 76 46
REMARK SMILES IDX 75 47 34 49 64 50 45 51 63 52 46 53 49 54 62 55 80 56 47 57
REMARK SMILES IDX 48 58 61 60 81 61 50 62 35 63 36 64 44 65 37 66 43 67 38 68
REMARK SMILES IDX 39 69 40 70 41 71 42 72 65 73 66 74 74 75 67 76 73 77 68 78
REMARK SMILES IDX 69 79 70 80 71 81 72 82 51 83 52 84 60 85 53 86 59 87 54 88
REMARK SMILES IDX 55 89 56 90 57 91 58 92
REMARK H PARENT 18 6 10 14 3 23 23 29 79 48 49 59
REMARK Flexibility Score: inf
ROOT
ATOM      1  C   UNL     1       2.904   6.471   2.595  1.00  0.00     0.023 C 
ENDROOT
BRANCH   1   2
ATOM      2  C   UNL     1       2.602   4.972   2.610  1.00  0.00     0.116 C 
BRANCH   2   3
ATOM      3  N   UNL     1       1.979   4.577   3.860  1.00  0.00    -0.354 N 
ATOM      4  C   UNL     1       0.646   4.486   4.156  1.00  0.00     0.249 C 
ATOM      5  O   UNL     1       0.314   4.228   5.315  1.00  0.00    -0.272 OA
ATOM      6  H   UNL     1       2.597   4.343   4.591  1.00  0.00     0.163 HD
BRANCH   4   7
ATOM      7  C   UNL     1      -0.377   4.655   3.031  1.00  0.00     0.207 C 
ATOM      8  C   UNL     1      -2.212   3.324   2.504  1.00  0.00     0.134 C 
ATOM      9  C   UNL     1      -2.662   4.773   2.503  1.00  0.00     0.037 C 
ATOM     10  O   UNL     1      -0.783   3.348   2.571  1.00  0.00    -0.364 OA
ATOM     11  C   UNL     1      -1.651   5.374   3.453  1.00  0.00     0.045 C 
BRANCH   8  12
ATOM     12  C   UNL     1      -2.700   2.453   1.352  1.00  0.00     0.131 C 
BRANCH  12  13
ATOM     13  N   UNL     1      -2.344   2.902  -0.009  1.00  0.00    -0.208 NA
ATOM     14  H   UNL     1      -2.997   2.443  -0.644  1.00  0.00     0.141 HD
BRANCH  13  15
ATOM     15  S   UNL     1      -0.803   2.648  -0.645  1.00  0.00     0.244 S 
ATOM     16  O   UNL     1       0.118   3.564  -0.014  1.00  0.00    -0.207 OA
ATOM     17  O   UNL     1      -0.967   2.659  -2.083  1.00  0.00    -0.207 OA
BRANCH  15  18
ATOM     18  C   UNL     1      -0.220   1.075  -0.308  1.00  0.00     0.122 A 
ATOM     19  C   UNL     1      -2.287  -0.518  -0.615  1.00  0.00     0.067 C 
ATOM     20  C   UNL     1      -0.886  -0.138  -0.336  1.00  0.00     0.052 A 
ATOM     21  N   UNL     1       0.070  -1.071  -0.029  1.00  0.00    -0.281 N 
ATOM     22  N   UNL     1       1.291  -0.551   0.176  1.00  0.00    -0.183 NA
ATOM     23  H   UNL     1      -0.121  -2.035   0.034  1.00  0.00     0.190 HD
ATOM     24  C   UNL     1       1.112   0.762   0.003  1.00  0.00     0.157 A 
ENDBRANCH  15  18
ENDBRANCH  13  15
ENDBRANCH  12  13
ENDBRANCH   8  12
ENDBRANCH   4   7
ENDBRANCH   2   3
ENDBRANCH   1   2
BRANCH   1  25
ATOM     25  C   UNL     1       3.965   6.909   3.612  1.00  0.00     0.023 C 
BRANCH  25  26
ATOM     26  C   UNL     1       5.323   6.228   3.469  1.00  0.00     0.116 C 
BRANCH  26  27
ATOM     27  N   UNL     1       5.954   6.483   2.183  1.00  0.00    -0.352 N 
ATOM     28  C   UNL     1       7.283   6.713   1.914  1.00  0.00     0.251 C 
ATOM     29  H   UNL     1       5.351   6.494   1.405  1.00  0.00     0.163 HD
ATOM     30  O   UNL     1       7.639   7.040   0.786  1.00  0.00    -0.269 OA
BRANCH  28  31
ATOM     31  C   UNL     1       8.275   6.598   3.005  1.00  0.00     0.039 A 
ATOM     32  C   UNL     1       9.177   7.644   3.212  1.00  0.00     0.014 A 
ATOM     33  C   UNL     1       8.291   5.476   3.838  1.00  0.00     0.014 A 
ATOM     34  C   UNL     1      10.049   7.600   4.303  1.00  0.00     0.010 A 
ATOM     35  C   UNL     1       9.120   5.460   4.957  1.00  0.00     0.010 A 
ATOM     36  C   UNL     1      10.001   6.525   5.205  1.00  0.00    -0.014 A 
BRANCH  36  37
ATOM     37  C   UNL     1      10.847   6.496   6.424  1.00  0.00     0.031 A 
ATOM     38  C   UNL     1      11.903   5.438   6.584  1.00  0.00     0.074 A 
ATOM     39  C   UNL     1      10.605   7.366   7.426  1.00  0.00     0.049 A 
ATOM     40  N   UNL     1      12.659   5.177   7.619  1.00  0.00    -0.248 NA
ATOM     41  C   UNL     1      12.120   4.540   5.438  1.00  0.00     0.031 C 
ATOM     42  C   UNL     1       9.586   8.418   7.410  1.00  0.00     0.029 A 
ATOM     43  N   UNL     1      11.190   7.491   8.661  1.00  0.00    -0.354 N 
ATOM     44  C   UNL     1      13.421   4.072   7.261  1.00  0.00     0.074 A 
ATOM     45  C   UNL     1      13.013   3.691   5.926  1.00  0.00     0.031 C 
ATOM     46  C   UNL     1       9.626   9.087   8.573  1.00  0.00     0.029 A 
ATOM     47  C   UNL     1      10.644   8.490   9.432  1.00  0.00     0.049 A 
ATOM     48  H   UNL     1      11.931   6.919   8.966  1.00  0.00     0.167 HD
ATOM     49  C   UNL     1      14.381   3.437   7.975  1.00  0.00     0.031 A 
ATOM     50  C   UNL     1      10.920   8.874  10.693  1.00  0.00     0.031 A 
ATOM     51  C   UNL     1      14.800   3.827   9.294  1.00  0.00     0.049 A 
ATOM     52  C   UNL     1      11.994   8.158  11.464  1.00  0.00     0.074 A 
ATOM     53  C   UNL     1      15.803   3.280  10.076  1.00  0.00     0.029 A 
ATOM     54  N   UNL     1      14.241   4.862  10.027  1.00  0.00    -0.354 N 
ATOM     55  N   UNL     1      12.739   7.146  11.089  1.00  0.00    -0.248 NA
ATOM     56  C   UNL     1      12.270   8.640  12.825  1.00  0.00     0.031 C 
ATOM     57  C   UNL     1      15.826   3.963  11.297  1.00  0.00     0.029 A 
ATOM     58  C   UNL     1      14.867   4.962  11.258  1.00  0.00     0.049 A 
ATOM     59  H   UNL     1      13.506   5.441   9.719  1.00  0.00     0.167 HD
ATOM     60  C   UNL     1      13.588   6.885  12.158  1.00  0.00     0.074 A 
ATOM     61  C   UNL     1      13.272   7.851  13.191  1.00  0.00     0.031 C 
ATOM     62  C   UNL     1      14.545   5.933  12.272  1.00  0.00     0.031 A 
BRANCH  49  63
ATOM     63  C   UNL     1      15.042   2.245   7.337  1.00  0.00    -0.014 A 
ATOM     64  C   UNL     1      15.944   2.402   6.270  1.00  0.00     0.010 A 
ATOM     65  C   UNL     1      14.779   0.954   7.829  1.00  0.00     0.010 A 
ATOM     66  C   UNL     1      16.538   1.285   5.676  1.00  0.00     0.020 A 
ATOM     67  C   UNL     1      15.389  -0.164   7.254  1.00  0.00     0.020 A 
ATOM     68  C   UNL     1      16.250   0.008   6.168  1.00  0.00     0.054 A 
BRANCH  68  69
ATOM     69  S   UNL     1      17.043  -1.425   5.388  1.00  0.00     0.124 S 
ATOM     70  O   UNL     1      16.268  -1.563   4.157  1.00  0.00    -0.237 OA
ATOM     71  O   UNL     1      18.422  -0.977   5.214  1.00  0.00    -0.237 OA
ATOM     72  O   UNL     1      16.858  -2.496   6.364  1.00  0.00    -0.744 OA
ENDBRANCH  68  69
ENDBRANCH  49  63
BRANCH  50  73
ATOM     73  C   UNL     1      10.171  10.005  11.303  1.00  0.00    -0.014 A 
ATOM     74  C   UNL     1      10.792  11.254  11.479  1.00  0.00     0.010 A 
ATOM     75  C   UNL     1       8.829   9.846  11.692  1.00  0.00     0.010 A 
ATOM     76  C   UNL     1      10.088  12.321  12.046  1.00  0.00     0.020 A 
ATOM     77  C   UNL     1       8.115  10.916  12.238  1.00  0.00     0.020 A 
ATOM     78  C   UNL     1       8.753  12.145  12.421  1.00  0.00     0.054 A 
BRANCH  78  79
ATOM     79  S   UNL     1       7.839  13.558  13.100  1.00  0.00     0.124 S 
ATOM     80  O   UNL     1       8.344  13.617  14.468  1.00  0.00    -0.237 OA
ATOM     81  O   UNL     1       8.251  14.653  12.226  1.00  0.00    -0.237 OA
ATOM     82  O   UNL     1       6.441  13.156  12.963  1.00  0.00    -0.744 OA
ENDBRANCH  78  79
ENDBRANCH  50  73
BRANCH  62  83
ATOM     83  C   UNL     1      15.349   5.905  13.543  1.00  0.00    -0.014 A 
ATOM     84  C   UNL     1      14.808   5.391  14.733  1.00  0.00     0.010 A 
ATOM     85  C   UNL     1      16.688   6.336  13.525  1.00  0.00     0.010 A 
ATOM     86  C   UNL     1      15.588   5.324  15.891  1.00  0.00     0.020 A 
ATOM     87  C   UNL     1      17.477   6.252  14.674  1.00  0.00     0.020 A 
ATOM     88  C   UNL     1      16.919   5.755  15.854  1.00  0.00     0.054 A 
BRANCH  88  89
ATOM     89  S   UNL     1      17.931   5.601  17.351  1.00  0.00     0.124 S 
ATOM     90  O   UNL     1      17.453   6.721  18.157  1.00  0.00    -0.237 OA
ATOM     91  O   UNL     1      17.576   4.274  17.847  1.00  0.00    -0.237 OA
ATOM     92  O   UNL     1      19.300   5.729  16.857  1.00  0.00    -0.744 OA
ENDBRANCH  88  89
ENDBRANCH  62  83
ENDBRANCH  36  37
ENDBRANCH  28  31
ENDBRANCH  26  27
ENDBRANCH  25  26
ENDBRANCH   1  25
TORSDOF 18
