REMARK SMILES Cc1ccccc1NC(=O)NC[C@@H]1CC[C@@H](C(=O)NCCCCNC(=O)c2ccc(-c3c4nc(c(-c5ccc(S(=O)(=O)[O-])cc5)c5ccc([nH]5)c(-c5ccc(S(=O)(=O)[O-])cc5)c5nc(c(-c6ccc(S(=O)(=O)[O-])cc6)c6ccc3[nH]6)C=C5)C=C4)cc2)O1
REMARK SMILES IDX 21 1 20 2 19 3 17 4 18 5 16 7 13 8 14 9 87 10 15 11 12 12
REMARK SMILES IDX 11 13 8 14 9 15 10 17 7 19 1 20 2 21 3 22 4 23 6 24 5 25
REMARK SMILES IDX 22 26 23 27 24 28 25 29 26 31 27 32 28 33 86 34 29 35 85 36
REMARK SMILES IDX 30 37 31 38 32 39 79 40 33 41 84 42 78 43 80 44 34 45 83 46
REMARK SMILES IDX 77 47 76 48 35 50 65 51 46 52 64 53 47 54 50 55 63 56 81 57
REMARK SMILES IDX 48 58 49 59 62 61 82 62 51 63 36 64 37 65 45 66 38 67 44 68
REMARK SMILES IDX 39 69 40 70 41 71 42 72 43 73 66 74 67 75 75 76 68 77 74 78
REMARK SMILES IDX 69 79 70 80 71 81 72 82 73 83 52 84 53 85 61 86 54 87 60 88
REMARK SMILES IDX 55 89 56 90 57 91 58 92 59 93
REMARK H PARENT 19 6 8 16 11 18 24 30 80 49 50 60
REMARK Flexibility Score: inf
ROOT
ATOM      1  C   UNL     1      -6.600   0.947   4.585  1.00  0.00     0.023 C 
ENDROOT
BRANCH   1   2
ATOM      2  C   UNL     1      -7.302   1.987   3.689  1.00  0.00     0.116 C 
BRANCH   2   3
ATOM      3  N   UNL     1      -6.618   3.275   3.682  1.00  0.00    -0.354 N 
ATOM      4  C   UNL     1      -5.749   3.858   2.805  1.00  0.00     0.249 C 
ATOM      5  O   UNL     1      -5.316   4.973   3.120  1.00  0.00    -0.272 OA
ATOM      6  H   UNL     1      -6.824   3.836   4.464  1.00  0.00     0.163 HD
BRANCH   4   7
ATOM      7  C   UNL     1      -5.367   3.199   1.457  1.00  0.00     0.207 C 
ATOM      8  C   UNL     1      -3.163   2.796   0.752  1.00  0.00     0.138 C 
ATOM      9  C   UNL     1      -3.969   1.541   0.507  1.00  0.00     0.037 C 
ATOM     10  O   UNL     1      -4.181   3.812   0.860  1.00  0.00    -0.363 OA
ATOM     11  C   UNL     1      -5.055   1.715   1.528  1.00  0.00     0.045 C 
BRANCH   8  12
ATOM     12  C   UNL     1      -2.122   3.079  -0.349  1.00  0.00     0.149 C 
BRANCH  12  13
ATOM     13  N   UNL     1      -0.908   3.683   0.202  1.00  0.00    -0.335 N 
ATOM     14  N   UNL     1       0.955   2.155   0.152  1.00  0.00    -0.308 N 
ATOM     15  C   UNL     1       0.381   3.357   0.317  1.00  0.00     0.319 C 
ATOM     16  H   UNL     1       1.927   2.252   0.030  1.00  0.00     0.171 HD
ATOM     17  O   UNL     1       1.159   4.292   0.556  1.00  0.00    -0.249 OA
ATOM     18  H   UNL     1      -1.092   4.567   0.594  1.00  0.00     0.165 HD
BRANCH  14  19
ATOM     19  C   UNL     1       0.586   0.799   0.101  1.00  0.00     0.045 A 
ATOM     20  C   UNL     1       3.005   0.070  -0.435  1.00  0.00     0.046 C 
ATOM     21  C   UNL     1       1.528  -0.185  -0.277  1.00  0.00    -0.027 A 
ATOM     22  C   UNL     1       1.117  -1.531  -0.406  1.00  0.00     0.005 A 
ATOM     23  C   UNL     1      -0.192  -1.913  -0.143  1.00  0.00     0.000 A 
ATOM     24  C   UNL     1      -0.671   0.361   0.491  1.00  0.00     0.026 A 
ATOM     25  C   UNL     1      -1.081  -0.967   0.337  1.00  0.00     0.002 A 
ENDBRANCH  14  19
ENDBRANCH  12  13
ENDBRANCH   8  12
ENDBRANCH   4   7
ENDBRANCH   2   3
ENDBRANCH   1   2
BRANCH   1  26
ATOM     26  C   UNL     1      -6.513   1.321   6.070  1.00  0.00     0.023 C 
BRANCH  26  27
ATOM     27  C   UNL     1      -7.872   1.347   6.754  1.00  0.00     0.116 C 
BRANCH  27  28
ATOM     28  N   UNL     1      -8.141   0.219   7.633  1.00  0.00    -0.352 N 
ATOM     29  C   UNL     1      -9.262   0.054   8.430  1.00  0.00     0.251 C 
ATOM     30  H   UNL     1      -7.463  -0.494   7.665  1.00  0.00     0.163 HD
ATOM     31  O   UNL     1      -9.300  -0.720   9.382  1.00  0.00    -0.269 OA
BRANCH  29  32
ATOM     32  C   UNL     1     -10.489   0.740   7.974  1.00  0.00     0.039 A 
ATOM     33  C   UNL     1     -11.447  -0.060   7.337  1.00  0.00     0.014 A 
ATOM     34  C   UNL     1     -10.495   2.124   7.834  1.00  0.00     0.014 A 
ATOM     35  C   UNL     1     -12.285   0.509   6.385  1.00  0.00     0.010 A 
ATOM     36  C   UNL     1     -11.264   2.669   6.824  1.00  0.00     0.010 A 
ATOM     37  C   UNL     1     -12.107   1.849   6.055  1.00  0.00    -0.014 A 
BRANCH  37  38
ATOM     38  C   UNL     1     -12.702   2.485   4.884  1.00  0.00     0.031 A 
ATOM     39  C   UNL     1     -13.771   3.498   5.090  1.00  0.00     0.074 A 
ATOM     40  C   UNL     1     -12.216   2.247   3.640  1.00  0.00     0.049 A 
ATOM     41  N   UNL     1     -14.486   4.000   4.143  1.00  0.00    -0.248 NA
ATOM     42  C   UNL     1     -14.174   3.980   6.415  1.00  0.00     0.031 C 
ATOM     43  C   UNL     1     -12.469   3.053   2.443  1.00  0.00     0.029 A 
ATOM     44  N   UNL     1     -11.541   1.133   3.126  1.00  0.00    -0.354 N 
ATOM     45  C   UNL     1     -15.180   5.066   4.663  1.00  0.00     0.074 A 
ATOM     46  C   UNL     1     -15.059   4.928   6.092  1.00  0.00     0.031 C 
ATOM     47  C   UNL     1     -12.271   2.288   1.360  1.00  0.00     0.029 A 
ATOM     48  C   UNL     1     -12.074   0.934   1.836  1.00  0.00     0.049 A 
ATOM     49  H   UNL     1     -10.841   0.602   3.571  1.00  0.00     0.167 HD
ATOM     50  C   UNL     1     -15.665   6.013   3.814  1.00  0.00     0.031 A 
ATOM     51  C   UNL     1     -12.867  -0.129   1.487  1.00  0.00     0.031 A 
ATOM     52  C   UNL     1     -15.674   5.537   2.428  1.00  0.00     0.049 A 
ATOM     53  C   UNL     1     -14.262   0.262   0.999  1.00  0.00     0.074 A 
ATOM     54  C   UNL     1     -14.984   5.841   1.268  1.00  0.00     0.029 A 
ATOM     55  N   UNL     1     -16.365   4.364   2.160  1.00  0.00    -0.354 N 
ATOM     56  N   UNL     1     -14.693   1.492   0.908  1.00  0.00    -0.248 NA
ATOM     57  C   UNL     1     -15.314  -0.703   0.661  1.00  0.00     0.031 C 
ATOM     58  C   UNL     1     -15.238   4.801   0.317  1.00  0.00     0.029 A 
ATOM     59  C   UNL     1     -16.107   3.891   0.890  1.00  0.00     0.049 A 
ATOM     60  H   UNL     1     -16.967   3.921   2.801  1.00  0.00     0.167 HD
ATOM     61  C   UNL     1     -16.018   1.505   0.565  1.00  0.00     0.074 A 
ATOM     62  C   UNL     1     -16.362   0.103   0.407  1.00  0.00     0.031 C 
ATOM     63  C   UNL     1     -16.753   2.653   0.480  1.00  0.00     0.031 A 
BRANCH  50  64
ATOM     64  C   UNL     1     -15.991   7.434   4.226  1.00  0.00    -0.014 A 
ATOM     65  C   UNL     1     -16.391   8.377   3.256  1.00  0.00     0.010 A 
ATOM     66  C   UNL     1     -15.807   7.940   5.531  1.00  0.00     0.010 A 
ATOM     67  C   UNL     1     -16.563   9.739   3.566  1.00  0.00     0.020 A 
ATOM     68  C   UNL     1     -16.004   9.287   5.862  1.00  0.00     0.020 A 
ATOM     69  C   UNL     1     -16.360  10.187   4.870  1.00  0.00     0.054 A 
BRANCH  69  70
ATOM     70  S   UNL     1     -16.521  11.948   5.261  1.00  0.00     0.124 S 
ATOM     71  O   UNL     1     -15.418  12.535   4.505  1.00  0.00    -0.237 OA
ATOM     72  O   UNL     1     -17.861  12.262   4.773  1.00  0.00    -0.237 OA
ATOM     73  O   UNL     1     -16.367  11.997   6.714  1.00  0.00    -0.744 OA
ENDBRANCH  69  70
ENDBRANCH  50  64
BRANCH  51  74
ATOM     74  C   UNL     1     -12.507  -1.398   2.179  1.00  0.00    -0.014 A 
ATOM     75  C   UNL     1     -11.248  -1.956   1.863  1.00  0.00     0.010 A 
ATOM     76  C   UNL     1     -13.128  -1.757   3.386  1.00  0.00     0.010 A 
ATOM     77  C   UNL     1     -10.524  -2.656   2.828  1.00  0.00     0.020 A 
ATOM     78  C   UNL     1     -12.409  -2.480   4.350  1.00  0.00     0.020 A 
ATOM     79  C   UNL     1     -11.083  -2.841   4.092  1.00  0.00     0.054 A 
BRANCH  79  80
ATOM     80  S   UNL     1      -9.971  -3.337   5.443  1.00  0.00     0.124 S 
ATOM     81  O   UNL     1      -9.388  -4.574   4.933  1.00  0.00    -0.237 OA
ATOM     82  O   UNL     1      -9.062  -2.192   5.509  1.00  0.00    -0.237 OA
ATOM     83  O   UNL     1     -10.873  -3.485   6.580  1.00  0.00    -0.744 OA
ENDBRANCH  79  80
ENDBRANCH  51  74
BRANCH  63  84
ATOM     84  C   UNL     1     -18.201   2.694   0.061  1.00  0.00    -0.014 A 
ATOM     85  C   UNL     1     -18.704   1.914  -0.993  1.00  0.00     0.010 A 
ATOM     86  C   UNL     1     -19.082   3.632   0.647  1.00  0.00     0.010 A 
ATOM     87  C   UNL     1     -20.045   2.015  -1.392  1.00  0.00     0.020 A 
ATOM     88  C   UNL     1     -20.414   3.755   0.244  1.00  0.00     0.020 A 
ATOM     89  C   UNL     1     -20.895   2.926  -0.761  1.00  0.00     0.054 A 
BRANCH  89  90
ATOM     90  S   UNL     1     -22.619   3.054  -1.300  1.00  0.00     0.124 S 
ATOM     91  O   UNL     1     -22.505   3.016  -2.756  1.00  0.00    -0.237 OA
ATOM     92  O   UNL     1     -23.214   1.869  -0.687  1.00  0.00    -0.237 OA
ATOM     93  O   UNL     1     -23.063   4.332  -0.749  1.00  0.00    -0.744 OA
ENDBRANCH  89  90
ENDBRANCH  63  84
ENDBRANCH  37  38
ENDBRANCH  29  32
ENDBRANCH  27  28
ENDBRANCH  26  27
ENDBRANCH   1  26
TORSDOF 17
