REMARK SMILES Cc1csc2nc(C(=O)NCCCCNC(=O)c3ccc(-c4c5nc(c(-c6ccc(S(=O)(=O)[O-])cc6)c6ccc([nH]6)c(-c6ccc(S(=O)(=O)[O-])cc6)c6nc(c(-c7ccc(S(=O)(=O)[O-])cc7)c7ccc4[nH]7)C=C6)C=C5)cc3)cn12
REMARK SMILES IDX 14 1 13 2 12 3 11 4 10 5 8 6 9 7 7 9 1 10 2 11 3 12 79 13
REMARK SMILES IDX 4 14 5 15 78 16 6 17 15 18 16 19 17 21 18 22 19 23 77 24
REMARK SMILES IDX 20 25 76 26 21 27 22 28 23 29 70 30 24 31 75 32 69 33 71 34
REMARK SMILES IDX 25 35 74 36 68 37 67 38 26 40 56 41 37 42 55 43 38 44 41 45
REMARK SMILES IDX 54 46 72 47 39 48 40 49 53 51 73 52 42 53 27 54 28 55 36 56
REMARK SMILES IDX 29 57 35 58 30 59 31 60 32 61 33 62 34 63 57 64 58 65 66 66
REMARK SMILES IDX 59 67 65 68 60 69 61 70 62 71 63 72 64 73 43 74 44 75 52 76
REMARK SMILES IDX 45 77 51 78 46 79 47 80 48 81 49 82 50 83
REMARK H PARENT 10 8 15 20 71 39 41 50
REMARK Flexibility Score: inf
ROOT
ATOM      1  C   UNL     1       1.620 -10.697  -1.914  1.00  0.00     0.116 C 
ENDROOT
BRANCH   1   2
ATOM      2  C   UNL     1       2.480  -9.465  -2.177  1.00  0.00     0.023 C 
BRANCH   2   3
ATOM      3  C   UNL     1       1.707  -8.138  -2.274  1.00  0.00     0.023 C 
BRANCH   3   4
ATOM      4  C   UNL     1       0.923  -7.734  -1.020  1.00  0.00     0.116 C 
BRANCH   4   5
ATOM      5  N   UNL     1       1.789  -7.248   0.041  1.00  0.00    -0.351 N 
ATOM      6  C   UNL     1       2.044  -5.965   0.480  1.00  0.00     0.271 C 
ATOM      7  O   UNL     1       2.826  -5.828   1.418  1.00  0.00    -0.267 OA
ATOM      8  H   UNL     1       2.275  -7.952   0.529  1.00  0.00     0.163 HD
BRANCH   6   9
ATOM      9  C   UNL     1       1.402  -4.803  -0.154  1.00  0.00     0.148 A 
ATOM     10  C   UNL     1       0.983  -0.318   0.093  1.00  0.00     0.066 C 
ATOM     11  C   UNL     1       0.427  -1.412  -0.744  1.00  0.00     0.032 A 
ATOM     12  C   UNL     1      -0.427  -1.273  -1.779  1.00  0.00     0.090 A 
ATOM     13  N   UNL     1       0.764  -2.743  -0.558  1.00  0.00    -0.294 N 
ATOM     14  S   UNL     1      -0.833  -2.803  -2.568  1.00  0.00    -0.105 S 
ATOM     15  C   UNL     1       0.203  -3.613  -1.440  1.00  0.00     0.194 A 
ATOM     16  C   UNL     1       1.538  -3.482   0.285  1.00  0.00     0.128 A 
ATOM     17  N   UNL     1       0.576  -4.848  -1.274  1.00  0.00    -0.214 NA
ENDBRANCH   6   9
ENDBRANCH   4   5
ENDBRANCH   3   4
ENDBRANCH   2   3
ENDBRANCH   1   2
BRANCH   1  18
ATOM     18  N   UNL     1       0.640 -10.969  -2.970  1.00  0.00    -0.352 N 
ATOM     19  C   UNL     1      -0.336 -11.958  -3.003  1.00  0.00     0.251 C 
ATOM     20  H   UNL     1       0.677 -10.376  -3.755  1.00  0.00     0.163 HD
ATOM     21  O   UNL     1      -0.795 -12.346  -4.066  1.00  0.00    -0.269 OA
BRANCH  19  22
ATOM     22  C   UNL     1      -0.822 -12.516  -1.724  1.00  0.00     0.039 A 
ATOM     23  C   UNL     1      -1.170 -13.861  -1.564  1.00  0.00     0.014 A 
ATOM     24  C   UNL     1      -0.905 -11.638  -0.650  1.00  0.00     0.014 A 
ATOM     25  C   UNL     1      -1.527 -14.315  -0.291  1.00  0.00     0.010 A 
ATOM     26  C   UNL     1      -1.035 -12.123   0.620  1.00  0.00     0.010 A 
ATOM     27  C   UNL     1      -1.440 -13.436   0.800  1.00  0.00    -0.014 A 
BRANCH  27  28
ATOM     28  C   UNL     1      -1.628 -13.867   2.182  1.00  0.00     0.031 A 
ATOM     29  C   UNL     1      -0.674 -14.927   2.589  1.00  0.00     0.074 A 
ATOM     30  C   UNL     1      -2.390 -13.177   3.064  1.00  0.00     0.049 A 
ATOM     31  N   UNL     1      -0.920 -16.186   2.732  1.00  0.00    -0.248 NA
ATOM     32  C   UNL     1       0.764 -14.597   2.638  1.00  0.00     0.031 C 
ATOM     33  C   UNL     1      -3.116 -11.918   2.827  1.00  0.00     0.029 A 
ATOM     34  N   UNL     1      -2.588 -13.375   4.398  1.00  0.00    -0.354 N 
ATOM     35  C   UNL     1       0.270 -16.743   3.185  1.00  0.00     0.074 A 
ATOM     36  C   UNL     1       1.304 -15.800   2.849  1.00  0.00     0.031 C 
ATOM     37  C   UNL     1      -3.465 -11.356   4.007  1.00  0.00     0.029 A 
ATOM     38  C   UNL     1      -3.154 -12.290   5.072  1.00  0.00     0.049 A 
ATOM     39  H   UNL     1      -2.351 -14.217   4.851  1.00  0.00     0.167 HD
ATOM     40  C   UNL     1       0.257 -17.742   4.113  1.00  0.00     0.031 A 
ATOM     41  C   UNL     1      -3.363 -12.170   6.409  1.00  0.00     0.031 A 
ATOM     42  C   UNL     1      -1.086 -18.224   4.318  1.00  0.00     0.049 A 
ATOM     43  C   UNL     1      -3.386 -13.544   6.956  1.00  0.00     0.074 A 
ATOM     44  C   UNL     1      -2.013 -18.940   3.595  1.00  0.00     0.029 A 
ATOM     45  N   UNL     1      -1.763 -17.549   5.306  1.00  0.00    -0.354 N 
ATOM     46  N   UNL     1      -4.306 -14.413   6.642  1.00  0.00    -0.248 NA
ATOM     47  C   UNL     1      -2.173 -14.101   7.537  1.00  0.00     0.031 C 
ATOM     48  C   UNL     1      -3.288 -18.471   4.030  1.00  0.00     0.029 A 
ATOM     49  C   UNL     1      -3.107 -17.540   5.053  1.00  0.00     0.049 A 
ATOM     50  H   UNL     1      -1.338 -17.130   6.089  1.00  0.00     0.167 HD
ATOM     51  C   UNL     1      -3.625 -15.613   6.553  1.00  0.00     0.074 A 
ATOM     52  C   UNL     1      -2.377 -15.396   7.278  1.00  0.00     0.031 C 
ATOM     53  C   UNL     1      -3.996 -16.555   5.638  1.00  0.00     0.031 A 
BRANCH  40  54
ATOM     54  C   UNL     1       1.301 -17.916   5.198  1.00  0.00    -0.014 A 
ATOM     55  C   UNL     1       1.152 -18.989   6.103  1.00  0.00     0.010 A 
ATOM     56  C   UNL     1       2.242 -16.925   5.543  1.00  0.00     0.010 A 
ATOM     57  C   UNL     1       1.861 -19.034   7.312  1.00  0.00     0.020 A 
ATOM     58  C   UNL     1       2.981 -16.977   6.728  1.00  0.00     0.020 A 
ATOM     59  C   UNL     1       2.766 -18.019   7.619  1.00  0.00     0.054 A 
BRANCH  59  60
ATOM     60  S   UNL     1       3.622 -18.042   9.213  1.00  0.00     0.124 S 
ATOM     61  O   UNL     1       2.518 -17.866  10.151  1.00  0.00    -0.237 OA
ATOM     62  O   UNL     1       4.248 -19.361   9.206  1.00  0.00    -0.237 OA
ATOM     63  O   UNL     1       4.550 -16.917   9.117  1.00  0.00    -0.744 OA
ENDBRANCH  59  60
ENDBRANCH  40  54
BRANCH  41  64
ATOM     64  C   UNL     1      -3.341 -10.973   7.290  1.00  0.00    -0.014 A 
ATOM     65  C   UNL     1      -3.937 -10.984   8.568  1.00  0.00     0.010 A 
ATOM     66  C   UNL     1      -2.456  -9.916   6.995  1.00  0.00     0.010 A 
ATOM     67  C   UNL     1      -3.609 -10.014   9.535  1.00  0.00     0.020 A 
ATOM     68  C   UNL     1      -2.123  -8.948   7.955  1.00  0.00     0.020 A 
ATOM     69  C   UNL     1      -2.684  -9.013   9.229  1.00  0.00     0.054 A 
BRANCH  69  70
ATOM     70  S   UNL     1      -2.128  -7.872  10.535  1.00  0.00     0.124 S 
ATOM     71  O   UNL     1      -3.315  -7.053  10.762  1.00  0.00    -0.237 OA
ATOM     72  O   UNL     1      -1.769  -8.778  11.622  1.00  0.00    -0.237 OA
ATOM     73  O   UNL     1      -1.001  -7.170   9.922  1.00  0.00    -0.744 OA
ENDBRANCH  69  70
ENDBRANCH  41  64
BRANCH  53  74
ATOM     74  C   UNL     1      -5.401 -16.488   5.097  1.00  0.00    -0.014 A 
ATOM     75  C   UNL     1      -5.899 -15.456   4.278  1.00  0.00     0.010 A 
ATOM     76  C   UNL     1      -6.228 -17.589   5.371  1.00  0.00     0.010 A 
ATOM     77  C   UNL     1      -7.207 -15.520   3.770  1.00  0.00     0.020 A 
ATOM     78  C   UNL     1      -7.520 -17.668   4.854  1.00  0.00     0.020 A 
ATOM     79  C   UNL     1      -8.009 -16.628   4.065  1.00  0.00     0.054 A 
BRANCH  79  80
ATOM     80  S   UNL     1      -9.693 -16.726   3.396  1.00  0.00     0.124 S 
ATOM     81  O   UNL     1     -10.385 -15.664   4.119  1.00  0.00    -0.237 OA
ATOM     82  O   UNL     1      -9.489 -16.488   1.968  1.00  0.00    -0.237 OA
ATOM     83  O   UNL     1     -10.122 -18.084   3.732  1.00  0.00    -0.744 OA
ENDBRANCH  79  80
ENDBRANCH  53  74
ENDBRANCH  27  28
ENDBRANCH  19  22
ENDBRANCH   1  18
TORSDOF 14
