REMARK SMILES COc1cc(Cl)c2c(c1)C=C(C(=O)NCCCCNC(=O)c1ccc(-c3c4nc(c(-c5ccc(S(=O)(=O)[O-])cc5)c5ccc([nH]5)c(-c5ccc(S(=O)(=O)[O-])cc5)c5nc(c(-c6ccc(S(=O)(=O)[O-])cc6)c6ccc3[nH]6)C=C5)C=C4)cc1)[C@@H](C(F)(F)F)O2
REMARK SMILES IDX 17 1 16 2 15 3 14 4 12 5 13 6 11 8 3 9 4 10 9 11 5 12 8 13
REMARK SMILES IDX 6 14 7 15 10 16 87 17 82 18 2 19 1 20 83 21 84 22 85 23
REMARK SMILES IDX 86 24 18 25 19 26 20 27 21 29 22 30 23 31 81 32 24 33 80 34
REMARK SMILES IDX 25 35 26 36 27 37 74 38 28 39 79 40 73 41 75 42 29 43 78 44
REMARK SMILES IDX 72 45 71 46 30 48 60 49 41 50 59 51 42 52 45 53 58 54 76 55
REMARK SMILES IDX 43 56 44 57 57 59 77 60 46 61 31 62 32 63 40 64 33 65 39 66
REMARK SMILES IDX 34 67 35 68 36 69 37 70 38 71 61 72 62 73 70 74 63 75 69 76
REMARK SMILES IDX 64 77 65 78 66 79 67 80 68 81 47 82 48 83 56 84 49 85 55 86
REMARK SMILES IDX 50 87 51 88 52 89 53 90 54 91
REMARK H PARENT 14 7 19 28 75 47 45 58
REMARK Flexibility Score: inf
ROOT
ATOM      1  C   UNL     1      -0.021  -0.090 -12.211  1.00  0.00     0.023 C 
ENDROOT
BRANCH   1   2
ATOM      2  C   UNL     1       0.689   0.090 -10.867  1.00  0.00     0.023 C 
BRANCH   2   3
ATOM      3  C   UNL     1       0.093   1.188  -9.990  1.00  0.00     0.116 C 
BRANCH   3   4
ATOM      4  N   UNL     1      -1.022   0.701  -9.199  1.00  0.00    -0.352 N 
ATOM      5  C   UNL     1      -1.231   0.317  -7.919  1.00  0.00     0.251 C 
ATOM      6  O   UNL     1      -2.381  -0.052  -7.660  1.00  0.00    -0.270 OA
ATOM      7  H   UNL     1      -1.845   0.633  -9.736  1.00  0.00     0.163 HD
BRANCH   5   8
ATOM      8  C   UNL     1      -0.201   0.317  -6.838  1.00  0.00     0.067 C 
ATOM      9  C   UNL     1       0.786  -0.502  -2.176  1.00  0.00     0.121 A 
ATOM     10  C   UNL     1       2.132  -0.210  -2.394  1.00  0.00     0.070 A 
ATOM     11  C   UNL     1      -0.104  -0.531  -3.252  1.00  0.00     0.058 A 
ATOM     12  C   UNL     1       2.574   0.091  -3.684  1.00  0.00     0.087 A 
ATOM     13  C   UNL     1       0.332  -0.211  -4.541  1.00  0.00     0.022 A 
ATOM     14  Cl  UNL     1       4.247   0.451  -3.916  1.00  0.00    -0.080 Cl
ATOM     15  C   UNL     1       1.674   0.110  -4.755  1.00  0.00     0.146 A 
ATOM     16  C   UNL     1      -0.591  -0.228  -5.670  1.00  0.00     0.025 C 
ATOM     17  O   UNL     1       2.144   0.399  -6.007  1.00  0.00    -0.474 OA
ATOM     18  C   UNL     1       1.171   0.917  -6.958  1.00  0.00     0.314 C 
BRANCH   9  19
ATOM     19  O   UNL     1       0.251  -0.821  -0.958  1.00  0.00    -0.497 OA
ATOM     20  C   UNL     1       0.813  -0.111   0.143  1.00  0.00     0.278 C 
ENDBRANCH   9  19
BRANCH  18  21
ATOM     21  C   UNL     1       1.155   2.457  -6.885  1.00  0.00     0.429 C 
ATOM     22  F   UNL     1       2.344   2.965  -7.296  1.00  0.00    -0.167 F 
ATOM     23  F   UNL     1       0.207   3.006  -7.678  1.00  0.00    -0.167 F 
ATOM     24  F   UNL     1       0.933   2.913  -5.631  1.00  0.00    -0.167 F 
ENDBRANCH  18  21
ENDBRANCH   5   8
ENDBRANCH   3   4
ENDBRANCH   2   3
ENDBRANCH   1   2
BRANCH   1  25
ATOM     25  C   UNL     1      -0.098   1.162 -13.085  1.00  0.00     0.116 C 
BRANCH  25  26
ATOM     26  N   UNL     1       1.192   1.803 -13.297  1.00  0.00    -0.352 N 
ATOM     27  C   UNL     1       1.610   2.495 -14.408  1.00  0.00     0.251 C 
ATOM     28  H   UNL     1       1.840   1.732 -12.559  1.00  0.00     0.163 HD
ATOM     29  O   UNL     1       2.751   2.933 -14.489  1.00  0.00    -0.269 OA
BRANCH  27  30
ATOM     30  C   UNL     1       0.656   2.662 -15.518  1.00  0.00     0.039 A 
ATOM     31  C   UNL     1       0.947   2.068 -16.747  1.00  0.00     0.014 A 
ATOM     32  C   UNL     1      -0.558   3.318 -15.299  1.00  0.00     0.014 A 
ATOM     33  C   UNL     1      -0.019   2.080 -17.753  1.00  0.00     0.010 A 
ATOM     34  C   UNL     1      -1.533   3.295 -16.290  1.00  0.00     0.010 A 
ATOM     35  C   UNL     1      -1.273   2.668 -17.519  1.00  0.00    -0.014 A 
BRANCH  35  36
ATOM     36  C   UNL     1      -2.326   2.642 -18.558  1.00  0.00     0.031 A 
ATOM     37  C   UNL     1      -2.692   3.906 -19.276  1.00  0.00     0.074 A 
ATOM     38  C   UNL     1      -2.978   1.493 -18.818  1.00  0.00     0.049 A 
ATOM     39  N   UNL     1      -3.616   4.098 -20.180  1.00  0.00    -0.248 NA
ATOM     40  C   UNL     1      -1.929   5.114 -18.923  1.00  0.00     0.031 C 
ATOM     41  C   UNL     1      -2.724   0.206 -18.166  1.00  0.00     0.029 A 
ATOM     42  N   UNL     1      -3.991   1.223 -19.703  1.00  0.00    -0.354 N 
ATOM     43  C   UNL     1      -3.553   5.447 -20.498  1.00  0.00     0.074 A 
ATOM     44  C   UNL     1      -2.525   6.035 -19.667  1.00  0.00     0.031 C 
ATOM     45  C   UNL     1      -3.545  -0.721 -18.690  1.00  0.00     0.029 A 
ATOM     46  C   UNL     1      -4.396  -0.090 -19.695  1.00  0.00     0.049 A 
ATOM     47  H   UNL     1      -4.391   1.907 -20.289  1.00  0.00     0.167 HD
ATOM     48  C   UNL     1      -4.275   6.132 -21.414  1.00  0.00     0.031 A 
ATOM     49  C   UNL     1      -5.345  -0.716 -20.418  1.00  0.00     0.031 A 
ATOM     50  C   UNL     1      -5.285   5.545 -22.249  1.00  0.00     0.049 A 
ATOM     51  C   UNL     1      -6.138   0.066 -21.426  1.00  0.00     0.074 A 
ATOM     52  C   UNL     1      -6.050   6.153 -23.229  1.00  0.00     0.029 A 
ATOM     53  N   UNL     1      -5.665   4.213 -22.209  1.00  0.00    -0.354 N 
ATOM     54  N   UNL     1      -6.050   1.339 -21.728  1.00  0.00    -0.248 NA
ATOM     55  C   UNL     1      -7.152  -0.670 -22.194  1.00  0.00     0.031 C 
ATOM     56  C   UNL     1      -6.911   5.191 -23.766  1.00  0.00     0.029 A 
ATOM     57  C   UNL     1      -6.659   3.979 -23.142  1.00  0.00     0.049 A 
ATOM     58  H   UNL     1      -5.285   3.535 -21.605  1.00  0.00     0.167 HD
ATOM     59  C   UNL     1      -6.986   1.554 -22.732  1.00  0.00     0.074 A 
ATOM     60  C   UNL     1      -7.628   0.281 -22.989  1.00  0.00     0.031 C 
ATOM     61  C   UNL     1      -7.284   2.704 -23.382  1.00  0.00     0.031 A 
BRANCH  48  62
ATOM     62  C   UNL     1      -3.985   7.597 -21.562  1.00  0.00    -0.014 A 
ATOM     63  C   UNL     1      -2.835   8.032 -22.245  1.00  0.00     0.010 A 
ATOM     64  C   UNL     1      -4.882   8.548 -21.044  1.00  0.00     0.010 A 
ATOM     65  C   UNL     1      -2.572   9.396 -22.383  1.00  0.00     0.020 A 
ATOM     66  C   UNL     1      -4.631   9.914 -21.195  1.00  0.00     0.020 A 
ATOM     67  C   UNL     1      -3.472  10.329 -21.856  1.00  0.00     0.054 A 
BRANCH  67  68
ATOM     68  S   UNL     1      -3.104  12.092 -22.062  1.00  0.00     0.124 S 
ATOM     69  O   UNL     1      -1.885  12.242 -21.270  1.00  0.00    -0.237 OA
ATOM     70  O   UNL     1      -2.934  12.213 -23.507  1.00  0.00    -0.237 OA
ATOM     71  O   UNL     1      -4.283  12.761 -21.515  1.00  0.00    -0.744 OA
ENDBRANCH  67  68
ENDBRANCH  48  62
BRANCH  49  72
ATOM     72  C   UNL     1      -5.567  -2.172 -20.229  1.00  0.00    -0.014 A 
ATOM     73  C   UNL     1      -5.030  -3.091 -21.146  1.00  0.00     0.010 A 
ATOM     74  C   UNL     1      -6.268  -2.648 -19.107  1.00  0.00     0.010 A 
ATOM     75  C   UNL     1      -5.185  -4.464 -20.941  1.00  0.00     0.020 A 
ATOM     76  C   UNL     1      -6.413  -4.021 -18.891  1.00  0.00     0.020 A 
ATOM     77  C   UNL     1      -5.867  -4.921 -19.810  1.00  0.00     0.054 A 
BRANCH  77  78
ATOM     78  S   UNL     1      -5.990  -6.711 -19.536  1.00  0.00     0.124 S 
ATOM     79  O   UNL     1      -6.793  -7.142 -20.676  1.00  0.00    -0.237 OA
ATOM     80  O   UNL     1      -4.588  -7.122 -19.557  1.00  0.00    -0.237 OA
ATOM     81  O   UNL     1      -6.644  -6.816 -18.234  1.00  0.00    -0.744 OA
ENDBRANCH  77  78
ENDBRANCH  49  72
BRANCH  61  82
ATOM     82  C   UNL     1      -8.338   2.651 -24.450  1.00  0.00    -0.014 A 
ATOM     83  C   UNL     1      -9.701   2.691 -24.112  1.00  0.00     0.010 A 
ATOM     84  C   UNL     1      -7.958   2.678 -25.803  1.00  0.00     0.010 A 
ATOM     85  C   UNL     1     -10.670   2.764 -25.115  1.00  0.00     0.020 A 
ATOM     86  C   UNL     1      -8.924   2.764 -26.808  1.00  0.00     0.020 A 
ATOM     87  C   UNL     1     -10.275   2.809 -26.456  1.00  0.00     0.054 A 
BRANCH  87  88
ATOM     88  S   UNL     1     -11.555   2.980 -27.730  1.00  0.00     0.124 S 
ATOM     89  O   UNL     1     -12.283   1.720 -27.604  1.00  0.00    -0.237 OA
ATOM     90  O   UNL     1     -12.279   4.170 -27.292  1.00  0.00    -0.237 OA
ATOM     91  O   UNL     1     -10.796   3.138 -28.968  1.00  0.00    -0.744 OA
ENDBRANCH  87  88
ENDBRANCH  61  82
ENDBRANCH  35  36
ENDBRANCH  27  30
ENDBRANCH  25  26
ENDBRANCH   1  25
TORSDOF 16
