REMARK SMILES COc1cc([C@H]2CC(c3ccc(S(C)(=O)=O)cc3)=NN2c2ccc(C(=O)NCCCCNC(=O)c3ccc(-c4c5nc(c(-c6ccc(S(=O)(=O)[O-])cc6)c6ccc([nH]6)c(-c6ccc(S(=O)(=O)[O-])cc6)c6nc(c(-c7ccc(S(=O)(=O)[O-])cc7)c7ccc4[nH]7)C=C6)C=C5)cc3)cc2)cc(OC)c1OC
REMARK SMILES IDX 29 1 28 2 27 3 25 4 26 5 24 7 21 8 22 9 96 10 23 11 95 12
REMARK SMILES IDX 20 13 6 14 7 15 8 16 19 17 5 18 3 19 4 20 101 21 98 22 97 23
REMARK SMILES IDX 2 24 1 25 102 26 103 27 99 28 100 29 9 30 10 31 18 32 11 33
REMARK SMILES IDX 17 34 12 35 13 36 14 37 15 38 16 39 30 40 31 41 32 42 33 43
REMARK SMILES IDX 34 45 35 46 36 47 94 48 37 49 93 50 38 51 39 52 40 53 87 54
REMARK SMILES IDX 41 55 92 56 86 57 88 58 42 59 91 60 85 61 84 62 43 64 73 65
REMARK SMILES IDX 54 66 72 67 55 68 58 69 71 70 89 71 56 72 57 73 70 75 90 76
REMARK SMILES IDX 59 77 44 78 45 79 53 80 46 81 52 82 47 83 48 84 49 85 50 86
REMARK SMILES IDX 51 87 74 88 75 89 83 90 76 91 82 92 77 93 78 94 79 95 80 96
REMARK SMILES IDX 81 97 60 98 61 99 69 100 62 101 68 102 63 103 64 104 65 105
REMARK SMILES IDX 66 106 67 107
REMARK H PARENT 27 6 32 44 88 63 58 74
REMARK Flexibility Score: inf
ROOT
ATOM      1  C   UNL     1      -1.224   8.236  -1.390  1.00  0.00     0.023 C 
ENDROOT
BRANCH   1   2
ATOM      2  C   UNL     1      -0.151   7.145  -1.415  1.00  0.00     0.116 C 
BRANCH   2   3
ATOM      3  N   UNL     1       1.138   7.705  -1.065  1.00  0.00    -0.352 N 
ATOM      4  C   UNL     1       1.813   7.764   0.127  1.00  0.00     0.251 C 
ATOM      5  O   UNL     1       2.913   8.318   0.137  1.00  0.00    -0.269 OA
ATOM      6  H   UNL     1       1.615   8.120  -1.820  1.00  0.00     0.163 HD
BRANCH   4   7
ATOM      7  C   UNL     1       1.309   7.127   1.375  1.00  0.00     0.039 A 
ATOM      8  C   UNL     1       0.546   5.713   3.690  1.00  0.00     0.060 A 
ATOM      9  C   UNL     1       1.890   6.009   3.447  1.00  0.00     0.029 A 
ATOM     10  C   UNL     1      -0.417   6.207   2.813  1.00  0.00     0.029 A 
ATOM     11  C   UNL     1       2.273   6.691   2.292  1.00  0.00     0.016 A 
ATOM     12  C   UNL     1      -0.040   6.942   1.688  1.00  0.00     0.016 A 
BRANCH   8  13
ATOM     13  N   UNL     1       0.200   4.933   4.775  1.00  0.00    -0.257 N 
ATOM     14  C   UNL     1      -0.409   3.604   4.676  1.00  0.00     0.144 C 
ATOM     15  C   UNL     1      -0.606   3.243   6.162  1.00  0.00     0.091 C 
ATOM     16  C   UNL     1      -0.313   4.581   6.795  1.00  0.00     0.071 C 
ATOM     17  N   UNL     1       0.131   5.500   6.000  1.00  0.00    -0.176 NA
BRANCH  14  18
ATOM     18  C   UNL     1       0.480   2.665   3.870  1.00  0.00    -0.015 A 
ATOM     19  C   UNL     1       1.025   1.536   1.761  1.00  0.00     0.164 A 
ATOM     20  C   UNL     1       0.119   2.243   2.580  1.00  0.00     0.056 A 
ATOM     21  C   UNL     1       2.329   1.244   2.204  1.00  0.00     0.203 A 
ATOM     22  C   UNL     1       2.686   1.651   3.507  1.00  0.00     0.164 A 
ATOM     23  C   UNL     1       1.765   2.337   4.318  1.00  0.00     0.056 A 
BRANCH  19  24
ATOM     24  O   UNL     1       0.629   1.317   0.465  1.00  0.00    -0.493 OA
ATOM     25  C   UNL     1      -0.119   0.111   0.314  1.00  0.00     0.278 C 
ENDBRANCH  19  24
BRANCH  21  26
ATOM     26  O   UNL     1       3.314   0.623   1.489  1.00  0.00    -0.490 OA
ATOM     27  C   UNL     1       3.078   0.062   0.213  1.00  0.00     0.278 C 
ENDBRANCH  21  26
BRANCH  22  28
ATOM     28  O   UNL     1       3.886   1.474   4.155  1.00  0.00    -0.493 OA
ATOM     29  C   UNL     1       5.043   1.196   3.379  1.00  0.00     0.278 C 
ENDBRANCH  22  28
ENDBRANCH  14  18
BRANCH  16  30
ATOM     30  C   UNL     1      -0.517   4.845   8.226  1.00  0.00    -0.002 A 
ATOM     31  C   UNL     1      -1.256   5.976   8.599  1.00  0.00     0.011 A 
ATOM     32  C   UNL     1       0.097   4.045   9.190  1.00  0.00     0.011 A 
ATOM     33  C   UNL     1      -1.402   6.300   9.948  1.00  0.00     0.021 A 
ATOM     34  C   UNL     1      -0.025   4.383  10.542  1.00  0.00     0.021 A 
ATOM     35  C   UNL     1      -0.771   5.508  10.913  1.00  0.00     0.067 A 
BRANCH  35  36
ATOM     36  S   UNL     1      -0.946   5.929  12.632  1.00  0.00     0.175 S 
ATOM     37  C   UNL     1      -0.222   7.542  12.777  1.00  0.00     0.163 C 
ATOM     38  O   UNL     1      -2.372   6.044  12.890  1.00  0.00    -0.224 OA
ATOM     39  O   UNL     1      -0.125   5.013  13.396  1.00  0.00    -0.224 OA
ENDBRANCH  35  36
ENDBRANCH  16  30
ENDBRANCH   8  13
ENDBRANCH   4   7
ENDBRANCH   2   3
ENDBRANCH   1   2
BRANCH   1  40
ATOM     40  C   UNL     1      -1.214   9.134  -2.627  1.00  0.00     0.023 C 
BRANCH  40  41
ATOM     41  C   UNL     1      -1.537   8.413  -3.928  1.00  0.00     0.116 C 
BRANCH  41  42
ATOM     42  N   UNL     1      -2.851   7.782  -3.921  1.00  0.00    -0.352 N 
ATOM     43  C   UNL     1      -3.718   7.642  -4.978  1.00  0.00     0.251 C 
ATOM     44  H   UNL     1      -3.152   7.413  -3.059  1.00  0.00     0.163 HD
ATOM     45  O   UNL     1      -4.845   7.188  -4.814  1.00  0.00    -0.269 OA
BRANCH  43  46
ATOM     46  C   UNL     1      -3.267   8.091  -6.309  1.00  0.00     0.039 A 
ATOM     47  C   UNL     1      -4.016   9.049  -6.994  1.00  0.00     0.014 A 
ATOM     48  C   UNL     1      -2.047   7.638  -6.815  1.00  0.00     0.014 A 
ATOM     49  C   UNL     1      -3.500   9.613  -8.162  1.00  0.00     0.010 A 
ATOM     50  C   UNL     1      -1.503   8.255  -7.934  1.00  0.00     0.010 A 
ATOM     51  C   UNL     1      -2.222   9.250  -8.617  1.00  0.00    -0.014 A 
BRANCH  51  52
ATOM     52  C   UNL     1      -1.601   9.888  -9.804  1.00  0.00     0.031 A 
ATOM     53  C   UNL     1      -1.264   9.046 -11.004  1.00  0.00     0.074 A 
ATOM     54  C   UNL     1      -1.252  11.189  -9.766  1.00  0.00     0.049 A 
ATOM     55  N   UNL     1      -0.598   9.373 -12.080  1.00  0.00    -0.248 NA
ATOM     56  C   UNL     1      -1.710   7.642 -10.975  1.00  0.00     0.031 C 
ATOM     57  C   UNL     1      -1.502  12.105  -8.650  1.00  0.00     0.029 A 
ATOM     58  N   UNL     1      -0.594  11.966 -10.688  1.00  0.00    -0.354 N 
ATOM     59  C   UNL     1      -0.518   8.212 -12.840  1.00  0.00     0.074 A 
ATOM     60  C   UNL     1      -1.165   7.163 -12.083  1.00  0.00     0.031 C 
ATOM     61  C   UNL     1      -1.022  13.320  -8.962  1.00  0.00     0.029 A 
ATOM     62  C   UNL     1      -0.383  13.260 -10.273  1.00  0.00     0.049 A 
ATOM     63  H   UNL     1      -0.300  11.627 -11.565  1.00  0.00     0.167 HD
ATOM     64  C   UNL     1       0.034   8.038 -14.063  1.00  0.00     0.031 A 
ATOM     65  C   UNL     1       0.267  14.278 -10.871  1.00  0.00     0.031 A 
ATOM     66  C   UNL     1       0.661   9.090 -14.817  1.00  0.00     0.049 A 
ATOM     67  C   UNL     1       0.893  14.053 -12.222  1.00  0.00     0.074 A 
ATOM     68  C   UNL     1       1.194   9.031 -16.092  1.00  0.00     0.029 A 
ATOM     69  N   UNL     1       0.841  10.389 -14.366  1.00  0.00    -0.354 N 
ATOM     70  N   UNL     1       0.906  12.964 -12.953  1.00  0.00    -0.248 NA
ATOM     71  C   UNL     1       1.589  15.196 -12.832  1.00  0.00     0.031 C 
ATOM     72  C   UNL     1       1.751  10.278 -16.388  1.00  0.00     0.029 A 
ATOM     73  C   UNL     1       1.502  11.133 -15.326  1.00  0.00     0.049 A 
ATOM     74  H   UNL     1       0.542  10.730 -13.492  1.00  0.00     0.167 HD
ATOM     75  C   UNL     1       1.576  13.301 -14.124  1.00  0.00     0.074 A 
ATOM     76  C   UNL     1       1.949  14.695 -14.007  1.00  0.00     0.031 C 
ATOM     77  C   UNL     1       1.852  12.526 -15.201  1.00  0.00     0.031 A 
BRANCH  64  78
ATOM     78  C   UNL     1      -0.003   6.655 -14.658  1.00  0.00    -0.014 A 
ATOM     79  C   UNL     1      -1.212   6.074 -15.080  1.00  0.00     0.010 A 
ATOM     80  C   UNL     1       1.198   5.944 -14.839  1.00  0.00     0.010 A 
ATOM     81  C   UNL     1      -1.225   4.791 -15.633  1.00  0.00     0.020 A 
ATOM     82  C   UNL     1       1.193   4.674 -15.421  1.00  0.00     0.020 A 
ATOM     83  C   UNL     1      -0.021   4.098 -15.799  1.00  0.00     0.054 A 
BRANCH  83  84
ATOM     84  S   UNL     1      -0.067   2.446 -16.545  1.00  0.00     0.124 S 
ATOM     85  O   UNL     1      -0.665   1.650 -15.476  1.00  0.00    -0.237 OA
ATOM     86  O   UNL     1      -0.908   2.650 -17.722  1.00  0.00    -0.237 OA
ATOM     87  O   UNL     1       1.336   2.154 -16.828  1.00  0.00    -0.744 OA
ENDBRANCH  83  84
ENDBRANCH  64  78
BRANCH  65  88
ATOM     88  C   UNL     1       0.353  15.607 -10.204  1.00  0.00    -0.014 A 
ATOM     89  C   UNL     1      -0.344  16.712 -10.726  1.00  0.00     0.010 A 
ATOM     90  C   UNL     1       1.129  15.777  -9.042  1.00  0.00     0.010 A 
ATOM     91  C   UNL     1      -0.249  17.965 -10.113  1.00  0.00     0.020 A 
ATOM     92  C   UNL     1       1.202  17.022  -8.409  1.00  0.00     0.020 A 
ATOM     93  C   UNL     1       0.522  18.112  -8.957  1.00  0.00     0.054 A 
BRANCH  93  94
ATOM     94  S   UNL     1       0.595  19.739  -8.157  1.00  0.00     0.124 S 
ATOM     95  O   UNL     1       1.420  20.499  -9.090  1.00  0.00    -0.237 OA
ATOM     96  O   UNL     1      -0.814  20.123  -8.098  1.00  0.00    -0.237 OA
ATOM     97  O   UNL     1       1.210  19.456  -6.862  1.00  0.00    -0.744 OA
ENDBRANCH  93  94
ENDBRANCH  65  88
BRANCH  77  98
ATOM     98  C   UNL     1       2.544  13.170 -16.373  1.00  0.00    -0.014 A 
ATOM     99  C   UNL     1       3.908  13.507 -16.325  1.00  0.00     0.010 A 
ATOM    100  C   UNL     1       1.834  13.349 -17.576  1.00  0.00     0.010 A 
ATOM    101  C   UNL     1       4.546  14.021 -17.457  1.00  0.00     0.020 A 
ATOM    102  C   UNL     1       2.476  13.835 -18.716  1.00  0.00     0.020 A 
ATOM    103  C   UNL     1       3.828  14.175 -18.648  1.00  0.00     0.054 A 
BRANCH 103 104
ATOM    104  S   UNL     1       4.701  14.767 -20.124  1.00  0.00     0.124 S 
ATOM    105  O   UNL     1       4.920  16.174 -19.804  1.00  0.00    -0.237 OA
ATOM    106  O   UNL     1       5.899  13.931 -20.142  1.00  0.00    -0.237 OA
ATOM    107  O   UNL     1       3.756  14.515 -21.210  1.00  0.00    -0.744 OA
ENDBRANCH 103 104
ENDBRANCH  77  98
ENDBRANCH  51  52
ENDBRANCH  43  46
ENDBRANCH  41  42
ENDBRANCH  40  41
ENDBRANCH   1  40
TORSDOF 21
