REMARK SMILES C[C@H]1c2ccc(O)cc2OC(=O)[C@@H]1CC(=O)N[C@@H](CC1=c2ccccc2=NC1)C(=O)NCCCCNC(=O)c1ccc(-c2c3nc(c(-c4ccc(S(=O)(=O)[O-])cc4)c4ccc([nH]4)c(-c4ccc(S(=O)(=O)[O-])cc4)c4nc(c(-c5ccc(S(=O)(=O)[O-])cc5)c5ccc2[nH]5)C=C4)C=C3)cc1
REMARK SMILES IDX 33 1 32 2 31 3 29 4 30 5 18 7 17 8 15 9 16 10 14 12 13 13
REMARK SMILES IDX 1 14 2 15 3 16 4 17 9 18 11 19 5 20 8 21 10 22 12 23 6 24
REMARK SMILES IDX 7 25 19 27 20 28 21 29 28 30 22 31 26 32 27 33 23 34 25 35
REMARK SMILES IDX 24 36 34 37 35 38 36 39 37 40 38 42 39 43 40 44 98 45 41 46
REMARK SMILES IDX 97 47 42 48 43 49 44 50 91 51 45 52 96 53 90 54 92 55 46 56
REMARK SMILES IDX 95 57 89 58 88 59 47 61 77 62 58 63 76 64 59 65 62 66 75 67
REMARK SMILES IDX 93 68 60 69 61 70 74 72 94 73 63 74 48 75 49 76 57 77 50 78
REMARK SMILES IDX 56 79 51 80 52 81 53 82 54 83 55 84 78 85 79 86 87 87 80 88
REMARK SMILES IDX 86 89 81 90 82 91 83 92 84 93 85 94 64 95 65 96 73 97 66 98
REMARK SMILES IDX 72 99 67 100 68 101 69 102 70 103 71 104
REMARK H PARENT 31 6 17 11 7 26 36 41 92 60 62 71
REMARK Flexibility Score: inf
ROOT
ATOM      1  C   UNL     1       3.342  -2.176  -8.989  1.00  0.00     0.023 C 
ENDROOT
BRANCH   1   2
ATOM      2  C   UNL     1       3.510  -2.009  -7.487  1.00  0.00     0.116 C 
BRANCH   2   3
ATOM      3  N   UNL     1       3.599  -0.694  -6.921  1.00  0.00    -0.354 N 
ATOM      4  C   UNL     1       3.863  -0.465  -5.592  1.00  0.00     0.242 C 
ATOM      5  O   UNL     1       4.582   0.504  -5.321  1.00  0.00    -0.273 OA
ATOM      6  H   UNL     1       3.466   0.081  -7.513  1.00  0.00     0.163 HD
BRANCH   4   7
ATOM      7  C   UNL     1       3.359  -1.400  -4.438  1.00  0.00     0.175 C 
BRANCH   7   8
ATOM      8  N   UNL     1       2.038  -2.024  -4.574  1.00  0.00    -0.344 N 
ATOM      9  C   UNL     1       0.836  -1.635  -4.059  1.00  0.00     0.221 C 
ATOM     10  O   UNL     1      -0.133  -2.386  -4.186  1.00  0.00    -0.275 OA
ATOM     11  H   UNL     1       2.015  -2.846  -5.116  1.00  0.00     0.164 HD
BRANCH   9  12
ATOM     12  C   UNL     1       0.682  -0.302  -3.345  1.00  0.00     0.116 C 
BRANCH  12  13
ATOM     13  C   UNL     1       0.881  -0.398  -1.815  1.00  0.00     0.116 C 
ATOM     14  C   UNL     1       0.256   0.507   0.490  1.00  0.00     0.014 C 
ATOM     15  C   UNL     1       0.171   0.725  -1.027  1.00  0.00     0.034 C 
ATOM     16  C   UNL     1       0.794   2.045  -1.404  1.00  0.00    -0.001 A 
ATOM     17  C   UNL     1       0.064   3.236  -1.418  1.00  0.00     0.011 A 
ATOM     18  C   UNL     1       2.137   2.075  -1.793  1.00  0.00     0.138 A 
ATOM     19  C   UNL     1       2.342  -0.305  -1.447  1.00  0.00     0.315 C 
ATOM     20  C   UNL     1       0.660   4.417  -1.872  1.00  0.00     0.047 A 
ATOM     21  C   UNL     1       2.737   3.235  -2.268  1.00  0.00     0.093 A 
ATOM     22  O   UNL     1       2.940   0.924  -1.694  1.00  0.00    -0.426 OA
ATOM     23  O   UNL     1       2.977  -1.256  -1.006  1.00  0.00    -0.251 OA
ATOM     24  C   UNL     1       1.983   4.400  -2.313  1.00  0.00     0.119 A 
BRANCH  24  25
ATOM     25  O   UNL     1       2.582   5.525  -2.798  1.00  0.00    -0.508 OA
ATOM     26  H   UNL     1       2.102   6.328  -2.842  1.00  0.00     0.293 HD
ENDBRANCH  24  25
ENDBRANCH  12  13
ENDBRANCH   9  12
ENDBRANCH   7   8
BRANCH   7  27
ATOM     27  C   UNL     1       4.392  -2.332  -3.716  1.00  0.00     0.068 C 
BRANCH  27  28
ATOM     28  C   UNL     1       4.835  -3.648  -4.328  1.00  0.00    -0.037 C 
ATOM     29  C   UNL     1       4.034  -4.721  -4.445  1.00  0.00     0.001 A 
ATOM     30  C   UNL     1       5.792  -3.583  -5.474  1.00  0.00     0.174 C 
ATOM     31  C   UNL     1       4.216  -6.032  -3.826  1.00  0.00     0.010 A 
ATOM     32  C   UNL     1       4.136  -4.908  -5.918  1.00  0.00     0.065 A 
ATOM     33  N   UNL     1       5.112  -4.341  -6.545  1.00  0.00    -0.280 NA
ATOM     34  C   UNL     1       3.701  -7.103  -4.470  1.00  0.00     0.001 A 
ATOM     35  C   UNL     1       3.138  -5.837  -6.472  1.00  0.00     0.028 A 
ATOM     36  C   UNL     1       2.941  -6.923  -5.705  1.00  0.00     0.002 A 
ENDBRANCH  27  28
ENDBRANCH   7  27
ENDBRANCH   4   7
ENDBRANCH   2   3
ENDBRANCH   1   2
BRANCH   1  37
ATOM     37  C   UNL     1       4.609  -2.076  -9.852  1.00  0.00     0.023 C 
BRANCH  37  38
ATOM     38  C   UNL     1       5.932  -2.640  -9.321  1.00  0.00     0.116 C 
BRANCH  38  39
ATOM     39  N   UNL     1       5.978  -4.084  -9.099  1.00  0.00    -0.352 N 
ATOM     40  C   UNL     1       6.768  -5.057  -9.678  1.00  0.00     0.251 C 
ATOM     41  H   UNL     1       5.342  -4.417  -8.426  1.00  0.00     0.163 HD
ATOM     42  O   UNL     1       6.696  -6.237  -9.347  1.00  0.00    -0.269 OA
BRANCH  40  43
ATOM     43  C   UNL     1       7.679  -4.657 -10.765  1.00  0.00     0.039 A 
ATOM     44  C   UNL     1       8.589  -3.624 -10.551  1.00  0.00     0.014 A 
ATOM     45  C   UNL     1       7.475  -5.182 -12.041  1.00  0.00     0.014 A 
ATOM     46  C   UNL     1       9.059  -2.916 -11.649  1.00  0.00     0.010 A 
ATOM     47  C   UNL     1       8.044  -4.534 -13.138  1.00  0.00     0.010 A 
ATOM     48  C   UNL     1       8.746  -3.332 -12.955  1.00  0.00    -0.014 A 
BRANCH  48  49
ATOM     49  C   UNL     1       9.043  -2.442 -14.110  1.00  0.00     0.031 A 
ATOM     50  C   UNL     1       7.915  -1.905 -14.963  1.00  0.00     0.074 A 
ATOM     51  C   UNL     1      10.308  -2.046 -14.351  1.00  0.00     0.049 A 
ATOM     52  N   UNL     1       7.980  -1.183 -16.053  1.00  0.00    -0.248 NA
ATOM     53  C   UNL     1       6.537  -2.215 -14.541  1.00  0.00     0.031 C 
ATOM     54  C   UNL     1      11.476  -2.425 -13.555  1.00  0.00     0.029 A 
ATOM     55  N   UNL     1      10.819  -1.213 -15.316  1.00  0.00    -0.354 N 
ATOM     56  C   UNL     1       6.665  -0.990 -16.465  1.00  0.00     0.074 A 
ATOM     57  C   UNL     1       5.819  -1.681 -15.520  1.00  0.00     0.031 C 
ATOM     58  C   UNL     1      12.553  -1.782 -14.025  1.00  0.00     0.029 A 
ATOM     59  C   UNL     1      12.176  -1.023 -15.213  1.00  0.00     0.049 A 
ATOM     60  H   UNL     1      10.266  -0.793 -16.014  1.00  0.00     0.167 HD
ATOM     61  C   UNL     1       6.205  -0.290 -17.528  1.00  0.00     0.031 A 
ATOM     62  C   UNL     1      13.034  -0.345 -16.000  1.00  0.00     0.031 A 
ATOM     63  C   UNL     1       7.051   0.436 -18.439  1.00  0.00     0.049 A 
ATOM     64  C   UNL     1      12.514   0.354 -17.222  1.00  0.00     0.074 A 
ATOM     65  C   UNL     1       6.674   1.185 -19.540  1.00  0.00     0.029 A 
ATOM     66  N   UNL     1       8.431   0.519 -18.350  1.00  0.00    -0.354 N 
ATOM     67  N   UNL     1      11.273   0.479 -17.626  1.00  0.00    -0.248 NA
ATOM     68  C   UNL     1      13.505   0.982 -18.107  1.00  0.00     0.031 C 
ATOM     69  C   UNL     1       7.831   1.672 -20.151  1.00  0.00     0.029 A 
ATOM     70  C   UNL     1       8.924   1.281 -19.394  1.00  0.00     0.049 A 
ATOM     71  H   UNL     1       8.979   0.098 -17.648  1.00  0.00     0.167 HD
ATOM     72  C   UNL     1      11.332   1.200 -18.812  1.00  0.00     0.074 A 
ATOM     73  C   UNL     1      12.729   1.501 -19.052  1.00  0.00     0.031 C 
ATOM     74  C   UNL     1      10.317   1.571 -19.628  1.00  0.00     0.031 A 
BRANCH  61  75
ATOM     75  C   UNL     1       4.722  -0.266 -17.794  1.00  0.00    -0.014 A 
ATOM     76  C   UNL     1       4.211  -0.926 -18.928  1.00  0.00     0.010 A 
ATOM     77  C   UNL     1       3.853   0.509 -17.006  1.00  0.00     0.010 A 
ATOM     78  C   UNL     1       2.868  -0.789 -19.288  1.00  0.00     0.020 A 
ATOM     79  C   UNL     1       2.501   0.628 -17.349  1.00  0.00     0.020 A 
ATOM     80  C   UNL     1       2.023  -0.004 -18.500  1.00  0.00     0.054 A 
BRANCH  80  81
ATOM     81  S   UNL     1       0.286   0.181 -18.991  1.00  0.00     0.124 S 
ATOM     82  O   UNL     1       0.374   1.146 -20.083  1.00  0.00    -0.237 OA
ATOM     83  O   UNL     1      -0.086  -1.178 -19.378  1.00  0.00    -0.237 OA
ATOM     84  O   UNL     1      -0.361   0.669 -17.774  1.00  0.00    -0.744 OA
ENDBRANCH  80  81
ENDBRANCH  61  75
BRANCH  62  85
ATOM     85  C   UNL     1      14.479  -0.335 -15.643  1.00  0.00    -0.014 A 
ATOM     86  C   UNL     1      15.230  -1.525 -15.698  1.00  0.00     0.010 A 
ATOM     87  C   UNL     1      15.079   0.831 -15.138  1.00  0.00     0.010 A 
ATOM     88  C   UNL     1      16.527  -1.569 -15.185  1.00  0.00     0.020 A 
ATOM     89  C   UNL     1      16.390   0.797 -14.652  1.00  0.00     0.020 A 
ATOM     90  C   UNL     1      17.092  -0.411 -14.647  1.00  0.00     0.054 A 
BRANCH  90  91
ATOM     91  S   UNL     1      18.751  -0.507 -13.919  1.00  0.00     0.124 S 
ATOM     92  O   UNL     1      18.472  -1.116 -12.621  1.00  0.00    -0.237 OA
ATOM     93  O   UNL     1      19.470  -1.352 -14.869  1.00  0.00    -0.237 OA
ATOM     94  O   UNL     1      19.185   0.887 -13.877  1.00  0.00    -0.744 OA
ENDBRANCH  90  91
ENDBRANCH  62  85
BRANCH  74  95
ATOM     95  C   UNL     1      10.646   2.338 -20.879  1.00  0.00    -0.014 A 
ATOM     96  C   UNL     1      10.274   3.692 -20.985  1.00  0.00     0.010 A 
ATOM     97  C   UNL     1      11.155   1.673 -22.007  1.00  0.00     0.010 A 
ATOM     98  C   UNL     1      10.355   4.352 -22.212  1.00  0.00     0.020 A 
ATOM     99  C   UNL     1      11.260   2.338 -23.231  1.00  0.00     0.020 A 
ATOM    100  C   UNL     1      10.829   3.664 -23.333  1.00  0.00     0.054 A 
BRANCH 100 101
ATOM    101  S   UNL     1      10.849   4.513 -24.935  1.00  0.00     0.124 S 
ATOM    102  O   UNL     1       9.438   4.502 -25.307  1.00  0.00    -0.237 OA
ATOM    103  O   UNL     1      11.402   5.823 -24.598  1.00  0.00    -0.237 OA
ATOM    104  O   UNL     1      11.718   3.673 -25.758  1.00  0.00    -0.744 OA
ENDBRANCH 100 101
ENDBRANCH  74  95
ENDBRANCH  48  49
ENDBRANCH  40  43
ENDBRANCH  38  39
ENDBRANCH  37  38
ENDBRANCH   1  37
TORSDOF 20
