REMARK SMILES O=C(Cc1cccn1-c1ccccc1F)NCCCCNC(=O)c1ccc(-c2c3nc(c(-c4ccc(S(=O)(=O)[O-])cc4)c4ccc([nH]4)c(-c4ccc(S(=O)(=O)[O-])cc4)c4nc(c(-c5ccc(S(=O)(=O)[O-])cc5)c5ccc2[nH]5)C=C4)C=C3)cc1
REMARK SMILES IDX 19 1 18 2 17 3 16 4 1 5 2 6 3 8 4 9 5 10 8 11 6 12 7 13 9 14
REMARK SMILES IDX 10 15 14 16 11 17 13 18 15 19 12 20 20 21 21 22 22 23 23 25
REMARK SMILES IDX 24 26 25 27 83 28 26 29 82 30 27 31 28 32 29 33 76 34 30 35
REMARK SMILES IDX 81 36 75 37 77 38 31 39 80 40 74 41 73 42 32 44 62 45 43 46
REMARK SMILES IDX 61 47 44 48 47 49 60 50 78 51 45 52 46 53 59 55 79 56 48 57
REMARK SMILES IDX 33 58 34 59 42 60 35 61 41 62 36 63 37 64 38 65 39 66 40 67
REMARK SMILES IDX 63 68 64 69 72 70 65 71 71 72 66 73 67 74 68 75 69 76 70 77
REMARK SMILES IDX 49 78 50 79 58 80 51 81 57 82 52 83 53 84 54 85 55 86 56 87
REMARK H PARENT 16 7 21 24 77 43 47 54
REMARK Flexibility Score: inf
ROOT
ATOM      1  C   UNL     1       4.046  -4.295  -1.327  1.00  0.00     0.023 C 
ENDROOT
BRANCH   1   2
ATOM      2  C   UNL     1       2.580  -3.864  -1.094  1.00  0.00     0.023 C 
BRANCH   2   3
ATOM      3  C   UNL     1       2.173  -2.619  -0.266  1.00  0.00     0.116 C 
BRANCH   3   4
ATOM      4  N   UNL     1       2.862  -1.351  -0.495  1.00  0.00    -0.356 N 
ATOM      5  O   UNL     1       1.493  -0.178   0.938  1.00  0.00    -0.275 OA
ATOM      6  C   UNL     1       2.487  -0.196   0.213  1.00  0.00     0.225 C 
ATOM      7  H   UNL     1       3.595  -1.304  -1.151  1.00  0.00     0.163 HD
BRANCH   6   8
ATOM      8  C   UNL     1       3.358   1.056  -0.030  1.00  0.00     0.154 C 
BRANCH   8   9
ATOM      9  C   UNL     1       3.922   1.756   1.202  1.00  0.00     0.032 A 
ATOM     10  C   UNL     1       3.994   3.119   1.472  1.00  0.00     0.024 A 
ATOM     11  N   UNL     1       4.527   1.128   2.286  1.00  0.00    -0.318 N 
ATOM     12  C   UNL     1       4.611   3.300   2.735  1.00  0.00     0.020 A 
ATOM     13  C   UNL     1       4.880   2.051   3.235  1.00  0.00     0.091 A 
BRANCH  11  14
ATOM     14  C   UNL     1       4.708  -0.241   2.436  1.00  0.00     0.081 A 
ATOM     15  C   UNL     1       3.945  -0.902   3.404  1.00  0.00     0.030 A 
ATOM     16  C   UNL     1       5.418  -0.915   1.455  1.00  0.00     0.147 A 
ATOM     17  C   UNL     1       3.741  -2.259   3.249  1.00  0.00     0.002 A 
ATOM     18  C   UNL     1       5.264  -2.270   1.341  1.00  0.00     0.041 A 
ATOM     19  F   UNL     1       6.130  -0.269   0.521  1.00  0.00    -0.205 F 
ATOM     20  C   UNL     1       4.345  -2.905   2.175  1.00  0.00     0.003 A 
ENDBRANCH  11  14
ENDBRANCH   8   9
ENDBRANCH   6   8
ENDBRANCH   3   4
ENDBRANCH   2   3
ENDBRANCH   1   2
BRANCH   1  21
ATOM     21  C   UNL     1       4.837  -5.261  -0.390  1.00  0.00     0.116 C 
BRANCH  21  22
ATOM     22  N   UNL     1       4.167  -6.461   0.087  1.00  0.00    -0.352 N 
ATOM     23  C   UNL     1       4.730  -7.465   0.880  1.00  0.00     0.251 C 
ATOM     24  H   UNL     1       3.225  -6.577  -0.174  1.00  0.00     0.163 HD
ATOM     25  O   UNL     1       4.517  -8.632   0.546  1.00  0.00    -0.269 OA
BRANCH  23  26
ATOM     26  C   UNL     1       5.525  -7.215   2.134  1.00  0.00     0.039 A 
ATOM     27  C   UNL     1       6.409  -8.186   2.627  1.00  0.00     0.014 A 
ATOM     28  C   UNL     1       5.298  -6.109   2.947  1.00  0.00     0.014 A 
ATOM     29  C   UNL     1       7.114  -7.988   3.835  1.00  0.00     0.010 A 
ATOM     30  C   UNL     1       6.005  -5.882   4.140  1.00  0.00     0.010 A 
ATOM     31  C   UNL     1       6.951  -6.808   4.580  1.00  0.00    -0.014 A 
BRANCH  31  32
ATOM     32  C   UNL     1       7.931  -6.448   5.658  1.00  0.00     0.031 A 
ATOM     33  C   UNL     1       9.144  -5.660   5.111  1.00  0.00     0.074 A 
ATOM     34  C   UNL     1       7.704  -6.840   6.953  1.00  0.00     0.049 A 
ATOM     35  N   UNL     1      10.319  -5.473   5.631  1.00  0.00    -0.248 NA
ATOM     36  C   UNL     1       9.050  -5.014   3.770  1.00  0.00     0.031 C 
ATOM     37  C   UNL     1       6.469  -7.500   7.428  1.00  0.00     0.029 A 
ATOM     38  N   UNL     1       8.442  -6.769   8.130  1.00  0.00    -0.354 N 
ATOM     39  C   UNL     1      11.038  -4.604   4.775  1.00  0.00     0.074 A 
ATOM     40  C   UNL     1      10.220  -4.391   3.623  1.00  0.00     0.031 C 
ATOM     41  C   UNL     1       6.571  -7.841   8.735  1.00  0.00     0.029 A 
ATOM     42  C   UNL     1       7.866  -7.432   9.251  1.00  0.00     0.049 A 
ATOM     43  H   UNL     1       9.302  -6.294   8.184  1.00  0.00     0.167 HD
ATOM     44  C   UNL     1      12.244  -4.049   5.088  1.00  0.00     0.031 A 
ATOM     45  C   UNL     1       8.391  -7.676  10.495  1.00  0.00     0.031 A 
ATOM     46  C   UNL     1      12.735  -4.582   6.307  1.00  0.00     0.049 A 
ATOM     47  C   UNL     1       9.659  -6.937  10.568  1.00  0.00     0.074 A 
ATOM     48  C   UNL     1      13.273  -5.794   6.646  1.00  0.00     0.029 A 
ATOM     49  N   UNL     1      12.443  -3.880   7.447  1.00  0.00    -0.354 N 
ATOM     50  N   UNL     1       9.766  -5.661  10.769  1.00  0.00    -0.248 NA
ATOM     51  C   UNL     1      10.922  -7.681  10.447  1.00  0.00     0.031 C 
ATOM     52  C   UNL     1      12.885  -5.970   7.988  1.00  0.00     0.029 A 
ATOM     53  C   UNL     1      12.245  -4.809   8.436  1.00  0.00     0.049 A 
ATOM     54  H   UNL     1      12.386  -2.901   7.538  1.00  0.00     0.167 HD
ATOM     55  C   UNL     1      11.067  -5.419  10.414  1.00  0.00     0.074 A 
ATOM     56  C   UNL     1      11.776  -6.669  10.576  1.00  0.00     0.031 C 
ATOM     57  C   UNL     1      11.327  -4.460   9.492  1.00  0.00     0.031 A 
BRANCH  44  58
ATOM     58  C   UNL     1      13.009  -2.895   4.493  1.00  0.00    -0.014 A 
ATOM     59  C   UNL     1      14.370  -2.757   4.875  1.00  0.00     0.010 A 
ATOM     60  C   UNL     1      12.393  -1.789   3.890  1.00  0.00     0.010 A 
ATOM     61  C   UNL     1      15.040  -1.535   4.798  1.00  0.00     0.020 A 
ATOM     62  C   UNL     1      13.076  -0.564   3.772  1.00  0.00     0.020 A 
ATOM     63  C   UNL     1      14.372  -0.433   4.279  1.00  0.00     0.054 A 
BRANCH  63  64
ATOM     64  S   UNL     1      15.198   1.181   4.357  1.00  0.00     0.124 S 
ATOM     65  O   UNL     1      15.126   1.495   5.780  1.00  0.00    -0.237 OA
ATOM     66  O   UNL     1      16.536   0.878   3.851  1.00  0.00    -0.237 OA
ATOM     67  O   UNL     1      14.387   2.023   3.481  1.00  0.00    -0.744 OA
ENDBRANCH  63  64
ENDBRANCH  44  58
BRANCH  45  68
ATOM     68  C   UNL     1       8.092  -8.504  11.738  1.00  0.00    -0.014 A 
ATOM     69  C   UNL     1       6.954  -9.281  11.976  1.00  0.00     0.010 A 
ATOM     70  C   UNL     1       9.112  -8.608  12.735  1.00  0.00     0.010 A 
ATOM     71  C   UNL     1       6.912 -10.210  13.051  1.00  0.00     0.020 A 
ATOM     72  C   UNL     1       9.110  -9.552  13.764  1.00  0.00     0.020 A 
ATOM     73  C   UNL     1       8.013 -10.378  13.901  1.00  0.00     0.054 A 
BRANCH  73  74
ATOM     74  S   UNL     1       8.103 -11.752  15.087  1.00  0.00     0.124 S 
ATOM     75  O   UNL     1       7.503 -11.176  16.287  1.00  0.00    -0.237 OA
ATOM     76  O   UNL     1       7.325 -12.801  14.432  1.00  0.00    -0.237 OA
ATOM     77  O   UNL     1       9.537 -12.027  15.176  1.00  0.00    -0.744 OA
ENDBRANCH  73  74
ENDBRANCH  45  68
BRANCH  57  78
ATOM     78  C   UNL     1      10.296  -3.348   9.422  1.00  0.00    -0.014 A 
ATOM     79  C   UNL     1      10.158  -2.474  10.515  1.00  0.00     0.010 A 
ATOM     80  C   UNL     1       9.397  -3.201   8.345  1.00  0.00     0.010 A 
ATOM     81  C   UNL     1       9.163  -1.486  10.536  1.00  0.00     0.020 A 
ATOM     82  C   UNL     1       8.400  -2.210   8.355  1.00  0.00     0.020 A 
ATOM     83  C   UNL     1       8.289  -1.357   9.454  1.00  0.00     0.054 A 
BRANCH  83  84
ATOM     84  S   UNL     1       7.013  -0.064   9.524  1.00  0.00     0.124 S 
ATOM     85  O   UNL     1       6.253  -0.429  10.725  1.00  0.00    -0.237 OA
ATOM     86  O   UNL     1       7.791   1.151   9.624  1.00  0.00    -0.237 OA
ATOM     87  O   UNL     1       6.273  -0.233   8.265  1.00  0.00    -0.744 OA
ENDBRANCH  83  84
ENDBRANCH  57  78
ENDBRANCH  31  32
ENDBRANCH  23  26
ENDBRANCH  21  22
ENDBRANCH   1  21
TORSDOF 16
