REMARK SMILES CC1=C2C(=O)N(C[C@H]3CCCO3)C(=O)N=C2S[C@@H]1C(=O)NCCCCNC(=O)c1ccc(-c2c3nc(c(-c4ccc(S(=O)(=O)[O-])cc4)c4ccc([nH]4)c(-c4ccc(S(=O)(=O)[O-])cc4)c4nc(c(-c5ccc(S(=O)(=O)[O-])cc5)c5ccc2[nH]5)C=C4)C=C3)cc1
REMARK SMILES IDX 24 1 23 2 22 3 21 4 19 5 20 6 18 8 1 9 2 10 3 11 4 12 16 13
REMARK SMILES IDX 17 14 5 15 6 16 15 17 13 18 14 19 7 20 8 21 9 22 12 23 10 24
REMARK SMILES IDX 11 25 25 26 26 27 27 28 28 30 29 31 30 32 88 33 31 34 87 35
REMARK SMILES IDX 32 36 33 37 34 38 81 39 35 40 86 41 80 42 82 43 36 44 85 45
REMARK SMILES IDX 79 46 78 47 37 49 67 50 48 51 66 52 49 53 52 54 65 55 83 56
REMARK SMILES IDX 50 57 51 58 64 60 84 61 53 62 38 63 39 64 47 65 40 66 46 67
REMARK SMILES IDX 41 68 42 69 43 70 44 71 45 72 68 73 69 74 77 75 70 76 76 77
REMARK SMILES IDX 71 78 72 79 73 80 74 81 75 82 54 83 55 84 63 85 56 86 62 87
REMARK SMILES IDX 57 88 58 89 59 90 60 91 61 92
REMARK H PARENT 21 7 26 29 82 48 52 59
REMARK Flexibility Score: inf
ROOT
ATOM      1  C   UNL     1      10.210   0.821   1.800  1.00  0.00     0.023 C 
ENDROOT
BRANCH   1   2
ATOM      2  C   UNL     1       9.602  -0.561   1.560  1.00  0.00     0.023 C 
BRANCH   2   3
ATOM      3  C   UNL     1       8.873  -0.696   0.227  1.00  0.00     0.116 C 
BRANCH   3   4
ATOM      4  N   UNL     1       9.801  -0.769  -0.884  1.00  0.00    -0.355 N 
ATOM      5  C   UNL     1      10.182  -1.821  -1.661  1.00  0.00     0.237 C 
ATOM      6  O   UNL     1      11.029  -1.597  -2.534  1.00  0.00    -0.273 OA
ATOM      7  H   UNL     1      10.230   0.086  -1.115  1.00  0.00     0.163 HD
BRANCH   5   8
ATOM      8  C   UNL     1       9.553  -3.215  -1.553  1.00  0.00     0.169 C 
ATOM      9  C   UNL     1       7.507  -2.692  -3.051  1.00  0.00     0.042 C 
ATOM     10  C   UNL     1       8.070  -3.260  -1.785  1.00  0.00    -0.035 C 
ATOM     11  C   UNL     1       7.349  -3.870  -0.832  1.00  0.00     0.073 C 
ATOM     12  C   UNL     1       5.922  -4.183  -0.822  1.00  0.00     0.264 C 
ATOM     13  C   UNL     1       8.137  -4.318   0.301  1.00  0.00     0.116 C 
ATOM     14  S   UNL     1       9.833  -3.991   0.074  1.00  0.00    -0.087 SA
ATOM     15  O   UNL     1       5.203  -3.874  -1.764  1.00  0.00    -0.268 OA
ATOM     16  N   UNL     1       5.524  -4.921   0.277  1.00  0.00    -0.256 N 
ATOM     17  N   UNL     1       7.672  -4.880   1.352  1.00  0.00    -0.186 NA
ATOM     18  C   UNL     1       6.325  -5.155   1.406  1.00  0.00     0.351 C 
ATOM     19  O   UNL     1       5.842  -5.640   2.426  1.00  0.00    -0.246 OA
BRANCH  16  20
ATOM     20  C   UNL     1       4.271  -5.661   0.169  1.00  0.00     0.163 C 
BRANCH  20  21
ATOM     21  C   UNL     1       2.932  -4.924   0.392  1.00  0.00     0.138 C 
ATOM     22  C   UNL     1       2.396  -4.054  -0.737  1.00  0.00     0.036 C 
ATOM     23  O   UNL     1       1.921  -5.968   0.477  1.00  0.00    -0.376 OA
ATOM     24  C   UNL     1       1.914  -5.078  -1.736  1.00  0.00     0.031 C 
ATOM     25  C   UNL     1       1.325  -6.138  -0.825  1.00  0.00     0.160 C 
ENDBRANCH  20  21
ENDBRANCH  16  20
ENDBRANCH   5   8
ENDBRANCH   3   4
ENDBRANCH   2   3
ENDBRANCH   1   2
BRANCH   1  26
ATOM     26  C   UNL     1       9.221   1.982   1.752  1.00  0.00     0.116 C 
BRANCH  26  27
ATOM     27  N   UNL     1       8.112   1.831   2.681  1.00  0.00    -0.352 N 
ATOM     28  C   UNL     1       7.496   2.799   3.439  1.00  0.00     0.251 C 
ATOM     29  H   UNL     1       7.756   0.919   2.780  1.00  0.00     0.163 HD
ATOM     30  O   UNL     1       6.635   2.491   4.256  1.00  0.00    -0.269 OA
BRANCH  28  31
ATOM     31  C   UNL     1       7.915   4.207   3.285  1.00  0.00     0.039 A 
ATOM     32  C   UNL     1       8.287   4.925   4.423  1.00  0.00     0.014 A 
ATOM     33  C   UNL     1       7.993   4.791   2.018  1.00  0.00     0.014 A 
ATOM     34  C   UNL     1       8.813   6.210   4.283  1.00  0.00     0.010 A 
ATOM     35  C   UNL     1       8.571   6.049   1.876  1.00  0.00     0.010 A 
ATOM     36  C   UNL     1       8.997   6.765   3.005  1.00  0.00    -0.014 A 
BRANCH  36  37
ATOM     37  C   UNL     1       9.660   8.080   2.826  1.00  0.00     0.031 A 
ATOM     38  C   UNL     1       8.891   9.244   2.268  1.00  0.00     0.074 A 
ATOM     39  C   UNL     1      10.975   8.203   3.099  1.00  0.00     0.049 A 
ATOM     40  N   UNL     1       9.319  10.442   1.961  1.00  0.00    -0.248 NA
ATOM     41  C   UNL     1       7.461   9.028   1.996  1.00  0.00     0.031 C 
ATOM     42  C   UNL     1      11.842   7.135   3.604  1.00  0.00     0.029 A 
ATOM     43  N   UNL     1      11.815   9.281   2.977  1.00  0.00    -0.354 N 
ATOM     44  C   UNL     1       8.219  11.117   1.448  1.00  0.00     0.074 A 
ATOM     45  C   UNL     1       7.113  10.183   1.446  1.00  0.00     0.031 C 
ATOM     46  C   UNL     1      13.086   7.617   3.764  1.00  0.00     0.029 A 
ATOM     47  C   UNL     1      13.114   9.013   3.342  1.00  0.00     0.049 A 
ATOM     48  H   UNL     1      11.517  10.164   2.659  1.00  0.00     0.167 HD
ATOM     49  C   UNL     1       8.132  12.402   1.032  1.00  0.00     0.031 A 
ATOM     50  C   UNL     1      14.207   9.800   3.330  1.00  0.00     0.031 A 
ATOM     51  C   UNL     1       9.226  13.335   1.050  1.00  0.00     0.049 A 
ATOM     52  C   UNL     1      14.081  11.226   2.870  1.00  0.00     0.074 A 
ATOM     53  C   UNL     1       9.223  14.672   0.690  1.00  0.00     0.029 A 
ATOM     54  N   UNL     1      10.517  13.032   1.453  1.00  0.00    -0.354 N 
ATOM     55  N   UNL     1      13.018  11.859   2.434  1.00  0.00    -0.248 NA
ATOM     56  C   UNL     1      15.300  12.046   2.909  1.00  0.00     0.031 C 
ATOM     57  C   UNL     1      10.521  15.169   0.846  1.00  0.00     0.029 A 
ATOM     58  C   UNL     1      11.322  14.152   1.341  1.00  0.00     0.049 A 
ATOM     59  H   UNL     1      10.817  12.150   1.772  1.00  0.00     0.167 HD
ATOM     60  C   UNL     1      13.436  13.157   2.167  1.00  0.00     0.074 A 
ATOM     61  C   UNL     1      14.844  13.223   2.504  1.00  0.00     0.031 C 
ATOM     62  C   UNL     1      12.719  14.201   1.684  1.00  0.00     0.031 A 
BRANCH  49  63
ATOM     63  C   UNL     1       6.797  12.879   0.528  1.00  0.00    -0.014 A 
ATOM     64  C   UNL     1       5.735  13.115   1.419  1.00  0.00     0.010 A 
ATOM     65  C   UNL     1       6.616  13.139  -0.842  1.00  0.00     0.010 A 
ATOM     66  C   UNL     1       4.503  13.572   0.944  1.00  0.00     0.020 A 
ATOM     67  C   UNL     1       5.392  13.617  -1.318  1.00  0.00     0.020 A 
ATOM     68  C   UNL     1       4.338  13.816  -0.423  1.00  0.00     0.054 A 
BRANCH  68  69
ATOM     69  S   UNL     1       2.738  14.438  -1.009  1.00  0.00     0.124 S 
ATOM     70  O   UNL     1       1.913  13.234  -0.961  1.00  0.00    -0.237 OA
ATOM     71  O   UNL     1       2.410  15.464  -0.023  1.00  0.00    -0.237 OA
ATOM     72  O   UNL     1       3.032  14.939  -2.350  1.00  0.00    -0.744 OA
ENDBRANCH  68  69
ENDBRANCH  49  63
BRANCH  50  73
ATOM     73  C   UNL     1      15.519   9.260   3.774  1.00  0.00    -0.014 A 
ATOM     74  C   UNL     1      16.075   9.659   5.002  1.00  0.00     0.010 A 
ATOM     75  C   UNL     1      16.223   8.349   2.966  1.00  0.00     0.010 A 
ATOM     76  C   UNL     1      17.323   9.176   5.404  1.00  0.00     0.020 A 
ATOM     77  C   UNL     1      17.461   7.846   3.376  1.00  0.00     0.020 A 
ATOM     78  C   UNL     1      18.010   8.275   4.586  1.00  0.00     0.054 A 
BRANCH  78  79
ATOM     79  S   UNL     1      19.613   7.630   5.139  1.00  0.00     0.124 S 
ATOM     80  O   UNL     1      20.510   8.737   4.824  1.00  0.00    -0.237 OA
ATOM     81  O   UNL     1      19.385   7.384   6.561  1.00  0.00    -0.237 OA
ATOM     82  O   UNL     1      19.791   6.426   4.330  1.00  0.00    -0.744 OA
ENDBRANCH  78  79
ENDBRANCH  50  73
BRANCH  62  83
ATOM     83  C   UNL     1      13.437  15.511   1.518  1.00  0.00    -0.014 A 
ATOM     84  C   UNL     1      14.333  15.716   0.455  1.00  0.00     0.010 A 
ATOM     85  C   UNL     1      13.171  16.567   2.408  1.00  0.00     0.010 A 
ATOM     86  C   UNL     1      14.972  16.949   0.300  1.00  0.00     0.020 A 
ATOM     87  C   UNL     1      13.791  17.807   2.244  1.00  0.00     0.020 A 
ATOM     88  C   UNL     1      14.699  17.986   1.197  1.00  0.00     0.054 A 
BRANCH  88  89
ATOM     89  S   UNL     1      15.504  19.593   0.950  1.00  0.00     0.124 S 
ATOM     90  O   UNL     1      16.846  19.342   1.466  1.00  0.00    -0.237 OA
ATOM     91  O   UNL     1      15.411  19.782  -0.495  1.00  0.00    -0.237 OA
ATOM     92  O   UNL     1      14.691  20.511   1.745  1.00  0.00    -0.744 OA
ENDBRANCH  88  89
ENDBRANCH  62  83
ENDBRANCH  36  37
ENDBRANCH  28  31
ENDBRANCH  26  27
ENDBRANCH   1  26
TORSDOF 16
