REMARK SMILES O=C1O[C@@H](c2ccc(O)c(O)c2)[C@H](C(=O)NCCCCNC(=O)c2ccc(-c3c4nc(c(-c5ccc(S(=O)(=O)[O-])cc5)c5ccc([nH]5)c(-c5ccc(S(=O)(=O)[O-])cc5)c5nc(c(-c6ccc(S(=O)(=O)[O-])cc6)c6ccc3[nH]6)C=C5)C=C4)cc2)/C1=C\c1ccc(O)c(O)c1
REMARK SMILES IDX 19 1 18 2 17 3 16 4 14 5 15 6 13 8 1 9 2 10 3 11 84 12 4 13
REMARK SMILES IDX 85 14 5 15 6 16 12 17 7 18 10 19 8 20 11 21 9 23 86 25 87 26
REMARK SMILES IDX 93 27 88 28 91 29 89 30 92 31 90 33 20 35 21 36 22 37 23 39
REMARK SMILES IDX 24 40 25 41 83 42 26 43 82 44 27 45 28 46 29 47 76 48 30 49
REMARK SMILES IDX 81 50 75 51 77 52 31 53 80 54 74 55 73 56 32 58 62 59 43 60
REMARK SMILES IDX 61 61 44 62 47 63 60 64 78 65 45 66 46 67 59 69 79 70 48 71
REMARK SMILES IDX 33 72 34 73 42 74 35 75 41 76 36 77 37 78 38 79 39 80 40 81
REMARK SMILES IDX 63 82 64 83 72 84 65 85 71 86 66 87 67 88 68 89 69 90 70 91
REMARK SMILES IDX 49 92 50 93 58 94 51 95 57 96 52 97 53 98 54 99 55 100
REMARK SMILES IDX 56 101
REMARK H PARENT 16 7 11 22 9 24 92 32 90 34 21 38 77 57 47 68
REMARK Flexibility Score: inf
ROOT
ATOM      1  C   UNL     1       5.845   1.964   2.704  1.00  0.00     0.023 C 
ENDROOT
BRANCH   1   2
ATOM      2  C   UNL     1       5.197   1.633   1.366  1.00  0.00     0.023 C 
BRANCH   2   3
ATOM      3  C   UNL     1       4.076   0.609   1.444  1.00  0.00     0.116 C 
BRANCH   3   4
ATOM      4  N   UNL     1       2.877   1.091   2.100  1.00  0.00    -0.355 N 
ATOM      5  C   UNL     1       1.579   1.141   1.669  1.00  0.00     0.231 C 
ATOM      6  O   UNL     1       0.728   1.431   2.511  1.00  0.00    -0.274 OA
ATOM      7  H   UNL     1       3.021   1.441   3.009  1.00  0.00     0.163 HD
BRANCH   5   8
ATOM      8  C   UNL     1       1.238   0.951   0.186  1.00  0.00     0.161 C 
ATOM      9  O   UNL     1      -1.867  -0.804  -0.128  1.00  0.00    -0.247 OA
ATOM     10  C   UNL     1      -0.709  -0.422  -0.133  1.00  0.00     0.335 C 
ATOM     11  O   UNL     1       0.375  -1.220  -0.267  1.00  0.00    -0.453 OA
ATOM     12  C   UNL     1      -0.238   0.970  -0.043  1.00  0.00     0.054 C 
ATOM     13  C   UNL     1       1.581  -0.440  -0.340  1.00  0.00     0.224 C 
ATOM     14  C   UNL     1      -1.110   1.976  -0.207  1.00  0.00     0.020 C 
BRANCH  13  15
ATOM     15  C   UNL     1       2.181  -0.455  -1.751  1.00  0.00    -0.002 A 
ATOM     16  C   UNL     1       3.227   0.426  -2.114  1.00  0.00     0.012 A 
ATOM     17  C   UNL     1       1.773  -1.407  -2.697  1.00  0.00     0.057 A 
ATOM     18  C   UNL     1       3.861   0.348  -3.358  1.00  0.00     0.050 A 
ATOM     19  C   UNL     1       2.391  -1.462  -3.943  1.00  0.00     0.157 A 
ATOM     20  C   UNL     1       3.435  -0.602  -4.269  1.00  0.00     0.157 A 
BRANCH  19  21
ATOM     21  O   UNL     1       1.969  -2.387  -4.854  1.00  0.00    -0.504 OA
ATOM     22  H   UNL     1       2.377  -2.435  -5.696  1.00  0.00     0.293 HD
ENDBRANCH  19  21
BRANCH  20  23
ATOM     23  O   UNL     1       4.017  -0.734  -5.498  1.00  0.00    -0.504 OA
ATOM     24  H   UNL     1       4.722  -0.169  -5.745  1.00  0.00     0.293 HD
ENDBRANCH  20  23
ENDBRANCH  13  15
BRANCH  14  25
ATOM     25  C   UNL     1      -0.760   3.394  -0.169  1.00  0.00    -0.021 A 
ATOM     26  C   UNL     1       0.111   3.953  -1.117  1.00  0.00     0.012 A 
ATOM     27  C   UNL     1      -1.341   4.212   0.805  1.00  0.00     0.058 A 
ATOM     28  C   UNL     1       0.430   5.314  -1.074  1.00  0.00     0.051 A 
ATOM     29  C   UNL     1      -1.028   5.563   0.834  1.00  0.00     0.157 A 
ATOM     30  C   UNL     1      -0.143   6.111  -0.091  1.00  0.00     0.157 A 
BRANCH  29  31
ATOM     31  O   UNL     1      -1.599   6.359   1.785  1.00  0.00    -0.504 OA
ATOM     32  H   UNL     1      -1.396   7.273   1.815  1.00  0.00     0.293 HD
ENDBRANCH  29  31
BRANCH  30  33
ATOM     33  O   UNL     1       0.129   7.447   0.004  1.00  0.00    -0.504 OA
ATOM     34  H   UNL     1       0.720   7.849  -0.601  1.00  0.00     0.293 HD
ENDBRANCH  30  33
ENDBRANCH  14  25
ENDBRANCH   5   8
ENDBRANCH   3   4
ENDBRANCH   2   3
ENDBRANCH   1   2
BRANCH   1  35
ATOM     35  C   UNL     1       6.314   0.757   3.504  1.00  0.00     0.116 C 
BRANCH  35  36
ATOM     36  N   UNL     1       7.307  -0.051   2.805  1.00  0.00    -0.352 N 
ATOM     37  C   UNL     1       8.494  -0.542   3.303  1.00  0.00     0.251 C 
ATOM     38  H   UNL     1       7.105  -0.271   1.867  1.00  0.00     0.163 HD
ATOM     39  O   UNL     1       9.300  -1.102   2.570  1.00  0.00    -0.269 OA
BRANCH  37  40
ATOM     40  C   UNL     1       8.783  -0.337   4.736  1.00  0.00     0.039 A 
ATOM     41  C   UNL     1       9.959   0.314   5.114  1.00  0.00     0.014 A 
ATOM     42  C   UNL     1       7.819  -0.682   5.686  1.00  0.00     0.014 A 
ATOM     43  C   UNL     1      10.129   0.698   6.446  1.00  0.00     0.010 A 
ATOM     44  C   UNL     1       7.949  -0.216   6.986  1.00  0.00     0.010 A 
ATOM     45  C   UNL     1       9.105   0.477   7.382  1.00  0.00    -0.014 A 
BRANCH  45  46
ATOM     46  C   UNL     1       9.211   0.926   8.794  1.00  0.00     0.031 A 
ATOM     47  C   UNL     1       9.155  -0.100   9.894  1.00  0.00     0.074 A 
ATOM     48  C   UNL     1       9.257   2.240   9.093  1.00  0.00     0.049 A 
ATOM     49  N   UNL     1       9.065   0.078  11.185  1.00  0.00    -0.248 NA
ATOM     50  C   UNL     1       9.166  -1.514   9.480  1.00  0.00     0.031 C 
ATOM     51  C   UNL     1       9.299   3.336   8.121  1.00  0.00     0.029 A 
ATOM     52  N   UNL     1       9.260   2.879  10.309  1.00  0.00    -0.354 N 
ATOM     53  C   UNL     1       8.984  -1.197  11.733  1.00  0.00     0.074 A 
ATOM     54  C   UNL     1       8.974  -2.134  10.633  1.00  0.00     0.031 C 
ATOM     55  C   UNL     1       9.345   4.507   8.779  1.00  0.00     0.029 A 
ATOM     56  C   UNL     1       9.278   4.252  10.215  1.00  0.00     0.049 A 
ATOM     57  H   UNL     1       9.250   2.399  11.169  1.00  0.00     0.167 HD
ATOM     58  C   UNL     1       8.945  -1.559  13.037  1.00  0.00     0.031 A 
ATOM     59  C   UNL     1       9.229   5.198  11.175  1.00  0.00     0.031 A 
ATOM     60  C   UNL     1       8.968  -0.624  14.128  1.00  0.00     0.049 A 
ATOM     61  C   UNL     1       9.143   4.772  12.618  1.00  0.00     0.074 A 
ATOM     62  C   UNL     1       8.970  -0.889  15.486  1.00  0.00     0.029 A 
ATOM     63  N   UNL     1       8.998   0.755  13.988  1.00  0.00    -0.354 N 
ATOM     64  N   UNL     1       9.107   3.561  13.120  1.00  0.00    -0.248 NA
ATOM     65  C   UNL     1       9.101   5.842  13.627  1.00  0.00     0.031 C 
ATOM     66  C   UNL     1       8.943   0.331  16.167  1.00  0.00     0.029 A 
ATOM     67  C   UNL     1       9.001   1.355  15.234  1.00  0.00     0.049 A 
ATOM     68  H   UNL     1       9.014   1.236  13.129  1.00  0.00     0.167 HD
ATOM     69  C   UNL     1       9.086   3.723  14.502  1.00  0.00     0.074 A 
ATOM     70  C   UNL     1       9.114   5.148  14.757  1.00  0.00     0.031 C 
ATOM     71  C   UNL     1       9.056   2.776  15.472  1.00  0.00     0.031 A 
BRANCH  58  72
ATOM     72  C   UNL     1       8.871  -3.030  13.350  1.00  0.00    -0.014 A 
ATOM     73  C   UNL     1       9.953  -3.887  13.077  1.00  0.00     0.010 A 
ATOM     74  C   UNL     1       7.718  -3.559  13.958  1.00  0.00     0.010 A 
ATOM     75  C   UNL     1       9.867  -5.250  13.364  1.00  0.00     0.020 A 
ATOM     76  C   UNL     1       7.641  -4.917  14.280  1.00  0.00     0.020 A 
ATOM     77  C   UNL     1       8.711  -5.757  13.965  1.00  0.00     0.054 A 
BRANCH  77  78
ATOM     78  S   UNL     1       8.642  -7.527  14.352  1.00  0.00     0.124 S 
ATOM     79  O   UNL     1       8.536  -8.121  13.021  1.00  0.00    -0.237 OA
ATOM     80  O   UNL     1       9.910  -7.752  15.040  1.00  0.00    -0.237 OA
ATOM     81  O   UNL     1       7.450  -7.654  15.186  1.00  0.00    -0.744 OA
ENDBRANCH  77  78
ENDBRANCH  58  72
BRANCH  59  82
ATOM     82  C   UNL     1       9.268   6.643  10.811  1.00  0.00    -0.014 A 
ATOM     83  C   UNL     1      10.383   7.433  11.148  1.00  0.00     0.010 A 
ATOM     84  C   UNL     1       8.190   7.242  10.134  1.00  0.00     0.010 A 
ATOM     85  C   UNL     1      10.407   8.797  10.842  1.00  0.00     0.020 A 
ATOM     86  C   UNL     1       8.224   8.599   9.796  1.00  0.00     0.020 A 
ATOM     87  C   UNL     1       9.327   9.371  10.165  1.00  0.00     0.054 A 
BRANCH  87  88
ATOM     88  S   UNL     1       9.398  11.135   9.745  1.00  0.00     0.124 S 
ATOM     89  O   UNL     1       9.244  11.765  11.052  1.00  0.00    -0.237 OA
ATOM     90  O   UNL     1      10.719  11.258   9.133  1.00  0.00    -0.237 OA
ATOM     91  O   UNL     1       8.275  11.313   8.827  1.00  0.00    -0.744 OA
ENDBRANCH  87  88
ENDBRANCH  59  82
BRANCH  71  92
ATOM     92  C   UNL     1       9.129   3.231  16.906  1.00  0.00    -0.014 A 
ATOM     93  C   UNL     1       8.044   3.860  17.539  1.00  0.00     0.010 A 
ATOM     94  C   UNL     1      10.281   2.930  17.657  1.00  0.00     0.010 A 
ATOM     95  C   UNL     1       8.117   4.194  18.894  1.00  0.00     0.020 A 
ATOM     96  C   UNL     1      10.345   3.233  19.018  1.00  0.00     0.020 A 
ATOM     97  C   UNL     1       9.264   3.871  19.627  1.00  0.00     0.054 A 
BRANCH  97  98
ATOM     98  S   UNL     1       9.300   4.244  21.402  1.00  0.00     0.124 S 
ATOM     99  O   UNL     1       9.404   5.700  21.405  1.00  0.00    -0.237 OA
ATOM    100  O   UNL     1       8.026   3.703  21.867  1.00  0.00    -0.237 OA
ATOM    101  O   UNL     1      10.484   3.535  21.882  1.00  0.00    -0.744 OA
ENDBRANCH  97  98
ENDBRANCH  71  92
ENDBRANCH  45  46
ENDBRANCH  37  40
ENDBRANCH  35  36
ENDBRANCH   1  35
TORSDOF 20
