REMARK SMILES N#Cc1cccc(C(=O)N2CCC(CC(=O)NCCCCNC(=O)c3ccc(-c4c5nc(c(-c6ccc(S(=O)(=O)[O-])cc6)c6ccc([nH]6)c(-c6ccc(S(=O)(=O)[O-])cc6)c6nc(c(-c7ccc(S(=O)(=O)[O-])cc7)c7ccc4[nH]7)C=C6)C=C5)cc3)CC2)c1
REMARK SMILES IDX 19 1 18 2 17 3 15 4 16 5 14 7 13 8 8 9 9 10 10 11 11 12
REMARK SMILES IDX 86 13 12 14 85 15 7 16 3 17 4 18 87 19 5 20 6 21 2 22 1 23
REMARK SMILES IDX 20 24 21 25 22 26 23 27 24 29 25 30 26 31 84 32 27 33 83 34
REMARK SMILES IDX 28 35 29 36 30 37 77 38 31 39 82 40 76 41 78 42 32 43 81 44
REMARK SMILES IDX 75 45 74 46 33 48 63 49 44 50 62 51 45 52 48 53 61 54 79 55
REMARK SMILES IDX 46 56 47 57 60 59 80 60 49 61 34 62 35 63 43 64 36 65 42 66
REMARK SMILES IDX 37 67 38 68 39 69 40 70 41 71 64 72 65 73 73 74 66 75 72 76
REMARK SMILES IDX 67 77 68 78 69 79 70 80 71 81 50 82 51 83 59 84 52 85 58 86
REMARK SMILES IDX 53 87 54 88 55 89 56 90 57 91
REMARK H PARENT 17 6 22 28 78 47 48 58
REMARK Flexibility Score: inf
ROOT
ATOM      1  C   UNL     1       2.943  -6.444   3.403  1.00  0.00     0.023 C 
ENDROOT
BRANCH   1   2
ATOM      2  C   UNL     1       3.362  -7.548   2.417  1.00  0.00     0.116 C 
BRANCH   2   3
ATOM      3  N   UNL     1       2.285  -8.493   2.155  1.00  0.00    -0.356 N 
ATOM      4  C   UNL     1       1.488  -8.682   1.060  1.00  0.00     0.220 C 
ATOM      5  O   UNL     1       0.631  -9.567   1.122  1.00  0.00    -0.275 OA
ATOM      6  H   UNL     1       2.097  -9.106   2.901  1.00  0.00     0.163 HD
BRANCH   4   7
ATOM      7  C   UNL     1       1.634  -7.840  -0.210  1.00  0.00     0.103 C 
BRANCH   7   8
ATOM      8  C   UNL     1       0.842  -6.509  -0.214  1.00  0.00     0.002 C 
ATOM      9  C   UNL     1       1.971  -2.562  -0.312  1.00  0.00     0.253 C 
ATOM     10  O   UNL     1       3.184  -2.724  -0.330  1.00  0.00    -0.269 OA
ATOM     11  N   UNL     1       1.065  -3.600  -0.242  1.00  0.00    -0.339 N 
ATOM     12  C   UNL     1       0.834  -4.233   1.026  1.00  0.00     0.120 C 
ATOM     13  C   UNL     1       0.535  -4.273  -1.416  1.00  0.00     0.120 C 
ATOM     14  C   UNL     1       1.286  -5.665   0.965  1.00  0.00     0.026 C 
ATOM     15  C   UNL     1       1.025  -5.723  -1.524  1.00  0.00     0.026 C 
BRANCH   9  16
ATOM     16  C   UNL     1       1.361  -1.201  -0.231  1.00  0.00     0.041 A 
ATOM     17  C   UNL     1      -0.603   0.221  -0.086  1.00  0.00     0.053 A 
ATOM     18  C   UNL     1       0.222   1.347  -0.022  1.00  0.00     0.019 A 
ATOM     19  C   UNL     1      -0.032  -1.047  -0.188  1.00  0.00     0.033 A 
ATOM     20  C   UNL     1       1.611   1.200  -0.057  1.00  0.00     0.002 A 
ATOM     21  C   UNL     1       2.182  -0.071  -0.161  1.00  0.00     0.014 A 
BRANCH  17  22
ATOM     22  C   UNL     1      -2.028   0.343  -0.047  1.00  0.00     0.099 C 
ATOM     23  N   UNL     1      -3.189   0.409  -0.030  1.00  0.00    -0.192 NA
ENDBRANCH  17  22
ENDBRANCH   9  16
ENDBRANCH   7   8
ENDBRANCH   4   7
ENDBRANCH   2   3
ENDBRANCH   1   2
BRANCH   1  24
ATOM     24  C   UNL     1       3.062  -6.785   4.871  1.00  0.00     0.023 C 
BRANCH  24  25
ATOM     25  C   UNL     1       4.490  -6.948   5.321  1.00  0.00     0.116 C 
BRANCH  25  26
ATOM     26  N   UNL     1       5.290  -5.744   5.118  1.00  0.00    -0.352 N 
ATOM     27  C   UNL     1       6.130  -5.131   6.016  1.00  0.00     0.251 C 
ATOM     28  H   UNL     1       5.219  -5.321   4.232  1.00  0.00     0.163 HD
ATOM     29  O   UNL     1       6.622  -4.035   5.777  1.00  0.00    -0.269 OA
BRANCH  27  30
ATOM     30  C   UNL     1       6.383  -5.820   7.294  1.00  0.00     0.039 A 
ATOM     31  C   UNL     1       6.229  -5.122   8.489  1.00  0.00     0.014 A 
ATOM     32  C   UNL     1       6.631  -7.196   7.290  1.00  0.00     0.014 A 
ATOM     33  C   UNL     1       6.259  -5.828   9.689  1.00  0.00     0.010 A 
ATOM     34  C   UNL     1       6.506  -7.909   8.469  1.00  0.00     0.010 A 
ATOM     35  C   UNL     1       6.351  -7.231   9.685  1.00  0.00    -0.014 A 
BRANCH  35  36
ATOM     36  C   UNL     1       6.332  -8.012  10.944  1.00  0.00     0.031 A 
ATOM     37  C   UNL     1       7.509  -8.884  11.292  1.00  0.00     0.074 A 
ATOM     38  C   UNL     1       5.248  -7.969  11.743  1.00  0.00     0.049 A 
ATOM     39  N   UNL     1       7.680  -9.656  12.332  1.00  0.00    -0.248 NA
ATOM     40  C   UNL     1       8.628  -8.920  10.332  1.00  0.00     0.031 C 
ATOM     41  C   UNL     1       4.027  -7.199  11.483  1.00  0.00     0.029 A 
ATOM     42  N   UNL     1       5.000  -8.582  12.945  1.00  0.00    -0.354 N 
ATOM     43  C   UNL     1       8.911 -10.272  12.144  1.00  0.00     0.074 A 
ATOM     44  C   UNL     1       9.409  -9.850  10.856  1.00  0.00     0.031 C 
ATOM     45  C   UNL     1       3.186  -7.345  12.518  1.00  0.00     0.029 A 
ATOM     46  C   UNL     1       3.779  -8.258  13.489  1.00  0.00     0.049 A 
ATOM     47  H   UNL     1       5.637  -9.196  13.377  1.00  0.00     0.167 HD
ATOM     48  C   UNL     1       9.586 -11.091  12.983  1.00  0.00     0.031 A 
ATOM     49  C   UNL     1       3.203  -8.656  14.640  1.00  0.00     0.031 A 
ATOM     50  C   UNL     1       9.085 -11.501  14.266  1.00  0.00     0.049 A 
ATOM     51  C   UNL     1       3.961  -9.591  15.543  1.00  0.00     0.074 A 
ATOM     52  C   UNL     1       9.706 -12.290  15.216  1.00  0.00     0.029 A 
ATOM     53  N   UNL     1       7.841 -11.159  14.775  1.00  0.00    -0.354 N 
ATOM     54  N   UNL     1       5.156 -10.108  15.380  1.00  0.00    -0.248 NA
ATOM     55  C   UNL     1       3.298  -9.985  16.793  1.00  0.00     0.031 C 
ATOM     56  C   UNL     1       8.808 -12.487  16.268  1.00  0.00     0.029 A 
ATOM     57  C   UNL     1       7.663 -11.748  16.015  1.00  0.00     0.049 A 
ATOM     58  H   UNL     1       7.183 -10.584  14.323  1.00  0.00     0.167 HD
ATOM     59  C   UNL     1       5.404 -10.855  16.527  1.00  0.00     0.074 A 
ATOM     60  C   UNL     1       4.241 -10.711  17.378  1.00  0.00     0.031 C 
ATOM     61  C   UNL     1       6.498 -11.590  16.849  1.00  0.00     0.031 A 
BRANCH  48  62
ATOM     62  C   UNL     1      10.931 -11.599  12.531  1.00  0.00    -0.014 A 
ATOM     63  C   UNL     1      12.026 -10.730  12.368  1.00  0.00     0.010 A 
ATOM     64  C   UNL     1      11.112 -12.975  12.302  1.00  0.00     0.010 A 
ATOM     65  C   UNL     1      13.264 -11.220  11.947  1.00  0.00     0.020 A 
ATOM     66  C   UNL     1      12.359 -13.475  11.917  1.00  0.00     0.020 A 
ATOM     67  C   UNL     1      13.423 -12.591  11.728  1.00  0.00     0.054 A 
BRANCH  67  68
ATOM     68  S   UNL     1      15.053 -13.203  11.220  1.00  0.00     0.124 S 
ATOM     69  O   UNL     1      15.168 -12.667   9.866  1.00  0.00    -0.237 OA
ATOM     70  O   UNL     1      15.941 -12.601  12.212  1.00  0.00    -0.237 OA
ATOM     71  O   UNL     1      14.921 -14.655  11.305  1.00  0.00    -0.744 OA
ENDBRANCH  67  68
ENDBRANCH  48  62
BRANCH  49  72
ATOM     72  C   UNL     1       1.846  -8.162  15.007  1.00  0.00    -0.014 A 
ATOM     73  C   UNL     1       1.664  -7.314  16.115  1.00  0.00     0.010 A 
ATOM     74  C   UNL     1       0.724  -8.538  14.247  1.00  0.00     0.010 A 
ATOM     75  C   UNL     1       0.385  -6.874  16.470  1.00  0.00     0.020 A 
ATOM     76  C   UNL     1      -0.552  -8.071  14.576  1.00  0.00     0.020 A 
ATOM     77  C   UNL     1      -0.715  -7.253  15.695  1.00  0.00     0.054 A 
BRANCH  77  78
ATOM     78  S   UNL     1      -2.359  -6.637  16.151  1.00  0.00     0.124 S 
ATOM     79  O   UNL     1      -2.619  -7.357  17.394  1.00  0.00    -0.237 OA
ATOM     80  O   UNL     1      -2.128  -5.202  16.286  1.00  0.00    -0.237 OA
ATOM     81  O   UNL     1      -3.196  -7.023  15.017  1.00  0.00    -0.744 OA
ENDBRANCH  77  78
ENDBRANCH  49  72
BRANCH  61  82
ATOM     82  C   UNL     1       6.518 -12.250  18.204  1.00  0.00    -0.014 A 
ATOM     83  C   UNL     1       5.663 -13.319  18.520  1.00  0.00     0.010 A 
ATOM     84  C   UNL     1       7.457 -11.818  19.161  1.00  0.00     0.010 A 
ATOM     85  C   UNL     1       5.717 -13.916  19.782  1.00  0.00     0.020 A 
ATOM     86  C   UNL     1       7.541 -12.438  20.408  1.00  0.00     0.020 A 
ATOM     87  C   UNL     1       6.658 -13.473  20.717  1.00  0.00     0.054 A 
BRANCH  87  88
ATOM     88  S   UNL     1       6.732 -14.290  22.334  1.00  0.00     0.124 S 
ATOM     89  O   UNL     1       5.489 -13.845  22.957  1.00  0.00    -0.237 OA
ATOM     90  O   UNL     1       6.784 -15.704  21.972  1.00  0.00    -0.237 OA
ATOM     91  O   UNL     1       7.954 -13.761  22.935  1.00  0.00    -0.744 OA
ENDBRANCH  87  88
ENDBRANCH  61  82
ENDBRANCH  35  36
ENDBRANCH  27  30
ENDBRANCH  25  26
ENDBRANCH  24  25
ENDBRANCH   1  24
TORSDOF 17
