REMARK SMILES CC(C)NC(=O)CNC(=O)N1CCO[C@@H](CC(=O)NCCCCNC(=O)c2ccc(-c3c4nc(c(-c5ccc(S(=O)(=O)[O-])cc5)c5ccc([nH]5)c(-c5ccc(S(=O)(=O)[O-])cc5)c5nc(c(-c6ccc(S(=O)(=O)[O-])cc6)c6ccc3[nH]6)C=C5)C=C4)cc2)C1
REMARK SMILES IDX 20 1 19 2 17 3 18 4 16 6 15 7 11 8 12 9 87 10 13 11 14 12
REMARK SMILES IDX 9 13 8 14 10 16 7 17 5 18 4 19 6 21 2 22 1 23 3 24 21 25
REMARK SMILES IDX 22 26 23 27 24 28 25 29 26 31 27 32 28 33 86 34 29 35 85 36
REMARK SMILES IDX 30 37 31 38 32 39 79 40 33 41 84 42 78 43 80 44 34 45 83 46
REMARK SMILES IDX 77 47 76 48 35 50 65 51 46 52 64 53 47 54 50 55 63 56 81 57
REMARK SMILES IDX 48 58 49 59 62 61 82 62 51 63 36 64 37 65 45 66 38 67 44 68
REMARK SMILES IDX 39 69 40 70 41 71 42 72 43 73 66 74 67 75 75 76 68 77 74 78
REMARK SMILES IDX 69 79 70 80 71 81 72 82 73 83 52 84 53 85 61 86 54 87 60 88
REMARK SMILES IDX 55 89 56 90 57 91 58 92 59 93
REMARK H PARENT 19 5 8 15 4 20 24 30 80 49 50 60
REMARK Flexibility Score: inf
ROOT
ATOM      1  C   UNL     1       5.593  -0.658  -2.516  1.00  0.00     0.116 C 
ENDROOT
BRANCH   1   2
ATOM      2  N   UNL     1       5.442  -1.622  -1.435  1.00  0.00    -0.356 N 
ATOM      3  C   UNL     1       4.896  -2.872  -1.426  1.00  0.00     0.222 C 
ATOM      4  O   UNL     1       4.716  -3.418  -0.335  1.00  0.00    -0.275 OA
ATOM      5  H   UNL     1       5.792  -1.321  -0.566  1.00  0.00     0.163 HD
BRANCH   3   6
ATOM      6  C   UNL     1       4.498  -3.573  -2.712  1.00  0.00     0.133 C 
BRANCH   6   7
ATOM      7  C   UNL     1       3.000  -3.450  -3.006  1.00  0.00     0.147 C 
ATOM      8  N   UNL     1       1.309  -1.833  -3.884  1.00  0.00    -0.320 N 
ATOM      9  C   UNL     1       0.906  -2.812  -4.885  1.00  0.00     0.150 C 
ATOM     10  C   UNL     1       2.659  -2.015  -3.401  1.00  0.00     0.154 C 
ATOM     11  C   UNL     1       1.238  -4.226  -4.396  1.00  0.00     0.182 C 
ATOM     12  O   UNL     1       2.639  -4.351  -4.074  1.00  0.00    -0.374 OA
BRANCH   8  13
ATOM     13  C   UNL     1       0.817  -0.551  -3.869  1.00  0.00     0.318 C 
ATOM     14  N   UNL     1      -0.502  -0.388  -3.615  1.00  0.00    -0.329 N 
ATOM     15  H   UNL     1      -0.872   0.503  -3.812  1.00  0.00     0.165 HD
ATOM     16  O   UNL     1       1.538   0.442  -3.933  1.00  0.00    -0.249 OA
BRANCH  14  17
ATOM     17  C   UNL     1      -1.442  -1.361  -3.087  1.00  0.00     0.217 C 
BRANCH  17  18
ATOM     18  C   UNL     1      -1.986  -1.049  -1.687  1.00  0.00     0.239 C 
ATOM     19  N   UNL     1      -1.172  -1.007  -0.594  1.00  0.00    -0.352 N 
ATOM     20  H   UNL     1      -1.637  -0.846   0.259  1.00  0.00     0.163 HD
ATOM     21  O   UNL     1      -3.202  -0.932  -1.504  1.00  0.00    -0.273 OA
BRANCH  19  22
ATOM     22  C   UNL     1       0.271  -1.161  -0.479  1.00  0.00     0.075 C 
ATOM     23  C   UNL     1       0.874   0.042   0.236  1.00  0.00     0.030 C 
ATOM     24  C   UNL     1       0.630  -2.463   0.228  1.00  0.00     0.030 C 
ENDBRANCH  19  22
ENDBRANCH  17  18
ENDBRANCH  14  17
ENDBRANCH   8  13
ENDBRANCH   6   7
ENDBRANCH   3   6
ENDBRANCH   1   2
BRANCH   1  25
ATOM     25  C   UNL     1       4.506   0.420  -2.435  1.00  0.00     0.023 C 
BRANCH  25  26
ATOM     26  C   UNL     1       4.883   1.708  -1.732  1.00  0.00     0.023 C 
BRANCH  26  27
ATOM     27  C   UNL     1       5.899   2.546  -2.474  1.00  0.00     0.116 C 
BRANCH  27  28
ATOM     28  N   UNL     1       5.466   2.983  -3.793  1.00  0.00    -0.352 N 
ATOM     29  C   UNL     1       5.686   4.201  -4.402  1.00  0.00     0.251 C 
ATOM     30  H   UNL     1       4.950   2.328  -4.316  1.00  0.00     0.163 HD
ATOM     31  O   UNL     1       5.213   4.447  -5.500  1.00  0.00    -0.269 OA
BRANCH  29  32
ATOM     32  C   UNL     1       6.465   5.225  -3.670  1.00  0.00     0.039 A 
ATOM     33  C   UNL     1       5.971   6.528  -3.595  1.00  0.00     0.014 A 
ATOM     34  C   UNL     1       7.628   4.870  -2.986  1.00  0.00     0.014 A 
ATOM     35  C   UNL     1       6.617   7.459  -2.781  1.00  0.00     0.010 A 
ATOM     36  C   UNL     1       8.184   5.753  -2.075  1.00  0.00     0.010 A 
ATOM     37  C   UNL     1       7.710   7.069  -1.991  1.00  0.00    -0.014 A 
BRANCH  37  38
ATOM     38  C   UNL     1       8.440   8.035  -1.134  1.00  0.00     0.031 A 
ATOM     39  C   UNL     1       9.903   8.287  -1.402  1.00  0.00     0.074 A 
ATOM     40  C   UNL     1       7.821   8.631  -0.097  1.00  0.00     0.049 A 
ATOM     41  N   UNL     1      10.750   9.024  -0.734  1.00  0.00    -0.248 NA
ATOM     42  C   UNL     1      10.505   7.577  -2.546  1.00  0.00     0.031 C 
ATOM     43  C   UNL     1       6.426   8.421   0.300  1.00  0.00     0.029 A 
ATOM     44  N   UNL     1       8.290   9.540   0.816  1.00  0.00    -0.354 N 
ATOM     45  C   UNL     1      11.981   8.835  -1.353  1.00  0.00     0.074 A 
ATOM     46  C   UNL     1      11.789   7.859  -2.398  1.00  0.00     0.031 C 
ATOM     47  C   UNL     1       6.142   9.213   1.348  1.00  0.00     0.029 A 
ATOM     48  C   UNL     1       7.340   9.960   1.717  1.00  0.00     0.049 A 
ATOM     49  H   UNL     1       9.220   9.862   0.826  1.00  0.00     0.167 HD
ATOM     50  C   UNL     1      13.161   9.448  -1.103  1.00  0.00     0.031 A 
ATOM     51  C   UNL     1       7.426  10.857   2.718  1.00  0.00     0.031 A 
ATOM     52  C   UNL     1      13.332  10.461  -0.101  1.00  0.00     0.049 A 
ATOM     53  C   UNL     1       8.732  11.572   2.941  1.00  0.00     0.074 A 
ATOM     54  C   UNL     1      14.464  11.197   0.199  1.00  0.00     0.029 A 
ATOM     55  N   UNL     1      12.329  10.897   0.753  1.00  0.00    -0.354 N 
ATOM     56  N   UNL     1       9.873  11.418   2.310  1.00  0.00    -0.248 NA
ATOM     57  C   UNL     1       8.756  12.598   3.991  1.00  0.00     0.031 C 
ATOM     58  C   UNL     1      14.153  12.059   1.255  1.00  0.00     0.029 A 
ATOM     59  C   UNL     1      12.815  11.894   1.578  1.00  0.00     0.049 A 
ATOM     60  H   UNL     1      11.409  10.549   0.768  1.00  0.00     0.167 HD
ATOM     61  C   UNL     1      10.739  12.355   2.862  1.00  0.00     0.074 A 
ATOM     62  C   UNL     1       9.987  13.075   3.870  1.00  0.00     0.031 C 
ATOM     63  C   UNL     1      12.038  12.603   2.562  1.00  0.00     0.031 A 
BRANCH  50  64
ATOM     64  C   UNL     1      14.342   9.046  -1.946  1.00  0.00    -0.014 A 
ATOM     65  C   UNL     1      14.397   9.361  -3.317  1.00  0.00     0.010 A 
ATOM     66  C   UNL     1      15.415   8.350  -1.362  1.00  0.00     0.010 A 
ATOM     67  C   UNL     1      15.476   8.942  -4.098  1.00  0.00     0.020 A 
ATOM     68  C   UNL     1      16.513   7.957  -2.134  1.00  0.00     0.020 A 
ATOM     69  C   UNL     1      16.526   8.238  -3.502  1.00  0.00     0.054 A 
BRANCH  69  70
ATOM     70  S   UNL     1      17.923   7.721  -4.535  1.00  0.00     0.124 S 
ATOM     71  O   UNL     1      17.350   6.600  -5.276  1.00  0.00    -0.237 OA
ATOM     72  O   UNL     1      18.201   8.918  -5.324  1.00  0.00    -0.237 OA
ATOM     73  O   UNL     1      18.957   7.364  -3.567  1.00  0.00    -0.744 OA
ENDBRANCH  69  70
ENDBRANCH  50  64
BRANCH  51  74
ATOM     74  C   UNL     1       6.230  11.171   3.548  1.00  0.00    -0.014 A 
ATOM     75  C   UNL     1       5.573  12.407   3.410  1.00  0.00     0.010 A 
ATOM     76  C   UNL     1       5.736  10.236   4.475  1.00  0.00     0.010 A 
ATOM     77  C   UNL     1       4.462  12.714   4.202  1.00  0.00     0.020 A 
ATOM     78  C   UNL     1       4.609  10.528   5.250  1.00  0.00     0.020 A 
ATOM     79  C   UNL     1       3.987  11.772   5.119  1.00  0.00     0.054 A 
BRANCH  79  80
ATOM     80  S   UNL     1       2.520  12.174   6.108  1.00  0.00     0.124 S 
ATOM     81  O   UNL     1       3.062  13.113   7.085  1.00  0.00    -0.237 OA
ATOM     82  O   UNL     1       1.615  12.745   5.114  1.00  0.00    -0.237 OA
ATOM     83  O   UNL     1       2.106  10.880   6.645  1.00  0.00    -0.744 OA
ENDBRANCH  79  80
ENDBRANCH  51  74
BRANCH  63  84
ATOM     84  C   UNL     1      12.710  13.735   3.288  1.00  0.00    -0.014 A 
ATOM     85  C   UNL     1      13.075  13.624   4.641  1.00  0.00     0.010 A 
ATOM     86  C   UNL     1      13.027  14.911   2.583  1.00  0.00     0.010 A 
ATOM     87  C   UNL     1      13.711  14.687   5.287  1.00  0.00     0.020 A 
ATOM     88  C   UNL     1      13.687  15.964   3.218  1.00  0.00     0.020 A 
ATOM     89  C   UNL     1      14.009  15.851   4.572  1.00  0.00     0.054 A 
BRANCH  89  90
ATOM     90  S   UNL     1      14.863  17.206   5.423  1.00  0.00     0.124 S 
ATOM     91  O   UNL     1      13.788  17.785   6.223  1.00  0.00    -0.237 OA
ATOM     92  O   UNL     1      15.902  16.508   6.176  1.00  0.00    -0.237 OA
ATOM     93  O   UNL     1      15.352  18.046   4.332  1.00  0.00    -0.744 OA
ENDBRANCH  89  90
ENDBRANCH  63  84
ENDBRANCH  37  38
ENDBRANCH  29  32
ENDBRANCH  27  28
ENDBRANCH  26  27
ENDBRANCH  25  26
ENDBRANCH   1  25
TORSDOF 19
