REMARK SMILES CSCC[C@@H](C(=O)NCCCCNC(=O)c1ccc(-c2c3nc(c(-c4ccc(S(=O)(=O)[O-])cc4)c4ccc([nH]4)c(-c4ccc(S(=O)(=O)[O-])cc4)c4nc(c(-c5ccc(S(=O)(=O)[O-])cc5)c5ccc2[nH]5)C=C4)C=C3)cc1)N1C(=O)/C(=C/c2ccc(-c3ccccc3Cl)o2)SC1=S
REMARK SMILES IDX 10 1 9 2 8 3 6 4 7 5 5 7 4 8 3 9 2 10 1 11 76 12 77 13 94 14
REMARK SMILES IDX 78 15 79 16 93 17 95 18 80 19 81 20 82 21 92 22 83 23 84 24
REMARK SMILES IDX 85 25 86 26 90 27 87 28 89 29 91 30 88 31 11 32 12 33 13 34
REMARK SMILES IDX 14 35 15 37 16 38 17 39 75 40 18 41 74 42 19 43 20 44 21 45
REMARK SMILES IDX 68 46 22 47 73 48 67 49 69 50 23 51 72 52 66 53 65 54 24 56
REMARK SMILES IDX 54 57 35 58 53 59 36 60 39 61 52 62 70 63 37 64 38 65 51 67
REMARK SMILES IDX 71 68 40 69 25 70 26 71 34 72 27 73 33 74 28 75 29 76 30 77
REMARK SMILES IDX 31 78 32 79 55 80 56 81 64 82 57 83 63 84 58 85 59 86 60 87
REMARK SMILES IDX 61 88 62 89 41 90 42 91 50 92 43 93 49 94 44 95 45 96 46 97
REMARK SMILES IDX 47 98 48 99
REMARK H PARENT 8 6 13 36 69 55 39 66
REMARK Flexibility Score: inf
ROOT
ATOM      1  C   UNL     1       3.120   3.003  -0.561  1.00  0.00     0.023 C 
ENDROOT
BRANCH   1   2
ATOM      2  C   UNL     1       3.100   1.699   0.237  1.00  0.00     0.116 C 
BRANCH   2   3
ATOM      3  N   UNL     1       3.339   1.942   1.639  1.00  0.00    -0.354 N 
ATOM      4  C   UNL     1       2.488   1.900   2.700  1.00  0.00     0.243 C 
ATOM      5  O   UNL     1       3.003   2.042   3.814  1.00  0.00    -0.273 OA
ATOM      6  H   UNL     1       4.269   2.175   1.865  1.00  0.00     0.163 HD
BRANCH   4   7
ATOM      7  C   UNL     1       0.964   1.636   2.527  1.00  0.00     0.182 C 
BRANCH   7   8
ATOM      8  C   UNL     1       0.160   2.707   1.756  1.00  0.00     0.046 C 
BRANCH   8   9
ATOM      9  C   UNL     1      -0.327   2.404   0.335  1.00  0.00     0.072 C 
BRANCH   9  10
ATOM     10  S   UNL     1      -1.508   1.023   0.194  1.00  0.00    -0.165 SA
ATOM     11  C   UNL     1      -0.393  -0.338  -0.245  1.00  0.00     0.085 C 
ENDBRANCH   9  10
ENDBRANCH   8   9
ENDBRANCH   7   8
BRANCH   7  12
ATOM     12  N   UNL     1       0.441   1.422   3.909  1.00  0.00    -0.280 N 
ATOM     13  C   UNL     1       0.343   0.117   4.375  1.00  0.00     0.267 C 
ATOM     14  C   UNL     1       0.194   2.415   4.846  1.00  0.00     0.149 C 
ATOM     15  O   UNL     1       0.594  -0.897   3.736  1.00  0.00    -0.268 OA
ATOM     16  C   UNL     1      -0.156   0.093   5.778  1.00  0.00     0.084 C 
ATOM     17  S   UNL     1      -0.435   1.698   6.322  1.00  0.00    -0.054 SA
ATOM     18  S   UNL     1       0.379   4.074   4.743  1.00  0.00    -0.052 S 
ATOM     19  C   UNL     1      -0.345  -1.041   6.468  1.00  0.00     0.068 C 
BRANCH  19  20
ATOM     20  C   UNL     1      -0.944  -1.043   7.759  1.00  0.00     0.128 A 
ATOM     21  C   UNL     1      -2.240  -0.676   8.106  1.00  0.00     0.051 A 
ATOM     22  O   UNL     1      -0.294  -1.418   8.915  1.00  0.00    -0.457 OA
ATOM     23  C   UNL     1      -2.360  -0.775   9.507  1.00  0.00     0.051 A 
ATOM     24  C   UNL     1      -1.136  -1.204   9.967  1.00  0.00     0.136 A 
BRANCH  24  25
ATOM     25  C   UNL     1      -0.629  -1.471  11.307  1.00  0.00     0.036 A 
ATOM     26  C   UNL     1      -1.422  -2.249  12.172  1.00  0.00     0.013 A 
ATOM     27  C   UNL     1       0.564  -0.925  11.811  1.00  0.00     0.052 A 
ATOM     28  C   UNL     1      -1.043  -2.473  13.498  1.00  0.00     0.001 A 
ATOM     29  C   UNL     1       0.940  -1.151  13.142  1.00  0.00     0.021 A 
ATOM     30  Cl  UNL     1       1.591   0.105  10.873  1.00  0.00    -0.084 Cl
ATOM     31  C   UNL     1       0.137  -1.921  13.985  1.00  0.00     0.002 A 
ENDBRANCH  24  25
ENDBRANCH  19  20
ENDBRANCH   7  12
ENDBRANCH   4   7
ENDBRANCH   2   3
ENDBRANCH   1   2
BRANCH   1  32
ATOM     32  C   UNL     1       4.516   3.408  -1.040  1.00  0.00     0.023 C 
BRANCH  32  33
ATOM     33  C   UNL     1       5.122   2.473  -2.083  1.00  0.00     0.116 C 
BRANCH  33  34
ATOM     34  N   UNL     1       4.343   2.386  -3.312  1.00  0.00    -0.352 N 
ATOM     35  C   UNL     1       4.807   2.248  -4.600  1.00  0.00     0.251 C 
ATOM     36  H   UNL     1       3.365   2.432  -3.207  1.00  0.00     0.163 HD
ATOM     37  O   UNL     1       4.030   2.275  -5.549  1.00  0.00    -0.269 OA
BRANCH  35  38
ATOM     38  C   UNL     1       6.261   2.117  -4.819  1.00  0.00     0.039 A 
ATOM     39  C   UNL     1       6.898   3.010  -5.683  1.00  0.00     0.014 A 
ATOM     40  C   UNL     1       6.998   1.176  -4.096  1.00  0.00     0.014 A 
ATOM     41  C   UNL     1       8.292   3.014  -5.757  1.00  0.00     0.010 A 
ATOM     42  C   UNL     1       8.387   1.234  -4.115  1.00  0.00     0.010 A 
ATOM     43  C   UNL     1       9.048   2.159  -4.939  1.00  0.00    -0.014 A 
BRANCH  43  44
ATOM     44  C   UNL     1      10.531   2.221  -4.915  1.00  0.00     0.031 A 
ATOM     45  C   UNL     1      11.340   1.029  -5.345  1.00  0.00     0.074 A 
ATOM     46  C   UNL     1      11.147   3.317  -4.428  1.00  0.00     0.049 A 
ATOM     47  N   UNL     1      12.637   0.858  -5.313  1.00  0.00    -0.248 NA
ATOM     48  C   UNL     1      10.592  -0.135  -5.847  1.00  0.00     0.031 C 
ATOM     49  C   UNL     1      10.474   4.519  -3.926  1.00  0.00     0.029 A 
ATOM     50  N   UNL     1      12.481   3.595  -4.265  1.00  0.00    -0.354 N 
ATOM     51  C   UNL     1      12.857  -0.437  -5.767  1.00  0.00     0.074 A 
ATOM     52  C   UNL     1      11.559  -1.024  -6.019  1.00  0.00     0.031 C 
ATOM     53  C   UNL     1      11.399   5.411  -3.536  1.00  0.00     0.029 A 
ATOM     54  C   UNL     1      12.727   4.836  -3.725  1.00  0.00     0.049 A 
ATOM     55  H   UNL     1      13.196   2.965  -4.512  1.00  0.00     0.167 HD
ATOM     56  C   UNL     1      14.033  -1.075  -5.977  1.00  0.00     0.031 A 
ATOM     57  C   UNL     1      13.889   5.442  -3.414  1.00  0.00     0.031 A 
ATOM     58  C   UNL     1      15.322  -0.482  -5.749  1.00  0.00     0.049 A 
ATOM     59  C   UNL     1      15.184   4.724  -3.679  1.00  0.00     0.074 A 
ATOM     60  C   UNL     1      16.573  -1.025  -5.984  1.00  0.00     0.029 A 
ATOM     61  N   UNL     1      15.527   0.790  -5.238  1.00  0.00    -0.354 N 
ATOM     62  N   UNL     1      15.372   3.520  -4.165  1.00  0.00    -0.248 NA
ATOM     63  C   UNL     1      16.422   5.450  -3.365  1.00  0.00     0.031 C 
ATOM     64  C   UNL     1      17.536  -0.092  -5.583  1.00  0.00     0.029 A 
ATOM     65  C   UNL     1      16.884   1.048  -5.141  1.00  0.00     0.049 A 
ATOM     66  H   UNL     1      14.813   1.418  -4.982  1.00  0.00     0.167 HD
ATOM     67  C   UNL     1      16.750   3.355  -4.239  1.00  0.00     0.074 A 
ATOM     68  C   UNL     1      17.346   4.585  -3.760  1.00  0.00     0.031 C 
ATOM     69  C   UNL     1      17.458   2.280  -4.665  1.00  0.00     0.031 A 
BRANCH  56  70
ATOM     70  C   UNL     1      13.968  -2.490  -6.486  1.00  0.00    -0.014 A 
ATOM     71  C   UNL     1      13.549  -2.766  -7.801  1.00  0.00     0.010 A 
ATOM     72  C   UNL     1      14.346  -3.555  -5.650  1.00  0.00     0.010 A 
ATOM     73  C   UNL     1      13.460  -4.084  -8.253  1.00  0.00     0.020 A 
ATOM     74  C   UNL     1      14.286  -4.875  -6.108  1.00  0.00     0.020 A 
ATOM     75  C   UNL     1      13.823  -5.131  -7.401  1.00  0.00     0.054 A 
BRANCH  75  76
ATOM     76  S   UNL     1      13.706  -6.833  -8.016  1.00  0.00     0.124 S 
ATOM     77  O   UNL     1      12.265  -7.070  -7.968  1.00  0.00    -0.237 OA
ATOM     78  O   UNL     1      14.282  -6.733  -9.354  1.00  0.00    -0.237 OA
ATOM     79  O   UNL     1      14.496  -7.603  -7.058  1.00  0.00    -0.744 OA
ENDBRANCH  75  76
ENDBRANCH  56  70
BRANCH  57  80
ATOM     80  C   UNL     1      13.881   6.814  -2.840  1.00  0.00    -0.014 A 
ATOM     81  C   UNL     1      14.282   7.913  -3.619  1.00  0.00     0.010 A 
ATOM     82  C   UNL     1      13.456   7.032  -1.516  1.00  0.00     0.010 A 
ATOM     83  C   UNL     1      14.275   9.204  -3.082  1.00  0.00     0.020 A 
ATOM     84  C   UNL     1      13.425   8.324  -0.983  1.00  0.00     0.020 A 
ATOM     85  C   UNL     1      13.846   9.401  -1.766  1.00  0.00     0.054 A 
BRANCH  85  86
ATOM     86  S   UNL     1      13.791  11.091  -1.107  1.00  0.00     0.124 S 
ATOM     87  O   UNL     1      15.201  11.358  -0.840  1.00  0.00    -0.237 OA
ATOM     88  O   UNL     1      13.201  11.844  -2.211  1.00  0.00    -0.237 OA
ATOM     89  O   UNL     1      12.941  10.967   0.075  1.00  0.00    -0.744 OA
ENDBRANCH  85  86
ENDBRANCH  57  80
BRANCH  69  90
ATOM     90  C   UNL     1      18.958   2.396  -4.664  1.00  0.00    -0.014 A 
ATOM     91  C   UNL     1      19.690   2.341  -3.465  1.00  0.00     0.010 A 
ATOM     92  C   UNL     1      19.645   2.501  -5.887  1.00  0.00     0.010 A 
ATOM     93  C   UNL     1      21.085   2.416  -3.488  1.00  0.00     0.020 A 
ATOM     94  C   UNL     1      21.041   2.552  -5.915  1.00  0.00     0.020 A 
ATOM     95  C   UNL     1      21.752   2.522  -4.714  1.00  0.00     0.054 A 
BRANCH  95  96
ATOM     96  S   UNL     1      23.565   2.569  -4.722  1.00  0.00     0.124 S 
ATOM     97  O   UNL     1      23.835   3.936  -4.288  1.00  0.00    -0.237 OA
ATOM     98  O   UNL     1      23.919   1.523  -3.765  1.00  0.00    -0.237 OA
ATOM     99  O   UNL     1      23.911   2.275  -6.111  1.00  0.00    -0.744 OA
ENDBRANCH  95  96
ENDBRANCH  69  90
ENDBRANCH  43  44
ENDBRANCH  35  38
ENDBRANCH  33  34
ENDBRANCH  32  33
ENDBRANCH   1  32
TORSDOF 20
