REMARK SMILES Cc1cc(C(=O)NCCCCNC(=O)c2ccc(-c3c4nc(c(-c5ccc(S(=O)(=O)[O-])cc5)c5ccc([nH]5)c(-c5ccc(S(=O)(=O)[O-])cc5)c5nc(c(-c6ccc(S(=O)(=O)[O-])cc6)c6ccc3[nH]6)C=C5)C=C4)cc2)cc(S(=O)(=O)NNC(=O)c2c[nH]c3ccccc23)c1C
REMARK SMILES IDX 9 1 8 2 7 3 5 4 6 5 4 7 1 8 2 9 3 10 93 11 76 12 94 13 75 14
REMARK SMILES IDX 77 15 78 16 79 17 80 18 81 20 82 21 83 23 84 24 85 25 92 26
REMARK SMILES IDX 86 27 87 28 91 29 88 31 90 32 89 33 10 34 11 35 12 36 13 37
REMARK SMILES IDX 14 39 15 40 16 41 74 42 17 43 73 44 18 45 19 46 20 47 67 48
REMARK SMILES IDX 21 49 72 50 66 51 68 52 22 53 71 54 65 55 64 56 23 58 53 59
REMARK SMILES IDX 34 60 52 61 35 62 38 63 51 64 69 65 36 66 37 67 50 69 70 70
REMARK SMILES IDX 39 71 24 72 25 73 33 74 26 75 32 76 27 77 28 78 29 79 30 80
REMARK SMILES IDX 31 81 54 82 55 83 63 84 56 85 62 86 57 87 58 88 59 89 60 90
REMARK SMILES IDX 61 91 40 92 41 93 49 94 42 95 48 96 43 97 44 98 45 99 46 100
REMARK SMILES IDX 47 101
REMARK H PARENT 7 6 80 19 81 22 86 30 12 38 68 57 38 68
REMARK Flexibility Score: inf
ROOT
ATOM      1  C   UNL     1      -1.880   4.291  -0.742  1.00  0.00     0.023 C 
ENDROOT
BRANCH   1   2
ATOM      2  C   UNL     1      -2.330   3.493   0.487  1.00  0.00     0.116 C 
BRANCH   2   3
ATOM      3  N   UNL     1      -3.284   2.459   0.124  1.00  0.00    -0.352 N 
ATOM      4  C   UNL     1      -3.171   1.125  -0.178  1.00  0.00     0.251 C 
ATOM      5  O   UNL     1      -4.214   0.514  -0.424  1.00  0.00    -0.269 OA
ATOM      6  H   UNL     1      -4.212   2.785   0.088  1.00  0.00     0.163 HD
BRANCH   4   7
ATOM      7  C   UNL     1      -1.889   0.356  -0.208  1.00  0.00     0.041 A 
ATOM      8  C   UNL     1       1.877   0.877  -0.239  1.00  0.00     0.044 C 
ATOM      9  C   UNL     1       0.553   0.156  -0.251  1.00  0.00    -0.046 A 
ATOM     10  C   UNL     1      -0.621   0.930  -0.290  1.00  0.00     0.017 A 
ATOM     11  C   UNL     1       0.458  -1.250  -0.234  1.00  0.00    -0.028 A 
ATOM     12  C   UNL     1      -0.831  -1.839  -0.281  1.00  0.00     0.088 A 
ATOM     13  C   UNL     1       1.701  -2.107  -0.181  1.00  0.00     0.046 C 
ATOM     14  C   UNL     1      -1.983  -1.046  -0.219  1.00  0.00     0.036 A 
BRANCH  12  15
ATOM     15  S   UNL     1      -0.960  -3.589  -0.597  1.00  0.00     0.257 S 
ATOM     16  O   UNL     1      -0.437  -3.791  -1.947  1.00  0.00    -0.205 OA
ATOM     17  O   UNL     1      -0.399  -4.281   0.526  1.00  0.00    -0.205 OA
BRANCH  15  18
ATOM     18  N   UNL     1      -2.604  -4.031  -0.608  1.00  0.00    -0.123 NA
ATOM     19  H   UNL     1      -3.041  -3.546   0.175  1.00  0.00     0.167 HD
BRANCH  18  20
ATOM     20  N   UNL     1      -3.446  -3.768  -1.786  1.00  0.00    -0.273 N 
ATOM     21  C   UNL     1      -4.383  -4.708  -2.195  1.00  0.00     0.268 C 
ATOM     22  H   UNL     1      -3.344  -2.925  -2.285  1.00  0.00     0.186 HD
ATOM     23  O   UNL     1      -5.588  -4.520  -2.049  1.00  0.00    -0.268 OA
BRANCH  21  24
ATOM     24  C   UNL     1      -3.840  -5.732  -3.088  1.00  0.00     0.066 A 
ATOM     25  C   UNL     1      -2.505  -5.905  -3.410  1.00  0.00     0.097 A 
ATOM     26  C   UNL     1      -4.552  -6.611  -3.970  1.00  0.00     0.012 A 
ATOM     27  N   UNL     1      -2.474  -6.334  -4.709  1.00  0.00    -0.360 N 
ATOM     28  C   UNL     1      -3.716  -6.782  -5.076  1.00  0.00     0.046 A 
ATOM     29  C   UNL     1      -5.852  -7.153  -4.030  1.00  0.00     0.011 A 
ATOM     30  H   UNL     1      -1.680  -6.323  -5.291  1.00  0.00     0.166 HD
ATOM     31  C   UNL     1      -4.165  -7.290  -6.297  1.00  0.00     0.027 A 
ATOM     32  C   UNL     1      -6.271  -7.798  -5.203  1.00  0.00     0.001 A 
ATOM     33  C   UNL     1      -5.460  -7.809  -6.336  1.00  0.00     0.002 A 
ENDBRANCH  21  24
ENDBRANCH  18  20
ENDBRANCH  15  18
ENDBRANCH  12  15
ENDBRANCH   4   7
ENDBRANCH   2   3
ENDBRANCH   1   2
BRANCH   1  34
ATOM     34  C   UNL     1      -2.876   5.366  -1.194  1.00  0.00     0.023 C 
BRANCH  34  35
ATOM     35  C   UNL     1      -3.075   6.519  -0.213  1.00  0.00     0.116 C 
BRANCH  35  36
ATOM     36  N   UNL     1      -1.857   7.270   0.052  1.00  0.00    -0.352 N 
ATOM     37  C   UNL     1      -1.725   8.603   0.365  1.00  0.00     0.251 C 
ATOM     38  H   UNL     1      -1.018   6.757   0.001  1.00  0.00     0.163 HD
ATOM     39  O   UNL     1      -0.609   9.104   0.460  1.00  0.00    -0.269 OA
BRANCH  37  40
ATOM     40  C   UNL     1      -2.936   9.435   0.539  1.00  0.00     0.039 A 
ATOM     41  C   UNL     1      -3.018  10.655  -0.138  1.00  0.00     0.014 A 
ATOM     42  C   UNL     1      -3.996   9.001   1.338  1.00  0.00     0.014 A 
ATOM     43  C   UNL     1      -4.195  11.405  -0.072  1.00  0.00     0.010 A 
ATOM     44  C   UNL     1      -5.190   9.717   1.351  1.00  0.00     0.010 A 
ATOM     45  C   UNL     1      -5.304  10.923   0.642  1.00  0.00    -0.014 A 
BRANCH  45  46
ATOM     46  C   UNL     1      -6.597  11.653   0.644  1.00  0.00     0.031 A 
ATOM     47  C   UNL     1      -7.145  12.225   1.923  1.00  0.00     0.074 A 
ATOM     48  C   UNL     1      -7.317  11.735  -0.493  1.00  0.00     0.049 A 
ATOM     49  N   UNL     1      -8.282  12.838   2.131  1.00  0.00    -0.248 NA
ATOM     50  C   UNL     1      -6.318  12.063   3.129  1.00  0.00     0.031 C 
ATOM     51  C   UNL     1      -6.920  11.179  -1.789  1.00  0.00     0.029 A 
ATOM     52  N   UNL     1      -8.539  12.308  -0.740  1.00  0.00    -0.354 N 
ATOM     53  C   UNL     1      -8.316  13.118   3.492  1.00  0.00     0.074 A 
ATOM     54  C   UNL     1      -7.108  12.566   4.066  1.00  0.00     0.031 C 
ATOM     55  C   UNL     1      -7.869  11.458  -2.697  1.00  0.00     0.029 A 
ATOM     56  C   UNL     1      -8.957  12.179  -2.043  1.00  0.00     0.049 A 
ATOM     57  H   UNL     1      -9.067  12.769  -0.048  1.00  0.00     0.167 HD
ATOM     58  C   UNL     1      -9.258  13.789   4.198  1.00  0.00     0.031 A 
ATOM     59  C   UNL     1     -10.089  12.590  -2.647  1.00  0.00     0.031 A 
ATOM     60  C   UNL     1     -10.455  14.344   3.623  1.00  0.00     0.049 A 
ATOM     61  C   UNL     1     -11.119  13.337  -1.846  1.00  0.00     0.074 A 
ATOM     62  C   UNL     1     -11.442  15.090   4.243  1.00  0.00     0.029 A 
ATOM     63  N   UNL     1     -10.830  14.210   2.295  1.00  0.00    -0.354 N 
ATOM     64  N   UNL     1     -11.101  13.652  -0.573  1.00  0.00    -0.248 NA
ATOM     65  C   UNL     1     -12.315  13.795  -2.566  1.00  0.00     0.031 C 
ATOM     66  C   UNL     1     -12.436  15.369   3.299  1.00  0.00     0.029 A 
ATOM     67  C   UNL     1     -12.043  14.842   2.079  1.00  0.00     0.049 A 
ATOM     68  H   UNL     1     -10.311  13.735   1.607  1.00  0.00     0.167 HD
ATOM     69  C   UNL     1     -12.272  14.367  -0.344  1.00  0.00     0.074 A 
ATOM     70  C   UNL     1     -12.967  14.447  -1.613  1.00  0.00     0.031 C 
ATOM     71  C   UNL     1     -12.727  14.909   0.812  1.00  0.00     0.031 A 
BRANCH  58  72
ATOM     72  C   UNL     1      -9.027  13.948   5.678  1.00  0.00    -0.014 A 
ATOM     73  C   UNL     1      -8.004  14.781   6.168  1.00  0.00     0.010 A 
ATOM     74  C   UNL     1      -9.848  13.264   6.593  1.00  0.00     0.010 A 
ATOM     75  C   UNL     1      -7.771  14.882   7.542  1.00  0.00     0.020 A 
ATOM     76  C   UNL     1      -9.636  13.386   7.969  1.00  0.00     0.020 A 
ATOM     77  C   UNL     1      -8.583  14.176   8.434  1.00  0.00     0.054 A 
BRANCH  77  78
ATOM     78  S   UNL     1      -8.254  14.319  10.211  1.00  0.00     0.124 S 
ATOM     79  O   UNL     1      -7.058  13.494  10.362  1.00  0.00    -0.237 OA
ATOM     80  O   UNL     1      -8.050  15.755  10.387  1.00  0.00    -0.237 OA
ATOM     81  O   UNL     1      -9.462  13.784  10.832  1.00  0.00    -0.744 OA
ENDBRANCH  77  78
ENDBRANCH  58  72
BRANCH  59  82
ATOM     82  C   UNL     1     -10.290  12.322  -4.096  1.00  0.00    -0.014 A 
ATOM     83  C   UNL     1     -10.187  13.365  -5.033  1.00  0.00     0.010 A 
ATOM     84  C   UNL     1     -10.546  11.015  -4.552  1.00  0.00     0.010 A 
ATOM     85  C   UNL     1     -10.343  13.109  -6.398  1.00  0.00     0.020 A 
ATOM     86  C   UNL     1     -10.678  10.751  -5.918  1.00  0.00     0.020 A 
ATOM     87  C   UNL     1     -10.582  11.802  -6.833  1.00  0.00     0.054 A 
BRANCH  87  88
ATOM     88  S   UNL     1     -10.706  11.482  -8.615  1.00  0.00     0.124 S 
ATOM     89  O   UNL     1     -12.027  12.016  -8.929  1.00  0.00    -0.237 OA
ATOM     90  O   UNL     1      -9.574  12.235  -9.150  1.00  0.00    -0.237 OA
ATOM     91  O   UNL     1     -10.576  10.029  -8.710  1.00  0.00    -0.744 OA
ENDBRANCH  87  88
ENDBRANCH  59  82
BRANCH  71  92
ATOM     92  C   UNL     1     -14.028  15.665   0.757  1.00  0.00    -0.014 A 
ATOM     93  C   UNL     1     -15.256  14.993   0.629  1.00  0.00     0.010 A 
ATOM     94  C   UNL     1     -14.022  17.065   0.894  1.00  0.00     0.010 A 
ATOM     95  C   UNL     1     -16.455  15.711   0.611  1.00  0.00     0.020 A 
ATOM     96  C   UNL     1     -15.220  17.784   0.902  1.00  0.00     0.020 A 
ATOM     97  C   UNL     1     -16.429  17.103   0.747  1.00  0.00     0.054 A 
BRANCH  97  98
ATOM     98  S   UNL     1     -18.000  18.009   0.768  1.00  0.00     0.124 S 
ATOM     99  O   UNL     1     -18.385  17.983  -0.641  1.00  0.00    -0.237 OA
ATOM    100  O   UNL     1     -18.826  17.199   1.660  1.00  0.00    -0.237 OA
ATOM    101  O   UNL     1     -17.634  19.324   1.290  1.00  0.00    -0.744 OA
ENDBRANCH  97  98
ENDBRANCH  71  92
ENDBRANCH  45  46
ENDBRANCH  37  40
ENDBRANCH  35  36
ENDBRANCH  34  35
ENDBRANCH   1  34
TORSDOF 18
