REMARK SMILES O=C(NCCCCNC(=O)[C@H]1O[C@@H](Oc2c(-c3cc(O)c(O)c(O)c3)oc3cc(O)cc(O)c3c2=O)[C@H](O)[C@@H](O)[C@@H]1O)c1ccc(-c2c3nc(c(-c4ccc(S(=O)(=O)[O-])cc4)c4ccc([nH]4)c(-c4ccc(S(=O)(=O)[O-])cc4)c4nc(c(-c5ccc(S(=O)(=O)[O-])cc5)c5ccc2[nH]5)C=C4)C=C3)cc1
REMARK SMILES IDX 6 1 5 2 4 3 3 4 1 5 2 6 43 8 44 9 102 10 45 11 101 12 46 13
REMARK SMILES IDX 47 14 48 15 95 16 49 17 100 18 94 19 96 20 50 21 99 22 93 23
REMARK SMILES IDX 92 24 51 26 81 27 62 28 80 29 63 30 66 31 79 32 97 33 64 34
REMARK SMILES IDX 65 35 78 37 98 38 67 39 52 40 53 41 61 42 54 43 60 44 55 45
REMARK SMILES IDX 56 46 57 47 58 48 59 49 82 50 83 51 91 52 84 53 90 54 85 55
REMARK SMILES IDX 86 56 87 57 88 58 89 59 68 60 69 61 77 62 70 63 76 64 71 65
REMARK SMILES IDX 72 66 73 67 74 68 75 69 7 70 8 71 9 72 10 74 11 75 12 76
REMARK SMILES IDX 41 77 13 78 39 79 37 80 42 81 14 83 15 84 16 85 35 86 26 87
REMARK SMILES IDX 34 88 36 89 27 90 32 91 28 92 31 93 29 94 17 95 18 96 25 97
REMARK SMILES IDX 19 98 23 99 21 100 20 101 24 103 22 105 33 107 30 109 40 111
REMARK SMILES IDX 38 113
REMARK H PARENT 3 7 96 25 66 36 8 73 42 82 20 102 24 104 22 106 33 108 30 110
REMARK H PARENT 40 112 38 114
REMARK Flexibility Score: inf
ROOT
ATOM      1  C   UNL     1       5.308  -7.210   7.147  1.00  0.00     0.023 C 
ENDROOT
BRANCH   1   2
ATOM      2  C   UNL     1       4.906  -6.776   8.550  1.00  0.00     0.023 C 
BRANCH   2   3
ATOM      3  C   UNL     1       3.524  -7.241   8.975  1.00  0.00     0.116 C 
BRANCH   3   4
ATOM      4  N   UNL     1       3.358  -8.690   8.909  1.00  0.00    -0.352 N 
ATOM      5  O   UNL     1       2.805 -10.739   9.693  1.00  0.00    -0.269 OA
ATOM      6  C   UNL     1       2.742  -9.517   9.815  1.00  0.00     0.251 C 
ATOM      7  H   UNL     1       3.736  -9.130   8.113  1.00  0.00     0.163 HD
BRANCH   6   8
ATOM      8  C   UNL     1       2.057  -8.918  10.973  1.00  0.00     0.039 A 
ATOM      9  C   UNL     1       1.195  -7.830  10.805  1.00  0.00     0.014 A 
ATOM     10  C   UNL     1       2.329  -9.424  12.245  1.00  0.00     0.014 A 
ATOM     11  C   UNL     1       0.715  -7.158  11.920  1.00  0.00     0.010 A 
ATOM     12  C   UNL     1       1.778  -8.797  13.360  1.00  0.00     0.010 A 
ATOM     13  C   UNL     1       0.994  -7.643  13.205  1.00  0.00    -0.014 A 
BRANCH  13  14
ATOM     14  C   UNL     1       0.416  -6.972  14.390  1.00  0.00     0.031 A 
ATOM     15  C   UNL     1       1.302  -6.304  15.400  1.00  0.00     0.074 A 
ATOM     16  C   UNL     1      -0.918  -7.005  14.558  1.00  0.00     0.049 A 
ATOM     17  N   UNL     1       0.977  -5.755  16.541  1.00  0.00    -0.248 NA
ATOM     18  C   UNL     1       2.741  -6.256  15.096  1.00  0.00     0.031 C 
ATOM     19  C   UNL     1      -1.869  -7.626  13.631  1.00  0.00     0.029 A 
ATOM     20  N   UNL     1      -1.705  -6.516  15.566  1.00  0.00    -0.354 N 
ATOM     21  C   UNL     1       2.170  -5.327  17.109  1.00  0.00     0.074 A 
ATOM     22  C   UNL     1       3.229  -5.691  16.192  1.00  0.00     0.031 C 
ATOM     23  C   UNL     1      -3.112  -7.467  14.106  1.00  0.00     0.029 A 
ATOM     24  C   UNL     1      -3.039  -6.793  15.397  1.00  0.00     0.049 A 
ATOM     25  H   UNL     1      -1.349  -6.015  16.335  1.00  0.00     0.167 HD
ATOM     26  C   UNL     1       2.361  -4.694  18.292  1.00  0.00     0.031 A 
ATOM     27  C   UNL     1      -4.089  -6.563  16.206  1.00  0.00     0.031 A 
ATOM     28  C   UNL     1       1.295  -4.343  19.193  1.00  0.00     0.049 A 
ATOM     29  C   UNL     1      -3.855  -5.877  17.517  1.00  0.00     0.074 A 
ATOM     30  C   UNL     1       1.373  -3.678  20.404  1.00  0.00     0.029 A 
ATOM     31  N   UNL     1      -0.046  -4.634  18.982  1.00  0.00    -0.354 N 
ATOM     32  N   UNL     1      -2.722  -5.462  18.033  1.00  0.00    -0.248 NA
ATOM     33  C   UNL     1      -5.033  -5.623  18.354  1.00  0.00     0.031 C 
ATOM     34  C   UNL     1       0.084  -3.605  20.945  1.00  0.00     0.029 A 
ATOM     35  C   UNL     1      -0.803  -4.179  20.047  1.00  0.00     0.049 A 
ATOM     36  H   UNL     1      -0.406  -5.096  18.191  1.00  0.00     0.167 HD
ATOM     37  C   UNL     1      -3.051  -4.879  19.248  1.00  0.00     0.074 A 
ATOM     38  C   UNL     1      -4.491  -4.990  19.387  1.00  0.00     0.031 C 
ATOM     39  C   UNL     1      -2.236  -4.300  20.163  1.00  0.00     0.031 A 
BRANCH  26  40
ATOM     40  C   UNL     1       3.780  -4.387  18.692  1.00  0.00    -0.014 A 
ATOM     41  C   UNL     1       4.527  -3.390  18.039  1.00  0.00     0.010 A 
ATOM     42  C   UNL     1       4.375  -5.111  19.741  1.00  0.00     0.010 A 
ATOM     43  C   UNL     1       5.861  -3.163  18.390  1.00  0.00     0.020 A 
ATOM     44  C   UNL     1       5.701  -4.870  20.111  1.00  0.00     0.020 A 
ATOM     45  C   UNL     1       6.444  -3.914  19.415  1.00  0.00     0.054 A 
BRANCH  45  46
ATOM     46  S   UNL     1       8.185  -3.622  19.835  1.00  0.00     0.124 S 
ATOM     47  O   UNL     1       8.873  -4.307  18.744  1.00  0.00    -0.237 OA
ATOM     48  O   UNL     1       8.281  -2.165  19.821  1.00  0.00    -0.237 OA
ATOM     49  O   UNL     1       8.331  -4.240  21.150  1.00  0.00    -0.744 OA
ENDBRANCH  45  46
ENDBRANCH  26  40
BRANCH  27  50
ATOM     50  C   UNL     1      -5.439  -7.005  15.774  1.00  0.00    -0.014 A 
ATOM     51  C   UNL     1      -6.376  -6.073  15.300  1.00  0.00     0.010 A 
ATOM     52  C   UNL     1      -5.752  -8.377  15.733  1.00  0.00     0.010 A 
ATOM     53  C   UNL     1      -7.599  -6.505  14.781  1.00  0.00     0.020 A 
ATOM     54  C   UNL     1      -6.964  -8.814  15.192  1.00  0.00     0.020 A 
ATOM     55  C   UNL     1      -7.881  -7.874  14.721  1.00  0.00     0.054 A 
BRANCH  55  56
ATOM     56  S   UNL     1      -9.427  -8.417  13.940  1.00  0.00     0.124 S 
ATOM     57  O   UNL     1     -10.410  -8.117  14.975  1.00  0.00    -0.237 OA
ATOM     58  O   UNL     1      -9.489  -7.579  12.745  1.00  0.00    -0.237 OA
ATOM     59  O   UNL     1      -9.198  -9.837  13.683  1.00  0.00    -0.744 OA
ENDBRANCH  55  56
ENDBRANCH  27  50
BRANCH  39  60
ATOM     60  C   UNL     1      -2.882  -3.706  21.382  1.00  0.00    -0.014 A 
ATOM     61  C   UNL     1      -3.331  -4.521  22.436  1.00  0.00     0.010 A 
ATOM     62  C   UNL     1      -2.964  -2.307  21.506  1.00  0.00     0.010 A 
ATOM     63  C   UNL     1      -3.863  -3.944  23.591  1.00  0.00     0.020 A 
ATOM     64  C   UNL     1      -3.476  -1.728  22.668  1.00  0.00     0.020 A 
ATOM     65  C   UNL     1      -3.929  -2.551  23.701  1.00  0.00     0.054 A 
BRANCH  65  66
ATOM     66  S   UNL     1      -4.554  -1.823  25.241  1.00  0.00     0.124 S 
ATOM     67  O   UNL     1      -5.994  -2.028  25.111  1.00  0.00    -0.237 OA
ATOM     68  O   UNL     1      -3.895  -2.627  26.267  1.00  0.00    -0.237 OA
ATOM     69  O   UNL     1      -4.113  -0.432  25.170  1.00  0.00    -0.744 OA
ENDBRANCH  65  66
ENDBRANCH  39  60
ENDBRANCH  13  14
ENDBRANCH   6   8
ENDBRANCH   3   4
ENDBRANCH   2   3
ENDBRANCH   1   2
BRANCH   1  70
ATOM     70  C   UNL     1       4.424  -6.679   6.025  1.00  0.00     0.116 C 
BRANCH  70  71
ATOM     71  N   UNL     1       4.640  -5.269   5.815  1.00  0.00    -0.354 N 
ATOM     72  C   UNL     1       5.648  -4.674   5.112  1.00  0.00     0.252 C 
ATOM     73  H   UNL     1       3.983  -4.664   6.229  1.00  0.00     0.163 HD
ATOM     74  O   UNL     1       5.784  -3.453   5.223  1.00  0.00    -0.272 OA
BRANCH  72  75
ATOM     75  C   UNL     1       6.546  -5.499   4.165  1.00  0.00     0.242 C 
ATOM     76  O   UNL     1       7.014  -6.745   4.708  1.00  0.00    -0.324 OA
ATOM     77  C   UNL     1       5.804  -5.774   2.851  1.00  0.00     0.184 C 
ATOM     78  C   UNL     1       8.045  -7.324   3.913  1.00  0.00     0.340 C 
ATOM     79  C   UNL     1       6.771  -6.426   1.860  1.00  0.00     0.181 C 
ATOM     80  C   UNL     1       7.539  -7.595   2.478  1.00  0.00     0.214 C 
BRANCH  77  81
ATOM     81  O   UNL     1       5.285  -4.593   2.237  1.00  0.00    -0.387 OA
ATOM     82  H   UNL     1       6.017  -3.999   2.008  1.00  0.00     0.211 HD
ENDBRANCH  77  81
BRANCH  78  83
ATOM     83  O   UNL     1       8.622  -8.560   4.415  1.00  0.00    -0.454 OA
BRANCH  83  84
ATOM     84  C   UNL     1       7.865  -9.357   5.261  1.00  0.00     0.214 A 
ATOM     85  C   UNL     1       7.187 -10.448   4.844  1.00  0.00     0.181 A 
ATOM     86  C   UNL     1       8.024  -9.178   6.740  1.00  0.00     0.239 A 
ATOM     87  O   UNL     1       6.482 -11.311   5.651  1.00  0.00    -0.452 OA
ATOM     88  C   UNL     1       7.255 -10.105   7.618  1.00  0.00     0.111 A 
ATOM     89  O   UNL     1       8.763  -8.300   7.169  1.00  0.00    -0.285 OA
ATOM     90  C   UNL     1       6.505 -11.111   7.003  1.00  0.00     0.146 A 
ATOM     91  C   UNL     1       7.193  -9.985   9.017  1.00  0.00     0.134 A 
ATOM     92  C   UNL     1       5.697 -11.970   7.750  1.00  0.00     0.094 A 
ATOM     93  C   UNL     1       6.382 -10.839   9.771  1.00  0.00     0.093 A 
ATOM     94  C   UNL     1       5.632 -11.810   9.123  1.00  0.00     0.123 A 
BRANCH  85  95
ATOM     95  C   UNL     1       7.117 -10.833   3.429  1.00  0.00     0.029 A 
ATOM     96  C   UNL     1       5.894 -10.740   2.742  1.00  0.00     0.062 A 
ATOM     97  C   UNL     1       8.284 -11.193   2.738  1.00  0.00     0.062 A 
ATOM     98  C   UNL     1       5.878 -10.879   1.360  1.00  0.00     0.162 A 
ATOM     99  C   UNL     1       8.241 -11.347   1.360  1.00  0.00     0.162 A 
ATOM    100  C   UNL     1       7.052 -11.151   0.669  1.00  0.00     0.200 A 
BRANCH  98 101
ATOM    101  O   UNL     1       4.705 -10.681   0.693  1.00  0.00    -0.504 OA
ATOM    102  H   UNL     1       3.920 -10.499   1.171  1.00  0.00     0.293 HD
ENDBRANCH  98 101
BRANCH  99 103
ATOM    103  O   UNL     1       9.399 -11.607   0.688  1.00  0.00    -0.504 OA
ATOM    104  H   UNL     1       9.387 -11.713  -0.243  1.00  0.00     0.293 HD
ENDBRANCH  99 103
BRANCH 100 105
ATOM    105  O   UNL     1       7.074 -11.140  -0.699  1.00  0.00    -0.502 OA
ATOM    106  H   UNL     1       6.280 -11.009  -1.179  1.00  0.00     0.293 HD
ENDBRANCH 100 105
ENDBRANCH  85  95
BRANCH  91 107
ATOM    107  O   UNL     1       7.888  -9.007   9.668  1.00  0.00    -0.507 OA
ATOM    108  H   UNL     1       7.837  -8.938  10.601  1.00  0.00     0.293 HD
ENDBRANCH  91 107
BRANCH  94 109
ATOM    109  O   UNL     1       4.763 -12.576   9.839  1.00  0.00    -0.508 OA
ATOM    110  H   UNL     1       4.253 -13.234   9.408  1.00  0.00     0.293 HD
ENDBRANCH  94 109
ENDBRANCH  83  84
ENDBRANCH  78  83
BRANCH  79 111
ATOM    111  O   UNL     1       6.001  -6.858   0.713  1.00  0.00    -0.387 OA
ATOM    112  H   UNL     1       5.335  -7.504   0.995  1.00  0.00     0.211 HD
ENDBRANCH  79 111
BRANCH  80 113
ATOM    113  O   UNL     1       8.609  -7.974   1.602  1.00  0.00    -0.384 OA
ATOM    114  H   UNL     1       9.230  -7.234   1.511  1.00  0.00     0.211 HD
ENDBRANCH  80 113
ENDBRANCH  72  75
ENDBRANCH  70  71
ENDBRANCH   1  70
TORSDOF 25
