REMARK SMILES C[C@H]1N=N[C@H](S/C(=C/c2ccc(-c3cccc(Cl)c3)o2)C(=O)NCCCCNC(=O)c2ccc(-c3c4nc(c(-c5ccc(S(=O)(=O)[O-])cc5)c5ccc([nH]5)c(-c5ccc(S(=O)(=O)[O-])cc5)c5nc(c(-c6ccc(S(=O)(=O)[O-])cc6)c6ccc3[nH]6)C=C5)C=C4)cc2)[NH2+]1
REMARK SMILES IDX 26 1 25 2 24 3 23 4 21 5 22 6 7 8 8 9 6 10 5 11 1 12 2 13
REMARK SMILES IDX 3 14 91 15 4 16 9 19 10 20 20 21 11 22 12 23 13 24 14 25
REMARK SMILES IDX 19 26 15 27 17 28 16 29 18 30 27 31 28 32 29 33 30 35 31 36
REMARK SMILES IDX 32 37 90 38 33 39 89 40 34 41 35 42 36 43 83 44 37 45 88 46
REMARK SMILES IDX 82 47 84 48 38 49 87 50 81 51 80 52 39 54 69 55 50 56 68 57
REMARK SMILES IDX 51 58 54 59 67 60 85 61 52 62 53 63 66 65 86 66 55 67 40 68
REMARK SMILES IDX 41 69 49 70 42 71 48 72 43 73 44 74 45 75 46 76 47 77 70 78
REMARK SMILES IDX 71 79 79 80 72 81 78 82 73 83 74 84 75 85 76 86 77 87 56 88
REMARK SMILES IDX 57 89 65 90 58 91 64 92 59 93 60 94 61 95 62 96 63 97
REMARK H PARENT 23 7 91 17 91 18 28 34 84 53 54 64
REMARK Flexibility Score: inf
ROOT
ATOM      1  C   UNL     1      -4.186 -10.105   2.068  1.00  0.00     0.023 C 
ENDROOT
BRANCH   1   2
ATOM      2  C   UNL     1      -3.422  -8.830   2.417  1.00  0.00     0.023 C 
BRANCH   2   3
ATOM      3  C   UNL     1      -2.327  -8.363   1.472  1.00  0.00     0.116 C 
BRANCH   3   4
ATOM      4  N   UNL     1      -2.704  -7.834   0.182  1.00  0.00    -0.352 N 
ATOM      5  C   UNL     1      -1.968  -7.017  -0.647  1.00  0.00     0.258 C 
ATOM      6  O   UNL     1      -2.336  -6.907  -1.820  1.00  0.00    -0.269 OA
ATOM      7  H   UNL     1      -3.597  -8.088  -0.145  1.00  0.00     0.163 HD
BRANCH   5   8
ATOM      8  C   UNL     1      -0.813  -6.171  -0.132  1.00  0.00     0.084 C 
ATOM      9  C   UNL     1       0.279  -6.597   0.529  1.00  0.00     0.068 C 
BRANCH   8  10
ATOM     10  S   UNL     1      -1.101  -4.454  -0.432  1.00  0.00    -0.030 SA
BRANCH  10  11
ATOM     11  C   UNL     1       0.536  -3.643  -0.535  1.00  0.00     0.393 C 
ATOM     12  C   UNL     1       1.081  -0.141  -0.137  1.00  0.00     0.106 C 
ATOM     13  C   UNL     1       0.376  -1.412  -0.586  1.00  0.00     0.324 C 
ATOM     14  N   UNL     1       0.932  -1.878  -1.865  1.00  0.00    -0.126 NA
ATOM     15  N   UNL     1       0.540  -2.495   0.384  1.00  0.00    -0.293 N 
ATOM     16  N   UNL     1       0.954  -3.135  -1.863  1.00  0.00    -0.115 NA
ATOM     17  H   UNL     1      -0.236  -2.534   1.046  1.00  0.00     0.350 HD
ATOM     18  H   UNL     1       1.361  -2.421   0.984  1.00  0.00     0.350 HD
ENDBRANCH  10  11
ENDBRANCH   8  10
BRANCH   9  19
ATOM     19  C   UNL     1       0.597  -7.936   0.860  1.00  0.00     0.128 A 
ATOM     20  C   UNL     1       0.829  -9.062   0.084  1.00  0.00     0.051 A 
ATOM     21  O   UNL     1       0.698  -8.313   2.180  1.00  0.00    -0.457 OA
ATOM     22  C   UNL     1       1.021 -10.159   0.969  1.00  0.00     0.051 A 
ATOM     23  C   UNL     1       0.876  -9.659   2.245  1.00  0.00     0.134 A 
BRANCH  23  24
ATOM     24  C   UNL     1       0.760 -10.255   3.570  1.00  0.00     0.019 A 
ATOM     25  C   UNL     1       1.402 -11.462   3.869  1.00  0.00     0.012 A 
ATOM     26  C   UNL     1      -0.110  -9.703   4.526  1.00  0.00     0.032 A 
ATOM     27  C   UNL     1       1.156 -12.122   5.078  1.00  0.00     0.002 A 
ATOM     28  C   UNL     1      -0.371 -10.377   5.720  1.00  0.00     0.041 A 
ATOM     29  C   UNL     1       0.255 -11.588   5.998  1.00  0.00     0.020 A 
ATOM     30  Cl  UNL     1      -1.512  -9.729   6.833  1.00  0.00    -0.084 Cl
ENDBRANCH  23  24
ENDBRANCH   9  19
ENDBRANCH   5   8
ENDBRANCH   3   4
ENDBRANCH   2   3
ENDBRANCH   1   2
BRANCH   1  31
ATOM     31  C   UNL     1      -3.430 -11.280   1.450  1.00  0.00     0.116 C 
BRANCH  31  32
ATOM     32  N   UNL     1      -2.320 -11.814   2.225  1.00  0.00    -0.352 N 
ATOM     33  C   UNL     1      -2.023 -13.117   2.577  1.00  0.00     0.251 C 
ATOM     34  H   UNL     1      -1.679 -11.140   2.550  1.00  0.00     0.163 HD
ATOM     35  O   UNL     1      -0.969 -13.391   3.129  1.00  0.00    -0.269 OA
BRANCH  33  36
ATOM     36  C   UNL     1      -3.003 -14.195   2.343  1.00  0.00     0.039 A 
ATOM     37  C   UNL     1      -3.352 -15.016   3.420  1.00  0.00     0.014 A 
ATOM     38  C   UNL     1      -3.597 -14.377   1.096  1.00  0.00     0.014 A 
ATOM     39  C   UNL     1      -4.387 -15.940   3.274  1.00  0.00     0.010 A 
ATOM     40  C   UNL     1      -4.689 -15.231   0.978  1.00  0.00     0.010 A 
ATOM     41  C   UNL     1      -5.107 -16.006   2.071  1.00  0.00    -0.014 A 
BRANCH  41  42
ATOM     42  C   UNL     1      -6.326 -16.846   1.954  1.00  0.00     0.031 A 
ATOM     43  C   UNL     1      -6.378 -17.972   0.960  1.00  0.00     0.074 A 
ATOM     44  C   UNL     1      -7.409 -16.541   2.698  1.00  0.00     0.049 A 
ATOM     45  N   UNL     1      -7.370 -18.779   0.682  1.00  0.00    -0.248 NA
ATOM     46  C   UNL     1      -5.170 -18.206   0.151  1.00  0.00     0.031 C 
ATOM     47  C   UNL     1      -7.497 -15.433   3.655  1.00  0.00     0.029 A 
ATOM     48  N   UNL     1      -8.646 -17.131   2.766  1.00  0.00    -0.354 N 
ATOM     49  C   UNL     1      -6.913 -19.601  -0.340  1.00  0.00     0.074 A 
ATOM     50  C   UNL     1      -5.576 -19.162  -0.672  1.00  0.00     0.031 C 
ATOM     51  C   UNL     1      -8.706 -15.448   4.239  1.00  0.00     0.029 A 
ATOM     52  C   UNL     1      -9.493 -16.536   3.672  1.00  0.00     0.049 A 
ATOM     53  H   UNL     1      -8.903 -17.908   2.219  1.00  0.00     0.167 HD
ATOM     54  C   UNL     1      -7.542 -20.643  -0.934  1.00  0.00     0.031 A 
ATOM     55  C   UNL     1     -10.764 -16.833   4.008  1.00  0.00     0.031 A 
ATOM     56  C   UNL     1      -8.869 -21.081  -0.591  1.00  0.00     0.049 A 
ATOM     57  C   UNL     1     -11.436 -18.000   3.340  1.00  0.00     0.074 A 
ATOM     58  C   UNL     1      -9.577 -22.158  -1.093  1.00  0.00     0.029 A 
ATOM     59  N   UNL     1      -9.688 -20.464   0.343  1.00  0.00    -0.354 N 
ATOM     60  N   UNL     1     -10.960 -18.810   2.423  1.00  0.00    -0.248 NA
ATOM     61  C   UNL     1     -12.810 -18.302   3.761  1.00  0.00     0.031 C 
ATOM     62  C   UNL     1     -10.843 -22.164  -0.498  1.00  0.00     0.029 A 
ATOM     63  C   UNL     1     -10.902 -21.125   0.417  1.00  0.00     0.049 A 
ATOM     64  H   UNL     1      -9.442 -19.672   0.874  1.00  0.00     0.167 HD
ATOM     65  C   UNL     1     -11.970 -19.732   2.173  1.00  0.00     0.074 A 
ATOM     66  C   UNL     1     -13.071 -19.393   3.053  1.00  0.00     0.031 C 
ATOM     67  C   UNL     1     -11.988 -20.764   1.294  1.00  0.00     0.031 A 
BRANCH  54  68
ATOM     68  C   UNL     1      -6.796 -21.380  -2.017  1.00  0.00    -0.014 A 
ATOM     69  C   UNL     1      -5.675 -22.174  -1.713  1.00  0.00     0.010 A 
ATOM     70  C   UNL     1      -7.240 -21.307  -3.349  1.00  0.00     0.010 A 
ATOM     71  C   UNL     1      -4.987 -22.847  -2.726  1.00  0.00     0.020 A 
ATOM     72  C   UNL     1      -6.572 -22.003  -4.362  1.00  0.00     0.020 A 
ATOM     73  C   UNL     1      -5.440 -22.756  -4.045  1.00  0.00     0.054 A 
BRANCH  73  74
ATOM     74  S   UNL     1      -4.542 -23.662  -5.335  1.00  0.00     0.124 S 
ATOM     75  O   UNL     1      -3.317 -22.876  -5.458  1.00  0.00    -0.237 OA
ATOM     76  O   UNL     1      -4.380 -24.987  -4.741  1.00  0.00    -0.237 OA
ATOM     77  O   UNL     1      -5.438 -23.605  -6.487  1.00  0.00    -0.744 OA
ENDBRANCH  73  74
ENDBRANCH  54  68
BRANCH  55  78
ATOM     78  C   UNL     1     -11.474 -16.027   5.041  1.00  0.00    -0.014 A 
ATOM     79  C   UNL     1     -11.773 -16.581   6.298  1.00  0.00     0.010 A 
ATOM     80  C   UNL     1     -11.850 -14.697   4.775  1.00  0.00     0.010 A 
ATOM     81  C   UNL     1     -12.456 -15.831   7.261  1.00  0.00     0.020 A 
ATOM     82  C   UNL     1     -12.507 -13.934   5.745  1.00  0.00     0.020 A 
ATOM     83  C   UNL     1     -12.818 -14.511   6.978  1.00  0.00     0.054 A 
BRANCH  83  84
ATOM     84  S   UNL     1     -13.665 -13.542   8.258  1.00  0.00     0.124 S 
ATOM     85  O   UNL     1     -15.005 -14.120   8.238  1.00  0.00    -0.237 OA
ATOM     86  O   UNL     1     -12.869 -13.828   9.449  1.00  0.00    -0.237 OA
ATOM     87  O   UNL     1     -13.566 -12.169   7.767  1.00  0.00    -0.744 OA
ENDBRANCH  83  84
ENDBRANCH  55  78
BRANCH  67  88
ATOM     88  C   UNL     1     -13.230 -21.614   1.262  1.00  0.00    -0.014 A 
ATOM     89  C   UNL     1     -14.434 -21.123   0.728  1.00  0.00     0.010 A 
ATOM     90  C   UNL     1     -13.181 -22.933   1.749  1.00  0.00     0.010 A 
ATOM     91  C   UNL     1     -15.580 -21.922   0.722  1.00  0.00     0.020 A 
ATOM     92  C   UNL     1     -14.317 -23.745   1.717  1.00  0.00     0.020 A 
ATOM     93  C   UNL     1     -15.515 -23.227   1.221  1.00  0.00     0.054 A 
BRANCH  93  94
ATOM     94  S   UNL     1     -17.010 -24.251   1.184  1.00  0.00     0.124 S 
ATOM     95  O   UNL     1     -17.797 -23.678   2.273  1.00  0.00    -0.237 OA
ATOM     96  O   UNL     1     -17.530 -24.014  -0.160  1.00  0.00    -0.237 OA
ATOM     97  O   UNL     1     -16.510 -25.603   1.422  1.00  0.00    -0.744 OA
ENDBRANCH  93  94
ENDBRANCH  67  88
ENDBRANCH  41  42
ENDBRANCH  33  36
ENDBRANCH  31  32
ENDBRANCH   1  31
TORSDOF 18
