REMARK SMILES CC[C@H](NC(=O)c1nn(C)cc1C(=O)NCCCCNC(=O)c1ccc(-c2c3nc(c(-c4ccc(S(=O)(=O)[O-])cc4)c4ccc([nH]4)c(-c4ccc(S(=O)(=O)[O-])cc4)c4nc(c(-c5ccc(S(=O)(=O)[O-])cc5)c5ccc2[nH]5)C=C4)C=C3)cc1)c1ccccc1
REMARK SMILES IDX 17 1 16 2 15 3 13 4 14 5 12 7 7 8 8 9 9 10 11 11 10 12 5 13
REMARK SMILES IDX 4 14 6 16 3 17 2 18 1 19 83 20 84 21 88 22 85 23 87 24 86 25
REMARK SMILES IDX 18 26 19 27 20 28 21 29 22 31 23 32 24 33 82 34 25 35 81 36
REMARK SMILES IDX 26 37 27 38 28 39 75 40 29 41 80 42 74 43 76 44 30 45 79 46
REMARK SMILES IDX 73 47 72 48 31 50 61 51 42 52 60 53 43 54 46 55 59 56 77 57
REMARK SMILES IDX 44 58 45 59 58 61 78 62 47 63 32 64 33 65 41 66 34 67 40 68
REMARK SMILES IDX 35 69 36 70 37 71 38 72 39 73 62 74 63 75 71 76 64 77 70 78
REMARK SMILES IDX 65 79 66 80 67 81 68 82 69 83 48 84 49 85 57 86 50 87 56 88
REMARK SMILES IDX 51 89 52 90 53 91 54 92 55 93
REMARK H PARENT 15 6 4 15 20 30 76 49 46 60
REMARK Flexibility Score: inf
ROOT
ATOM      1  C   UNL     1       6.655   0.189   2.835  1.00  0.00     0.023 C 
ENDROOT
BRANCH   1   2
ATOM      2  C   UNL     1       5.583  -0.491   3.683  1.00  0.00     0.116 C 
BRANCH   2   3
ATOM      3  N   UNL     1       4.336   0.244   3.702  1.00  0.00    -0.352 N 
ATOM      4  C   UNL     1       3.157   0.098   3.024  1.00  0.00     0.255 C 
ATOM      5  O   UNL     1       2.209   0.750   3.470  1.00  0.00    -0.269 OA
ATOM      6  H   UNL     1       4.337   1.002   4.329  1.00  0.00     0.163 HD
BRANCH   4   7
ATOM      7  C   UNL     1       2.980  -0.768   1.872  1.00  0.00     0.090 A 
ATOM      8  C   UNL     1       1.758  -0.972   1.126  1.00  0.00     0.162 A 
ATOM      9  N   UNL     1       1.920  -1.948   0.204  1.00  0.00    -0.167 NA
ATOM     10  N   UNL     1       3.154  -2.404   0.410  1.00  0.00    -0.274 N 
ATOM     11  C   UNL     1       3.877  -1.635   1.269  1.00  0.00     0.123 A 
ATOM     12  C   UNL     1       3.548  -3.670  -0.161  1.00  0.00     0.173 C 
BRANCH   8  13
ATOM     13  C   UNL     1       0.397  -0.441   1.329  1.00  0.00     0.273 C 
ATOM     14  N   UNL     1       0.082   0.887   1.214  1.00  0.00    -0.344 N 
ATOM     15  H   UNL     1      -0.889   1.051   1.235  1.00  0.00     0.164 HD
ATOM     16  O   UNL     1      -0.555  -1.203   1.529  1.00  0.00    -0.267 OA
BRANCH  14  17
ATOM     17  C   UNL     1       0.862   2.118   1.069  1.00  0.00     0.112 C 
BRANCH  17  18
ATOM     18  C   UNL     1       0.583   2.692  -0.343  1.00  0.00     0.026 C 
ATOM     19  C   UNL     1       1.341   1.956  -1.440  1.00  0.00     0.006 C 
ENDBRANCH  17  18
BRANCH  17  20
ATOM     20  C   UNL     1       0.492   3.101   2.198  1.00  0.00    -0.026 A 
ATOM     21  C   UNL     1       0.779   4.475   2.119  1.00  0.00     0.006 A 
ATOM     22  C   UNL     1      -0.061   2.638   3.411  1.00  0.00     0.006 A 
ATOM     23  C   UNL     1       0.487   5.344   3.179  1.00  0.00     0.000 A 
ATOM     24  C   UNL     1      -0.336   3.500   4.476  1.00  0.00     0.000 A 
ATOM     25  C   UNL     1      -0.069   4.856   4.357  1.00  0.00     0.000 A 
ENDBRANCH  17  20
ENDBRANCH  14  17
ENDBRANCH   8  13
ENDBRANCH   4   7
ENDBRANCH   2   3
ENDBRANCH   1   2
BRANCH   1  26
ATOM     26  C   UNL     1       7.228   1.478   3.438  1.00  0.00     0.023 C 
BRANCH  26  27
ATOM     27  C   UNL     1       7.760   1.369   4.867  1.00  0.00     0.116 C 
BRANCH  27  28
ATOM     28  N   UNL     1       8.741   0.309   5.043  1.00  0.00    -0.352 N 
ATOM     29  C   UNL     1       9.829   0.276   5.883  1.00  0.00     0.251 C 
ATOM     30  H   UNL     1       8.608  -0.491   4.486  1.00  0.00     0.163 HD
ATOM     31  O   UNL     1      10.609  -0.670   5.838  1.00  0.00    -0.269 OA
BRANCH  29  32
ATOM     32  C   UNL     1      10.075   1.403   6.807  1.00  0.00     0.039 A 
ATOM     33  C   UNL     1      11.347   1.980   6.840  1.00  0.00     0.014 A 
ATOM     34  C   UNL     1       9.052   1.906   7.616  1.00  0.00     0.014 A 
ATOM     35  C   UNL     1      11.575   3.109   7.630  1.00  0.00     0.010 A 
ATOM     36  C   UNL     1       9.264   3.067   8.356  1.00  0.00     0.010 A 
ATOM     37  C   UNL     1      10.525   3.684   8.365  1.00  0.00    -0.014 A 
BRANCH  37  38
ATOM     38  C   UNL     1      10.720   4.943   9.130  1.00  0.00     0.031 A 
ATOM     39  C   UNL     1      10.590   4.947  10.629  1.00  0.00     0.074 A 
ATOM     40  C   UNL     1      10.935   6.096   8.466  1.00  0.00     0.049 A 
ATOM     41  N   UNL     1      10.658   5.958  11.457  1.00  0.00    -0.248 NA
ATOM     42  C   UNL     1      10.322   3.654  11.278  1.00  0.00     0.031 C 
ATOM     43  C   UNL     1      11.027   6.233   7.010  1.00  0.00     0.029 A 
ATOM     44  N   UNL     1      11.100   7.378   8.929  1.00  0.00    -0.354 N 
ATOM     45  C   UNL     1      10.417   5.429  12.720  1.00  0.00     0.074 A 
ATOM     46  C   UNL     1      10.164   4.015  12.544  1.00  0.00     0.031 C 
ATOM     47  C   UNL     1      11.247   7.522   6.702  1.00  0.00     0.029 A 
ATOM     48  C   UNL     1      11.277   8.308   7.931  1.00  0.00     0.049 A 
ATOM     49  H   UNL     1      11.093   7.611   9.886  1.00  0.00     0.167 HD
ATOM     50  C   UNL     1      10.420   6.060  13.918  1.00  0.00     0.031 A 
ATOM     51  C   UNL     1      11.437   9.644   7.995  1.00  0.00     0.031 A 
ATOM     52  C   UNL     1      10.695   7.461  14.092  1.00  0.00     0.049 A 
ATOM     53  C   UNL     1      11.459  10.318   9.339  1.00  0.00     0.074 A 
ATOM     54  C   UNL     1      10.800   8.176  15.273  1.00  0.00     0.029 A 
ATOM     55  N   UNL     1      10.907   8.361  13.059  1.00  0.00    -0.354 N 
ATOM     56  N   UNL     1      11.314   9.784  10.529  1.00  0.00    -0.248 NA
ATOM     57  C   UNL     1      11.680  11.770   9.352  1.00  0.00     0.031 C 
ATOM     58  C   UNL     1      11.029   9.518  14.952  1.00  0.00     0.029 A 
ATOM     59  C   UNL     1      11.119   9.629  13.573  1.00  0.00     0.049 A 
ATOM     60  H   UNL     1      10.907   8.132  12.101  1.00  0.00     0.167 HD
ATOM     61  C   UNL     1      11.451  10.832  11.432  1.00  0.00     0.074 A 
ATOM     62  C   UNL     1      11.706  12.027  10.653  1.00  0.00     0.031 C 
ATOM     63  C   UNL     1      11.374  10.807  12.785  1.00  0.00     0.031 A 
BRANCH  50  64
ATOM     64  C   UNL     1      10.111   5.238  15.141  1.00  0.00    -0.014 A 
ATOM     65  C   UNL     1      11.027   4.291  15.632  1.00  0.00     0.010 A 
ATOM     66  C   UNL     1       8.907   5.451  15.839  1.00  0.00     0.010 A 
ATOM     67  C   UNL     1      10.730   3.545  16.775  1.00  0.00     0.020 A 
ATOM     68  C   UNL     1       8.617   4.726  16.998  1.00  0.00     0.020 A 
ATOM     69  C   UNL     1       9.524   3.765  17.449  1.00  0.00     0.054 A 
BRANCH  69  70
ATOM     70  S   UNL     1       9.177   2.802  18.947  1.00  0.00     0.124 S 
ATOM     71  O   UNL     1       8.852   1.490  18.391  1.00  0.00    -0.237 OA
ATOM     72  O   UNL     1      10.439   2.878  19.678  1.00  0.00    -0.237 OA
ATOM     73  O   UNL     1       8.059   3.511  19.563  1.00  0.00    -0.744 OA
ENDBRANCH  69  70
ENDBRANCH  50  64
BRANCH  51  74
ATOM     74  C   UNL     1      11.597  10.436   6.744  1.00  0.00    -0.014 A 
ATOM     75  C   UNL     1      12.840  11.002   6.410  1.00  0.00     0.010 A 
ATOM     76  C   UNL     1      10.505  10.623   5.877  1.00  0.00     0.010 A 
ATOM     77  C   UNL     1      12.982  11.761   5.245  1.00  0.00     0.020 A 
ATOM     78  C   UNL     1      10.650  11.359   4.698  1.00  0.00     0.020 A 
ATOM     79  C   UNL     1      11.886  11.935   4.396  1.00  0.00     0.054 A 
BRANCH  79  80
ATOM     80  S   UNL     1      12.103  12.886   2.866  1.00  0.00     0.124 S 
ATOM     81  O   UNL     1      12.129  14.257   3.362  1.00  0.00    -0.237 OA
ATOM     82  O   UNL     1      13.371  12.373   2.351  1.00  0.00    -0.237 OA
ATOM     83  O   UNL     1      10.929  12.527   2.073  1.00  0.00    -0.744 OA
ENDBRANCH  79  80
ENDBRANCH  51  74
BRANCH  63  84
ATOM     84  C   UNL     1      11.601  12.103  13.516  1.00  0.00    -0.014 A 
ATOM     85  C   UNL     1      10.630  13.119  13.514  1.00  0.00     0.010 A 
ATOM     86  C   UNL     1      12.780  12.280  14.262  1.00  0.00     0.010 A 
ATOM     87  C   UNL     1      10.847  14.304  14.223  1.00  0.00     0.020 A 
ATOM     88  C   UNL     1      12.989  13.452  14.993  1.00  0.00     0.020 A 
ATOM     89  C   UNL     1      12.027  14.463  14.958  1.00  0.00     0.054 A 
BRANCH  89  90
ATOM     90  S   UNL     1      12.266  15.989  15.908  1.00  0.00     0.124 S 
ATOM     91  O   UNL     1      12.598  16.950  14.860  1.00  0.00    -0.237 OA
ATOM     92  O   UNL     1      10.966  16.179  16.546  1.00  0.00    -0.237 OA
ATOM     93  O   UNL     1      13.359  15.661  16.821  1.00  0.00    -0.744 OA
ENDBRANCH  89  90
ENDBRANCH  63  84
ENDBRANCH  37  38
ENDBRANCH  29  32
ENDBRANCH  27  28
ENDBRANCH  26  27
ENDBRANCH   1  26
TORSDOF 18
