REMARK SMILES Cc1[nH]cnc1C[NH+]1CCC(Oc2cccc(F)c2)(C(=O)NCCCCNC(=O)c2ccc(-c3c4nc(c(-c5ccc(S(=O)(=O)[O-])cc5)c5ccc([nH]5)c(-c5ccc(S(=O)(=O)[O-])cc5)c5nc(c(-c6ccc(S(=O)(=O)[O-])cc6)c6ccc3[nH]6)C=C5)C=C4)cc2)CC1
REMARK SMILES IDX 25 1 24 2 23 3 22 4 20 5 21 6 11 8 8 9 9 10 91 11 10 13
REMARK SMILES IDX 90 14 7 15 6 16 1 17 2 18 3 19 4 20 5 22 12 23 13 24 14 25
REMARK SMILES IDX 19 26 15 27 17 28 16 29 18 30 26 31 27 32 28 33 29 35 30 36
REMARK SMILES IDX 31 37 89 38 32 39 88 40 33 41 34 42 35 43 82 44 36 45 87 46
REMARK SMILES IDX 81 47 83 48 37 49 86 50 80 51 79 52 38 54 68 55 49 56 67 57
REMARK SMILES IDX 50 58 53 59 66 60 84 61 51 62 52 63 65 65 85 66 54 67 39 68
REMARK SMILES IDX 40 69 48 70 41 71 47 72 42 73 43 74 44 75 45 76 46 77 69 78
REMARK SMILES IDX 70 79 78 80 71 81 77 82 72 83 73 84 74 85 75 86 76 87 55 88
REMARK SMILES IDX 56 89 64 90 57 91 63 92 58 93 59 94 60 95 61 96 62 97
REMARK H PARENT 22 7 8 12 3 21 27 34 83 53 53 64
REMARK Flexibility Score: inf
ROOT
ATOM      1  C   UNL     1       0.085   0.066   6.870  1.00  0.00     0.023 C 
ENDROOT
BRANCH   1   2
ATOM      2  C   UNL     1       0.230  -1.382   6.402  1.00  0.00     0.023 C 
BRANCH   2   3
ATOM      3  C   UNL     1      -1.082  -2.156   6.299  1.00  0.00     0.116 C 
BRANCH   3   4
ATOM      4  N   UNL     1      -1.927  -1.637   5.241  1.00  0.00    -0.353 N 
ATOM      5  C   UNL     1      -2.339  -2.211   4.070  1.00  0.00     0.264 C 
ATOM      6  O   UNL     1      -3.184  -1.575   3.432  1.00  0.00    -0.270 OA
ATOM      7  H   UNL     1      -2.259  -0.723   5.391  1.00  0.00     0.163 HD
BRANCH   5   8
ATOM      8  C   UNL     1      -1.786  -3.588   3.591  1.00  0.00     0.197 C 
ATOM      9  N   UNL     1      -0.480  -3.135   1.005  1.00  0.00    -0.330 N 
ATOM     10  C   UNL     1       0.128  -2.625   2.233  1.00  0.00     0.267 C 
ATOM     11  C   UNL     1      -1.948  -3.115   1.081  1.00  0.00     0.267 C 
ATOM     12  H   UNL     1      -0.198  -4.112   0.921  1.00  0.00     0.348 HD
ATOM     13  C   UNL     1      -0.262  -3.538   3.390  1.00  0.00     0.120 C 
ATOM     14  C   UNL     1      -2.451  -3.974   2.250  1.00  0.00     0.120 C 
BRANCH   9  15
ATOM     15  C   UNL     1       0.033  -2.465  -0.210  1.00  0.00     0.321 C 
BRANCH  15  16
ATOM     16  C   UNL     1      -0.129  -0.972  -0.213  1.00  0.00     0.115 A 
ATOM     17  C   UNL     1       2.300  -0.005   0.082  1.00  0.00     0.066 C 
ATOM     18  C   UNL     1       0.829   0.022  -0.074  1.00  0.00     0.040 A 
ATOM     19  N   UNL     1       0.120   1.199  -0.094  1.00  0.00    -0.348 N 
ATOM     20  C   UNL     1      -1.195   0.892  -0.279  1.00  0.00     0.197 A 
ATOM     21  H   UNL     1       0.495   2.103   0.008  1.00  0.00     0.167 HD
ATOM     22  N   UNL     1      -1.373  -0.402  -0.390  1.00  0.00    -0.236 NA
ENDBRANCH  15  16
ENDBRANCH   9  15
BRANCH   8  23
ATOM     23  O   UNL     1      -2.223  -4.444   4.683  1.00  0.00    -0.477 OA
BRANCH  23  24
ATOM     24  C   UNL     1      -2.011  -5.785   4.580  1.00  0.00     0.123 A 
ATOM     25  C   UNL     1      -0.762  -6.344   4.849  1.00  0.00     0.046 A 
ATOM     26  C   UNL     1      -3.112  -6.606   4.355  1.00  0.00     0.085 A 
ATOM     27  C   UNL     1      -0.587  -7.727   4.793  1.00  0.00     0.007 A 
ATOM     28  C   UNL     1      -2.932  -7.984   4.318  1.00  0.00     0.126 A 
ATOM     29  C   UNL     1      -1.677  -8.551   4.519  1.00  0.00     0.039 A 
ATOM     30  F   UNL     1      -3.985  -8.782   4.094  1.00  0.00    -0.207 F 
ENDBRANCH  23  24
ENDBRANCH   8  23
ENDBRANCH   5   8
ENDBRANCH   3   4
ENDBRANCH   2   3
ENDBRANCH   1   2
BRANCH   1  31
ATOM     31  C   UNL     1      -0.632   0.253   8.202  1.00  0.00     0.116 C 
BRANCH  31  32
ATOM     32  N   UNL     1      -0.018  -0.495   9.289  1.00  0.00    -0.352 N 
ATOM     33  C   UNL     1       0.269  -0.090  10.569  1.00  0.00     0.251 C 
ATOM     34  H   UNL     1       0.226  -1.425   9.075  1.00  0.00     0.163 HD
ATOM     35  O   UNL     1       0.914  -0.825  11.311  1.00  0.00    -0.269 OA
BRANCH  33  36
ATOM     36  C   UNL     1      -0.169   1.244  11.036  1.00  0.00     0.039 A 
ATOM     37  C   UNL     1       0.743   2.045  11.726  1.00  0.00     0.014 A 
ATOM     38  C   UNL     1      -1.461   1.711  10.778  1.00  0.00     0.014 A 
ATOM     39  C   UNL     1       0.382   3.343  12.094  1.00  0.00     0.010 A 
ATOM     40  C   UNL     1      -1.793   3.030  11.077  1.00  0.00     0.010 A 
ATOM     41  C   UNL     1      -0.874   3.861  11.735  1.00  0.00    -0.014 A 
BRANCH  41  42
ATOM     42  C   UNL     1      -1.222   5.278  12.012  1.00  0.00     0.031 A 
ATOM     43  C   UNL     1      -2.354   5.623  12.941  1.00  0.00     0.074 A 
ATOM     44  C   UNL     1      -0.548   6.259  11.378  1.00  0.00     0.049 A 
ATOM     45  N   UNL     1      -2.800   6.802  13.292  1.00  0.00    -0.248 NA
ATOM     46  C   UNL     1      -3.096   4.500  13.535  1.00  0.00     0.031 C 
ATOM     47  C   UNL     1       0.532   6.054  10.409  1.00  0.00     0.029 A 
ATOM     48  N   UNL     1      -0.672   7.624  11.451  1.00  0.00    -0.354 N 
ATOM     49  C   UNL     1      -3.880   6.564  14.134  1.00  0.00     0.074 A 
ATOM     50  C   UNL     1      -4.053   5.130  14.201  1.00  0.00     0.031 C 
ATOM     51  C   UNL     1       0.993   7.248  10.005  1.00  0.00     0.029 A 
ATOM     52  C   UNL     1       0.220   8.302  10.654  1.00  0.00     0.049 A 
ATOM     53  H   UNL     1      -1.336   8.075  12.021  1.00  0.00     0.167 HD
ATOM     54  C   UNL     1      -4.646   7.457  14.806  1.00  0.00     0.031 A 
ATOM     55  C   UNL     1       0.397   9.624  10.462  1.00  0.00     0.031 A 
ATOM     56  C   UNL     1      -4.469   8.885  14.739  1.00  0.00     0.049 A 
ATOM     57  C   UNL     1      -0.461  10.596  11.222  1.00  0.00     0.074 A 
ATOM     58  C   UNL     1      -5.152   9.870  15.431  1.00  0.00     0.029 A 
ATOM     59  N   UNL     1      -3.549   9.532  13.927  1.00  0.00    -0.354 N 
ATOM     60  N   UNL     1      -1.424  10.349  12.078  1.00  0.00    -0.248 NA
ATOM     61  C   UNL     1      -0.198  12.024  11.002  1.00  0.00     0.031 C 
ATOM     62  C   UNL     1      -4.684  11.115  14.995  1.00  0.00     0.029 A 
ATOM     63  C   UNL     1      -3.666  10.904  14.079  1.00  0.00     0.049 A 
ATOM     64  H   UNL     1      -2.908   9.083  13.331  1.00  0.00     0.167 HD
ATOM     65  C   UNL     1      -1.868  11.592  12.516  1.00  0.00     0.074 A 
ATOM     66  C   UNL     1      -1.054  12.586  11.845  1.00  0.00     0.031 C 
ATOM     67  C   UNL     1      -2.859  11.884  13.395  1.00  0.00     0.031 A 
BRANCH  54  68
ATOM     68  C   UNL     1      -5.756   6.911  15.668  1.00  0.00    -0.014 A 
ATOM     69  C   UNL     1      -5.478   6.192  16.845  1.00  0.00     0.010 A 
ATOM     70  C   UNL     1      -7.097   7.147  15.314  1.00  0.00     0.010 A 
ATOM     71  C   UNL     1      -6.518   5.678  17.624  1.00  0.00     0.020 A 
ATOM     72  C   UNL     1      -8.140   6.661  16.107  1.00  0.00     0.020 A 
ATOM     73  C   UNL     1      -7.843   5.912  17.247  1.00  0.00     0.054 A 
BRANCH  73  74
ATOM     74  S   UNL     1      -9.173   5.245  18.285  1.00  0.00     0.124 S 
ATOM     75  O   UNL     1      -9.101   3.817  17.983  1.00  0.00    -0.237 OA
ATOM     76  O   UNL     1      -8.750   5.623  19.631  1.00  0.00    -0.237 OA
ATOM     77  O   UNL     1     -10.370   5.925  17.797  1.00  0.00    -0.744 OA
ENDBRANCH  73  74
ENDBRANCH  54  68
BRANCH  55  78
ATOM     78  C   UNL     1       1.450  10.099   9.523  1.00  0.00    -0.014 A 
ATOM     79  C   UNL     1       2.617  10.714  10.008  1.00  0.00     0.010 A 
ATOM     80  C   UNL     1       1.303   9.909   8.137  1.00  0.00     0.010 A 
ATOM     81  C   UNL     1       3.614  11.139   9.124  1.00  0.00     0.020 A 
ATOM     82  C   UNL     1       2.309  10.307   7.253  1.00  0.00     0.020 A 
ATOM     83  C   UNL     1       3.455  10.928   7.752  1.00  0.00     0.054 A 
BRANCH  83  84
ATOM     84  S   UNL     1       4.791  11.424   6.629  1.00  0.00     0.124 S 
ATOM     85  O   UNL     1       4.660  12.877   6.622  1.00  0.00    -0.237 OA
ATOM     86  O   UNL     1       5.978  10.897   7.299  1.00  0.00    -0.237 OA
ATOM     87  O   UNL     1       4.448  10.756   5.375  1.00  0.00    -0.744 OA
ENDBRANCH  83  84
ENDBRANCH  55  78
BRANCH  67  88
ATOM     88  C   UNL     1      -3.104  13.339  13.699  1.00  0.00    -0.014 A 
ATOM     89  C   UNL     1      -3.678  14.198  12.745  1.00  0.00     0.010 A 
ATOM     90  C   UNL     1      -2.783  13.845  14.972  1.00  0.00     0.010 A 
ATOM     91  C   UNL     1      -3.886  15.547  13.045  1.00  0.00     0.020 A 
ATOM     92  C   UNL     1      -3.018  15.186  15.286  1.00  0.00     0.020 A 
ATOM     93  C   UNL     1      -3.551  16.033  14.313  1.00  0.00     0.054 A 
BRANCH  93  94
ATOM     94  S   UNL     1      -3.852  17.783  14.685  1.00  0.00     0.124 S 
ATOM     95  O   UNL     1      -2.786  18.440  13.934  1.00  0.00    -0.237 OA
ATOM     96  O   UNL     1      -5.203  17.993  14.173  1.00  0.00    -0.237 OA
ATOM     97  O   UNL     1      -3.725  17.854  16.139  1.00  0.00    -0.744 OA
ENDBRANCH  93  94
ENDBRANCH  67  88
ENDBRANCH  41  42
ENDBRANCH  33  36
ENDBRANCH  31  32
ENDBRANCH   1  31
TORSDOF 18
