REMARK SMILES CCC[C@H]1CCc2c(sc(NC(=O)[C@H]3[C@@H](C(=O)NCCCCNC(=O)c4ccc(-c5c6nc(c(-c7ccc(S(=O)(=O)[O-])cc7)c7ccc([nH]7)c(-c7ccc(S(=O)(=O)[O-])cc7)c7nc(c(-c8ccc(S(=O)(=O)[O-])cc8)c8ccc5[nH]8)C=C7)C=C6)cc4)[C@H]4CC[C@@H]3O4)c2C(N)=O)C1
REMARK SMILES IDX 20 1 19 2 18 3 16 4 17 5 15 7 14 8 89 9 86 10 88 11 90 12
REMARK SMILES IDX 87 13 12 14 11 15 13 17 10 18 4 19 5 20 95 21 6 22 8 23 7 24
REMARK SMILES IDX 9 25 91 26 3 27 2 28 1 29 92 30 93 31 94 32 21 35 22 36
REMARK SMILES IDX 23 37 24 38 25 40 26 41 27 42 85 43 28 44 84 45 29 46 30 47
REMARK SMILES IDX 31 48 78 49 32 50 83 51 77 52 79 53 33 54 82 55 76 56 75 57
REMARK SMILES IDX 34 59 64 60 45 61 63 62 46 63 49 64 62 65 80 66 47 67 48 68
REMARK SMILES IDX 61 70 81 71 50 72 35 73 36 74 44 75 37 76 43 77 38 78 39 79
REMARK SMILES IDX 40 80 41 81 42 82 65 83 66 84 74 85 67 86 73 87 68 88 69 89
REMARK SMILES IDX 70 90 71 91 72 92 51 93 52 94 60 95 53 96 59 97 54 98 55 99
REMARK SMILES IDX 56 100 57 101 58 102
REMARK H PARENT 18 6 11 16 93 33 93 34 23 39 79 58 49 69
REMARK Flexibility Score: inf
ROOT
ATOM      1  C   UNL     1       2.727  -3.657   1.526  1.00  0.00     0.023 C 
ENDROOT
BRANCH   1   2
ATOM      2  C   UNL     1       2.805  -5.176   1.455  1.00  0.00     0.116 C 
BRANCH   2   3
ATOM      3  N   UNL     1       2.696  -5.850   2.734  1.00  0.00    -0.356 N 
ATOM      4  C   UNL     1       2.405  -7.161   3.000  1.00  0.00     0.226 C 
ATOM      5  O   UNL     1       2.507  -7.523   4.166  1.00  0.00    -0.275 OA
ATOM      6  H   UNL     1       2.854  -5.284   3.523  1.00  0.00     0.163 HD
BRANCH   4   7
ATOM      7  C   UNL     1       1.919  -8.054   1.871  1.00  0.00     0.122 C 
ATOM      8  C   UNL     1       1.601  -9.555   2.087  1.00  0.00     0.123 C 
ATOM      9  C   UNL     1       2.662 -10.213   1.195  1.00  0.00     0.132 C 
ATOM     10  C   UNL     1       2.894  -8.137   0.670  1.00  0.00     0.132 C 
ATOM     11  C   UNL     1       4.101  -9.912   1.625  1.00  0.00     0.035 C 
ATOM     12  O   UNL     1       2.512  -9.381   0.020  1.00  0.00    -0.373 OA
ATOM     13  C   UNL     1       4.306  -8.495   1.107  1.00  0.00     0.035 C 
BRANCH   8  14
ATOM     14  C   UNL     1       1.372 -10.357   3.354  1.00  0.00     0.231 C 
ATOM     15  N   UNL     1       0.787 -11.608   3.265  1.00  0.00    -0.317 N 
ATOM     16  H   UNL     1       0.545 -12.029   4.122  1.00  0.00     0.170 HD
ATOM     17  O   UNL     1       1.747 -10.001   4.467  1.00  0.00    -0.274 OA
BRANCH  15  18
ATOM     18  C   UNL     1       0.497 -12.344   2.133  1.00  0.00     0.108 A 
ATOM     19  C   UNL     1       1.224 -15.542  -1.516  1.00  0.00    -0.006 C 
ATOM     20  C   UNL     1       0.329 -14.435  -2.118  1.00  0.00     0.009 C 
ATOM     21  C   UNL     1       1.159 -15.589   0.042  1.00  0.00     0.050 C 
ATOM     22  C   UNL     1       0.612 -13.059  -1.523  1.00  0.00     0.038 C 
ATOM     23  C   UNL     1       0.897 -14.247   0.654  1.00  0.00     0.011 A 
ATOM     24  C   UNL     1       0.547 -13.105  -0.036  1.00  0.00    -0.019 A 
ATOM     25  S   UNL     1       0.895 -13.998   2.337  1.00  0.00    -0.122 S 
ATOM     26  C   UNL     1       0.027 -12.098   0.852  1.00  0.00     0.077 A 
BRANCH  19  27
ATOM     27  C   UNL     1       0.983 -16.965  -2.099  1.00  0.00     0.004 C 
BRANCH  27  28
ATOM     28  C   UNL     1      -0.190 -17.170  -3.067  1.00  0.00    -0.003 C 
ATOM     29  C   UNL     1       0.138 -16.830  -4.514  1.00  0.00     0.004 C 
ENDBRANCH  27  28
ENDBRANCH  19  27
BRANCH  26  30
ATOM     30  C   UNL     1      -0.871 -11.028   0.448  1.00  0.00     0.251 C 
ATOM     31  N   UNL     1      -0.386 -10.135  -0.459  1.00  0.00    -0.365 N 
ATOM     32  O   UNL     1      -2.027 -10.938   0.865  1.00  0.00    -0.269 OA
ATOM     33  H   UNL     1       0.539 -10.217  -0.785  1.00  0.00     0.159 HD
ATOM     34  H   UNL     1      -0.962  -9.408  -0.789  1.00  0.00     0.159 HD
ENDBRANCH  26  30
ENDBRANCH  15  18
ENDBRANCH   8  14
ENDBRANCH   4   7
ENDBRANCH   2   3
ENDBRANCH   1   2
BRANCH   1  35
ATOM     35  C   UNL     1       3.708  -2.977   2.479  1.00  0.00     0.023 C 
BRANCH  35  36
ATOM     36  C   UNL     1       5.165  -3.411   2.359  1.00  0.00     0.116 C 
BRANCH  36  37
ATOM     37  N   UNL     1       5.759  -3.073   1.074  1.00  0.00    -0.352 N 
ATOM     38  C   UNL     1       6.830  -2.253   0.797  1.00  0.00     0.251 C 
ATOM     39  H   UNL     1       5.334  -3.490   0.290  1.00  0.00     0.163 HD
ATOM     40  O   UNL     1       7.110  -1.982  -0.367  1.00  0.00    -0.269 OA
BRANCH  38  41
ATOM     41  C   UNL     1       7.616  -1.670   1.907  1.00  0.00     0.039 A 
ATOM     42  C   UNL     1       7.869  -0.296   1.911  1.00  0.00     0.014 A 
ATOM     43  C   UNL     1       8.070  -2.470   2.959  1.00  0.00     0.014 A 
ATOM     44  C   UNL     1       8.499   0.288   3.013  1.00  0.00     0.010 A 
ATOM     45  C   UNL     1       8.625  -1.876   4.089  1.00  0.00     0.010 A 
ATOM     46  C   UNL     1       8.840  -0.490   4.133  1.00  0.00    -0.014 A 
BRANCH  46  47
ATOM     47  C   UNL     1       9.405   0.127   5.362  1.00  0.00     0.031 A 
ATOM     48  C   UNL     1      10.784  -0.253   5.833  1.00  0.00     0.074 A 
ATOM     49  C   UNL     1       8.648   0.966   6.100  1.00  0.00     0.049 A 
ATOM     50  N   UNL     1      11.413   0.115   6.920  1.00  0.00    -0.248 NA
ATOM     51  C   UNL     1      11.545  -1.190   4.990  1.00  0.00     0.031 C 
ATOM     52  C   UNL     1       7.274   1.370   5.786  1.00  0.00     0.029 A 
ATOM     53  N   UNL     1       8.920   1.620   7.277  1.00  0.00    -0.354 N 
ATOM     54  C   UNL     1      12.626  -0.564   6.905  1.00  0.00     0.074 A 
ATOM     55  C   UNL     1      12.631  -1.395   5.722  1.00  0.00     0.031 C 
ATOM     56  C   UNL     1       6.833   2.212   6.735  1.00  0.00     0.029 A 
ATOM     57  C   UNL     1       7.873   2.381   7.744  1.00  0.00     0.049 A 
ATOM     58  H   UNL     1       9.784   1.550   7.743  1.00  0.00     0.167 HD
ATOM     59  C   UNL     1      13.650  -0.490   7.787  1.00  0.00     0.031 A 
ATOM     60  C   UNL     1       7.758   3.124   8.862  1.00  0.00     0.031 A 
ATOM     61  C   UNL     1      13.660   0.364   8.944  1.00  0.00     0.049 A 
ATOM     62  C   UNL     1       8.924   3.210   9.810  1.00  0.00     0.074 A 
ATOM     63  C   UNL     1      14.687   0.570   9.850  1.00  0.00     0.029 A 
ATOM     64  N   UNL     1      12.598   1.153   9.356  1.00  0.00    -0.354 N 
ATOM     65  N   UNL     1      10.096   2.626   9.729  1.00  0.00    -0.248 NA
ATOM     66  C   UNL     1       8.757   4.066  10.994  1.00  0.00     0.031 C 
ATOM     67  C   UNL     1      14.229   1.450  10.835  1.00  0.00     0.029 A 
ATOM     68  C   UNL     1      12.937   1.832  10.513  1.00  0.00     0.049 A 
ATOM     69  H   UNL     1      11.731   1.221   8.893  1.00  0.00     0.167 HD
ATOM     70  C   UNL     1      10.814   3.067  10.835  1.00  0.00     0.074 A 
ATOM     71  C   UNL     1       9.953   3.978  11.560  1.00  0.00     0.031 C 
ATOM     72  C   UNL     1      12.074   2.745  11.217  1.00  0.00     0.031 A 
BRANCH  59  73
ATOM     73  C   UNL     1      14.860  -1.351   7.538  1.00  0.00    -0.014 A 
ATOM     74  C   UNL     1      15.758  -1.054   6.498  1.00  0.00     0.010 A 
ATOM     75  C   UNL     1      15.145  -2.421   8.406  1.00  0.00     0.010 A 
ATOM     76  C   UNL     1      16.909  -1.825   6.317  1.00  0.00     0.020 A 
ATOM     77  C   UNL     1      16.308  -3.179   8.243  1.00  0.00     0.020 A 
ATOM     78  C   UNL     1      17.178  -2.881   7.193  1.00  0.00     0.054 A 
BRANCH  78  79
ATOM     79  S   UNL     1      18.711  -3.826   6.970  1.00  0.00     0.124 S 
ATOM     80  O   UNL     1      18.408  -4.613   5.777  1.00  0.00    -0.237 OA
ATOM     81  O   UNL     1      19.711  -2.776   6.792  1.00  0.00    -0.237 OA
ATOM     82  O   UNL     1      18.830  -4.592   8.208  1.00  0.00    -0.744 OA
ENDBRANCH  78  79
ENDBRANCH  59  73
BRANCH  60  83
ATOM     83  C   UNL     1       6.491   3.850   9.156  1.00  0.00    -0.014 A 
ATOM     84  C   UNL     1       6.439   5.254   9.097  1.00  0.00     0.010 A 
ATOM     85  C   UNL     1       5.333   3.139   9.522  1.00  0.00     0.010 A 
ATOM     86  C   UNL     1       5.265   5.935   9.434  1.00  0.00     0.020 A 
ATOM     87  C   UNL     1       4.149   3.815   9.831  1.00  0.00     0.020 A 
ATOM     88  C   UNL     1       4.128   5.211   9.803  1.00  0.00     0.054 A 
BRANCH  88  89
ATOM     89  S   UNL     1       2.608   6.112  10.217  1.00  0.00     0.124 S 
ATOM     90  O   UNL     1       2.907   6.610  11.555  1.00  0.00    -0.237 OA
ATOM     91  O   UNL     1       2.542   7.123   9.165  1.00  0.00    -0.237 OA
ATOM     92  O   UNL     1       1.573   5.082  10.146  1.00  0.00    -0.744 OA
ENDBRANCH  88  89
ENDBRANCH  60  83
BRANCH  72  93
ATOM     93  C   UNL     1      12.619   3.412  12.451  1.00  0.00    -0.014 A 
ATOM     94  C   UNL     1      12.172   3.048  13.733  1.00  0.00     0.010 A 
ATOM     95  C   UNL     1      13.637   4.375  12.325  1.00  0.00     0.010 A 
ATOM     96  C   UNL     1      12.713   3.659  14.867  1.00  0.00     0.020 A 
ATOM     97  C   UNL     1      14.199   4.967  13.457  1.00  0.00     0.020 A 
ATOM     98  C   UNL     1      13.723   4.615  14.722  1.00  0.00     0.054 A 
BRANCH  98  99
ATOM     99  S   UNL     1      14.443   5.361  16.210  1.00  0.00     0.124 S 
ATOM    100  O   UNL     1      13.393   6.287  16.624  1.00  0.00    -0.237 OA
ATOM    101  O   UNL     1      14.643   4.207  17.084  1.00  0.00    -0.237 OA
ATOM    102  O   UNL     1      15.671   5.986  15.725  1.00  0.00    -0.744 OA
ENDBRANCH  98  99
ENDBRANCH  72  93
ENDBRANCH  46  47
ENDBRANCH  38  41
ENDBRANCH  36  37
ENDBRANCH  35  36
ENDBRANCH   1  35
TORSDOF 19
