REMARK SMILES Cn1ccc(CNC(=O)[C@@H]2[C@@H]3CC[C@@H](C3)[C@@H]2C(=O)NCCCCNC(=O)c2ccc(-c3c4nc(c(-c5ccc(S(=O)(=O)[O-])cc5)c5ccc([nH]5)c(-c5ccc(S(=O)(=O)[O-])cc5)c5nc(c(-c6ccc(S(=O)(=O)[O-])cc6)c6ccc3[nH]6)C=C5)C=C4)cc2)n1
REMARK SMILES IDX 21 1 20 2 19 3 17 4 18 5 16 7 10 8 11 9 12 10 15 11 14 12
REMARK SMILES IDX 13 13 8 14 7 15 9 17 6 18 5 19 1 20 2 21 3 22 87 23 4 24
REMARK SMILES IDX 22 25 23 26 24 27 25 28 26 30 27 31 28 32 86 33 29 34 85 35
REMARK SMILES IDX 30 36 31 37 32 38 79 39 33 40 84 41 78 42 80 43 34 44 83 45
REMARK SMILES IDX 77 46 76 47 35 49 65 50 46 51 64 52 47 53 50 54 63 55 81 56
REMARK SMILES IDX 48 57 49 58 62 60 82 61 51 62 36 63 37 64 45 65 38 66 44 67
REMARK SMILES IDX 39 68 40 69 41 70 42 71 43 72 66 73 67 74 75 75 68 76 74 77
REMARK SMILES IDX 69 78 70 79 71 80 72 81 73 82 52 83 53 84 61 85 54 86 60 87
REMARK SMILES IDX 55 88 56 89 57 90 58 91 59 92
REMARK H PARENT 19 6 7 16 24 29 80 48 50 59
REMARK Flexibility Score: inf
ROOT
ATOM      1  C   UNL     1      -2.820   6.691   1.989  1.00  0.00     0.023 C 
ENDROOT
BRANCH   1   2
ATOM      2  C   UNL     1      -1.296   6.601   1.978  1.00  0.00     0.116 C 
BRANCH   2   3
ATOM      3  N   UNL     1      -0.780   5.291   2.313  1.00  0.00    -0.356 N 
ATOM      4  C   UNL     1       0.359   4.658   1.910  1.00  0.00     0.224 C 
ATOM      5  O   UNL     1       0.573   3.560   2.418  1.00  0.00    -0.275 OA
ATOM      6  H   UNL     1      -1.342   4.772   2.933  1.00  0.00     0.163 HD
BRANCH   4   7
ATOM      7  C   UNL     1       1.221   5.247   0.792  1.00  0.00     0.094 C 
ATOM      8  C   UNL     1       2.543   4.512   0.396  1.00  0.00     0.094 C 
ATOM      9  C   UNL     1       3.600   5.658   0.438  1.00  0.00     0.002 C 
ATOM     10  C   UNL     1       3.894   6.167   1.861  1.00  0.00     0.005 C 
ATOM     11  C   UNL     1       2.778   6.831  -0.092  1.00  0.00     0.009 C 
ATOM     12  C   UNL     1       1.723   6.701   1.009  1.00  0.00     0.002 C 
ATOM     13  C   UNL     1       2.567   6.793   2.288  1.00  0.00     0.005 C 
BRANCH   8  14
ATOM     14  C   UNL     1       2.987   3.247   1.130  1.00  0.00     0.224 C 
ATOM     15  N   UNL     1       2.397   2.058   0.845  1.00  0.00    -0.350 N 
ATOM     16  H   UNL     1       2.733   1.293   1.367  1.00  0.00     0.163 HD
ATOM     17  O   UNL     1       3.914   3.236   1.940  1.00  0.00    -0.275 OA
BRANCH  15  18
ATOM     18  C   UNL     1       1.353   1.738  -0.104  1.00  0.00     0.174 C 
BRANCH  18  19
ATOM     19  C   UNL     1       1.853   0.658  -1.013  1.00  0.00     0.082 A 
ATOM     20  C   UNL     1       4.259  -0.521  -3.254  1.00  0.00     0.173 C 
ATOM     21  N   UNL     1       3.116  -0.337  -2.394  1.00  0.00    -0.275 N 
ATOM     22  C   UNL     1       2.188  -1.273  -2.049  1.00  0.00     0.108 A 
ATOM     23  N   UNL     1       2.910   0.860  -1.818  1.00  0.00    -0.176 NA
ATOM     24  C   UNL     1       1.353  -0.661  -1.145  1.00  0.00     0.047 A 
ENDBRANCH  18  19
ENDBRANCH  15  18
ENDBRANCH   8  14
ENDBRANCH   4   7
ENDBRANCH   2   3
ENDBRANCH   1   2
BRANCH   1  25
ATOM     25  C   UNL     1      -3.526   6.202   3.251  1.00  0.00     0.023 C 
BRANCH  25  26
ATOM     26  C   UNL     1      -3.008   6.770   4.567  1.00  0.00     0.116 C 
BRANCH  26  27
ATOM     27  N   UNL     1      -3.154   8.214   4.662  1.00  0.00    -0.352 N 
ATOM     28  C   UNL     1      -3.880   8.972   5.553  1.00  0.00     0.251 C 
ATOM     29  H   UNL     1      -2.656   8.729   3.986  1.00  0.00     0.163 HD
ATOM     30  O   UNL     1      -3.982  10.181   5.379  1.00  0.00    -0.269 OA
BRANCH  28  31
ATOM     31  C   UNL     1      -4.566   8.326   6.696  1.00  0.00     0.039 A 
ATOM     32  C   UNL     1      -5.890   8.675   6.974  1.00  0.00     0.014 A 
ATOM     33  C   UNL     1      -3.916   7.372   7.482  1.00  0.00     0.014 A 
ATOM     34  C   UNL     1      -6.587   8.006   7.985  1.00  0.00     0.010 A 
ATOM     35  C   UNL     1      -4.635   6.649   8.431  1.00  0.00     0.010 A 
ATOM     36  C   UNL     1      -5.979   6.955   8.691  1.00  0.00    -0.014 A 
BRANCH  36  37
ATOM     37  C   UNL     1      -6.731   6.160   9.697  1.00  0.00     0.031 A 
ATOM     38  C   UNL     1      -6.296   6.155  11.139  1.00  0.00     0.074 A 
ATOM     39  C   UNL     1      -7.763   5.386   9.304  1.00  0.00     0.049 A 
ATOM     40  N   UNL     1      -6.782   5.474  12.145  1.00  0.00    -0.248 NA
ATOM     41  C   UNL     1      -5.148   7.007  11.489  1.00  0.00     0.031 C 
ATOM     42  C   UNL     1      -8.262   5.269   7.931  1.00  0.00     0.029 A 
ATOM     43  N   UNL     1      -8.576   4.544  10.022  1.00  0.00    -0.354 N 
ATOM     44  C   UNL     1      -5.990   5.800  13.240  1.00  0.00     0.074 A 
ATOM     45  C   UNL     1      -4.961   6.698  12.764  1.00  0.00     0.031 C 
ATOM     46  C   UNL     1      -9.314   4.435   7.913  1.00  0.00     0.029 A 
ATOM     47  C   UNL     1      -9.539   3.922   9.261  1.00  0.00     0.049 A 
ATOM     48  H   UNL     1      -8.480   4.400  10.991  1.00  0.00     0.167 HD
ATOM     49  C   UNL     1      -6.118   5.406  14.530  1.00  0.00     0.031 A 
ATOM     50  C   UNL     1     -10.493   3.036   9.606  1.00  0.00     0.031 A 
ATOM     51  C   UNL     1      -7.148   4.521  15.006  1.00  0.00     0.049 A 
ATOM     52  C   UNL     1     -10.606   2.600  11.042  1.00  0.00     0.074 A 
ATOM     53  C   UNL     1      -7.394   4.104  16.302  1.00  0.00     0.029 A 
ATOM     54  N   UNL     1      -8.103   3.916  14.203  1.00  0.00    -0.354 N 
ATOM     55  N   UNL     1      -9.884   2.967  12.073  1.00  0.00    -0.248 NA
ATOM     56  C   UNL     1     -11.671   1.638  11.361  1.00  0.00     0.031 C 
ATOM     57  C   UNL     1      -8.469   3.208  16.276  1.00  0.00     0.029 A 
ATOM     58  C   UNL     1      -8.928   3.112  14.972  1.00  0.00     0.049 A 
ATOM     59  H   UNL     1      -8.184   4.040  13.229  1.00  0.00     0.167 HD
ATOM     60  C   UNL     1     -10.425   2.303  13.169  1.00  0.00     0.074 A 
ATOM     61  C   UNL     1     -11.542   1.523  12.676  1.00  0.00     0.031 C 
ATOM     62  C   UNL     1     -10.035   2.341  14.467  1.00  0.00     0.031 A 
BRANCH  49  63
ATOM     63  C   UNL     1      -5.108   5.933  15.517  1.00  0.00    -0.014 A 
ATOM     64  C   UNL     1      -5.092   7.292  15.884  1.00  0.00     0.010 A 
ATOM     65  C   UNL     1      -4.174   5.057  16.100  1.00  0.00     0.010 A 
ATOM     66  C   UNL     1      -4.128   7.774  16.772  1.00  0.00     0.020 A 
ATOM     67  C   UNL     1      -3.226   5.531  17.012  1.00  0.00     0.020 A 
ATOM     68  C   UNL     1      -3.196   6.892  17.326  1.00  0.00     0.054 A 
BRANCH  68  69
ATOM     69  S   UNL     1      -1.958   7.545  18.478  1.00  0.00     0.124 S 
ATOM     70  O   UNL     1      -1.053   8.253  17.576  1.00  0.00    -0.237 OA
ATOM     71  O   UNL     1      -2.755   8.394  19.359  1.00  0.00    -0.237 OA
ATOM     72  O   UNL     1      -1.402   6.349  19.106  1.00  0.00    -0.744 OA
ENDBRANCH  68  69
ENDBRANCH  49  63
BRANCH  50  73
ATOM     73  C   UNL     1     -11.438   2.520   8.577  1.00  0.00    -0.014 A 
ATOM     74  C   UNL     1     -12.784   2.924   8.585  1.00  0.00     0.010 A 
ATOM     75  C   UNL     1     -10.996   1.634   7.578  1.00  0.00     0.010 A 
ATOM     76  C   UNL     1     -13.676   2.440   7.623  1.00  0.00     0.020 A 
ATOM     77  C   UNL     1     -11.878   1.168   6.599  1.00  0.00     0.020 A 
ATOM     78  C   UNL     1     -13.216   1.566   6.634  1.00  0.00     0.054 A 
BRANCH  78  79
ATOM     79  S   UNL     1     -14.379   0.993   5.364  1.00  0.00     0.124 S 
ATOM     80  O   UNL     1     -15.190   0.033   6.106  1.00  0.00    -0.237 OA
ATOM     81  O   UNL     1     -15.056   2.228   4.975  1.00  0.00    -0.237 OA
ATOM     82  O   UNL     1     -13.509   0.420   4.340  1.00  0.00    -0.744 OA
ENDBRANCH  78  79
ENDBRANCH  50  73
BRANCH  62  83
ATOM     83  C   UNL     1     -10.842   1.542  15.456  1.00  0.00    -0.014 A 
ATOM     84  C   UNL     1     -10.764   0.139  15.498  1.00  0.00     0.010 A 
ATOM     85  C   UNL     1     -11.649   2.214  16.392  1.00  0.00     0.010 A 
ATOM     86  C   UNL     1     -11.504  -0.580  16.441  1.00  0.00     0.020 A 
ATOM     87  C   UNL     1     -12.369   1.500  17.354  1.00  0.00     0.020 A 
ATOM     88  C   UNL     1     -12.302   0.105  17.363  1.00  0.00     0.054 A 
BRANCH  88  89
ATOM     89  S   UNL     1     -13.216  -0.848  18.607  1.00  0.00     0.124 S 
ATOM     90  O   UNL     1     -14.300  -1.420  17.814  1.00  0.00    -0.237 OA
ATOM     91  O   UNL     1     -12.214  -1.800  19.082  1.00  0.00    -0.237 OA
ATOM     92  O   UNL     1     -13.622   0.159  19.585  1.00  0.00    -0.744 OA
ENDBRANCH  88  89
ENDBRANCH  62  83
ENDBRANCH  36  37
ENDBRANCH  28  31
ENDBRANCH  26  27
ENDBRANCH  25  26
ENDBRANCH   1  25
TORSDOF 17
