REMARK SMILES Cc1nc(CN(C)C(=O)NCc2ccc(C(=O)NCCCCNC(=O)c3ccc(-c4c5nc(c(-c6ccc(S(=O)(=O)[O-])cc6)c6ccc([nH]6)c(-c6ccc(S(=O)(=O)[O-])cc6)c6nc(c(-c7ccc(S(=O)(=O)[O-])cc7)c7ccc4[nH]7)C=C6)C=C5)cc3)o2)n[nH]1
REMARK SMILES IDX 19 1 18 2 16 3 17 4 15 6 12 7 13 8 86 9 14 10 11 11 10 12
REMARK SMILES IDX 8 13 9 14 6 16 7 17 5 18 4 19 1 20 2 21 3 22 88 23 87 24
REMARK SMILES IDX 20 26 21 27 22 28 23 29 24 30 25 32 26 33 27 34 85 35 28 36
REMARK SMILES IDX 84 37 29 38 30 39 31 40 78 41 32 42 83 43 77 44 79 45 33 46
REMARK SMILES IDX 82 47 76 48 75 49 34 51 64 52 45 53 63 54 46 55 49 56 62 57
REMARK SMILES IDX 80 58 47 59 48 60 61 62 81 63 50 64 35 65 36 66 44 67 37 68
REMARK SMILES IDX 43 69 38 70 39 71 40 72 41 73 42 74 65 75 66 76 74 77 67 78
REMARK SMILES IDX 73 79 68 80 69 81 70 82 71 83 72 84 51 85 52 86 60 87 53 88
REMARK SMILES IDX 59 89 54 90 55 91 56 92 57 93 58 94
REMARK H PARENT 18 5 10 15 88 25 23 31 79 50 49 61
REMARK Flexibility Score: inf
ROOT
ATOM      1  C   UNL     1       8.426   5.805   6.090  1.00  0.00     0.116 C 
ENDROOT
BRANCH   1   2
ATOM      2  N   UNL     1       8.798   4.450   6.433  1.00  0.00    -0.349 N 
ATOM      3  C   UNL     1       8.220   3.242   6.118  1.00  0.00     0.286 C 
ATOM      4  O   UNL     1       8.818   2.245   6.533  1.00  0.00    -0.266 OA
ATOM      5  H   UNL     1       9.607   4.380   6.990  1.00  0.00     0.163 HD
BRANCH   3   6
ATOM      6  C   UNL     1       6.995   3.151   5.340  1.00  0.00     0.191 A 
ATOM      7  C   UNL     1       5.458   1.972   4.252  1.00  0.00     0.124 A 
ATOM      8  C   UNL     1       5.075   3.291   4.155  1.00  0.00     0.048 A 
ATOM      9  O   UNL     1       6.623   1.883   4.948  1.00  0.00    -0.454 OA
ATOM     10  C   UNL     1       6.035   4.037   4.881  1.00  0.00     0.056 A 
BRANCH   7  11
ATOM     11  C   UNL     1       4.866   0.686   3.804  1.00  0.00     0.193 C 
BRANCH  11  12
ATOM     12  N   UNL     1       3.461   0.890   3.526  1.00  0.00    -0.331 N 
ATOM     13  C   UNL     1       2.746   1.304   2.468  1.00  0.00     0.317 C 
ATOM     14  O   UNL     1       1.597   1.670   2.735  1.00  0.00    -0.249 OA
ATOM     15  H   UNL     1       2.892   0.671   4.298  1.00  0.00     0.165 HD
BRANCH  13  16
ATOM     16  N   UNL     1       3.240   1.330   1.195  1.00  0.00    -0.320 N 
ATOM     17  C   UNL     1       4.520   0.824   0.743  1.00  0.00     0.149 C 
BRANCH  16  18
ATOM     18  C   UNL     1       2.300   1.750   0.143  1.00  0.00     0.200 C 
BRANCH  18  19
ATOM     19  C   UNL     1       1.206   0.743  -0.066  1.00  0.00     0.170 A 
ATOM     20  C   UNL     1      -2.227  -0.217  -0.098  1.00  0.00     0.089 C 
ATOM     21  C   UNL     1      -0.765  -0.015  -0.140  1.00  0.00     0.121 A 
ATOM     22  N   UNL     1      -0.113   1.125  -0.158  1.00  0.00    -0.215 NA
ATOM     23  N   UNL     1       0.137  -1.039  -0.118  1.00  0.00    -0.263 N 
ATOM     24  N   UNL     1       1.401  -0.586  -0.129  1.00  0.00    -0.157 NA
ATOM     25  H   UNL     1      -0.110  -1.992  -0.096  1.00  0.00     0.192 HD
ENDBRANCH  18  19
ENDBRANCH  16  18
ENDBRANCH  13  16
ENDBRANCH  11  12
ENDBRANCH   7  11
ENDBRANCH   3   6
ENDBRANCH   1   2
BRANCH   1  26
ATOM     26  C   UNL     1       7.554   6.437   7.175  1.00  0.00     0.023 C 
BRANCH  26  27
ATOM     27  C   UNL     1       8.346   7.006   8.360  1.00  0.00     0.023 C 
BRANCH  27  28
ATOM     28  C   UNL     1       9.342   8.110   8.008  1.00  0.00     0.116 C 
BRANCH  28  29
ATOM     29  N   UNL     1       8.740   9.230   7.301  1.00  0.00    -0.352 N 
ATOM     30  C   UNL     1       9.126  10.551   7.306  1.00  0.00     0.251 C 
ATOM     31  H   UNL     1       7.954   9.016   6.748  1.00  0.00     0.163 HD
ATOM     32  O   UNL     1       8.450  11.393   6.731  1.00  0.00    -0.269 OA
BRANCH  30  33
ATOM     33  C   UNL     1      10.342  10.944   8.050  1.00  0.00     0.039 A 
ATOM     34  C   UNL     1      10.258  11.998   8.962  1.00  0.00     0.014 A 
ATOM     35  C   UNL     1      11.543  10.252   7.875  1.00  0.00     0.014 A 
ATOM     36  C   UNL     1      11.366  12.315   9.752  1.00  0.00     0.010 A 
ATOM     37  C   UNL     1      12.625  10.528   8.707  1.00  0.00     0.010 A 
ATOM     38  C   UNL     1      12.545  11.558   9.656  1.00  0.00    -0.014 A 
BRANCH  38  39
ATOM     39  C   UNL     1      13.701  11.820  10.551  1.00  0.00     0.031 A 
ATOM     40  C   UNL     1      15.007  12.300   9.978  1.00  0.00     0.074 A 
ATOM     41  C   UNL     1      13.595  11.558  11.869  1.00  0.00     0.049 A 
ATOM     42  N   UNL     1      16.142  12.519  10.589  1.00  0.00    -0.248 NA
ATOM     43  C   UNL     1      15.050  12.538   8.525  1.00  0.00     0.031 C 
ATOM     44  C   UNL     1      12.397  11.043  12.538  1.00  0.00     0.029 A 
ATOM     45  N   UNL     1      14.512  11.680  12.882  1.00  0.00    -0.354 N 
ATOM     46  C   UNL     1      17.038  12.901   9.597  1.00  0.00     0.074 A 
ATOM     47  C   UNL     1      16.326  12.842   8.339  1.00  0.00     0.031 C 
ATOM     48  C   UNL     1      12.648  10.913  13.851  1.00  0.00     0.029 A 
ATOM     49  C   UNL     1      14.030  11.300  14.113  1.00  0.00     0.049 A 
ATOM     50  H   UNL     1      15.430  12.007  12.741  1.00  0.00     0.167 HD
ATOM     51  C   UNL     1      18.331  13.283   9.724  1.00  0.00     0.031 A 
ATOM     52  C   UNL     1      14.634  11.263  15.317  1.00  0.00     0.031 A 
ATOM     53  C   UNL     1      19.030  13.362  10.979  1.00  0.00     0.049 A 
ATOM     54  C   UNL     1      16.066  11.708  15.433  1.00  0.00     0.074 A 
ATOM     55  C   UNL     1      20.321  13.799  11.218  1.00  0.00     0.029 A 
ATOM     56  N   UNL     1      18.497  12.999  12.206  1.00  0.00    -0.354 N 
ATOM     57  N   UNL     1      16.875  12.132  14.492  1.00  0.00    -0.248 NA
ATOM     58  C   UNL     1      16.662  11.683  16.776  1.00  0.00     0.031 C 
ATOM     59  C   UNL     1      20.583  13.661  12.585  1.00  0.00     0.029 A 
ATOM     60  C   UNL     1      19.438  13.186  13.204  1.00  0.00     0.049 A 
ATOM     61  H   UNL     1      17.584  12.659  12.348  1.00  0.00     0.167 HD
ATOM     62  C   UNL     1      18.067  12.450  15.134  1.00  0.00     0.074 A 
ATOM     63  C   UNL     1      17.868  12.184  16.543  1.00  0.00     0.031 C 
ATOM     64  C   UNL     1      19.222  12.921  14.603  1.00  0.00     0.031 A 
BRANCH  51  65
ATOM     65  C   UNL     1      19.077  13.649   8.469  1.00  0.00    -0.014 A 
ATOM     66  C   UNL     1      18.788  14.839   7.776  1.00  0.00     0.010 A 
ATOM     67  C   UNL     1      20.114  12.820   8.005  1.00  0.00     0.010 A 
ATOM     68  C   UNL     1      19.500  15.175   6.622  1.00  0.00     0.020 A 
ATOM     69  C   UNL     1      20.846  13.167   6.865  1.00  0.00     0.020 A 
ATOM     70  C   UNL     1      20.524  14.336   6.173  1.00  0.00     0.054 A 
BRANCH  70  71
ATOM     71  S   UNL     1      21.454  14.815   4.691  1.00  0.00     0.124 S 
ATOM     72  O   UNL     1      20.490  14.536   3.629  1.00  0.00    -0.237 OA
ATOM     73  O   UNL     1      21.733  16.229   4.930  1.00  0.00    -0.237 OA
ATOM     74  O   UNL     1      22.623  13.940   4.717  1.00  0.00    -0.744 OA
ENDBRANCH  70  71
ENDBRANCH  51  65
BRANCH  52  75
ATOM     75  C   UNL     1      13.882  10.800  16.515  1.00  0.00    -0.014 A 
ATOM     76  C   UNL     1      13.499  11.713  17.514  1.00  0.00     0.010 A 
ATOM     77  C   UNL     1      13.546   9.443  16.664  1.00  0.00     0.010 A 
ATOM     78  C   UNL     1      12.818  11.274  18.652  1.00  0.00     0.020 A 
ATOM     79  C   UNL     1      12.840   9.004  17.788  1.00  0.00     0.020 A 
ATOM     80  C   UNL     1      12.494   9.920  18.783  1.00  0.00     0.054 A 
BRANCH  80  81
ATOM     81  S   UNL     1      11.575   9.376  20.250  1.00  0.00     0.124 S 
ATOM     82  O   UNL     1      12.611   9.385  21.276  1.00  0.00    -0.237 OA
ATOM     83  O   UNL     1      10.546  10.405  20.379  1.00  0.00    -0.237 OA
ATOM     84  O   UNL     1      11.078   8.055  19.869  1.00  0.00    -0.744 OA
ENDBRANCH  80  81
ENDBRANCH  52  75
BRANCH  64  85
ATOM     85  C   UNL     1      20.351  13.217  15.553  1.00  0.00    -0.014 A 
ATOM     86  C   UNL     1      21.088  12.181  16.153  1.00  0.00     0.010 A 
ATOM     87  C   UNL     1      20.710  14.553  15.806  1.00  0.00     0.010 A 
ATOM     88  C   UNL     1      22.148  12.478  17.014  1.00  0.00     0.020 A 
ATOM     89  C   UNL     1      21.786  14.853  16.646  1.00  0.00     0.020 A 
ATOM     90  C   UNL     1      22.489  13.812  17.256  1.00  0.00     0.054 A 
BRANCH  90  91
ATOM     91  S   UNL     1      23.896  14.172  18.343  1.00  0.00     0.124 S 
ATOM     92  O   UNL     1      23.333  13.909  19.665  1.00  0.00    -0.237 OA
ATOM     93  O   UNL     1      24.906  13.220  17.889  1.00  0.00    -0.237 OA
ATOM     94  O   UNL     1      24.200  15.574  18.062  1.00  0.00    -0.744 OA
ENDBRANCH  90  91
ENDBRANCH  64  85
ENDBRANCH  38  39
ENDBRANCH  30  33
ENDBRANCH  28  29
ENDBRANCH  27  28
ENDBRANCH  26  27
ENDBRANCH   1  26
TORSDOF 19
