REMARK SMILES CCC[C@@H]([NH2+]Cc1cc(Cl)cs1)C(=O)NCCCCNC(=O)c1ccc(-c2c3nc(c(-c4ccc(S(=O)(=O)[O-])cc4)c4ccc([nH]4)c(-c4ccc(S(=O)(=O)[O-])cc4)c4nc(c(-c5ccc(S(=O)(=O)[O-])cc5)c5ccc2[nH]5)C=C4)C=C3)cc1
REMARK SMILES IDX 17 1 16 2 15 3 13 4 14 5 4 7 3 8 2 9 1 10 5 11 6 14 7 15
REMARK SMILES IDX 8 16 12 17 9 18 11 19 10 20 18 21 19 22 20 23 21 24 22 26
REMARK SMILES IDX 23 27 24 28 82 29 25 30 81 31 26 32 27 33 28 34 75 35 29 36
REMARK SMILES IDX 80 37 74 38 76 39 30 40 79 41 73 42 72 43 31 45 61 46 42 47
REMARK SMILES IDX 60 48 43 49 46 50 59 51 77 52 44 53 45 54 58 56 78 57 47 58
REMARK SMILES IDX 32 59 33 60 41 61 34 62 40 63 35 64 36 65 37 66 38 67 39 68
REMARK SMILES IDX 62 69 63 70 71 71 64 72 70 73 65 74 66 75 67 76 68 77 69 78
REMARK SMILES IDX 48 79 49 80 57 81 50 82 56 83 51 84 52 85 53 86 54 87 55 88
REMARK H PARENT 15 6 5 12 5 13 20 25 76 44 46 55
REMARK Flexibility Score: inf
ROOT
ATOM      1  C   UNL     1       0.445   3.091   5.081  1.00  0.00     0.023 C 
ENDROOT
BRANCH   1   2
ATOM      2  C   UNL     1      -0.362   3.583   3.880  1.00  0.00     0.116 C 
BRANCH   2   3
ATOM      3  N   UNL     1       0.484   4.285   2.935  1.00  0.00    -0.351 N 
ATOM      4  C   UNL     1       0.898   3.908   1.691  1.00  0.00     0.278 C 
ATOM      5  O   UNL     1       1.636   4.681   1.071  1.00  0.00    -0.268 OA
ATOM      6  H   UNL     1       0.809   5.165   3.236  1.00  0.00     0.163 HD
BRANCH   4   7
ATOM      7  C   UNL     1       0.436   2.578   1.052  1.00  0.00     0.272 C 
BRANCH   7   8
ATOM      8  C   UNL     1       1.019   1.370   1.816  1.00  0.00     0.075 C 
BRANCH   8   9
ATOM      9  C   UNL     1       0.605  -0.016   1.313  1.00  0.00     0.003 C 
ATOM     10  C   UNL     1       1.093  -0.326  -0.090  1.00  0.00     0.004 C 
ENDBRANCH   8   9
ENDBRANCH   7   8
BRANCH   7  11
ATOM     11  N   UNL     1      -1.044   2.527   0.932  1.00  0.00    -0.332 N 
ATOM     12  H   UNL     1      -1.444   2.573   1.870  1.00  0.00     0.347 HD
ATOM     13  H   UNL     1      -1.275   1.658   0.452  1.00  0.00     0.347 HD
BRANCH  11  14
ATOM     14  C   UNL     1      -1.609   3.625   0.132  1.00  0.00     0.309 C 
BRANCH  14  15
ATOM     15  C   UNL     1      -1.189   3.588  -1.309  1.00  0.00     0.060 A 
ATOM     16  C   UNL     1      -0.569   4.587  -2.037  1.00  0.00     0.041 A 
ATOM     17  S   UNL     1      -1.464   2.193  -2.273  1.00  0.00    -0.141 S 
ATOM     18  C   UNL     1      -0.259   4.176  -3.362  1.00  0.00     0.052 A 
ATOM     19  C   UNL     1      -0.655   2.884  -3.612  1.00  0.00     0.085 A 
ATOM     20  Cl  UNL     1       0.531   5.189  -4.488  1.00  0.00    -0.083 Cl
ENDBRANCH  14  15
ENDBRANCH  11  14
ENDBRANCH   7  11
ENDBRANCH   4   7
ENDBRANCH   2   3
ENDBRANCH   1   2
BRANCH   1  21
ATOM     21  C   UNL     1       0.982   4.205   5.979  1.00  0.00     0.023 C 
BRANCH  21  22
ATOM     22  C   UNL     1      -0.080   5.147   6.528  1.00  0.00     0.116 C 
BRANCH  22  23
ATOM     23  N   UNL     1      -1.101   4.456   7.300  1.00  0.00    -0.352 N 
ATOM     24  C   UNL     1      -1.673   4.832   8.490  1.00  0.00     0.251 C 
ATOM     25  H   UNL     1      -1.423   3.608   6.920  1.00  0.00     0.163 HD
ATOM     26  O   UNL     1      -2.412   4.056   9.090  1.00  0.00    -0.269 OA
BRANCH  24  27
ATOM     27  C   UNL     1      -1.372   6.165   9.052  1.00  0.00     0.039 A 
ATOM     28  C   UNL     1      -1.068   6.274  10.411  1.00  0.00     0.014 A 
ATOM     29  C   UNL     1      -1.375   7.300   8.236  1.00  0.00     0.014 A 
ATOM     30  C   UNL     1      -0.729   7.520  10.941  1.00  0.00     0.010 A 
ATOM     31  C   UNL     1      -0.951   8.521   8.748  1.00  0.00     0.010 A 
ATOM     32  C   UNL     1      -0.646   8.650  10.110  1.00  0.00    -0.014 A 
BRANCH  32  33
ATOM     33  C   UNL     1      -0.289   9.982  10.658  1.00  0.00     0.031 A 
ATOM     34  C   UNL     1      -1.287  11.109  10.597  1.00  0.00     0.074 A 
ATOM     35  C   UNL     1       0.939  10.192  11.171  1.00  0.00     0.049 A 
ATOM     36  N   UNL     1      -1.158  12.349  10.995  1.00  0.00    -0.248 NA
ATOM     37  C   UNL     1      -2.593  10.811   9.983  1.00  0.00     0.031 C 
ATOM     38  C   UNL     1       2.010   9.194  11.249  1.00  0.00     0.029 A 
ATOM     39  N   UNL     1       1.495  11.316  11.728  1.00  0.00    -0.354 N 
ATOM     40  C   UNL     1      -2.354  12.978  10.666  1.00  0.00     0.074 A 
ATOM     41  C   UNL     1      -3.171  12.003   9.980  1.00  0.00     0.031 C 
ATOM     42  C   UNL     1       3.078   9.741  11.852  1.00  0.00     0.029 A 
ATOM     43  C   UNL     1       2.785  11.136  12.169  1.00  0.00     0.049 A 
ATOM     44  H   UNL     1       1.015  12.172  11.805  1.00  0.00     0.167 HD
ATOM     45  C   UNL     1      -2.751  14.244  10.935  1.00  0.00     0.031 A 
ATOM     46  C   UNL     1       3.635  11.996  12.762  1.00  0.00     0.031 A 
ATOM     47  C   UNL     1      -1.941  15.208  11.631  1.00  0.00     0.049 A 
ATOM     48  C   UNL     1       3.173  13.400  13.046  1.00  0.00     0.074 A 
ATOM     49  C   UNL     1      -2.267  16.502  11.998  1.00  0.00     0.029 A 
ATOM     50  N   UNL     1      -0.643  14.984  12.066  1.00  0.00    -0.354 N 
ATOM     51  N   UNL     1       2.014  13.957  12.784  1.00  0.00    -0.248 NA
ATOM     52  C   UNL     1       4.129  14.284  13.726  1.00  0.00     0.031 C 
ATOM     53  C   UNL     1      -1.147  17.078  12.607  1.00  0.00     0.029 A 
ATOM     54  C   UNL     1      -0.147  16.121  12.681  1.00  0.00     0.049 A 
ATOM     55  H   UNL     1      -0.148  14.140  11.956  1.00  0.00     0.167 HD
ATOM     56  C   UNL     1       2.092  15.249  13.296  1.00  0.00     0.074 A 
ATOM     57  C   UNL     1       3.403  15.380  13.899  1.00  0.00     0.031 C 
ATOM     58  C   UNL     1       1.162  16.237  13.272  1.00  0.00     0.031 A 
BRANCH  45  59
ATOM     59  C   UNL     1      -4.124  14.656  10.470  1.00  0.00    -0.014 A 
ATOM     60  C   UNL     1      -5.284  14.106  11.048  1.00  0.00     0.010 A 
ATOM     61  C   UNL     1      -4.260  15.629   9.463  1.00  0.00     0.010 A 
ATOM     62  C   UNL     1      -6.550  14.485  10.596  1.00  0.00     0.020 A 
ATOM     63  C   UNL     1      -5.526  16.035   9.031  1.00  0.00     0.020 A 
ATOM     64  C   UNL     1      -6.663  15.447   9.588  1.00  0.00     0.054 A 
BRANCH  64  65
ATOM     65  S   UNL     1      -8.320  15.937   9.038  1.00  0.00     0.124 S 
ATOM     66  O   UNL     1      -8.754  14.754   8.299  1.00  0.00    -0.237 OA
ATOM     67  O   UNL     1      -9.017  16.180  10.299  1.00  0.00    -0.237 OA
ATOM     68  O   UNL     1      -8.079  17.126   8.224  1.00  0.00    -0.744 OA
ENDBRANCH  64  65
ENDBRANCH  45  59
BRANCH  46  69
ATOM     69  C   UNL     1       5.001  11.548  13.151  1.00  0.00    -0.014 A 
ATOM     70  C   UNL     1       5.351  11.412  14.506  1.00  0.00     0.010 A 
ATOM     71  C   UNL     1       5.963  11.255  12.166  1.00  0.00     0.010 A 
ATOM     72  C   UNL     1       6.643  11.018  14.870  1.00  0.00     0.020 A 
ATOM     73  C   UNL     1       7.245  10.830  12.525  1.00  0.00     0.020 A 
ATOM     74  C   UNL     1       7.581  10.728  13.876  1.00  0.00     0.054 A 
BRANCH  74  75
ATOM     75  S   UNL     1       9.238  10.179  14.372  1.00  0.00     0.124 S 
ATOM     76  O   UNL     1       9.824  11.411  14.890  1.00  0.00    -0.237 OA
ATOM     77  O   UNL     1       8.944   9.150  15.366  1.00  0.00    -0.237 OA
ATOM     78  O   UNL     1       9.820   9.683  13.127  1.00  0.00    -0.744 OA
ENDBRANCH  74  75
ENDBRANCH  46  69
BRANCH  58  79
ATOM     79  C   UNL     1       1.516  17.533  13.955  1.00  0.00    -0.014 A 
ATOM     80  C   UNL     1       2.496  18.396  13.432  1.00  0.00     0.010 A 
ATOM     81  C   UNL     1       0.835  17.902  15.129  1.00  0.00     0.010 A 
ATOM     82  C   UNL     1       2.825  19.577  14.102  1.00  0.00     0.020 A 
ATOM     83  C   UNL     1       1.137  19.099  15.783  1.00  0.00     0.020 A 
ATOM     84  C   UNL     1       2.147  19.919  15.276  1.00  0.00     0.054 A 
BRANCH  84  85
ATOM     85  S   UNL     1       2.586  21.462  16.121  1.00  0.00     0.124 S 
ATOM     86  O   UNL     1       3.877  21.126  16.715  1.00  0.00    -0.237 OA
ATOM     87  O   UNL     1       2.630  22.427  15.025  1.00  0.00    -0.237 OA
ATOM     88  O   UNL     1       1.494  21.658  17.073  1.00  0.00    -0.744 OA
ENDBRANCH  84  85
ENDBRANCH  58  79
ENDBRANCH  32  33
ENDBRANCH  24  27
ENDBRANCH  22  23
ENDBRANCH  21  22
ENDBRANCH   1  21
TORSDOF 19
