REMARK SMILES O=C(NCCCCNC(=O)c1cc(Br)ccc1NC(=O)c1ccc(Br)s1)c1ccc(-c2c3nc(c(-c4ccc(S(=O)(=O)[O-])cc4)c4ccc([nH]4)c(-c4ccc(S(=O)(=O)[O-])cc4)c4nc(c(-c5ccc(S(=O)(=O)[O-])cc5)c5ccc2[nH]5)C=C4)C=C3)cc1
REMARK SMILES IDX 5 1 4 2 3 3 1 4 2 5 27 7 28 8 86 9 29 10 85 11 30 12 31 13
REMARK SMILES IDX 32 14 79 15 33 16 84 17 78 18 80 19 34 20 83 21 77 22 76 23
REMARK SMILES IDX 35 25 65 26 46 27 64 28 47 29 50 30 63 31 81 32 48 33 49 34
REMARK SMILES IDX 62 36 82 37 51 38 36 39 37 40 45 41 38 42 44 43 39 44 40 45
REMARK SMILES IDX 41 46 42 47 43 48 66 49 67 50 75 51 68 52 74 53 69 54 70 55
REMARK SMILES IDX 71 56 72 57 73 58 52 59 53 60 61 61 54 62 60 63 55 64 56 65
REMARK SMILES IDX 57 66 58 67 59 68 6 69 7 70 8 71 9 72 10 74 11 75 12 76
REMARK SMILES IDX 17 77 13 78 16 79 14 80 15 81 18 82 19 83 20 85 21 86 22 87
REMARK SMILES IDX 26 88 23 89 24 90 25 91
REMARK H PARENT 3 6 80 24 50 35 8 73 18 84
REMARK Flexibility Score: inf
ROOT
ATOM      1  C   UNL     1       5.080  -0.888   2.375  1.00  0.00     0.023 C 
ENDROOT
BRANCH   1   2
ATOM      2  C   UNL     1       4.735  -0.814   0.891  1.00  0.00     0.116 C 
BRANCH   2   3
ATOM      3  N   UNL     1       3.305  -0.879   0.636  1.00  0.00    -0.352 N 
ATOM      4  O   UNL     1       1.272  -0.163  -0.010  1.00  0.00    -0.269 OA
ATOM      5  C   UNL     1       2.488   0.009  -0.021  1.00  0.00     0.251 C 
ATOM      6  H   UNL     1       2.853  -1.680   0.988  1.00  0.00     0.163 HD
BRANCH   5   7
ATOM      7  C   UNL     1       3.066   1.182  -0.713  1.00  0.00     0.039 A 
ATOM      8  C   UNL     1       4.178   1.053  -1.549  1.00  0.00     0.014 A 
ATOM      9  C   UNL     1       2.470   2.433  -0.527  1.00  0.00     0.014 A 
ATOM     10  C   UNL     1       4.775   2.190  -2.089  1.00  0.00     0.010 A 
ATOM     11  C   UNL     1       3.032   3.564  -1.123  1.00  0.00     0.010 A 
ATOM     12  C   UNL     1       4.209   3.456  -1.880  1.00  0.00    -0.014 A 
BRANCH  12  13
ATOM     13  C   UNL     1       4.836   4.662  -2.476  1.00  0.00     0.031 A 
ATOM     14  C   UNL     1       5.449   5.721  -1.601  1.00  0.00     0.074 A 
ATOM     15  C   UNL     1       4.841   4.809  -3.814  1.00  0.00     0.049 A 
ATOM     16  N   UNL     1       5.991   6.861  -1.945  1.00  0.00    -0.248 NA
ATOM     17  C   UNL     1       5.446   5.469  -0.151  1.00  0.00     0.031 C 
ATOM     18  C   UNL     1       4.281   3.851  -4.770  1.00  0.00     0.029 A 
ATOM     19  N   UNL     1       5.330   5.820  -4.601  1.00  0.00    -0.354 N 
ATOM     20  C   UNL     1       6.370   7.476  -0.758  1.00  0.00     0.074 A 
ATOM     21  C   UNL     1       5.982   6.588   0.318  1.00  0.00     0.031 C 
ATOM     22  C   UNL     1       4.473   4.312  -6.015  1.00  0.00     0.029 A 
ATOM     23  C   UNL     1       5.121   5.618  -5.944  1.00  0.00     0.049 A 
ATOM     24  H   UNL     1       5.787   6.613  -4.239  1.00  0.00     0.167 HD
ATOM     25  C   UNL     1       6.984   8.671  -0.580  1.00  0.00     0.031 A 
ATOM     26  C   UNL     1       5.396   6.402  -7.003  1.00  0.00     0.031 A 
ATOM     27  C   UNL     1       7.367   9.552  -1.650  1.00  0.00     0.049 A 
ATOM     28  C   UNL     1       6.057   7.731  -6.783  1.00  0.00     0.074 A 
ATOM     29  C   UNL     1       8.016  10.773  -1.571  1.00  0.00     0.029 A 
ATOM     30  N   UNL     1       7.134   9.311  -2.996  1.00  0.00    -0.354 N 
ATOM     31  N   UNL     1       6.426   8.286  -5.654  1.00  0.00    -0.248 NA
ATOM     32  C   UNL     1       6.341   8.538  -7.977  1.00  0.00     0.031 C 
ATOM     33  C   UNL     1       8.141  11.287  -2.867  1.00  0.00     0.029 A 
ATOM     34  C   UNL     1       7.610  10.366  -3.756  1.00  0.00     0.049 A 
ATOM     35  H   UNL     1       6.695   8.507  -3.358  1.00  0.00     0.167 HD
ATOM     36  C   UNL     1       7.003   9.501  -6.001  1.00  0.00     0.074 A 
ATOM     37  C   UNL     1       6.940   9.597  -7.446  1.00  0.00     0.031 C 
ATOM     38  C   UNL     1       7.540  10.448  -5.194  1.00  0.00     0.031 A 
BRANCH  25  39
ATOM     39  C   UNL     1       7.240   9.108   0.838  1.00  0.00    -0.014 A 
ATOM     40  C   UNL     1       8.247   8.509   1.615  1.00  0.00     0.010 A 
ATOM     41  C   UNL     1       6.465  10.140   1.397  1.00  0.00     0.010 A 
ATOM     42  C   UNL     1       8.438   8.898   2.945  1.00  0.00     0.020 A 
ATOM     43  C   UNL     1       6.668  10.547   2.719  1.00  0.00     0.020 A 
ATOM     44  C   UNL     1       7.637   9.905   3.492  1.00  0.00     0.054 A 
BRANCH  44  45
ATOM     45  S   UNL     1       7.888  10.379   5.225  1.00  0.00     0.124 S 
ATOM     46  O   UNL     1       7.212   9.293   5.932  1.00  0.00    -0.237 OA
ATOM     47  O   UNL     1       9.343  10.398   5.350  1.00  0.00    -0.237 OA
ATOM     48  O   UNL     1       7.240  11.685   5.323  1.00  0.00    -0.744 OA
ENDBRANCH  44  45
ENDBRANCH  25  39
BRANCH  26  49
ATOM     49  C   UNL     1       5.028   5.931  -8.363  1.00  0.00    -0.014 A 
ATOM     50  C   UNL     1       6.013   5.447  -9.240  1.00  0.00     0.010 A 
ATOM     51  C   UNL     1       3.677   5.888  -8.754  1.00  0.00     0.010 A 
ATOM     52  C   UNL     1       5.652   4.916 -10.481  1.00  0.00     0.020 A 
ATOM     53  C   UNL     1       3.311   5.338  -9.985  1.00  0.00     0.020 A 
ATOM     54  C   UNL     1       4.302   4.857 -10.842  1.00  0.00     0.054 A 
BRANCH  54  55
ATOM     55  S   UNL     1       3.846   4.067 -12.411  1.00  0.00     0.124 S 
ATOM     56  O   UNL     1       4.168   5.109 -13.380  1.00  0.00    -0.237 OA
ATOM     57  O   UNL     1       4.711   2.889 -12.437  1.00  0.00    -0.237 OA
ATOM     58  O   UNL     1       2.423   3.779 -12.245  1.00  0.00    -0.744 OA
ENDBRANCH  54  55
ENDBRANCH  26  49
BRANCH  38  59
ATOM     59  C   UNL     1       8.133  11.662  -5.851  1.00  0.00    -0.014 A 
ATOM     60  C   UNL     1       7.314  12.691  -6.347  1.00  0.00     0.010 A 
ATOM     61  C   UNL     1       9.531  11.806  -5.906  1.00  0.00     0.010 A 
ATOM     62  C   UNL     1       7.885  13.840  -6.902  1.00  0.00     0.020 A 
ATOM     63  C   UNL     1      10.105  12.961  -6.443  1.00  0.00     0.020 A 
ATOM     64  C   UNL     1       9.278  13.968  -6.946  1.00  0.00     0.054 A 
BRANCH  64  65
ATOM     65  S   UNL     1       9.998  15.495  -7.610  1.00  0.00     0.124 S 
ATOM     66  O   UNL     1       9.854  15.297  -9.049  1.00  0.00    -0.237 OA
ATOM     67  O   UNL     1       9.149  16.532  -7.029  1.00  0.00    -0.237 OA
ATOM     68  O   UNL     1      11.372  15.473  -7.112  1.00  0.00    -0.744 OA
ENDBRANCH  64  65
ENDBRANCH  38  59
ENDBRANCH  12  13
ENDBRANCH   5   7
ENDBRANCH   2   3
ENDBRANCH   1   2
BRANCH   1  69
ATOM     69  C   UNL     1       4.592  -2.139   3.103  1.00  0.00     0.023 C 
BRANCH  69  70
ATOM     70  C   UNL     1       4.982  -3.466   2.460  1.00  0.00     0.116 C 
BRANCH  70  71
ATOM     71  N   UNL     1       6.420  -3.698   2.450  1.00  0.00    -0.352 N 
ATOM     72  C   UNL     1       7.111  -4.798   2.901  1.00  0.00     0.253 C 
ATOM     73  H   UNL     1       6.968  -2.973   2.072  1.00  0.00     0.163 HD
ATOM     74  O   UNL     1       8.335  -4.801   2.960  1.00  0.00    -0.269 OA
BRANCH  72  75
ATOM     75  C   UNL     1       6.351  -5.967   3.392  1.00  0.00     0.064 A 
ATOM     76  C   UNL     1       5.434  -6.572   2.518  1.00  0.00     0.031 A 
ATOM     77  C   UNL     1       6.499  -6.408   4.722  1.00  0.00     0.054 A 
ATOM     78  C   UNL     1       4.557  -7.529   3.007  1.00  0.00     0.018 A 
ATOM     79  C   UNL     1       5.542  -7.306   5.202  1.00  0.00     0.028 A 
ATOM     80  Br  UNL     1       3.279  -8.311   1.859  1.00  0.00    -0.051 Br
ATOM     81  C   UNL     1       4.581  -7.869   4.353  1.00  0.00     0.018 A 
BRANCH  77  82
ATOM     82  N   UNL     1       7.562  -5.905   5.509  1.00  0.00    -0.321 N 
ATOM     83  C   UNL     1       8.105  -6.293   6.720  1.00  0.00     0.265 C 
ATOM     84  H   UNL     1       8.006  -5.120   5.115  1.00  0.00     0.170 HD
ATOM     85  O   UNL     1       8.909  -5.530   7.258  1.00  0.00    -0.268 OA
BRANCH  83  86
ATOM     86  C   UNL     1       7.778  -7.589   7.280  1.00  0.00     0.093 A 
ATOM     87  C   UNL     1       7.857  -8.844   6.699  1.00  0.00     0.027 A 
ATOM     88  S   UNL     1       7.233  -7.683   8.904  1.00  0.00    -0.123 S 
ATOM     89  C   UNL     1       7.350  -9.867   7.556  1.00  0.00     0.028 A 
ATOM     90  C   UNL     1       6.967  -9.351   8.768  1.00  0.00     0.071 A 
ATOM     91  Br  UNL     1       6.218 -10.381  10.141  1.00  0.00    -0.039 Br
ENDBRANCH  83  86
ENDBRANCH  77  82
ENDBRANCH  72  75
ENDBRANCH  70  71
ENDBRANCH  69  70
ENDBRANCH   1  69
TORSDOF 16
