REMARK SMILES C[C@@H]([C@H]1CC=CS1)n1nccc1NC(=O)CC1(CC(=O)NCCCCNC(=O)c2ccc(-c3c4nc(c(-c5ccc(S(=O)(=O)[O-])cc5)c5ccc([nH]5)c(-c5ccc(S(=O)(=O)[O-])cc5)c5nc(c(-c6ccc(S(=O)(=O)[O-])cc6)c6ccc3[nH]6)C=C5)C=C4)cc2)CCCCC1
REMARK SMILES IDX 22 1 21 2 19 3 20 4 18 6 17 7 89 8 93 9 90 10 92 11 91 12
REMARK SMILES IDX 16 13 14 14 13 15 15 17 12 18 8 19 9 20 10 21 11 22 2 23
REMARK SMILES IDX 1 24 3 25 4 26 7 27 5 28 6 29 23 30 24 31 25 32 26 33 27 34
REMARK SMILES IDX 28 36 29 37 30 38 88 39 31 40 87 41 32 42 33 43 34 44 81 45
REMARK SMILES IDX 35 46 86 47 80 48 82 49 36 50 85 51 79 52 78 53 37 55 67 56
REMARK SMILES IDX 48 57 66 58 49 59 52 60 65 61 83 62 50 63 51 64 64 66 84 67
REMARK SMILES IDX 53 68 38 69 39 70 47 71 40 72 46 73 41 74 42 75 43 76 44 77
REMARK SMILES IDX 45 78 68 79 69 80 77 81 70 82 76 83 71 84 72 85 73 86 74 87
REMARK SMILES IDX 75 88 54 89 55 90 63 91 56 92 62 93 57 94 58 95 59 96 60 97
REMARK SMILES IDX 61 98
REMARK H PARENT 21 5 13 16 26 35 82 54 52 65
REMARK Flexibility Score: inf
ROOT
ATOM      1  C   UNL     1       5.377   2.150   8.106  1.00  0.00     0.116 C 
ENDROOT
BRANCH   1   2
ATOM      2  N   UNL     1       3.937   1.999   8.037  1.00  0.00    -0.356 N 
ATOM      3  C   UNL     1       3.163   1.125   7.345  1.00  0.00     0.220 C 
ATOM      4  O   UNL     1       1.940   1.232   7.448  1.00  0.00    -0.275 OA
ATOM      5  H   UNL     1       3.433   2.641   8.588  1.00  0.00     0.163 HD
BRANCH   3   6
ATOM      6  C   UNL     1       3.748   0.054   6.434  1.00  0.00     0.107 C 
BRANCH   6   7
ATOM      7  C   UNL     1       4.067   0.439   4.954  1.00  0.00    -0.012 C 
ATOM      8  C   UNL     1       4.039  -0.852   4.086  1.00  0.00     0.008 C 
ATOM      9  C   UNL     1       5.505   1.003   4.776  1.00  0.00     0.008 C 
ATOM     10  C   UNL     1       5.154  -1.858   4.398  1.00  0.00     0.001 C 
ATOM     11  C   UNL     1       6.631   0.037   5.133  1.00  0.00     0.001 C 
ATOM     12  C   UNL     1       6.538  -1.223   4.290  1.00  0.00     0.000 C 
BRANCH   7  13
ATOM     13  C   UNL     1       3.098   1.548   4.419  1.00  0.00     0.108 C 
BRANCH  13  14
ATOM     14  C   UNL     1       1.641   1.222   4.152  1.00  0.00     0.226 C 
ATOM     15  N   UNL     1       1.200   0.487   3.005  1.00  0.00    -0.311 N 
ATOM     16  H   UNL     1       0.269   0.170   3.022  1.00  0.00     0.171 HD
ATOM     17  O   UNL     1       0.718   1.573   4.868  1.00  0.00    -0.275 OA
BRANCH  15  18
ATOM     18  C   UNL     1       1.930   0.172   1.878  1.00  0.00     0.131 A 
ATOM     19  N   UNL     1       1.850  -0.957   1.074  1.00  0.00    -0.246 N 
ATOM     20  N   UNL     1       2.950  -1.054   0.292  1.00  0.00    -0.179 NA
ATOM     21  C   UNL     1       3.539   0.132   0.372  1.00  0.00     0.137 A 
ATOM     22  C   UNL     1       2.896   0.964   1.292  1.00  0.00     0.068 A 
BRANCH  19  23
ATOM     23  C   UNL     1       0.899  -2.088   1.072  1.00  0.00     0.120 C 
ATOM     24  C   UNL     1      -0.467  -1.688   1.663  1.00  0.00     0.034 C 
BRANCH  23  25
ATOM     25  C   UNL     1       0.710  -2.696  -0.356  1.00  0.00     0.079 C 
ATOM     26  C   UNL     1       1.980  -3.225  -1.062  1.00  0.00     0.045 C 
ATOM     27  S   UNL     1      -0.423  -4.167  -0.410  1.00  0.00    -0.128 SA
ATOM     28  C   UNL     1       1.584  -4.319  -2.003  1.00  0.00    -0.019 C 
ATOM     29  C   UNL     1       0.393  -4.866  -1.762  1.00  0.00     0.037 C 
ENDBRANCH  23  25
ENDBRANCH  19  23
ENDBRANCH  15  18
ENDBRANCH  13  14
ENDBRANCH   7  13
ENDBRANCH   6   7
ENDBRANCH   3   6
ENDBRANCH   1   2
BRANCH   1  30
ATOM     30  C   UNL     1       5.857   3.355   7.286  1.00  0.00     0.023 C 
BRANCH  30  31
ATOM     31  C   UNL     1       5.972   4.689   8.022  1.00  0.00     0.023 C 
BRANCH  31  32
ATOM     32  C   UNL     1       7.102   4.769   9.040  1.00  0.00     0.116 C 
BRANCH  32  33
ATOM     33  N   UNL     1       8.426   4.551   8.458  1.00  0.00    -0.352 N 
ATOM     34  C   UNL     1       9.557   4.083   9.109  1.00  0.00     0.251 C 
ATOM     35  H   UNL     1       8.525   4.758   7.501  1.00  0.00     0.163 HD
ATOM     36  O   UNL     1      10.673   4.235   8.648  1.00  0.00    -0.269 OA
BRANCH  34  37
ATOM     37  C   UNL     1       9.339   3.380  10.385  1.00  0.00     0.039 A 
ATOM     38  C   UNL     1       9.823   3.906  11.581  1.00  0.00     0.014 A 
ATOM     39  C   UNL     1       8.452   2.307  10.365  1.00  0.00     0.014 A 
ATOM     40  C   UNL     1       9.315   3.409  12.781  1.00  0.00     0.010 A 
ATOM     41  C   UNL     1       7.871   1.904  11.550  1.00  0.00     0.010 A 
ATOM     42  C   UNL     1       8.301   2.435  12.770  1.00  0.00    -0.014 A 
BRANCH  42  43
ATOM     43  C   UNL     1       7.635   2.057  14.024  1.00  0.00     0.031 A 
ATOM     44  C   UNL     1       7.198   3.163  14.936  1.00  0.00     0.074 A 
ATOM     45  C   UNL     1       7.231   0.803  14.320  1.00  0.00     0.049 A 
ATOM     46  N   UNL     1       7.639   3.436  16.122  1.00  0.00    -0.248 NA
ATOM     47  C   UNL     1       6.178   4.108  14.456  1.00  0.00     0.031 C 
ATOM     48  C   UNL     1       7.256  -0.401  13.480  1.00  0.00     0.029 A 
ATOM     49  N   UNL     1       6.593   0.369  15.443  1.00  0.00    -0.354 N 
ATOM     50  C   UNL     1       6.855   4.481  16.614  1.00  0.00     0.074 A 
ATOM     51  C   UNL     1       6.044   4.923  15.506  1.00  0.00     0.031 C 
ATOM     52  C   UNL     1       6.445  -1.340  14.010  1.00  0.00     0.029 A 
ATOM     53  C   UNL     1       6.023  -0.887  15.320  1.00  0.00     0.049 A 
ATOM     54  H   UNL     1       6.542   0.902  16.269  1.00  0.00     0.167 HD
ATOM     55  C   UNL     1       6.812   4.806  17.940  1.00  0.00     0.031 A 
ATOM     56  C   UNL     1       5.257  -1.530  16.229  1.00  0.00     0.031 A 
ATOM     57  C   UNL     1       7.846   4.148  18.691  1.00  0.00     0.049 A 
ATOM     58  C   UNL     1       5.568  -0.950  17.554  1.00  0.00     0.074 A 
ATOM     59  C   UNL     1       9.225   4.164  18.685  1.00  0.00     0.029 A 
ATOM     60  N   UNL     1       7.484   3.035  19.412  1.00  0.00    -0.354 N 
ATOM     61  N   UNL     1       6.738  -1.048  18.123  1.00  0.00    -0.248 NA
ATOM     62  C   UNL     1       4.701   0.085  18.092  1.00  0.00     0.031 C 
ATOM     63  C   UNL     1       9.606   2.820  18.973  1.00  0.00     0.029 A 
ATOM     64  C   UNL     1       8.439   2.080  19.179  1.00  0.00     0.049 A 
ATOM     65  H   UNL     1       6.689   2.942  19.986  1.00  0.00     0.167 HD
ATOM     66  C   UNL     1       6.913   0.151  18.796  1.00  0.00     0.074 A 
ATOM     67  C   UNL     1       5.583   0.751  18.841  1.00  0.00     0.031 C 
ATOM     68  C   UNL     1       8.159   0.667  19.017  1.00  0.00     0.031 A 
BRANCH  55  69
ATOM     69  C   UNL     1       5.648   5.467  18.643  1.00  0.00    -0.014 A 
ATOM     70  C   UNL     1       5.793   5.854  19.995  1.00  0.00     0.010 A 
ATOM     71  C   UNL     1       4.342   5.469  18.117  1.00  0.00     0.010 A 
ATOM     72  C   UNL     1       4.681   6.151  20.797  1.00  0.00     0.020 A 
ATOM     73  C   UNL     1       3.230   5.806  18.896  1.00  0.00     0.020 A 
ATOM     74  C   UNL     1       3.402   6.104  20.243  1.00  0.00     0.054 A 
BRANCH  74  75
ATOM     75  S   UNL     1       1.961   6.349  21.314  1.00  0.00     0.124 S 
ATOM     76  O   UNL     1       2.006   5.154  22.152  1.00  0.00    -0.237 OA
ATOM     77  O   UNL     1       2.279   7.606  21.984  1.00  0.00    -0.237 OA
ATOM     78  O   UNL     1       0.845   6.414  20.373  1.00  0.00    -0.744 OA
ENDBRANCH  74  75
ENDBRANCH  55  69
BRANCH  56  79
ATOM     79  C   UNL     1       4.096  -2.404  15.955  1.00  0.00    -0.014 A 
ATOM     80  C   UNL     1       3.585  -3.268  16.936  1.00  0.00     0.010 A 
ATOM     81  C   UNL     1       3.321  -2.187  14.794  1.00  0.00     0.010 A 
ATOM     82  C   UNL     1       2.315  -3.849  16.790  1.00  0.00     0.020 A 
ATOM     83  C   UNL     1       2.058  -2.766  14.639  1.00  0.00     0.020 A 
ATOM     84  C   UNL     1       1.550  -3.575  15.651  1.00  0.00     0.054 A 
BRANCH  84  85
ATOM     85  S   UNL     1      -0.162  -4.176  15.559  1.00  0.00     0.124 S 
ATOM     86  O   UNL     1       0.024  -5.610  15.366  1.00  0.00    -0.237 OA
ATOM     87  O   UNL     1      -0.707  -3.774  16.853  1.00  0.00    -0.237 OA
ATOM     88  O   UNL     1      -0.714  -3.462  14.409  1.00  0.00    -0.744 OA
ENDBRANCH  84  85
ENDBRANCH  56  79
BRANCH  68  89
ATOM     89  C   UNL     1       9.364  -0.221  18.802  1.00  0.00    -0.014 A 
ATOM     90  C   UNL     1       9.720  -0.748  17.546  1.00  0.00     0.010 A 
ATOM     91  C   UNL     1      10.271  -0.358  19.869  1.00  0.00     0.010 A 
ATOM     92  C   UNL     1      10.950  -1.397  17.364  1.00  0.00     0.020 A 
ATOM     93  C   UNL     1      11.505  -0.989  19.690  1.00  0.00     0.020 A 
ATOM     94  C   UNL     1      11.839  -1.506  18.437  1.00  0.00     0.054 A 
BRANCH  94  95
ATOM     95  S   UNL     1      13.472  -2.255  18.169  1.00  0.00     0.124 S 
ATOM     96  O   UNL     1      13.148  -3.670  18.009  1.00  0.00    -0.237 OA
ATOM     97  O   UNL     1      13.947  -1.579  16.964  1.00  0.00    -0.237 OA
ATOM     98  O   UNL     1      14.211  -1.923  19.386  1.00  0.00    -0.744 OA
ENDBRANCH  94  95
ENDBRANCH  68  89
ENDBRANCH  42  43
ENDBRANCH  34  37
ENDBRANCH  32  33
ENDBRANCH  31  32
ENDBRANCH  30  31
ENDBRANCH   1  30
TORSDOF 20
