REMARK SMILES O=C(NCCCCNC(=O)c1ccc([C@H]2CCCN(C(=O)c3ccc4[nH]ccc4c3)C2)cc1)c1ccc(-c2c3nc(c(-c4ccc(S(=O)(=O)[O-])cc4)c4ccc([nH]4)c(-c4ccc(S(=O)(=O)[O-])cc4)c4nc(c(-c5ccc(S(=O)(=O)[O-])cc5)c5ccc2[nH]5)C=C4)C=C3)cc1
REMARK SMILES IDX 5 1 4 2 3 3 1 4 2 5 34 7 35 8 93 9 36 10 92 11 37 12 38 13
REMARK SMILES IDX 39 14 86 15 40 16 91 17 85 18 87 19 41 20 90 21 84 22 83 23
REMARK SMILES IDX 42 25 72 26 53 27 71 28 54 29 57 30 70 31 88 32 55 33 56 34
REMARK SMILES IDX 69 36 89 37 58 38 43 39 44 40 52 41 45 42 51 43 46 44 47 45
REMARK SMILES IDX 48 46 49 47 50 48 73 49 74 50 82 51 75 52 81 53 76 54 77 55
REMARK SMILES IDX 78 56 79 57 80 58 59 59 60 60 68 61 61 62 67 63 62 64 63 65
REMARK SMILES IDX 64 66 65 67 66 68 6 69 7 70 8 71 9 72 10 74 11 75 12 76
REMARK SMILES IDX 33 77 13 78 32 79 14 80 15 81 16 82 31 83 17 84 19 85 18 86
REMARK SMILES IDX 20 87 21 88 22 89 23 90 30 91 24 92 29 93 25 94 28 95 26 96
REMARK SMILES IDX 27 97
REMARK H PARENT 3 6 87 24 57 35 8 73 26 98
REMARK Flexibility Score: inf
ROOT
ATOM      1  C   UNL     1       4.481   8.462 -16.472  1.00  0.00     0.023 C 
ENDROOT
BRANCH   1   2
ATOM      2  C   UNL     1       3.731   7.545 -17.426  1.00  0.00     0.116 C 
BRANCH   2   3
ATOM      3  N   UNL     1       2.292   7.771 -17.437  1.00  0.00    -0.352 N 
ATOM      4  O   UNL     1       0.283   8.277 -18.343  1.00  0.00    -0.269 OA
ATOM      5  C   UNL     1       1.462   7.988 -18.516  1.00  0.00     0.251 C 
ATOM      6  H   UNL     1       1.853   7.767 -16.556  1.00  0.00     0.163 HD
BRANCH   5   7
ATOM      7  C   UNL     1       2.022   7.905 -19.884  1.00  0.00     0.039 A 
ATOM      8  C   UNL     1       2.867   6.850 -20.229  1.00  0.00     0.014 A 
ATOM      9  C   UNL     1       1.746   8.916 -20.809  1.00  0.00     0.014 A 
ATOM     10  C   UNL     1       3.581   6.907 -21.418  1.00  0.00     0.010 A 
ATOM     11  C   UNL     1       2.381   8.908 -22.057  1.00  0.00     0.010 A 
ATOM     12  C   UNL     1       3.336   7.925 -22.356  1.00  0.00    -0.014 A 
BRANCH  12  13
ATOM     13  C   UNL     1       4.055   7.873 -23.657  1.00  0.00     0.031 A 
ATOM     14  C   UNL     1       5.019   8.950 -24.077  1.00  0.00     0.074 A 
ATOM     15  C   UNL     1       3.885   6.780 -24.428  1.00  0.00     0.049 A 
ATOM     16  N   UNL     1       5.789   8.991 -25.137  1.00  0.00    -0.248 NA
ATOM     17  C   UNL     1       5.133  10.135 -23.213  1.00  0.00     0.031 C 
ATOM     18  C   UNL     1       2.961   5.678 -24.133  1.00  0.00     0.029 A 
ATOM     19  N   UNL     1       4.505   6.387 -25.585  1.00  0.00    -0.354 N 
ATOM     20  C   UNL     1       6.469  10.201 -25.073  1.00  0.00     0.074 A 
ATOM     21  C   UNL     1       5.999  10.883 -23.886  1.00  0.00     0.031 C 
ATOM     22  C   UNL     1       3.131   4.706 -25.038  1.00  0.00     0.029 A 
ATOM     23  C   UNL     1       4.117   5.141 -26.018  1.00  0.00     0.049 A 
ATOM     24  H   UNL     1       5.165   6.943 -26.060  1.00  0.00     0.167 HD
ATOM     25  C   UNL     1       7.404  10.695 -25.922  1.00  0.00     0.031 A 
ATOM     26  C   UNL     1       4.499   4.425 -27.091  1.00  0.00     0.031 A 
ATOM     27  C   UNL     1       7.865  10.013 -27.107  1.00  0.00     0.049 A 
ATOM     28  C   UNL     1       5.532   4.998 -28.014  1.00  0.00     0.074 A 
ATOM     29  C   UNL     1       8.810  10.431 -28.029  1.00  0.00     0.029 A 
ATOM     30  N   UNL     1       7.420   8.770 -27.531  1.00  0.00    -0.354 N 
ATOM     31  N   UNL     1       6.169   6.141 -27.925  1.00  0.00    -0.248 NA
ATOM     32  C   UNL     1       5.899   4.186 -29.180  1.00  0.00     0.031 C 
ATOM     33  C   UNL     1       8.905   9.461 -29.033  1.00  0.00     0.029 A 
ATOM     34  C   UNL     1       8.059   8.412 -28.708  1.00  0.00     0.049 A 
ATOM     35  H   UNL     1       6.748   8.221 -27.065  1.00  0.00     0.167 HD
ATOM     36  C   UNL     1       7.015   6.186 -29.026  1.00  0.00     0.074 A 
ATOM     37  C   UNL     1       6.836   4.938 -29.741  1.00  0.00     0.031 C 
ATOM     38  C   UNL     1       7.855   7.175 -29.417  1.00  0.00     0.031 A 
BRANCH  25  39
ATOM     39  C   UNL     1       7.990  12.050 -25.613  1.00  0.00    -0.014 A 
ATOM     40  C   UNL     1       8.899  12.222 -24.554  1.00  0.00     0.010 A 
ATOM     41  C   UNL     1       7.685  13.151 -26.435  1.00  0.00     0.010 A 
ATOM     42  C   UNL     1       9.470  13.474 -24.305  1.00  0.00     0.020 A 
ATOM     43  C   UNL     1       8.272  14.399 -26.205  1.00  0.00     0.020 A 
ATOM     44  C   UNL     1       9.152  14.556 -25.132  1.00  0.00     0.054 A 
BRANCH  44  45
ATOM     45  S   UNL     1       9.937  16.160 -24.808  1.00  0.00     0.124 S 
ATOM     46  O   UNL     1       9.246  16.593 -23.596  1.00  0.00    -0.237 OA
ATOM     47  O   UNL     1      11.342  15.800 -24.634  1.00  0.00    -0.237 OA
ATOM     48  O   UNL     1       9.641  16.940 -26.007  1.00  0.00    -0.744 OA
ENDBRANCH  44  45
ENDBRANCH  25  39
BRANCH  26  49
ATOM     49  C   UNL     1       3.868   3.105 -27.358  1.00  0.00    -0.014 A 
ATOM     50  C   UNL     1       4.602   1.913 -27.246  1.00  0.00     0.010 A 
ATOM     51  C   UNL     1       2.505   3.041 -27.708  1.00  0.00     0.010 A 
ATOM     52  C   UNL     1       3.991   0.681 -27.500  1.00  0.00     0.020 A 
ATOM     53  C   UNL     1       1.883   1.811 -27.928  1.00  0.00     0.020 A 
ATOM     54  C   UNL     1       2.635   0.639 -27.840  1.00  0.00     0.054 A 
BRANCH  54  55
ATOM     55  S   UNL     1       1.847  -0.969 -28.123  1.00  0.00     0.124 S 
ATOM     56  O   UNL     1       2.320  -1.306 -29.461  1.00  0.00    -0.237 OA
ATOM     57  O   UNL     1       2.385  -1.784 -27.036  1.00  0.00    -0.237 OA
ATOM     58  O   UNL     1       0.420  -0.671 -28.017  1.00  0.00    -0.744 OA
ENDBRANCH  54  55
ENDBRANCH  26  49
BRANCH  38  59
ATOM     59  C   UNL     1       8.646   6.933 -30.674  1.00  0.00    -0.014 A 
ATOM     60  C   UNL     1       8.023   6.941 -31.935  1.00  0.00     0.010 A 
ATOM     61  C   UNL     1      10.029   6.695 -30.592  1.00  0.00     0.010 A 
ATOM     62  C   UNL     1       8.760   6.663 -33.088  1.00  0.00     0.020 A 
ATOM     63  C   UNL     1      10.775   6.446 -31.747  1.00  0.00     0.020 A 
ATOM     64  C   UNL     1      10.131   6.410 -32.985  1.00  0.00     0.054 A 
BRANCH  64  65
ATOM     65  S   UNL     1      11.070   6.057 -34.496  1.00  0.00     0.124 S 
ATOM     66  O   UNL     1      10.674   4.681 -34.784  1.00  0.00    -0.237 OA
ATOM     67  O   UNL     1      10.569   7.064 -35.429  1.00  0.00    -0.237 OA
ATOM     68  O   UNL     1      12.462   6.233 -34.087  1.00  0.00    -0.744 OA
ENDBRANCH  64  65
ENDBRANCH  38  59
ENDBRANCH  12  13
ENDBRANCH   5   7
ENDBRANCH   2   3
ENDBRANCH   1   2
BRANCH   1  69
ATOM     69  C   UNL     1       4.141   8.278 -14.998  1.00  0.00     0.023 C 
BRANCH  69  70
ATOM     70  C   UNL     1       4.236   6.843 -14.487  1.00  0.00     0.116 C 
BRANCH  70  71
ATOM     71  N   UNL     1       5.567   6.272 -14.636  1.00  0.00    -0.352 N 
ATOM     72  C   UNL     1       6.424   5.808 -13.663  1.00  0.00     0.251 C 
ATOM     73  H   UNL     1       5.901   6.210 -15.559  1.00  0.00     0.163 HD
ATOM     74  O   UNL     1       7.564   5.470 -13.930  1.00  0.00    -0.269 OA
BRANCH  72  75
ATOM     75  C   UNL     1       5.946   5.763 -12.268  1.00  0.00     0.039 A 
ATOM     76  C   UNL     1       6.636   6.479 -11.295  1.00  0.00     0.014 A 
ATOM     77  C   UNL     1       4.784   5.066 -11.943  1.00  0.00     0.014 A 
ATOM     78  C   UNL     1       6.089   6.594 -10.015  1.00  0.00     0.005 A 
ATOM     79  C   UNL     1       4.228   5.209 -10.673  1.00  0.00     0.005 A 
ATOM     80  C   UNL     1       4.841   6.020  -9.703  1.00  0.00    -0.043 A 
BRANCH  80  81
ATOM     81  C   UNL     1       4.204   6.287  -8.340  1.00  0.00     0.039 C 
ATOM     82  C   UNL     1       4.158   7.805  -8.024  1.00  0.00     0.012 C 
ATOM     83  C   UNL     1       2.777   5.713  -8.184  1.00  0.00     0.128 C 
ATOM     84  C   UNL     1       3.497   8.096  -6.674  1.00  0.00     0.022 C 
ATOM     85  N   UNL     1       2.214   6.028  -6.877  1.00  0.00    -0.338 N 
ATOM     86  C   UNL     1       2.118   7.453  -6.573  1.00  0.00     0.120 C 
BRANCH  85  87
ATOM     87  C   UNL     1       1.923   4.984  -6.009  1.00  0.00     0.253 C 
ATOM     88  O   UNL     1       2.108   3.798  -6.268  1.00  0.00    -0.269 OA
BRANCH  87  89
ATOM     89  C   UNL     1       1.385   5.301  -4.679  1.00  0.00     0.040 A 
ATOM     90  C   UNL     1       2.236   5.191  -3.578  1.00  0.00     0.016 A 
ATOM     91  C   UNL     1       0.031   5.633  -4.541  1.00  0.00     0.024 A 
ATOM     92  C   UNL     1       1.758   5.439  -2.291  1.00  0.00     0.027 A 
ATOM     93  C   UNL     1      -0.466   5.874  -3.247  1.00  0.00     0.000 A 
ATOM     94  C   UNL     1       0.404   5.775  -2.159  1.00  0.00     0.045 A 
ATOM     95  C   UNL     1      -1.748   6.205  -2.729  1.00  0.00     0.028 A 
ATOM     96  N   UNL     1      -0.333   6.047  -1.028  1.00  0.00    -0.361 N 
ATOM     97  C   UNL     1      -1.637   6.301  -1.361  1.00  0.00     0.083 A 
ATOM     98  H   UNL     1       0.026   6.058  -0.111  1.00  0.00     0.166 HD
ENDBRANCH  87  89
ENDBRANCH  85  87
ENDBRANCH  80  81
ENDBRANCH  72  75
ENDBRANCH  70  71
ENDBRANCH  69  70
ENDBRANCH   1  69
TORSDOF 17
