REMARK SMILES CCc1ccc(S(=O)(=O)c2nnn(-c3ccc(C(=O)NCCCCNC(=O)c4ccc(-c5c6nc(c(-c7ccc(S(=O)(=O)[O-])cc7)c7ccc([nH]7)c(-c7ccc(S(=O)(=O)[O-])cc7)c7nc(c(-c8ccc(S(=O)(=O)[O-])cc8)c8ccc5[nH]8)C=C7)C=C6)cc4)cc3)c2C)cc1
REMARK SMILES IDX 22 1 21 2 20 3 18 4 19 5 17 7 14 8 15 9 89 10 16 11 88 12
REMARK SMILES IDX 13 13 10 14 11 15 90 16 12 17 91 18 7 19 8 20 9 21 6 22 3 23
REMARK SMILES IDX 4 24 93 25 5 26 92 27 2 28 1 29 23 30 24 31 25 32 26 33
REMARK SMILES IDX 27 35 28 36 29 37 87 38 30 39 86 40 31 41 32 42 33 43 80 44
REMARK SMILES IDX 34 45 85 46 79 47 81 48 35 49 84 50 78 51 77 52 36 54 66 55
REMARK SMILES IDX 47 56 65 57 48 58 51 59 64 60 82 61 49 62 50 63 63 65 83 66
REMARK SMILES IDX 52 67 37 68 38 69 46 70 39 71 45 72 40 73 41 74 42 75 43 76
REMARK SMILES IDX 44 77 67 78 68 79 76 80 69 81 75 82 70 83 71 84 72 85 73 86
REMARK SMILES IDX 74 87 53 88 54 89 62 90 55 91 61 92 56 93 57 94 58 95 59 96
REMARK SMILES IDX 60 97
REMARK H PARENT 20 6 25 34 81 53 51 64
REMARK Flexibility Score: inf
ROOT
ATOM      1  C   UNL     1      10.009  -7.338   5.290  1.00  0.00     0.023 C 
ENDROOT
BRANCH   1   2
ATOM      2  C   UNL     1       9.572  -5.876   5.112  1.00  0.00     0.116 C 
BRANCH   2   3
ATOM      3  N   UNL     1      10.534  -5.131   4.318  1.00  0.00    -0.352 N 
ATOM      4  C   UNL     1      10.625  -4.841   2.978  1.00  0.00     0.251 C 
ATOM      5  O   UNL     1      11.593  -4.178   2.604  1.00  0.00    -0.269 OA
ATOM      6  H   UNL     1      11.273  -4.756   4.850  1.00  0.00     0.163 HD
BRANCH   4   7
ATOM      7  C   UNL     1       9.599  -5.239   1.970  1.00  0.00     0.039 A 
ATOM      8  C   UNL     1       7.565  -5.708   0.108  1.00  0.00     0.067 A 
ATOM      9  C   UNL     1       8.525  -4.738  -0.173  1.00  0.00     0.029 A 
ATOM     10  C   UNL     1       7.675  -6.515   1.240  1.00  0.00     0.029 A 
ATOM     11  C   UNL     1       9.520  -4.485   0.781  1.00  0.00     0.016 A 
ATOM     12  C   UNL     1       8.719  -6.308   2.135  1.00  0.00     0.016 A 
BRANCH   8  13
ATOM     13  N   UNL     1       6.435  -5.856  -0.711  1.00  0.00    -0.216 N 
ATOM     14  C   UNL     1       4.434  -6.216  -1.470  1.00  0.00     0.205 A 
ATOM     15  N   UNL     1       5.316  -6.260  -2.519  1.00  0.00    -0.117 NA
ATOM     16  C   UNL     1       5.112  -5.881  -0.310  1.00  0.00     0.081 A 
ATOM     17  N   UNL     1       6.522  -5.956  -2.054  1.00  0.00    -0.061 NA
ATOM     18  C   UNL     1       4.643  -5.437   1.028  1.00  0.00     0.070 C 
BRANCH  14  19
ATOM     19  S   UNL     1       2.725  -6.313  -1.701  1.00  0.00     0.227 S 
ATOM     20  O   UNL     1       2.248  -7.033  -0.531  1.00  0.00    -0.217 OA
ATOM     21  O   UNL     1       2.524  -6.807  -3.044  1.00  0.00    -0.217 OA
BRANCH  19  22
ATOM     22  C   UNL     1       2.101  -4.657  -1.616  1.00  0.00     0.073 A 
ATOM     23  C   UNL     1       1.050  -2.076  -1.354  1.00  0.00    -0.048 A 
ATOM     24  C   UNL     1       0.198  -3.189  -1.389  1.00  0.00     0.005 A 
ATOM     25  C   UNL     1       2.432  -2.271  -1.468  1.00  0.00     0.005 A 
ATOM     26  C   UNL     1       0.719  -4.479  -1.510  1.00  0.00     0.021 A 
ATOM     27  C   UNL     1       2.958  -3.553  -1.608  1.00  0.00     0.021 A 
BRANCH  23  28
ATOM     28  C   UNL     1       0.495  -0.680  -1.215  1.00  0.00     0.032 C 
ATOM     29  C   UNL     1       0.926  -0.001   0.079  1.00  0.00     0.009 C 
ENDBRANCH  23  28
ENDBRANCH  19  22
ENDBRANCH  14  19
ENDBRANCH   8  13
ENDBRANCH   4   7
ENDBRANCH   2   3
ENDBRANCH   1   2
BRANCH   1  30
ATOM     30  C   UNL     1      11.133  -7.569   6.310  1.00  0.00     0.023 C 
BRANCH  30  31
ATOM     31  C   UNL     1      10.746  -7.301   7.759  1.00  0.00     0.116 C 
BRANCH  31  32
ATOM     32  N   UNL     1       9.674  -8.180   8.239  1.00  0.00    -0.352 N 
ATOM     33  C   UNL     1       8.946  -8.071   9.413  1.00  0.00     0.251 C 
ATOM     34  H   UNL     1       9.444  -8.940   7.657  1.00  0.00     0.163 HD
ATOM     35  O   UNL     1       8.397  -9.047   9.908  1.00  0.00    -0.269 OA
BRANCH  33  36
ATOM     36  C   UNL     1       8.821  -6.741  10.032  1.00  0.00     0.039 A 
ATOM     37  C   UNL     1       8.896  -6.535  11.413  1.00  0.00     0.014 A 
ATOM     38  C   UNL     1       8.668  -5.670   9.157  1.00  0.00     0.014 A 
ATOM     39  C   UNL     1       8.888  -5.225  11.893  1.00  0.00     0.010 A 
ATOM     40  C   UNL     1       8.870  -4.398   9.608  1.00  0.00     0.010 A 
ATOM     41  C   UNL     1       8.888  -4.163  10.976  1.00  0.00    -0.014 A 
BRANCH  41  42
ATOM     42  C   UNL     1       9.014  -2.772  11.386  1.00  0.00     0.031 A 
ATOM     43  C   UNL     1      10.263  -2.469  12.131  1.00  0.00     0.074 A 
ATOM     44  C   UNL     1       8.206  -1.808  10.889  1.00  0.00     0.049 A 
ATOM     45  N   UNL     1      10.370  -2.184  13.384  1.00  0.00    -0.248 NA
ATOM     46  C   UNL     1      11.558  -2.671  11.456  1.00  0.00     0.031 C 
ATOM     47  C   UNL     1       7.137  -1.940   9.888  1.00  0.00     0.029 A 
ATOM     48  N   UNL     1       8.261  -0.465  11.071  1.00  0.00    -0.354 N 
ATOM     49  C   UNL     1      11.717  -1.917  13.599  1.00  0.00     0.074 A 
ATOM     50  C   UNL     1      12.415  -2.449  12.456  1.00  0.00     0.031 C 
ATOM     51  C   UNL     1       6.844  -0.724   9.373  1.00  0.00     0.029 A 
ATOM     52  C   UNL     1       7.575   0.284  10.118  1.00  0.00     0.049 A 
ATOM     53  H   UNL     1       8.749  -0.051  11.819  1.00  0.00     0.167 HD
ATOM     54  C   UNL     1      12.118  -1.039  14.561  1.00  0.00     0.031 A 
ATOM     55  C   UNL     1       7.641   1.630   9.934  1.00  0.00     0.031 A 
ATOM     56  C   UNL     1      11.022  -0.678  15.428  1.00  0.00     0.049 A 
ATOM     57  C   UNL     1       8.157   2.203  11.204  1.00  0.00     0.074 A 
ATOM     58  C   UNL     1      10.160  -1.383  16.245  1.00  0.00     0.029 A 
ATOM     59  N   UNL     1      10.411   0.532  15.182  1.00  0.00    -0.354 N 
ATOM     60  N   UNL     1       7.495   2.143  12.327  1.00  0.00    -0.248 NA
ATOM     61  C   UNL     1       9.596   2.373  11.339  1.00  0.00     0.031 C 
ATOM     62  C   UNL     1       8.886  -0.779  16.033  1.00  0.00     0.029 A 
ATOM     63  C   UNL     1       9.056   0.319  15.186  1.00  0.00     0.049 A 
ATOM     64  H   UNL     1      10.864   1.393  15.031  1.00  0.00     0.167 HD
ATOM     65  C   UNL     1       8.446   1.804  13.280  1.00  0.00     0.074 A 
ATOM     66  C   UNL     1       9.736   2.049  12.629  1.00  0.00     0.031 C 
ATOM     67  C   UNL     1       8.114   1.075  14.387  1.00  0.00     0.031 A 
BRANCH  54  68
ATOM     68  C   UNL     1      13.358  -0.184  14.470  1.00  0.00    -0.014 A 
ATOM     69  C   UNL     1      13.678   0.651  15.561  1.00  0.00     0.010 A 
ATOM     70  C   UNL     1      14.059   0.037  13.268  1.00  0.00     0.010 A 
ATOM     71  C   UNL     1      14.590   1.704  15.428  1.00  0.00     0.020 A 
ATOM     72  C   UNL     1      15.004   1.057  13.138  1.00  0.00     0.020 A 
ATOM     73  C   UNL     1      15.237   1.907  14.210  1.00  0.00     0.054 A 
BRANCH  73  74
ATOM     74  S   UNL     1      16.338   3.329  14.022  1.00  0.00     0.124 S 
ATOM     75  O   UNL     1      15.408   4.447  14.144  1.00  0.00    -0.237 OA
ATOM     76  O   UNL     1      17.265   3.149  15.136  1.00  0.00    -0.237 OA
ATOM     77  O   UNL     1      16.920   3.138  12.695  1.00  0.00    -0.744 OA
ENDBRANCH  73  74
ENDBRANCH  54  68
BRANCH  55  78
ATOM     78  C   UNL     1       7.624   2.388   8.650  1.00  0.00    -0.014 A 
ATOM     79  C   UNL     1       7.563   3.796   8.631  1.00  0.00     0.010 A 
ATOM     80  C   UNL     1       7.963   1.741   7.444  1.00  0.00     0.010 A 
ATOM     81  C   UNL     1       7.908   4.527   7.476  1.00  0.00     0.020 A 
ATOM     82  C   UNL     1       8.301   2.460   6.289  1.00  0.00     0.020 A 
ATOM     83  C   UNL     1       8.301   3.851   6.318  1.00  0.00     0.054 A 
BRANCH  83  84
ATOM     84  S   UNL     1       8.951   4.789   4.899  1.00  0.00     0.124 S 
ATOM     85  O   UNL     1       7.752   5.434   4.375  1.00  0.00    -0.237 OA
ATOM     86  O   UNL     1       9.927   5.678   5.524  1.00  0.00    -0.237 OA
ATOM     87  O   UNL     1       9.524   3.754   4.039  1.00  0.00    -0.744 OA
ENDBRANCH  83  84
ENDBRANCH  55  78
BRANCH  67  88
ATOM     88  C   UNL     1       6.649   0.849  14.699  1.00  0.00    -0.014 A 
ATOM     89  C   UNL     1       5.754   0.165  13.851  1.00  0.00     0.010 A 
ATOM     90  C   UNL     1       6.210   1.198  15.988  1.00  0.00     0.010 A 
ATOM     91  C   UNL     1       4.448  -0.134  14.276  1.00  0.00     0.020 A 
ATOM     92  C   UNL     1       4.921   0.887  16.423  1.00  0.00     0.020 A 
ATOM     93  C   UNL     1       4.040   0.233  15.562  1.00  0.00     0.054 A 
BRANCH  93  94
ATOM     94  S   UNL     1       2.364  -0.177  16.125  1.00  0.00     0.124 S 
ATOM     95  O   UNL     1       1.530   0.681  15.289  1.00  0.00    -0.237 OA
ATOM     96  O   UNL     1       2.269  -1.609  15.849  1.00  0.00    -0.237 OA
ATOM     97  O   UNL     1       2.379   0.170  17.546  1.00  0.00    -0.744 OA
ENDBRANCH  93  94
ENDBRANCH  67  88
ENDBRANCH  41  42
ENDBRANCH  33  36
ENDBRANCH  31  32
ENDBRANCH  30  31
ENDBRANCH   1  30
TORSDOF 18
