REMARK SMILES C[C@H](CNS(=O)(=O)c1ccc(C(=O)NCCCCNC(=O)c2ccc(-c3c4nc(c(-c5ccc(S(=O)(=O)[O-])cc5)c5ccc([nH]5)c(-c5ccc(S(=O)(=O)[O-])cc5)c5nc(c(-c6ccc(S(=O)(=O)[O-])cc6)c6ccc3[nH]6)C=C5)C=C4)cc2)cc1F)[NH+](C)C
REMARK SMILES IDX 15 1 14 2 12 3 13 4 11 6 8 7 9 8 83 9 10 10 82 11 84 12 5 13
REMARK SMILES IDX 6 14 7 15 4 16 3 18 2 19 1 20 85 21 86 22 87 23 16 25 17 26
REMARK SMILES IDX 18 27 19 28 20 29 21 31 22 32 23 33 81 34 24 35 80 36 25 37
REMARK SMILES IDX 26 38 27 39 74 40 28 41 79 42 73 43 75 44 29 45 78 46 72 47
REMARK SMILES IDX 71 48 30 50 60 51 41 52 59 53 42 54 45 55 58 56 76 57 43 58
REMARK SMILES IDX 44 59 57 61 77 62 46 63 31 64 32 65 40 66 33 67 39 68 34 69
REMARK SMILES IDX 35 70 36 71 37 72 38 73 61 74 62 75 70 76 63 77 69 78 64 79
REMARK SMILES IDX 65 80 66 81 67 82 68 83 47 84 48 85 56 86 49 87 55 88 50 89
REMARK SMILES IDX 51 90 52 91 53 92 54 93
REMARK H PARENT 14 5 4 17 85 24 19 30 75 49 45 60
REMARK Flexibility Score: inf
ROOT
ATOM      1  C   UNL     1       7.010  -2.455   1.896  1.00  0.00     0.116 C 
ENDROOT
BRANCH   1   2
ATOM      2  N   UNL     1       7.080  -1.881   3.227  1.00  0.00    -0.352 N 
ATOM      3  C   UNL     1       6.159  -1.281   4.048  1.00  0.00     0.251 C 
ATOM      4  O   UNL     1       6.535  -0.989   5.185  1.00  0.00    -0.269 OA
ATOM      5  H   UNL     1       7.979  -1.933   3.625  1.00  0.00     0.163 HD
BRANCH   3   6
ATOM      6  C   UNL     1       4.753  -0.947   3.663  1.00  0.00     0.042 A 
ATOM      7  C   UNL     1       2.119  -0.089   3.073  1.00  0.00     0.118 A 
ATOM      8  C   UNL     1       2.593  -0.035   4.387  1.00  0.00     0.026 A 
ATOM      9  C   UNL     1       2.941  -0.597   2.088  1.00  0.00     0.144 A 
ATOM     10  C   UNL     1       3.900  -0.459   4.673  1.00  0.00     0.015 A 
ATOM     11  C   UNL     1       4.239  -1.015   2.373  1.00  0.00     0.054 A 
ATOM     12  F   UNL     1       2.565  -0.685   0.812  1.00  0.00    -0.205 F 
BRANCH   7  13
ATOM     13  S   UNL     1       0.520   0.558   2.718  1.00  0.00     0.243 S 
ATOM     14  O   UNL     1       0.662   1.980   2.503  1.00  0.00    -0.207 OA
ATOM     15  O   UNL     1      -0.365   0.035   3.739  1.00  0.00    -0.207 OA
BRANCH  13  16
ATOM     16  N   UNL     1      -0.016  -0.153   1.293  1.00  0.00    -0.205 NA
ATOM     17  H   UNL     1       0.435  -1.065   1.220  1.00  0.00     0.141 HD
BRANCH  16  18
ATOM     18  C   UNL     1       0.234   0.564   0.023  1.00  0.00     0.163 C 
BRANCH  18  19
ATOM     19  C   UNL     1      -0.032  -0.321  -1.232  1.00  0.00     0.195 C 
ATOM     20  C   UNL     1       0.930  -1.512  -1.339  1.00  0.00     0.076 C 
BRANCH  19  21
ATOM     21  N   UNL     1      -1.474  -0.664  -1.377  1.00  0.00    -0.337 N 
ATOM     22  C   UNL     1      -1.857  -0.674  -2.794  1.00  0.00     0.332 C 
ATOM     23  C   UNL     1      -1.870  -1.938  -0.773  1.00  0.00     0.332 C 
ATOM     24  H   UNL     1      -1.966   0.066  -0.862  1.00  0.00     0.347 HD
ENDBRANCH  19  21
ENDBRANCH  18  19
ENDBRANCH  16  18
ENDBRANCH  13  16
ENDBRANCH   7  13
ENDBRANCH   3   6
ENDBRANCH   1   2
BRANCH   1  25
ATOM     25  C   UNL     1       7.255  -1.409   0.802  1.00  0.00     0.023 C 
BRANCH  25  26
ATOM     26  C   UNL     1       8.730  -1.143   0.490  1.00  0.00     0.023 C 
BRANCH  26  27
ATOM     27  C   UNL     1       9.469  -2.320  -0.138  1.00  0.00     0.116 C 
BRANCH  27  28
ATOM     28  N   UNL     1       8.917  -2.738  -1.419  1.00  0.00    -0.352 N 
ATOM     29  C   UNL     1       9.551  -3.462  -2.404  1.00  0.00     0.251 C 
ATOM     30  H   UNL     1       7.986  -2.474  -1.601  1.00  0.00     0.163 HD
ATOM     31  O   UNL     1       9.005  -3.667  -3.482  1.00  0.00    -0.269 OA
BRANCH  29  32
ATOM     32  C   UNL     1      10.927  -3.936  -2.151  1.00  0.00     0.039 A 
ATOM     33  C   UNL     1      11.948  -3.542  -3.019  1.00  0.00     0.014 A 
ATOM     34  C   UNL     1      11.211  -4.694  -1.013  1.00  0.00     0.014 A 
ATOM     35  C   UNL     1      13.275  -3.838  -2.698  1.00  0.00     0.010 A 
ATOM     36  C   UNL     1      12.535  -4.939  -0.667  1.00  0.00     0.010 A 
ATOM     37  C   UNL     1      13.579  -4.500  -1.498  1.00  0.00    -0.014 A 
BRANCH  37  38
ATOM     38  C   UNL     1      14.979  -4.735  -1.068  1.00  0.00     0.031 A 
ATOM     39  C   UNL     1      15.498  -6.139  -0.951  1.00  0.00     0.074 A 
ATOM     40  C   UNL     1      15.744  -3.694  -0.682  1.00  0.00     0.049 A 
ATOM     41  N   UNL     1      16.628  -6.561  -0.446  1.00  0.00    -0.248 NA
ATOM     42  C   UNL     1      14.616  -7.212  -1.439  1.00  0.00     0.031 C 
ATOM     43  C   UNL     1      15.344  -2.285  -0.720  1.00  0.00     0.029 A 
ATOM     44  N   UNL     1      17.013  -3.663  -0.159  1.00  0.00    -0.354 N 
ATOM     45  C   UNL     1      16.582  -7.947  -0.527  1.00  0.00     0.074 A 
ATOM     46  C   UNL     1      15.301  -8.296  -1.103  1.00  0.00     0.031 C 
ATOM     47  C   UNL     1      16.350  -1.529  -0.249  1.00  0.00     0.029 A 
ATOM     48  C   UNL     1      17.448  -2.399   0.162  1.00  0.00     0.049 A 
ATOM     49  H   UNL     1      17.560  -4.471  -0.027  1.00  0.00     0.167 HD
ATOM     50  C   UNL     1      17.524  -8.848  -0.162  1.00  0.00     0.031 A 
ATOM     51  C   UNL     1      18.593  -1.986   0.738  1.00  0.00     0.031 A 
ATOM     52  C   UNL     1      18.805  -8.497   0.389  1.00  0.00     0.049 A 
ATOM     53  C   UNL     1      19.630  -3.004   1.126  1.00  0.00     0.074 A 
ATOM     54  C   UNL     1      19.847  -9.335   0.744  1.00  0.00     0.029 A 
ATOM     55  N   UNL     1      19.220  -7.203   0.660  1.00  0.00    -0.354 N 
ATOM     56  N   UNL     1      19.584  -4.309   1.005  1.00  0.00    -0.248 NA
ATOM     57  C   UNL     1      20.872  -2.495   1.725  1.00  0.00     0.031 C 
ATOM     58  C   UNL     1      20.883  -8.549   1.258  1.00  0.00     0.029 A 
ATOM     59  C   UNL     1      20.499  -7.218   1.186  1.00  0.00     0.049 A 
ATOM     60  H   UNL     1      18.684  -6.392   0.502  1.00  0.00     0.167 HD
ATOM     61  C   UNL     1      20.802  -4.775   1.486  1.00  0.00     0.074 A 
ATOM     62  C   UNL     1      21.564  -3.614   1.899  1.00  0.00     0.031 C 
ATOM     63  C   UNL     1      21.248  -6.051   1.575  1.00  0.00     0.031 A 
BRANCH  50  64
ATOM     64  C   UNL     1      17.194 -10.303  -0.343  1.00  0.00    -0.014 A 
ATOM     65  C   UNL     1      17.154 -10.882  -1.624  1.00  0.00     0.010 A 
ATOM     66  C   UNL     1      16.941 -11.108   0.783  1.00  0.00     0.010 A 
ATOM     67  C   UNL     1      16.820 -12.229  -1.780  1.00  0.00     0.020 A 
ATOM     68  C   UNL     1      16.630 -12.462   0.632  1.00  0.00     0.020 A 
ATOM     69  C   UNL     1      16.551 -13.008  -0.651  1.00  0.00     0.054 A 
BRANCH  69  70
ATOM     70  S   UNL     1      16.122 -14.756  -0.878  1.00  0.00     0.124 S 
ATOM     71  O   UNL     1      14.729 -14.668  -1.306  1.00  0.00    -0.237 OA
ATOM     72  O   UNL     1      17.068 -15.191  -1.903  1.00  0.00    -0.237 OA
ATOM     73  O   UNL     1      16.332 -15.338   0.446  1.00  0.00    -0.744 OA
ENDBRANCH  69  70
ENDBRANCH  50  64
BRANCH  51  74
ATOM     74  C   UNL     1      18.824  -0.536   0.971  1.00  0.00    -0.014 A 
ATOM     75  C   UNL     1      19.721   0.177   0.158  1.00  0.00     0.010 A 
ATOM     76  C   UNL     1      18.131   0.143   1.989  1.00  0.00     0.010 A 
ATOM     77  C   UNL     1      19.932   1.544   0.366  1.00  0.00     0.020 A 
ATOM     78  C   UNL     1      18.324   1.514   2.186  1.00  0.00     0.020 A 
ATOM     79  C   UNL     1      19.231   2.204   1.379  1.00  0.00     0.054 A 
BRANCH  79  80
ATOM     80  S   UNL     1      19.471   3.990   1.592  1.00  0.00     0.124 S 
ATOM     81  O   UNL     1      20.749   4.041   2.295  1.00  0.00    -0.237 OA
ATOM     82  O   UNL     1      19.486   4.476   0.214  1.00  0.00    -0.237 OA
ATOM     83  O   UNL     1      18.306   4.397   2.374  1.00  0.00    -0.744 OA
ENDBRANCH  79  80
ENDBRANCH  51  74
BRANCH  63  84
ATOM     84  C   UNL     1      22.641  -6.270   2.096  1.00  0.00    -0.014 A 
ATOM     85  C   UNL     1      22.915  -6.214   3.473  1.00  0.00     0.010 A 
ATOM     86  C   UNL     1      23.663  -6.637   1.202  1.00  0.00     0.010 A 
ATOM     87  C   UNL     1      24.194  -6.519   3.947  1.00  0.00     0.020 A 
ATOM     88  C   UNL     1      24.936  -6.960   1.675  1.00  0.00     0.020 A 
ATOM     89  C   UNL     1      25.195  -6.895   3.046  1.00  0.00     0.054 A 
BRANCH  89  90
ATOM     90  S   UNL     1      26.822  -7.374   3.691  1.00  0.00     0.124 S 
ATOM     91  O   UNL     1      27.418  -6.078   4.002  1.00  0.00    -0.237 OA
ATOM     92  O   UNL     1      26.480  -8.202   4.846  1.00  0.00    -0.237 OA
ATOM     93  O   UNL     1      27.436  -8.094   2.578  1.00  0.00    -0.744 OA
ENDBRANCH  89  90
ENDBRANCH  63  84
ENDBRANCH  37  38
ENDBRANCH  29  32
ENDBRANCH  27  28
ENDBRANCH  26  27
ENDBRANCH  25  26
ENDBRANCH   1  25
TORSDOF 19
