REMARK SMILES O=C(Cc1ccccc1Cl)Nc1ccc(C(=O)NCCCCNC(=O)c2ccc(-c3c4nc(c(-c5ccc(S(=O)(=O)[O-])cc5)c5ccc([nH]5)c(-c5ccc(S(=O)(=O)[O-])cc5)c5nc(c(-c6ccc(S(=O)(=O)[O-])cc6)c6ccc3[nH]6)C=C5)C=C4)cc2)cc1
REMARK SMILES IDX 20 1 19 2 18 3 16 4 17 5 15 7 12 8 13 9 87 10 14 11 86 12
REMARK SMILES IDX 11 13 1 14 2 15 3 17 4 18 5 19 9 20 6 21 8 22 10 23 7 24
REMARK SMILES IDX 21 25 22 26 23 27 24 28 25 30 26 31 27 32 85 33 28 34 84 35
REMARK SMILES IDX 29 36 30 37 31 38 78 39 32 40 83 41 77 42 79 43 33 44 82 45
REMARK SMILES IDX 76 46 75 47 34 49 64 50 45 51 63 52 46 53 49 54 62 55 80 56
REMARK SMILES IDX 47 57 48 58 61 60 81 61 50 62 35 63 36 64 44 65 37 66 43 67
REMARK SMILES IDX 38 68 39 69 40 70 41 71 42 72 65 73 66 74 74 75 67 76 73 77
REMARK SMILES IDX 68 78 69 79 70 80 71 81 72 82 51 83 52 84 60 85 53 86 59 87
REMARK SMILES IDX 54 88 55 89 56 90 57 91 58 92
REMARK H PARENT 18 6 11 16 23 29 79 48 49 59
REMARK Flexibility Score: inf
ROOT
ATOM      1  C   UNL     1      -1.534   5.785  -2.837  1.00  0.00     0.023 C 
ENDROOT
BRANCH   1   2
ATOM      2  C   UNL     1      -1.644   4.503  -3.665  1.00  0.00     0.116 C 
BRANCH   2   3
ATOM      3  N   UNL     1      -0.683   4.517  -4.750  1.00  0.00    -0.352 N 
ATOM      4  C   UNL     1       0.569   3.971  -4.874  1.00  0.00     0.251 C 
ATOM      5  O   UNL     1       1.163   4.131  -5.941  1.00  0.00    -0.269 OA
ATOM      6  H   UNL     1      -0.985   5.010  -5.547  1.00  0.00     0.163 HD
BRANCH   4   7
ATOM      7  C   UNL     1       1.211   3.142  -3.813  1.00  0.00     0.039 A 
ATOM      8  C   UNL     1       2.412   1.382  -1.962  1.00  0.00     0.041 A 
ATOM      9  C   UNL     1       2.744   1.315  -3.317  1.00  0.00     0.027 A 
ATOM     10  C   UNL     1       1.546   2.382  -1.528  1.00  0.00     0.027 A 
ATOM     11  C   UNL     1       2.133   2.175  -4.236  1.00  0.00     0.016 A 
ATOM     12  C   UNL     1       0.979   3.277  -2.443  1.00  0.00     0.016 A 
BRANCH   8  13
ATOM     13  N   UNL     1       3.005   0.444  -1.099  1.00  0.00    -0.326 N 
ATOM     14  O   UNL     1       1.566   0.522   0.718  1.00  0.00    -0.274 OA
ATOM     15  C   UNL     1       2.595   0.117   0.179  1.00  0.00     0.228 C 
ATOM     16  H   UNL     1       3.797  -0.030  -1.442  1.00  0.00     0.169 HD
BRANCH  15  17
ATOM     17  C   UNL     1       3.558  -0.762   0.968  1.00  0.00     0.137 C 
BRANCH  17  18
ATOM     18  C   UNL     1       4.235  -1.879   0.203  1.00  0.00    -0.020 A 
ATOM     19  C   UNL     1       3.626  -3.146   0.167  1.00  0.00     0.006 A 
ATOM     20  C   UNL     1       5.448  -1.704  -0.487  1.00  0.00     0.044 A 
ATOM     21  C   UNL     1       4.215  -4.203  -0.529  1.00  0.00     0.000 A 
ATOM     22  C   UNL     1       6.026  -2.760  -1.196  1.00  0.00     0.021 A 
ATOM     23  Cl  UNL     1       6.257  -0.178  -0.533  1.00  0.00    -0.084 Cl
ATOM     24  C   UNL     1       5.412  -4.010  -1.213  1.00  0.00     0.002 A 
ENDBRANCH  17  18
ENDBRANCH  15  17
ENDBRANCH   8  13
ENDBRANCH   4   7
ENDBRANCH   2   3
ENDBRANCH   1   2
BRANCH   1  25
ATOM     25  C   UNL     1      -2.230   6.994  -3.469  1.00  0.00     0.023 C 
BRANCH  25  26
ATOM     26  C   UNL     1      -3.748   6.881  -3.563  1.00  0.00     0.116 C 
BRANCH  26  27
ATOM     27  N   UNL     1      -4.391   6.702  -2.269  1.00  0.00    -0.352 N 
ATOM     28  C   UNL     1      -5.630   7.147  -1.865  1.00  0.00     0.251 C 
ATOM     29  H   UNL     1      -3.875   6.200  -1.597  1.00  0.00     0.163 HD
ATOM     30  O   UNL     1      -5.997   7.005  -0.709  1.00  0.00    -0.269 OA
BRANCH  28  31
ATOM     31  C   UNL     1      -6.486   7.843  -2.848  1.00  0.00     0.039 A 
ATOM     32  C   UNL     1      -6.954   9.122  -2.543  1.00  0.00     0.014 A 
ATOM     33  C   UNL     1      -6.755   7.260  -4.089  1.00  0.00     0.014 A 
ATOM     34  C   UNL     1      -7.622   9.859  -3.522  1.00  0.00     0.010 A 
ATOM     35  C   UNL     1      -7.373   8.016  -5.080  1.00  0.00     0.010 A 
ATOM     36  C   UNL     1      -7.793   9.328  -4.811  1.00  0.00    -0.014 A 
BRANCH  36  37
ATOM     37  C   UNL     1      -8.356  10.145  -5.914  1.00  0.00     0.031 A 
ATOM     38  C   UNL     1      -9.668   9.769  -6.539  1.00  0.00     0.074 A 
ATOM     39  C   UNL     1      -7.634  11.169  -6.411  1.00  0.00     0.049 A 
ATOM     40  N   UNL     1     -10.265  10.297  -7.576  1.00  0.00    -0.248 NA
ATOM     41  C   UNL     1     -10.393   8.639  -5.935  1.00  0.00     0.031 C 
ATOM     42  C   UNL     1      -6.328  11.606  -5.911  1.00  0.00     0.029 A 
ATOM     43  N   UNL     1      -7.888  12.017  -7.459  1.00  0.00    -0.354 N 
ATOM     44  C   UNL     1     -11.426   9.557  -7.760  1.00  0.00     0.074 A 
ATOM     45  C   UNL     1     -11.431   8.519  -6.750  1.00  0.00     0.031 C 
ATOM     46  C   UNL     1      -5.903  12.649  -6.643  1.00  0.00     0.029 A 
ATOM     47  C   UNL     1      -6.883  12.926  -7.689  1.00  0.00     0.049 A 
ATOM     48  H   UNL     1      -8.713  11.979  -7.995  1.00  0.00     0.167 HD
ATOM     49  C   UNL     1     -12.406   9.734  -8.678  1.00  0.00     0.031 A 
ATOM     50  C   UNL     1      -6.753  13.867  -8.644  1.00  0.00     0.031 A 
ATOM     51  C   UNL     1     -12.400  10.771  -9.674  1.00  0.00     0.049 A 
ATOM     52  C   UNL     1      -7.839  14.024  -9.671  1.00  0.00     0.074 A 
ATOM     53  C   UNL     1     -13.378  11.074 -10.606  1.00  0.00     0.029 A 
ATOM     54  N   UNL     1     -11.363  11.670  -9.875  1.00  0.00    -0.354 N 
ATOM     55  N   UNL     1      -8.963  13.358  -9.786  1.00  0.00    -0.248 NA
ATOM     56  C   UNL     1      -7.639  15.056 -10.698  1.00  0.00     0.031 C 
ATOM     57  C   UNL     1     -12.911  12.125 -11.402  1.00  0.00     0.029 A 
ATOM     58  C   UNL     1     -11.662  12.507 -10.936  1.00  0.00     0.049 A 
ATOM     59  H   UNL     1     -10.536  11.707  -9.342  1.00  0.00     0.167 HD
ATOM     60  C   UNL     1      -9.611  13.899 -10.890  1.00  0.00     0.074 A 
ATOM     61  C   UNL     1      -8.761  14.958 -11.399  1.00  0.00     0.031 C 
ATOM     62  C   UNL     1     -10.802  13.550 -11.434  1.00  0.00     0.031 A 
BRANCH  49  63
ATOM     63  C   UNL     1     -13.565   8.776  -8.649  1.00  0.00    -0.014 A 
ATOM     64  C   UNL     1     -14.523   8.830  -7.620  1.00  0.00     0.010 A 
ATOM     65  C   UNL     1     -13.719   7.832  -9.680  1.00  0.00     0.010 A 
ATOM     66  C   UNL     1     -15.591   7.931  -7.601  1.00  0.00     0.020 A 
ATOM     67  C   UNL     1     -14.800   6.946  -9.677  1.00  0.00     0.020 A 
ATOM     68  C   UNL     1     -15.720   6.989  -8.627  1.00  0.00     0.054 A 
BRANCH  68  69
ATOM     69  S   UNL     1     -17.125   5.843  -8.585  1.00  0.00     0.124 S 
ATOM     70  O   UNL     1     -16.719   4.910  -7.537  1.00  0.00    -0.237 OA
ATOM     71  O   UNL     1     -18.244   6.718  -8.247  1.00  0.00    -0.237 OA
ATOM     72  O   UNL     1     -17.158   5.287  -9.935  1.00  0.00    -0.744 OA
ENDBRANCH  68  69
ENDBRANCH  49  63
BRANCH  50  73
ATOM     73  C   UNL     1      -5.542  14.730  -8.674  1.00  0.00    -0.014 A 
ATOM     74  C   UNL     1      -5.623  16.080  -8.293  1.00  0.00     0.010 A 
ATOM     75  C   UNL     1      -4.298  14.200  -9.061  1.00  0.00     0.010 A 
ATOM     76  C   UNL     1      -4.484  16.889  -8.308  1.00  0.00     0.020 A 
ATOM     77  C   UNL     1      -3.151  15.000  -9.055  1.00  0.00     0.020 A 
ATOM     78  C   UNL     1      -3.254  16.343  -8.688  1.00  0.00     0.054 A 
BRANCH  78  79
ATOM     79  S   UNL     1      -1.776  17.395  -8.640  1.00  0.00     0.124 S 
ATOM     80  O   UNL     1      -1.946  18.209  -9.839  1.00  0.00    -0.237 OA
ATOM     81  O   UNL     1      -1.928  18.099  -7.369  1.00  0.00    -0.237 OA
ATOM     82  O   UNL     1      -0.674  16.436  -8.683  1.00  0.00    -0.744 OA
ENDBRANCH  78  79
ENDBRANCH  50  73
BRANCH  62  83
ATOM     83  C   UNL     1     -11.266  14.320 -12.639  1.00  0.00    -0.014 A 
ATOM     84  C   UNL     1     -10.701  14.084 -13.905  1.00  0.00     0.010 A 
ATOM     85  C   UNL     1     -12.330  15.232 -12.518  1.00  0.00     0.010 A 
ATOM     86  C   UNL     1     -11.187  14.756 -15.029  1.00  0.00     0.020 A 
ATOM     87  C   UNL     1     -12.832  15.889 -13.644  1.00  0.00     0.020 A 
ATOM     88  C   UNL     1     -12.252  15.652 -14.892  1.00  0.00     0.054 A 
BRANCH  88  89
ATOM     89  S   UNL     1     -12.911  16.459 -16.377  1.00  0.00     0.124 S 
ATOM     90  O   UNL     1     -11.887  17.460 -16.660  1.00  0.00    -0.237 OA
ATOM     91  O   UNL     1     -12.992  15.356 -17.333  1.00  0.00    -0.237 OA
ATOM     92  O   UNL     1     -14.200  16.990 -15.939  1.00  0.00    -0.744 OA
ENDBRANCH  88  89
ENDBRANCH  62  83
ENDBRANCH  36  37
ENDBRANCH  28  31
ENDBRANCH  26  27
ENDBRANCH  25  26
ENDBRANCH   1  25
TORSDOF 17
