REMARK SMILES Cc1cc(C(=O)Nc2c(Cl)cc(Cl)cc2C(=O)NCCCCNC(=O)c2ccc(-c3c4nc(c(-c5ccc(S(=O)(=O)[O-])cc5)c5ccc([nH]5)c(-c5ccc(S(=O)(=O)[O-])cc5)c5nc(c(-c6ccc(S(=O)(=O)[O-])cc6)c6ccc3[nH]6)C=C5)C=C4)cc2)c(C)s1
REMARK SMILES IDX 21 1 20 2 19 3 18 4 16 5 17 6 15 8 8 9 9 10 10 11 11 12
REMARK SMILES IDX 14 13 12 14 13 15 7 16 5 17 6 18 4 20 1 21 2 22 3 23 88 24
REMARK SMILES IDX 86 25 87 26 22 27 23 28 24 29 25 31 26 32 27 33 85 34 28 35
REMARK SMILES IDX 84 36 29 37 30 38 31 39 78 40 32 41 83 42 77 43 79 44 33 45
REMARK SMILES IDX 82 46 76 47 75 48 34 50 64 51 45 52 63 53 46 54 49 55 62 56
REMARK SMILES IDX 80 57 47 58 48 59 61 61 81 62 50 63 35 64 36 65 44 66 37 67
REMARK SMILES IDX 43 68 38 69 39 70 40 71 41 72 42 73 65 74 66 75 74 76 67 77
REMARK SMILES IDX 73 78 68 79 69 80 70 81 71 82 72 83 51 84 52 85 60 86 53 87
REMARK SMILES IDX 59 88 54 89 55 90 56 91 57 92 58 93
REMARK H PARENT 18 7 7 19 23 30 79 49 49 60
REMARK Flexibility Score: inf
ROOT
ATOM      1  C   UNL     1       3.794  -4.784   3.010  1.00  0.00     0.023 C 
ENDROOT
BRANCH   1   2
ATOM      2  C   UNL     1       2.683  -3.788   2.686  1.00  0.00     0.023 C 
BRANCH   2   3
ATOM      3  C   UNL     1       1.698  -4.175   1.593  1.00  0.00     0.116 C 
BRANCH   3   4
ATOM      4  N   UNL     1       0.925  -5.375   1.790  1.00  0.00    -0.352 N 
ATOM      5  C   UNL     1      -0.267  -5.780   1.239  1.00  0.00     0.253 C 
ATOM      6  O   UNL     1      -0.668  -6.905   1.549  1.00  0.00    -0.269 OA
ATOM      7  H   UNL     1       1.318  -6.014   2.428  1.00  0.00     0.163 HD
BRANCH   5   8
ATOM      8  C   UNL     1      -1.158  -4.967   0.347  1.00  0.00     0.066 A 
ATOM      9  C   UNL     1      -0.809  -4.129  -0.734  1.00  0.00     0.073 A 
ATOM     10  C   UNL     1      -1.833  -3.606  -1.567  1.00  0.00     0.066 A 
ATOM     11  Cl  UNL     1      -1.480  -2.728  -3.021  1.00  0.00    -0.082 Cl
ATOM     12  C   UNL     1      -3.180  -3.787  -1.259  1.00  0.00     0.043 A 
ATOM     13  C   UNL     1      -2.533  -5.136   0.632  1.00  0.00     0.036 A 
ATOM     14  C   UNL     1      -3.522  -4.532  -0.142  1.00  0.00     0.043 A 
ATOM     15  Cl  UNL     1      -5.179  -4.718   0.278  1.00  0.00    -0.084 Cl
BRANCH   9  16
ATOM     16  N   UNL     1       0.524  -3.814  -1.025  1.00  0.00    -0.320 N 
ATOM     17  C   UNL     1       1.163  -2.576  -1.000  1.00  0.00     0.256 C 
ATOM     18  O   UNL     1       2.346  -2.585  -1.346  1.00  0.00    -0.269 OA
ATOM     19  H   UNL     1       1.091  -4.576  -1.284  1.00  0.00     0.170 HD
BRANCH  17  20
ATOM     20  C   UNL     1       0.519  -1.346  -0.466  1.00  0.00     0.054 A 
ATOM     21  C   UNL     1      -2.561   0.682   0.412  1.00  0.00     0.056 C 
ATOM     22  C   UNL     1      -1.190   0.150   0.181  1.00  0.00     0.003 A 
ATOM     23  C   UNL     1      -0.802  -1.166   0.079  1.00  0.00     0.029 A 
ATOM     24  S   UNL     1       0.143   1.182   0.010  1.00  0.00    -0.145 S 
ATOM     25  C   UNL     1       1.202  -0.135  -0.313  1.00  0.00     0.014 A 
ATOM     26  C   UNL     1       2.664   0.174  -0.419  1.00  0.00     0.057 C 
ENDBRANCH  17  20
ENDBRANCH   9  16
ENDBRANCH   5   8
ENDBRANCH   3   4
ENDBRANCH   2   3
ENDBRANCH   1   2
BRANCH   1  27
ATOM     27  C   UNL     1       4.500  -5.463   1.839  1.00  0.00     0.116 C 
BRANCH  27  28
ATOM     28  N   UNL     1       5.177  -4.557   0.922  1.00  0.00    -0.352 N 
ATOM     29  C   UNL     1       6.510  -4.433   0.596  1.00  0.00     0.251 C 
ATOM     30  H   UNL     1       4.582  -3.927   0.456  1.00  0.00     0.163 HD
ATOM     31  O   UNL     1       6.855  -3.549  -0.188  1.00  0.00    -0.269 OA
BRANCH  29  32
ATOM     32  C   UNL     1       7.544  -5.302   1.210  1.00  0.00     0.039 A 
ATOM     33  C   UNL     1       8.737  -4.712   1.640  1.00  0.00     0.014 A 
ATOM     34  C   UNL     1       7.364  -6.676   1.370  1.00  0.00     0.014 A 
ATOM     35  C   UNL     1       9.689  -5.474   2.324  1.00  0.00     0.010 A 
ATOM     36  C   UNL     1       8.269  -7.416   2.134  1.00  0.00     0.010 A 
ATOM     37  C   UNL     1       9.436  -6.821   2.634  1.00  0.00    -0.014 A 
BRANCH  37  38
ATOM     38  C   UNL     1      10.365  -7.594   3.505  1.00  0.00     0.031 A 
ATOM     39  C   UNL     1      11.057  -8.831   2.994  1.00  0.00     0.074 A 
ATOM     40  C   UNL     1      10.550  -7.206   4.785  1.00  0.00     0.049 A 
ATOM     41  N   UNL     1      11.875  -9.636   3.624  1.00  0.00    -0.248 NA
ATOM     42  C   UNL     1      10.780  -9.229   1.604  1.00  0.00     0.031 C 
ATOM     43  C   UNL     1       9.893  -6.065   5.430  1.00  0.00     0.029 A 
ATOM     44  N   UNL     1      11.344  -7.729   5.777  1.00  0.00    -0.354 N 
ATOM     45  C   UNL     1      12.206 -10.633   2.713  1.00  0.00     0.074 A 
ATOM     46  C   UNL     1      11.454 -10.367   1.507  1.00  0.00     0.031 C 
ATOM     47  C   UNL     1      10.334  -5.955   6.694  1.00  0.00     0.029 A 
ATOM     48  C   UNL     1      11.276  -7.036   6.965  1.00  0.00     0.049 A 
ATOM     49  H   UNL     1      11.909  -8.525   5.651  1.00  0.00     0.167 HD
ATOM     50  C   UNL     1      13.079 -11.660   2.853  1.00  0.00     0.031 A 
ATOM     51  C   UNL     1      11.897  -7.244   8.142  1.00  0.00     0.031 A 
ATOM     52  C   UNL     1      13.837 -11.924   4.048  1.00  0.00     0.049 A 
ATOM     53  C   UNL     1      12.864  -8.390   8.269  1.00  0.00     0.074 A 
ATOM     54  C   UNL     1      14.772 -12.921   4.271  1.00  0.00     0.029 A 
ATOM     55  N   UNL     1      13.756 -11.185   5.218  1.00  0.00    -0.354 N 
ATOM     56  N   UNL     1      13.206  -9.283   7.372  1.00  0.00    -0.248 NA
ATOM     57  C   UNL     1      13.544  -8.544   9.563  1.00  0.00     0.031 C 
ATOM     58  C   UNL     1      15.227 -12.809   5.589  1.00  0.00     0.029 A 
ATOM     59  C   UNL     1      14.615 -11.710   6.170  1.00  0.00     0.049 A 
ATOM     60  H   UNL     1      13.173 -10.403   5.353  1.00  0.00     0.167 HD
ATOM     61  C   UNL     1      14.155 -10.091   7.987  1.00  0.00     0.074 A 
ATOM     62  C   UNL     1      14.354  -9.564   9.321  1.00  0.00     0.031 C 
ATOM     63  C   UNL     1      14.802 -11.177   7.494  1.00  0.00     0.031 A 
BRANCH  50  64
ATOM     64  C   UNL     1      13.281 -12.569   1.669  1.00  0.00    -0.014 A 
ATOM     65  C   UNL     1      13.967 -12.116   0.527  1.00  0.00     0.010 A 
ATOM     66  C   UNL     1      12.844 -13.905   1.719  1.00  0.00     0.010 A 
ATOM     67  C   UNL     1      14.187 -12.972  -0.554  1.00  0.00     0.020 A 
ATOM     68  C   UNL     1      13.086 -14.774   0.649  1.00  0.00     0.020 A 
ATOM     69  C   UNL     1      13.746 -14.297  -0.486  1.00  0.00     0.054 A 
BRANCH  69  70
ATOM     70  S   UNL     1      14.087 -15.397  -1.887  1.00  0.00     0.124 S 
ATOM     71  O   UNL     1      13.159 -14.894  -2.898  1.00  0.00    -0.237 OA
ATOM     72  O   UNL     1      15.501 -15.146  -2.154  1.00  0.00    -0.237 OA
ATOM     73  O   UNL     1      13.780 -16.727  -1.368  1.00  0.00    -0.744 OA
ENDBRANCH  69  70
ENDBRANCH  50  64
BRANCH  51  74
ATOM     74  C   UNL     1      11.629  -6.348   9.302  1.00  0.00    -0.014 A 
ATOM     75  C   UNL     1      12.622  -5.476   9.782  1.00  0.00     0.010 A 
ATOM     76  C   UNL     1      10.380  -6.382   9.950  1.00  0.00     0.010 A 
ATOM     77  C   UNL     1      12.386  -4.684  10.910  1.00  0.00     0.020 A 
ATOM     78  C   UNL     1      10.129  -5.569  11.058  1.00  0.00     0.020 A 
ATOM     79  C   UNL     1      11.142  -4.739  11.544  1.00  0.00     0.054 A 
BRANCH  79  80
ATOM     80  S   UNL     1      10.846  -3.690  12.995  1.00  0.00     0.124 S 
ATOM     81  O   UNL     1      11.582  -4.400  14.036  1.00  0.00    -0.237 OA
ATOM     82  O   UNL     1      11.412  -2.409  12.581  1.00  0.00    -0.237 OA
ATOM     83  O   UNL     1       9.392  -3.704  13.134  1.00  0.00    -0.744 OA
ENDBRANCH  79  80
ENDBRANCH  51  74
BRANCH  63  84
ATOM     84  C   UNL     1      15.806 -11.847   8.394  1.00  0.00    -0.014 A 
ATOM     85  C   UNL     1      15.397 -12.588   9.517  1.00  0.00     0.010 A 
ATOM     86  C   UNL     1      17.178 -11.752   8.098  1.00  0.00     0.010 A 
ATOM     87  C   UNL     1      16.345 -13.183  10.354  1.00  0.00     0.020 A 
ATOM     88  C   UNL     1      18.127 -12.370   8.916  1.00  0.00     0.020 A 
ATOM     89  C   UNL     1      17.704 -13.065  10.051  1.00  0.00     0.054 A 
BRANCH  89  90
ATOM     90  S   UNL     1      18.915 -13.860  11.143  1.00  0.00     0.124 S 
ATOM     91  O   UNL     1      18.916 -12.965  12.297  1.00  0.00    -0.237 OA
ATOM     92  O   UNL     1      18.327 -15.178  11.370  1.00  0.00    -0.237 OA
ATOM     93  O   UNL     1      20.145 -13.861  10.354  1.00  0.00    -0.744 OA
ENDBRANCH  89  90
ENDBRANCH  63  84
ENDBRANCH  37  38
ENDBRANCH  29  32
ENDBRANCH  27  28
ENDBRANCH   1  27
TORSDOF 16
