REMARK SMILES CC(=O)N[C@H](CC(=O)NCC(=O)NCCCCNC(=O)c1ccc(-c2c3nc(c(-c4ccc(S(=O)(=O)[O-])cc4)c4ccc([nH]4)c(-c4ccc(S(=O)(=O)[O-])cc4)c4nc(c(-c5ccc(S(=O)(=O)[O-])cc5)c5ccc2[nH]5)C=C4)C=C3)cc1)c1cccs1
REMARK SMILES IDX 15 1 14 2 13 3 11 4 12 5 10 7 9 8 7 9 8 10 6 12 5 13 4 14
REMARK SMILES IDX 1 15 2 16 3 17 81 19 82 20 85 21 83 22 84 23 16 24 17 25
REMARK SMILES IDX 18 26 19 27 20 29 21 30 22 31 80 32 23 33 79 34 24 35 25 36
REMARK SMILES IDX 26 37 73 38 27 39 78 40 72 41 74 42 28 43 77 44 71 45 70 46
REMARK SMILES IDX 29 48 59 49 40 50 58 51 41 52 44 53 57 54 75 55 42 56 43 57
REMARK SMILES IDX 56 59 76 60 45 61 30 62 31 63 39 64 32 65 38 66 33 67 34 68
REMARK SMILES IDX 35 69 36 70 37 71 60 72 61 73 69 74 62 75 68 76 63 77 64 78
REMARK SMILES IDX 65 79 66 80 67 81 46 82 47 83 55 84 48 85 54 86 49 87 50 88
REMARK SMILES IDX 51 89 52 90 53 91
REMARK H PARENT 13 6 9 11 4 18 18 28 74 47 44 58
REMARK Flexibility Score: inf
ROOT
ATOM      1  C   UNL     1       2.993  -3.122   6.290  1.00  0.00     0.023 C 
ENDROOT
BRANCH   1   2
ATOM      2  C   UNL     1       2.646  -3.081   4.811  1.00  0.00     0.116 C 
BRANCH   2   3
ATOM      3  N   UNL     1       1.857  -4.215   4.316  1.00  0.00    -0.355 N 
ATOM      4  C   UNL     1       0.642  -4.468   3.560  1.00  0.00     0.239 C 
ATOM      5  O   UNL     1       0.808  -5.747   3.550  1.00  0.00    -0.273 OA
ATOM      6  H   UNL     1       2.281  -5.065   4.576  1.00  0.00     0.163 HD
BRANCH   4   7
ATOM      7  C   UNL     1      -0.896  -3.192   2.578  1.00  0.00     0.216 C 
BRANCH   7   8
ATOM      8  N   UNL     1      -1.393  -1.627   2.755  1.00  0.00    -0.347 N 
ATOM      9  C   UNL     1      -0.741  -0.439   2.664  1.00  0.00     0.222 C 
ATOM     10  O   UNL     1      -1.256   0.557   3.175  1.00  0.00    -0.275 OA
ATOM     11  H   UNL     1      -2.350  -1.538   2.969  1.00  0.00     0.164 HD
BRANCH   9  12
ATOM     12  C   UNL     1       0.543  -0.327   1.902  1.00  0.00     0.130 C 
BRANCH  12  13
ATOM     13  C   UNL     1       1.544  -1.451   2.053  1.00  0.00     0.131 C 
BRANCH  13  14
ATOM     14  N   UNL     1       2.797  -1.054   2.656  1.00  0.00    -0.348 N 
ATOM     15  C   UNL     1       4.276  -1.994   0.900  1.00  0.00     0.114 C 
ATOM     16  C   UNL     1       4.067  -1.345   2.242  1.00  0.00     0.217 C 
ATOM     17  O   UNL     1       5.003  -1.075   2.991  1.00  0.00    -0.275 OA
ATOM     18  H   UNL     1       2.727  -0.504   3.469  1.00  0.00     0.164 HD
ENDBRANCH  13  14
BRANCH  13  19
ATOM     19  C   UNL     1       0.982  -2.753   2.603  1.00  0.00     0.027 A 
ATOM     20  C   UNL     1       0.622  -4.156   1.595  1.00  0.00     0.017 A 
ATOM     21  S   UNL     1      -0.269  -2.815   4.601  1.00  0.00    -0.147 S 
ATOM     22  C   UNL     1      -0.826  -5.197   2.279  1.00  0.00     0.012 A 
ATOM     23  C   UNL     1      -1.325  -4.724   3.882  1.00  0.00     0.065 A 
ENDBRANCH  13  19
ENDBRANCH  12  13
ENDBRANCH   9  12
ENDBRANCH   7   8
ENDBRANCH   4   7
ENDBRANCH   2   3
ENDBRANCH   1   2
BRANCH   1  24
ATOM     24  C   UNL     1       3.988  -4.197   6.674  1.00  0.00     0.023 C 
BRANCH  24  25
ATOM     25  C   UNL     1       5.137  -4.372   5.693  1.00  0.00     0.116 C 
BRANCH  25  26
ATOM     26  N   UNL     1       5.864  -3.138   5.391  1.00  0.00    -0.352 N 
ATOM     27  C   UNL     1       7.215  -2.905   5.491  1.00  0.00     0.251 C 
ATOM     28  H   UNL     1       5.318  -2.381   5.078  1.00  0.00     0.163 HD
ATOM     29  O   UNL     1       7.701  -1.792   5.334  1.00  0.00    -0.269 OA
BRANCH  27  30
ATOM     30  C   UNL     1       8.066  -4.050   5.839  1.00  0.00     0.039 A 
ATOM     31  C   UNL     1       8.839  -3.983   6.995  1.00  0.00     0.014 A 
ATOM     32  C   UNL     1       7.932  -5.237   5.114  1.00  0.00     0.014 A 
ATOM     33  C   UNL     1       9.421  -5.151   7.478  1.00  0.00     0.010 A 
ATOM     34  C   UNL     1       8.405  -6.414   5.668  1.00  0.00     0.010 A 
ATOM     35  C   UNL     1       9.162  -6.380   6.848  1.00  0.00    -0.014 A 
BRANCH  35  36
ATOM     36  C   UNL     1       9.694  -7.647   7.401  1.00  0.00     0.031 A 
ATOM     37  C   UNL     1      10.630  -8.476   6.567  1.00  0.00     0.074 A 
ATOM     38  C   UNL     1       9.299  -8.065   8.620  1.00  0.00     0.049 A 
ATOM     39  N   UNL     1      11.183  -9.625   6.850  1.00  0.00    -0.248 NA
ATOM     40  C   UNL     1      10.963  -7.965   5.225  1.00  0.00     0.031 C 
ATOM     41  C   UNL     1       8.351  -7.367   9.494  1.00  0.00     0.029 A 
ATOM     42  N   UNL     1       9.649  -9.180   9.339  1.00  0.00    -0.354 N 
ATOM     43  C   UNL     1      11.914  -9.975   5.722  1.00  0.00     0.074 A 
ATOM     44  C   UNL     1      11.676  -8.960   4.723  1.00  0.00     0.031 C 
ATOM     45  C   UNL     1       8.233  -8.045  10.648  1.00  0.00     0.029 A 
ATOM     46  C   UNL     1       9.055  -9.248  10.577  1.00  0.00     0.049 A 
ATOM     47  H   UNL     1      10.268  -9.866   9.000  1.00  0.00     0.167 HD
ATOM     48  C   UNL     1      12.739 -11.032   5.545  1.00  0.00     0.031 A 
ATOM     49  C   UNL     1       9.161 -10.180  11.545  1.00  0.00     0.031 A 
ATOM     50  C   UNL     1      12.979 -12.029   6.551  1.00  0.00     0.049 A 
ATOM     51  C   UNL     1      10.072 -11.356  11.317  1.00  0.00     0.074 A 
ATOM     52  C   UNL     1      13.834 -13.114   6.497  1.00  0.00     0.029 A 
ATOM     53  N   UNL     1      12.360 -12.064   7.792  1.00  0.00    -0.354 N 
ATOM     54  N   UNL     1      10.815 -11.633  10.271  1.00  0.00    -0.248 NA
ATOM     55  C   UNL     1      10.168 -12.340  12.403  1.00  0.00     0.031 C 
ATOM     56  C   UNL     1      13.684 -13.842   7.681  1.00  0.00     0.029 A 
ATOM     57  C   UNL     1      12.793 -13.169   8.503  1.00  0.00     0.049 A 
ATOM     58  H   UNL     1      11.710 -11.400   8.119  1.00  0.00     0.167 HD
ATOM     59  C   UNL     1      11.492 -12.806  10.587  1.00  0.00     0.074 A 
ATOM     60  C   UNL     1      11.082 -13.174  11.927  1.00  0.00     0.031 C 
ATOM     61  C   UNL     1      12.372 -13.515   9.838  1.00  0.00     0.031 A 
BRANCH  48  62
ATOM     62  C   UNL     1      13.434 -11.158   4.215  1.00  0.00    -0.014 A 
ATOM     63  C   UNL     1      14.418 -10.234   3.816  1.00  0.00     0.010 A 
ATOM     64  C   UNL     1      13.124 -12.235   3.366  1.00  0.00     0.010 A 
ATOM     65  C   UNL     1      15.051 -10.363   2.578  1.00  0.00     0.020 A 
ATOM     66  C   UNL     1      13.780 -12.387   2.141  1.00  0.00     0.020 A 
ATOM     67  C   UNL     1      14.729 -11.442   1.749  1.00  0.00     0.054 A 
BRANCH  67  68
ATOM     68  S   UNL     1      15.597 -11.606   0.166  1.00  0.00     0.124 S 
ATOM     69  O   UNL     1      15.042 -10.492  -0.600  1.00  0.00    -0.237 OA
ATOM     70  O   UNL     1      16.998 -11.464   0.555  1.00  0.00    -0.237 OA
ATOM     71  O   UNL     1      15.214 -12.935  -0.304  1.00  0.00    -0.744 OA
ENDBRANCH  67  68
ENDBRANCH  48  62
BRANCH  49  72
ATOM     72  C   UNL     1       8.395 -10.033  12.815  1.00  0.00    -0.014 A 
ATOM     73  C   UNL     1       9.058  -9.798  14.033  1.00  0.00     0.010 A 
ATOM     74  C   UNL     1       6.991 -10.127  12.813  1.00  0.00     0.010 A 
ATOM     75  C   UNL     1       8.336  -9.689  15.226  1.00  0.00     0.020 A 
ATOM     76  C   UNL     1       6.263  -9.985  13.998  1.00  0.00     0.020 A 
ATOM     77  C   UNL     1       6.941  -9.781  15.200  1.00  0.00     0.054 A 
BRANCH  77  78
ATOM     78  S   UNL     1       6.023  -9.599  16.754  1.00  0.00     0.124 S 
ATOM     79  O   UNL     1       6.355 -10.838  17.450  1.00  0.00    -0.237 OA
ATOM     80  O   UNL     1       6.598  -8.381  17.319  1.00  0.00    -0.237 OA
ATOM     81  O   UNL     1       4.633  -9.479  16.319  1.00  0.00    -0.744 OA
ENDBRANCH  77  78
ENDBRANCH  49  72
BRANCH  61  82
ATOM     82  C   UNL     1      12.986 -14.740  10.462  1.00  0.00    -0.014 A 
ATOM     83  C   UNL     1      12.229 -15.900  10.699  1.00  0.00     0.010 A 
ATOM     84  C   UNL     1      14.362 -14.746  10.758  1.00  0.00     0.010 A 
ATOM     85  C   UNL     1      12.831 -17.033  11.252  1.00  0.00     0.020 A 
ATOM     86  C   UNL     1      14.975 -15.888  11.276  1.00  0.00     0.020 A 
ATOM     87  C   UNL     1      14.200 -17.021  11.534  1.00  0.00     0.054 A 
BRANCH  87  88
ATOM     88  S   UNL     1      14.964 -18.521  12.206  1.00  0.00     0.124 S 
ATOM     89  O   UNL     1      14.423 -18.556  13.562  1.00  0.00    -0.237 OA
ATOM     90  O   UNL     1      14.472 -19.560  11.306  1.00  0.00    -0.237 OA
ATOM     91  O   UNL     1      16.398 -18.252  12.115  1.00  0.00    -0.744 OA
ENDBRANCH  87  88
ENDBRANCH  61  82
ENDBRANCH  35  36
ENDBRANCH  27  30
ENDBRANCH  25  26
ENDBRANCH  24  25
ENDBRANCH   1  24
TORSDOF 19
