REMARK SMILES CC[C@H](NC(=O)Cc1c(C)c2cc(Cl)c(OC)cc2oc1=O)C(=O)NCCCCNC(=O)c1ccc(-c2c3nc(c(-c4ccc(S(=O)(=O)[O-])cc4)c4ccc([nH]4)c(-c4ccc(S(=O)(=O)[O-])cc4)c4nc(c(-c5ccc(S(=O)(=O)[O-])cc5)c5ccc2[nH]5)C=C4)C=C3)cc1
REMARK SMILES IDX 27 1 26 2 25 3 23 4 24 5 3 7 2 8 1 9 4 10 5 11 6 13 7 14
REMARK SMILES IDX 8 15 9 16 21 17 10 18 11 19 20 20 22 21 12 22 19 23 13 24
REMARK SMILES IDX 18 25 14 26 15 27 16 28 17 29 28 30 29 31 30 32 31 33 32 35
REMARK SMILES IDX 33 36 34 37 92 38 35 39 91 40 36 41 37 42 38 43 85 44 39 45
REMARK SMILES IDX 90 46 84 47 86 48 40 49 89 50 83 51 82 52 41 54 71 55 52 56
REMARK SMILES IDX 70 57 53 58 56 59 69 60 87 61 54 62 55 63 68 65 88 66 57 67
REMARK SMILES IDX 42 68 43 69 51 70 44 71 50 72 45 73 46 74 47 75 48 76 49 77
REMARK SMILES IDX 72 78 73 79 81 80 74 81 80 82 75 83 76 84 77 85 78 86 79 87
REMARK SMILES IDX 58 88 59 89 67 90 60 91 66 92 61 93 62 94 63 95 64 96 65 97
REMARK H PARENT 25 6 4 12 30 34 86 53 56 64
REMARK Flexibility Score: inf
ROOT
ATOM      1  C   UNL     1      -3.361  -2.012   1.202  1.00  0.00     0.023 C 
ENDROOT
BRANCH   1   2
ATOM      2  C   UNL     1      -2.562  -1.291   2.287  1.00  0.00     0.116 C 
BRANCH   2   3
ATOM      3  N   UNL     1      -1.643  -2.111   3.057  1.00  0.00    -0.354 N 
ATOM      4  C   UNL     1      -0.286  -2.097   3.139  1.00  0.00     0.242 C 
ATOM      5  O   UNL     1       0.244  -2.626   4.122  1.00  0.00    -0.273 OA
ATOM      6  H   UNL     1      -2.078  -2.795   3.616  1.00  0.00     0.163 HD
BRANCH   4   7
ATOM      7  C   UNL     1       0.592  -1.360   2.120  1.00  0.00     0.171 C 
BRANCH   7   8
ATOM      8  C   UNL     1       0.978   0.033   2.669  1.00  0.00     0.031 C 
ATOM      9  C   UNL     1      -0.162   1.033   2.821  1.00  0.00     0.006 C 
ENDBRANCH   7   8
BRANCH   7  10
ATOM     10  N   UNL     1       0.117  -1.295   0.742  1.00  0.00    -0.344 N 
ATOM     11  C   UNL     1      -0.083  -2.317  -0.140  1.00  0.00     0.225 C 
ATOM     12  H   UNL     1      -0.088  -0.394   0.403  1.00  0.00     0.164 HD
ATOM     13  O   UNL     1      -0.068  -2.025  -1.339  1.00  0.00    -0.275 OA
BRANCH  11  14
ATOM     14  C   UNL     1      -0.451  -3.734   0.316  1.00  0.00     0.143 C 
BRANCH  14  15
ATOM     15  C   UNL     1       0.619  -4.602   0.914  1.00  0.00     0.051 A 
ATOM     16  C   UNL     1       1.779  -4.917   0.304  1.00  0.00    -0.029 A 
ATOM     17  C   UNL     1       0.237  -5.220   2.222  1.00  0.00     0.340 A 
ATOM     18  C   UNL     1       2.105  -4.487  -1.103  1.00  0.00     0.046 C 
ATOM     19  C   UNL     1       2.750  -5.761   1.021  1.00  0.00     0.023 A 
ATOM     20  O   UNL     1       1.220  -5.900   2.911  1.00  0.00    -0.422 OA
ATOM     21  O   UNL     1      -0.903  -5.139   2.670  1.00  0.00    -0.246 OA
ATOM     22  C   UNL     1       3.988  -6.139   0.493  1.00  0.00     0.036 A 
ATOM     23  C   UNL     1       2.443  -6.208   2.303  1.00  0.00     0.142 A 
ATOM     24  C   UNL     1       4.861  -6.958   1.224  1.00  0.00     0.083 A 
ATOM     25  C   UNL     1       3.305  -7.014   3.052  1.00  0.00     0.095 A 
ATOM     26  Cl  UNL     1       6.360  -7.395   0.478  1.00  0.00    -0.080 Cl
ATOM     27  C   UNL     1       4.523  -7.414   2.507  1.00  0.00     0.141 A 
BRANCH  27  28
ATOM     28  O   UNL     1       5.428  -8.221   3.142  1.00  0.00    -0.495 OA
ATOM     29  C   UNL     1       4.993  -8.873   4.330  1.00  0.00     0.278 C 
ENDBRANCH  27  28
ENDBRANCH  14  15
ENDBRANCH  11  14
ENDBRANCH   7  10
ENDBRANCH   4   7
ENDBRANCH   2   3
ENDBRANCH   1   2
BRANCH   1  30
ATOM     30  C   UNL     1      -4.001  -3.332   1.613  1.00  0.00     0.023 C 
BRANCH  30  31
ATOM     31  C   UNL     1      -4.824  -3.252   2.882  1.00  0.00     0.116 C 
BRANCH  31  32
ATOM     32  N   UNL     1      -5.894  -2.269   2.786  1.00  0.00    -0.352 N 
ATOM     33  C   UNL     1      -7.232  -2.438   3.060  1.00  0.00     0.251 C 
ATOM     34  H   UNL     1      -5.627  -1.370   2.486  1.00  0.00     0.163 HD
ATOM     35  O   UNL     1      -8.046  -1.581   2.761  1.00  0.00    -0.269 OA
BRANCH  33  36
ATOM     36  C   UNL     1      -7.648  -3.703   3.699  1.00  0.00     0.039 A 
ATOM     37  C   UNL     1      -6.915  -4.195   4.779  1.00  0.00     0.014 A 
ATOM     38  C   UNL     1      -8.694  -4.444   3.147  1.00  0.00     0.014 A 
ATOM     39  C   UNL     1      -7.093  -5.510   5.172  1.00  0.00     0.010 A 
ATOM     40  C   UNL     1      -8.955  -5.725   3.639  1.00  0.00     0.010 A 
ATOM     41  C   UNL     1      -8.125  -6.288   4.621  1.00  0.00    -0.014 A 
BRANCH  41  42
ATOM     42  C   UNL     1      -8.309  -7.679   5.111  1.00  0.00     0.031 A 
ATOM     43  C   UNL     1      -8.169  -8.855   4.181  1.00  0.00     0.074 A 
ATOM     44  C   UNL     1      -8.520  -7.871   6.430  1.00  0.00     0.049 A 
ATOM     45  N   UNL     1      -8.260 -10.130   4.461  1.00  0.00    -0.248 NA
ATOM     46  C   UNL     1      -7.899  -8.578   2.760  1.00  0.00     0.031 C 
ATOM     47  C   UNL     1      -8.644  -6.799   7.423  1.00  0.00     0.029 A 
ATOM     48  N   UNL     1      -8.613  -9.019   7.175  1.00  0.00    -0.354 N 
ATOM     49  C   UNL     1      -8.086 -10.802   3.256  1.00  0.00     0.074 A 
ATOM     50  C   UNL     1      -7.909  -9.796   2.233  1.00  0.00     0.031 C 
ATOM     51  C   UNL     1      -8.693  -7.336   8.649  1.00  0.00     0.029 A 
ATOM     52  C   UNL     1      -8.709  -8.789   8.528  1.00  0.00     0.049 A 
ATOM     53  H   UNL     1      -8.612  -9.920   6.779  1.00  0.00     0.167 HD
ATOM     54  C   UNL     1      -8.062 -12.136   3.033  1.00  0.00     0.031 A 
ATOM     55  C   UNL     1      -8.808  -9.645   9.564  1.00  0.00     0.031 A 
ATOM     56  C   UNL     1      -8.200 -13.125   4.072  1.00  0.00     0.049 A 
ATOM     57  C   UNL     1      -8.813 -11.118   9.280  1.00  0.00     0.074 A 
ATOM     58  C   UNL     1      -8.175 -14.503   3.946  1.00  0.00     0.029 A 
ATOM     59  N   UNL     1      -8.368 -12.849   5.420  1.00  0.00    -0.354 N 
ATOM     60  N   UNL     1      -8.660 -11.730   8.130  1.00  0.00    -0.248 NA
ATOM     61  C   UNL     1      -9.010 -12.018  10.423  1.00  0.00     0.031 C 
ATOM     62  C   UNL     1      -8.395 -15.059   5.206  1.00  0.00     0.029 A 
ATOM     63  C   UNL     1      -8.474 -14.031   6.132  1.00  0.00     0.049 A 
ATOM     64  H   UNL     1      -8.407 -11.947   5.813  1.00  0.00     0.167 HD
ATOM     65  C   UNL     1      -8.722 -13.088   8.414  1.00  0.00     0.074 A 
ATOM     66  C   UNL     1      -8.907 -13.209   9.846  1.00  0.00     0.031 C 
ATOM     67  C   UNL     1      -8.641 -14.137   7.561  1.00  0.00     0.031 A 
BRANCH  54  68
ATOM     68  C   UNL     1      -7.875 -12.638   1.623  1.00  0.00    -0.014 A 
ATOM     69  C   UNL     1      -8.919 -13.346   0.995  1.00  0.00     0.010 A 
ATOM     70  C   UNL     1      -6.625 -12.559   0.984  1.00  0.00     0.010 A 
ATOM     71  C   UNL     1      -8.702 -14.009  -0.216  1.00  0.00     0.020 A 
ATOM     72  C   UNL     1      -6.413 -13.197  -0.243  1.00  0.00     0.020 A 
ATOM     73  C   UNL     1      -7.444 -13.943  -0.820  1.00  0.00     0.054 A 
BRANCH  73  74
ATOM     74  S   UNL     1      -7.162 -14.868  -2.355  1.00  0.00     0.124 S 
ATOM     75  O   UNL     1      -7.110 -16.247  -1.880  1.00  0.00    -0.237 OA
ATOM     76  O   UNL     1      -8.333 -14.519  -3.156  1.00  0.00    -0.237 OA
ATOM     77  O   UNL     1      -5.897 -14.329  -2.851  1.00  0.00    -0.744 OA
ENDBRANCH  73  74
ENDBRANCH  54  68
BRANCH  55  78
ATOM     78  C   UNL     1      -8.891  -9.110  10.953  1.00  0.00    -0.014 A 
ATOM     79  C   UNL     1      -9.986  -8.318  11.348  1.00  0.00     0.010 A 
ATOM     80  C   UNL     1      -7.843  -9.323  11.864  1.00  0.00     0.010 A 
ATOM     81  C   UNL     1     -10.004  -7.700  12.601  1.00  0.00     0.020 A 
ATOM     82  C   UNL     1      -7.875  -8.738  13.135  1.00  0.00     0.020 A 
ATOM     83  C   UNL     1      -8.942  -7.907  13.483  1.00  0.00     0.054 A 
BRANCH  83  84
ATOM     84  S   UNL     1      -8.973  -7.071  15.092  1.00  0.00     0.124 S 
ATOM     85  O   UNL     1      -8.616  -5.703  14.726  1.00  0.00    -0.237 OA
ATOM     86  O   UNL     1     -10.354  -7.266  15.526  1.00  0.00    -0.237 OA
ATOM     87  O   UNL     1      -7.971  -7.793  15.872  1.00  0.00    -0.744 OA
ENDBRANCH  83  84
ENDBRANCH  55  78
BRANCH  67  88
ATOM     88  C   UNL     1      -8.729 -15.527   8.133  1.00  0.00    -0.014 A 
ATOM     89  C   UNL     1      -7.609 -16.377   8.062  1.00  0.00     0.010 A 
ATOM     90  C   UNL     1      -9.952 -16.040   8.597  1.00  0.00     0.010 A 
ATOM     91  C   UNL     1      -7.721 -17.726   8.401  1.00  0.00     0.020 A 
ATOM     92  C   UNL     1     -10.060 -17.383   8.969  1.00  0.00     0.020 A 
ATOM     93  C   UNL     1      -8.951 -18.223   8.839  1.00  0.00     0.054 A 
BRANCH  93  94
ATOM     94  S   UNL     1      -9.090 -19.990   9.224  1.00  0.00     0.124 S 
ATOM     95  O   UNL     1      -9.121 -20.592   7.894  1.00  0.00    -0.237 OA
ATOM     96  O   UNL     1      -7.881 -20.245  10.003  1.00  0.00    -0.237 OA
ATOM     97  O   UNL     1     -10.338 -20.079   9.979  1.00  0.00    -0.744 OA
ENDBRANCH  93  94
ENDBRANCH  67  88
ENDBRANCH  41  42
ENDBRANCH  33  36
ENDBRANCH  31  32
ENDBRANCH  30  31
ENDBRANCH   1  30
TORSDOF 19
