REMARK SMILES CC(C)c1cc(C2CC[NH+](Cc3c[nH]nc3C(=O)NCCCCNC(=O)c3ccc(-c4c5nc(c(-c6ccc(S(=O)(=O)[O-])cc6)c6ccc([nH]6)c(-c6ccc(S(=O)(=O)[O-])cc6)c6nc(c(-c7ccc(S(=O)(=O)[O-])cc7)c7ccc4[nH]7)C=C6)C=C5)cc3)CC2)n[nH]1
REMARK SMILES IDX 21 1 20 2 19 3 17 4 18 5 16 7 12 8 13 9 14 10 15 11 11 13
REMARK SMILES IDX 10 14 7 15 8 16 88 17 9 18 87 19 6 21 4 22 5 23 90 24 89 25
REMARK SMILES IDX 2 27 1 28 3 29 22 30 23 31 24 32 25 33 26 35 27 36 28 37
REMARK SMILES IDX 86 38 29 39 85 40 30 41 31 42 32 43 79 44 33 45 84 46 78 47
REMARK SMILES IDX 80 48 34 49 83 50 77 51 76 52 35 54 65 55 46 56 64 57 47 58
REMARK SMILES IDX 50 59 63 60 81 61 48 62 49 63 62 65 82 66 51 67 36 68 37 69
REMARK SMILES IDX 45 70 38 71 44 72 39 73 40 74 41 75 42 76 43 77 66 78 67 79
REMARK SMILES IDX 75 80 68 81 74 82 69 83 70 84 71 85 72 86 73 87 52 88 53 89
REMARK SMILES IDX 61 90 54 91 60 92 55 93 56 94 57 95 58 96 59 97
REMARK H PARENT 19 6 14 12 10 20 90 26 24 34 80 53 50 64
REMARK Flexibility Score: inf
ROOT
ATOM      1  C   UNL     1      -3.958   6.003  -4.024  1.00  0.00     0.023 C 
ENDROOT
BRANCH   1   2
ATOM      2  C   UNL     1      -2.957   5.508  -5.059  1.00  0.00     0.116 C 
BRANCH   2   3
ATOM      3  N   UNL     1      -1.596   5.798  -4.738  1.00  0.00    -0.351 N 
ATOM      4  C   UNL     1      -0.466   5.023  -4.673  1.00  0.00     0.272 C 
ATOM      5  O   UNL     1       0.534   5.687  -4.359  1.00  0.00    -0.267 OA
ATOM      6  H   UNL     1      -1.437   6.745  -4.519  1.00  0.00     0.163 HD
BRANCH   4   7
ATOM      7  C   UNL     1      -0.347   3.546  -4.933  1.00  0.00     0.158 A 
ATOM      8  C   UNL     1      -1.174   2.444  -5.427  1.00  0.00     0.057 A 
ATOM      9  C   UNL     1      -0.302   1.362  -5.480  1.00  0.00     0.115 A 
ATOM     10  N   UNL     1       0.883   1.778  -4.994  1.00  0.00    -0.284 N 
ATOM     11  N   UNL     1       0.888   3.054  -4.650  1.00  0.00    -0.170 NA
ATOM     12  H   UNL     1       1.668   1.190  -4.904  1.00  0.00     0.189 HD
BRANCH   8  13
ATOM     13  C   UNL     1      -2.598   2.298  -5.894  1.00  0.00     0.303 C 
BRANCH  13  14
ATOM     14  N   UNL     1      -3.536   1.752  -4.878  1.00  0.00    -0.331 N 
ATOM     15  C   UNL     1      -4.266   0.245  -2.415  1.00  0.00     0.051 C 
ATOM     16  C   UNL     1      -4.472  -0.330  -3.817  1.00  0.00     0.071 C 
ATOM     17  C   UNL     1      -4.408   1.762  -2.498  1.00  0.00     0.071 C 
ATOM     18  C   UNL     1      -3.535   0.286  -4.858  1.00  0.00     0.263 C 
ATOM     19  C   UNL     1      -3.498   2.386  -3.556  1.00  0.00     0.263 C 
ATOM     20  H   UNL     1      -4.461   2.034  -5.203  1.00  0.00     0.348 HD
BRANCH  15  21
ATOM     21  C   UNL     1      -2.981  -0.191  -1.754  1.00  0.00     0.066 A 
ATOM     22  C   UNL     1      -0.849  -0.479  -1.169  1.00  0.00     0.038 A 
ATOM     23  C   UNL     1      -1.649   0.105  -2.119  1.00  0.00     0.049 A 
ATOM     24  N   UNL     1      -1.716  -1.093  -0.308  1.00  0.00    -0.282 N 
ATOM     25  N   UNL     1      -3.009  -0.948  -0.648  1.00  0.00    -0.180 NA
ATOM     26  H   UNL     1      -1.421  -1.593   0.486  1.00  0.00     0.190 HD
BRANCH  22  27
ATOM     27  C   UNL     1       0.641  -0.477  -1.055  1.00  0.00     0.031 C 
ATOM     28  C   UNL     1       1.124  -0.299   0.381  1.00  0.00     0.014 C 
ATOM     29  C   UNL     1       1.229  -1.734  -1.694  1.00  0.00     0.014 C 
ENDBRANCH  22  27
ENDBRANCH  15  21
ENDBRANCH  13  14
ENDBRANCH   8  13
ENDBRANCH   4   7
ENDBRANCH   2   3
ENDBRANCH   1   2
BRANCH   1  30
ATOM     30  C   UNL     1      -4.441   7.427  -4.225  1.00  0.00     0.023 C 
BRANCH  30  31
ATOM     31  C   UNL     1      -4.978   7.734  -5.617  1.00  0.00     0.116 C 
BRANCH  31  32
ATOM     32  N   UNL     1      -5.963   6.777  -6.115  1.00  0.00    -0.352 N 
ATOM     33  C   UNL     1      -7.178   7.021  -6.725  1.00  0.00     0.251 C 
ATOM     34  H   UNL     1      -5.729   5.828  -5.999  1.00  0.00     0.163 HD
ATOM     35  O   UNL     1      -7.911   6.106  -7.052  1.00  0.00    -0.269 OA
BRANCH  33  36
ATOM     36  C   UNL     1      -7.590   8.428  -6.913  1.00  0.00     0.039 A 
ATOM     37  C   UNL     1      -8.803   8.852  -6.370  1.00  0.00     0.014 A 
ATOM     38  C   UNL     1      -6.705   9.341  -7.487  1.00  0.00     0.014 A 
ATOM     39  C   UNL     1      -9.073  10.219  -6.291  1.00  0.00     0.010 A 
ATOM     40  C   UNL     1      -6.927  10.700  -7.310  1.00  0.00     0.010 A 
ATOM     41  C   UNL     1      -8.105  11.154  -6.695  1.00  0.00    -0.014 A 
BRANCH  41  42
ATOM     42  C   UNL     1      -8.282  12.610  -6.459  1.00  0.00     0.031 A 
ATOM     43  C   UNL     1      -8.257  13.565  -7.622  1.00  0.00     0.074 A 
ATOM     44  C   UNL     1      -8.362  13.082  -5.198  1.00  0.00     0.049 A 
ATOM     45  N   UNL     1      -8.277  14.873  -7.614  1.00  0.00    -0.248 NA
ATOM     46  C   UNL     1      -8.151  12.975  -8.967  1.00  0.00     0.031 C 
ATOM     47  C   UNL     1      -8.323  12.270  -3.977  1.00  0.00     0.029 A 
ATOM     48  N   UNL     1      -8.484  14.367  -4.730  1.00  0.00    -0.354 N 
ATOM     49  C   UNL     1      -8.146  15.258  -8.943  1.00  0.00     0.074 A 
ATOM     50  C   UNL     1      -7.998  14.051  -9.723  1.00  0.00     0.031 C 
ATOM     51  C   UNL     1      -8.458  13.072  -2.907  1.00  0.00     0.029 A 
ATOM     52  C   UNL     1      -8.553  14.456  -3.359  1.00  0.00     0.049 A 
ATOM     53  H   UNL     1      -8.519  15.154  -5.322  1.00  0.00     0.167 HD
ATOM     54  C   UNL     1      -8.171  16.504  -9.471  1.00  0.00     0.031 A 
ATOM     55  C   UNL     1      -8.679  15.529  -2.555  1.00  0.00     0.031 A 
ATOM     56  C   UNL     1      -8.374  17.700  -8.702  1.00  0.00     0.049 A 
ATOM     57  C   UNL     1      -8.769  16.898  -3.171  1.00  0.00     0.074 A 
ATOM     58  C   UNL     1      -8.498  19.002  -9.153  1.00  0.00     0.029 A 
ATOM     59  N   UNL     1      -8.499  17.739  -7.322  1.00  0.00    -0.354 N 
ATOM     60  N   UNL     1      -8.708  17.236  -4.437  1.00  0.00    -0.248 NA
ATOM     61  C   UNL     1      -8.956  18.029  -2.251  1.00  0.00     0.031 C 
ATOM     62  C   UNL     1      -8.673  19.833  -8.041  1.00  0.00     0.029 A 
ATOM     63  C   UNL     1      -8.695  19.043  -6.903  1.00  0.00     0.049 A 
ATOM     64  H   UNL     1      -8.455  16.954  -6.728  1.00  0.00     0.167 HD
ATOM     65  C   UNL     1      -8.875  18.615  -4.467  1.00  0.00     0.074 A 
ATOM     66  C   UNL     1      -9.051  19.047  -3.096  1.00  0.00     0.031 C 
ATOM     67  C   UNL     1      -8.880  19.450  -5.535  1.00  0.00     0.031 A 
BRANCH  54  68
ATOM     68  C   UNL     1      -7.992  16.627 -10.959  1.00  0.00    -0.014 A 
ATOM     69  C   UNL     1      -9.005  16.217 -11.845  1.00  0.00     0.010 A 
ATOM     70  C   UNL     1      -6.809  17.180 -11.479  1.00  0.00     0.010 A 
ATOM     71  C   UNL     1      -8.820  16.316 -13.225  1.00  0.00     0.020 A 
ATOM     72  C   UNL     1      -6.630  17.306 -12.860  1.00  0.00     0.020 A 
ATOM     73  C   UNL     1      -7.631  16.854 -13.724  1.00  0.00     0.054 A 
BRANCH  73  74
ATOM     74  S   UNL     1      -7.423  16.991 -15.521  1.00  0.00     0.124 S 
ATOM     75  O   UNL     1      -7.115  15.612 -15.892  1.00  0.00    -0.237 OA
ATOM     76  O   UNL     1      -8.726  17.483 -15.960  1.00  0.00    -0.237 OA
ATOM     77  O   UNL     1      -6.321  17.938 -15.670  1.00  0.00    -0.744 OA
ENDBRANCH  73  74
ENDBRANCH  54  68
BRANCH  55  78
ATOM     78  C   UNL     1      -8.764  15.355  -1.080  1.00  0.00    -0.014 A 
ATOM     79  C   UNL     1      -9.992  15.528  -0.418  1.00  0.00     0.010 A 
ATOM     80  C   UNL     1      -7.623  15.016  -0.331  1.00  0.00     0.010 A 
ATOM     81  C   UNL     1     -10.075  15.390   0.971  1.00  0.00     0.020 A 
ATOM     82  C   UNL     1      -7.707  14.855   1.056  1.00  0.00     0.020 A 
ATOM     83  C   UNL     1      -8.930  15.057   1.700  1.00  0.00     0.054 A 
BRANCH  83  84
ATOM     84  S   UNL     1      -9.064  14.842   3.497  1.00  0.00     0.124 S 
ATOM     85  O   UNL     1      -9.087  16.224   3.966  1.00  0.00    -0.237 OA
ATOM     86  O   UNL     1     -10.318  14.105   3.637  1.00  0.00    -0.237 OA
ATOM     87  O   UNL     1      -7.864  14.082   3.838  1.00  0.00    -0.744 OA
ENDBRANCH  83  84
ENDBRANCH  55  78
BRANCH  67  88
ATOM     88  C   UNL     1      -9.120  20.909  -5.269  1.00  0.00    -0.014 A 
ATOM     89  C   UNL     1      -8.110  21.723  -4.731  1.00  0.00     0.010 A 
ATOM     90  C   UNL     1     -10.355  21.483  -5.623  1.00  0.00     0.010 A 
ATOM     91  C   UNL     1      -8.338  23.086  -4.528  1.00  0.00     0.020 A 
ATOM     92  C   UNL     1     -10.579  22.849  -5.441  1.00  0.00     0.020 A 
ATOM     93  C   UNL     1      -9.573  23.640  -4.883  1.00  0.00     0.054 A 
BRANCH  93  94
ATOM     94  S   UNL     1      -9.831  25.422  -4.660  1.00  0.00     0.124 S 
ATOM     95  O   UNL     1     -10.076  25.515  -3.224  1.00  0.00    -0.237 OA
ATOM     96  O   UNL     1      -8.567  25.992  -5.120  1.00  0.00    -0.237 OA
ATOM     97  O   UNL     1     -10.983  25.712  -5.510  1.00  0.00    -0.744 OA
ENDBRANCH  93  94
ENDBRANCH  67  88
ENDBRANCH  41  42
ENDBRANCH  33  36
ENDBRANCH  31  32
ENDBRANCH  30  31
ENDBRANCH   1  30
TORSDOF 18
