REMARK SMILES C[C@H]1CC[C@H]([NH2+]Cc2c(C(=O)NCCCCNC(=O)c3ccc(-c4c5nc(c(-c6ccc(S(=O)(=O)[O-])cc6)c6ccc([nH]6)c(-c6ccc(S(=O)(=O)[O-])cc6)c6nc(c(-c7ccc(S(=O)(=O)[O-])cc7)c7ccc4[nH]7)C=C6)C=C5)cc3)n(Cc3ccccc3F)c3ccccc23)CC1
REMARK SMILES IDX 14 1 13 2 12 3 10 4 11 5 9 7 8 8 94 9 80 10 89 11 93 12
REMARK SMILES IDX 90 13 92 14 91 15 7 16 6 17 5 20 1 21 2 22 3 23 96 24 4 25
REMARK SMILES IDX 95 26 81 27 82 28 83 29 87 30 84 31 86 32 88 33 85 34 15 35
REMARK SMILES IDX 16 36 17 37 18 38 19 40 20 41 21 42 79 43 22 44 78 45 23 46
REMARK SMILES IDX 24 47 25 48 72 49 26 50 77 51 71 52 73 53 27 54 76 55 70 56
REMARK SMILES IDX 69 57 28 59 58 60 39 61 57 62 40 63 43 64 56 65 74 66 41 67
REMARK SMILES IDX 42 68 55 70 75 71 44 72 29 73 30 74 38 75 31 76 37 77 32 78
REMARK SMILES IDX 33 79 34 80 35 81 36 82 59 83 60 84 68 85 61 86 67 87 62 88
REMARK SMILES IDX 63 89 64 90 65 91 66 92 45 93 46 94 54 95 47 96 53 97 48 98
REMARK SMILES IDX 49 99 50 100 51 101 52 102
REMARK H PARENT 12 6 6 18 6 19 17 39 73 58 43 69
REMARK Flexibility Score: inf
ROOT
ATOM      1  C   UNL     1      -4.527   1.646   2.174  1.00  0.00     0.023 C 
ENDROOT
BRANCH   1   2
ATOM      2  C   UNL     1      -3.902   0.346   1.682  1.00  0.00     0.116 C 
BRANCH   2   3
ATOM      3  N   UNL     1      -2.895  -0.282   2.495  1.00  0.00    -0.351 N 
ATOM      4  C   UNL     1      -2.270  -1.501   2.322  1.00  0.00     0.268 C 
ATOM      5  O   UNL     1      -1.344  -1.710   3.117  1.00  0.00    -0.268 OA
ATOM      6  H   UNL     1      -2.611   0.230   3.287  1.00  0.00     0.163 HD
BRANCH   4   7
ATOM      7  C   UNL     1      -2.685  -2.514   1.333  1.00  0.00     0.117 A 
ATOM      8  C   UNL     1      -3.324  -2.445   0.077  1.00  0.00     0.045 A 
ATOM      9  C   UNL     1      -3.850  -3.756  -0.166  1.00  0.00     0.009 A 
ATOM     10  N   UNL     1      -2.303  -3.880   1.418  1.00  0.00    -0.331 N 
ATOM     11  C   UNL     1      -3.007  -4.636   0.488  1.00  0.00     0.049 A 
ATOM     12  C   UNL     1      -4.847  -4.265  -1.025  1.00  0.00     0.011 A 
ATOM     13  C   UNL     1      -2.984  -5.999   0.140  1.00  0.00     0.027 A 
ATOM     14  C   UNL     1      -4.949  -5.641  -1.230  1.00  0.00     0.001 A 
ATOM     15  C   UNL     1      -3.994  -6.492  -0.691  1.00  0.00     0.002 A 
BRANCH   8  16
ATOM     16  C   UNL     1      -3.556  -1.384  -0.963  1.00  0.00     0.300 C 
BRANCH  16  17
ATOM     17  N   UNL     1      -2.630  -0.270  -1.014  1.00  0.00    -0.340 N 
ATOM     18  H   UNL     1      -3.025   0.385  -1.688  1.00  0.00     0.346 HD
ATOM     19  H   UNL     1      -2.562  -0.035  -0.023  1.00  0.00     0.346 HD
BRANCH  17  20
ATOM     20  C   UNL     1      -1.215  -0.385  -1.361  1.00  0.00     0.182 C 
ATOM     21  C   UNL     1       3.075  -0.047  -0.300  1.00  0.00     0.007 C 
ATOM     22  C   UNL     1       1.557  -0.150  -0.273  1.00  0.00    -0.014 C 
ATOM     23  C   UNL     1       1.065  -1.442  -0.934  1.00  0.00     0.009 C 
ATOM     24  C   UNL     1       0.908   1.045  -0.970  1.00  0.00     0.009 C 
ATOM     25  C   UNL     1      -0.446  -1.566  -0.768  1.00  0.00     0.065 C 
ATOM     26  C   UNL     1      -0.607   0.952  -0.876  1.00  0.00     0.065 C 
ENDBRANCH  17  20
ENDBRANCH  16  17
ENDBRANCH   8  16
BRANCH  10  27
ATOM     27  C   UNL     1      -1.232  -4.458   2.250  1.00  0.00     0.161 C 
BRANCH  27  28
ATOM     28  C   UNL     1      -1.700  -5.168   3.500  1.00  0.00     0.008 A 
ATOM     29  C   UNL     1      -2.489  -6.331   3.463  1.00  0.00     0.008 A 
ATOM     30  C   UNL     1      -1.284  -4.729   4.759  1.00  0.00     0.128 A 
ATOM     31  C   UNL     1      -2.883  -6.993   4.628  1.00  0.00     0.001 A 
ATOM     32  C   UNL     1      -1.684  -5.374   5.931  1.00  0.00     0.039 A 
ATOM     33  F   UNL     1      -0.440  -3.695   4.868  1.00  0.00    -0.207 F 
ATOM     34  C   UNL     1      -2.493  -6.505   5.868  1.00  0.00     0.003 A 
ENDBRANCH  27  28
ENDBRANCH  10  27
ENDBRANCH   4   7
ENDBRANCH   2   3
ENDBRANCH   1   2
BRANCH   1  35
ATOM     35  C   UNL     1      -3.720   2.937   1.934  1.00  0.00     0.023 C 
BRANCH  35  36
ATOM     36  C   UNL     1      -3.138   3.185   0.533  1.00  0.00     0.116 C 
BRANCH  36  37
ATOM     37  N   UNL     1      -4.058   3.301  -0.584  1.00  0.00    -0.352 N 
ATOM     38  C   UNL     1      -4.513   4.413  -1.255  1.00  0.00     0.251 C 
ATOM     39  H   UNL     1      -4.414   2.446  -0.916  1.00  0.00     0.163 HD
ATOM     40  O   UNL     1      -4.758   4.307  -2.457  1.00  0.00    -0.269 OA
BRANCH  38  41
ATOM     41  C   UNL     1      -4.899   5.651  -0.536  1.00  0.00     0.039 A 
ATOM     42  C   UNL     1      -4.370   6.029   0.694  1.00  0.00     0.014 A 
ATOM     43  C   UNL     1      -5.975   6.378  -1.077  1.00  0.00     0.014 A 
ATOM     44  C   UNL     1      -5.034   6.957   1.471  1.00  0.00     0.010 A 
ATOM     45  C   UNL     1      -6.615   7.351  -0.320  1.00  0.00     0.010 A 
ATOM     46  C   UNL     1      -6.187   7.577   0.984  1.00  0.00    -0.014 A 
BRANCH  46  47
ATOM     47  C   UNL     1      -6.833   8.524   1.881  1.00  0.00     0.031 A 
ATOM     48  C   UNL     1      -5.972   9.670   2.287  1.00  0.00     0.074 A 
ATOM     49  C   UNL     1      -8.112   8.420   2.284  1.00  0.00     0.049 A 
ATOM     50  N   UNL     1      -5.573   9.999   3.472  1.00  0.00    -0.248 NA
ATOM     51  C   UNL     1      -5.374  10.466   1.205  1.00  0.00     0.031 C 
ATOM     52  C   UNL     1      -9.161   7.543   1.759  1.00  0.00     0.029 A 
ATOM     53  N   UNL     1      -8.774   9.186   3.193  1.00  0.00    -0.354 N 
ATOM     54  C   UNL     1      -4.801  11.148   3.310  1.00  0.00     0.074 A 
ATOM     55  C   UNL     1      -4.599  11.303   1.892  1.00  0.00     0.031 C 
ATOM     56  C   UNL     1     -10.364   8.007   2.167  1.00  0.00     0.029 A 
ATOM     57  C   UNL     1     -10.156   9.109   3.093  1.00  0.00     0.049 A 
ATOM     58  H   UNL     1      -8.315   9.745   3.861  1.00  0.00     0.167 HD
ATOM     59  C   UNL     1      -4.519  11.995   4.339  1.00  0.00     0.031 A 
ATOM     60  C   UNL     1     -11.045   9.969   3.650  1.00  0.00     0.031 A 
ATOM     61  C   UNL     1      -4.722  11.373   5.618  1.00  0.00     0.049 A 
ATOM     62  C   UNL     1     -10.346  10.690   4.743  1.00  0.00     0.074 A 
ATOM     63  C   UNL     1      -4.154  10.295   6.268  1.00  0.00     0.029 A 
ATOM     64  N   UNL     1      -5.886  11.654   6.291  1.00  0.00    -0.354 N 
ATOM     65  N   UNL     1      -9.948  10.132   5.851  1.00  0.00    -0.248 NA
ATOM     66  C   UNL     1      -9.726  11.968   4.428  1.00  0.00     0.031 C 
ATOM     67  C   UNL     1      -5.226   9.691   6.982  1.00  0.00     0.029 A 
ATOM     68  C   UNL     1      -6.369  10.467   6.776  1.00  0.00     0.049 A 
ATOM     69  H   UNL     1      -6.296  12.542   6.404  1.00  0.00     0.167 HD
ATOM     70  C   UNL     1      -8.753  10.764   6.158  1.00  0.00     0.074 A 
ATOM     71  C   UNL     1      -8.716  11.945   5.299  1.00  0.00     0.031 C 
ATOM     72  C   UNL     1      -7.777  10.138   6.880  1.00  0.00     0.031 A 
BRANCH  59  73
ATOM     73  C   UNL     1      -4.356  13.487   4.176  1.00  0.00    -0.014 A 
ATOM     74  C   UNL     1      -4.697  14.174   2.993  1.00  0.00     0.010 A 
ATOM     75  C   UNL     1      -4.085  14.279   5.312  1.00  0.00     0.010 A 
ATOM     76  C   UNL     1      -4.759  15.566   2.932  1.00  0.00     0.020 A 
ATOM     77  C   UNL     1      -4.192  15.677   5.275  1.00  0.00     0.020 A 
ATOM     78  C   UNL     1      -4.524  16.311   4.081  1.00  0.00     0.054 A 
BRANCH  78  79
ATOM     79  S   UNL     1      -4.752  18.102   3.983  1.00  0.00     0.124 S 
ATOM     80  O   UNL     1      -3.611  18.501   3.154  1.00  0.00    -0.237 OA
ATOM     81  O   UNL     1      -6.055  18.225   3.367  1.00  0.00    -0.237 OA
ATOM     82  O   UNL     1      -4.675  18.530   5.386  1.00  0.00    -0.744 OA
ENDBRANCH  78  79
ENDBRANCH  59  73
BRANCH  60  83
ATOM     83  C   UNL     1     -12.264  10.530   3.009  1.00  0.00    -0.014 A 
ATOM     84  C   UNL     1     -12.373  10.573   1.605  1.00  0.00     0.010 A 
ATOM     85  C   UNL     1     -13.147  11.327   3.764  1.00  0.00     0.010 A 
ATOM     86  C   UNL     1     -13.252  11.457   0.973  1.00  0.00     0.020 A 
ATOM     87  C   UNL     1     -14.026  12.223   3.136  1.00  0.00     0.020 A 
ATOM     88  C   UNL     1     -14.038  12.312   1.744  1.00  0.00     0.054 A 
BRANCH  88  89
ATOM     89  S   UNL     1     -14.970  13.617   0.892  1.00  0.00     0.124 S 
ATOM     90  O   UNL     1     -13.898  14.447   0.349  1.00  0.00    -0.237 OA
ATOM     91  O   UNL     1     -15.738  12.861  -0.095  1.00  0.00    -0.237 OA
ATOM     92  O   UNL     1     -15.760  14.230   1.956  1.00  0.00    -0.744 OA
ENDBRANCH  88  89
ENDBRANCH  60  83
BRANCH  72  93
ATOM     93  C   UNL     1      -8.099   8.857   7.619  1.00  0.00    -0.014 A 
ATOM     94  C   UNL     1      -7.680   8.770   8.960  1.00  0.00     0.010 A 
ATOM     95  C   UNL     1      -8.590   7.694   6.994  1.00  0.00     0.010 A 
ATOM     96  C   UNL     1      -7.705   7.556   9.646  1.00  0.00     0.020 A 
ATOM     97  C   UNL     1      -8.645   6.475   7.689  1.00  0.00     0.020 A 
ATOM     98  C   UNL     1      -8.174   6.410   9.002  1.00  0.00     0.054 A 
BRANCH  98  99
ATOM     99  S   UNL     1      -8.124   4.841   9.909  1.00  0.00     0.124 S 
ATOM    100  O   UNL     1      -6.694   4.543   9.933  1.00  0.00    -0.237 OA
ATOM    101  O   UNL     1      -8.707   5.196  11.202  1.00  0.00    -0.237 OA
ATOM    102  O   UNL     1      -8.933   3.936   9.097  1.00  0.00    -0.744 OA
ENDBRANCH  98  99
ENDBRANCH  72  93
ENDBRANCH  46  47
ENDBRANCH  38  41
ENDBRANCH  36  37
ENDBRANCH  35  36
ENDBRANCH   1  35
TORSDOF 19
