REMARK SMILES CC(C)(C)OC(=O)N1CC[N@H+](Cc2ccc(Cl)nc2)[C@H](C(=O)NCCCCNC(=O)c2ccc(-c3c4nc(c(-c5ccc(S(=O)(=O)[O-])cc5)c5ccc([nH]5)c(-c5ccc(S(=O)(=O)[O-])cc5)c5nc(c(-c6ccc(S(=O)(=O)[O-])cc6)c6ccc3[nH]6)C=C5)C=C4)cc2)C1
REMARK SMILES IDX 25 1 24 2 23 3 21 4 22 5 20 7 8 8 9 9 91 10 10 11 11 12 6 14
REMARK SMILES IDX 7 15 5 16 2 17 1 18 3 19 4 20 12 21 13 22 14 23 19 24 15 25
REMARK SMILES IDX 18 26 16 27 17 28 26 29 27 30 28 31 29 32 30 34 31 35 32 36
REMARK SMILES IDX 90 37 33 38 89 39 34 40 35 41 36 42 83 43 37 44 88 45 82 46
REMARK SMILES IDX 84 47 38 48 87 49 81 50 80 51 39 53 69 54 50 55 68 56 51 57
REMARK SMILES IDX 54 58 67 59 85 60 52 61 53 62 66 64 86 65 55 66 40 67 41 68
REMARK SMILES IDX 49 69 42 70 48 71 43 72 44 73 45 74 46 75 47 76 70 77 71 78
REMARK SMILES IDX 79 79 72 80 78 81 73 82 74 83 75 84 76 85 77 86 56 87 57 88
REMARK SMILES IDX 65 89 58 90 64 91 59 92 60 93 61 94 62 95 63 96
REMARK H PARENT 23 6 11 13 28 33 84 52 54 63
REMARK Flexibility Score: inf
ROOT
ATOM      1  C   UNL     1       3.832   4.008  -3.915  1.00  0.00     0.023 C 
ENDROOT
BRANCH   1   2
ATOM      2  C   UNL     1       3.376   3.692  -5.340  1.00  0.00     0.116 C 
BRANCH   2   3
ATOM      3  N   UNL     1       4.086   2.539  -5.861  1.00  0.00    -0.351 N 
ATOM      4  C   UNL     1       3.700   1.232  -5.938  1.00  0.00     0.280 C 
ATOM      5  O   UNL     1       4.571   0.407  -6.222  1.00  0.00    -0.268 OA
ATOM      6  H   UNL     1       4.986   2.728  -6.214  1.00  0.00     0.163 HD
BRANCH   4   7
ATOM      7  C   UNL     1       2.231   0.835  -5.721  1.00  0.00     0.294 C 
ATOM      8  N   UNL     1       0.664  -0.594  -4.415  1.00  0.00    -0.296 N 
ATOM      9  C   UNL     1      -0.200  -0.714  -5.582  1.00  0.00     0.184 C 
ATOM     10  C   UNL     1       2.074  -0.234  -4.629  1.00  0.00     0.198 C 
ATOM     11  C   UNL     1       0.110   0.273  -6.724  1.00  0.00     0.285 C 
ATOM     12  N   UNL     1       1.529   0.532  -7.003  1.00  0.00    -0.318 N 
ATOM     13  H   UNL     1       1.625   1.380  -7.563  1.00  0.00     0.349 HD
BRANCH   8  14
ATOM     14  C   UNL     1       0.215  -1.177  -3.245  1.00  0.00     0.410 C 
ATOM     15  O   UNL     1      -0.753  -1.925  -3.209  1.00  0.00    -0.224 OA
BRANCH  14  16
ATOM     16  O   UNL     1       0.907  -0.750  -2.160  1.00  0.00    -0.444 OA
BRANCH  16  17
ATOM     17  C   UNL     1       0.462  -1.101  -0.823  1.00  0.00     0.106 C 
ATOM     18  C   UNL     1       1.175  -0.104   0.102  1.00  0.00     0.056 C 
ATOM     19  C   UNL     1       0.917  -2.523  -0.490  1.00  0.00     0.056 C 
ATOM     20  C   UNL     1      -1.052  -0.929  -0.615  1.00  0.00     0.056 C 
ENDBRANCH  16  17
ENDBRANCH  14  16
ENDBRANCH   8  14
BRANCH  12  21
ATOM     21  C   UNL     1       2.161  -0.386  -7.968  1.00  0.00     0.301 C 
BRANCH  21  22
ATOM     22  C   UNL     1       2.298  -1.845  -7.605  1.00  0.00     0.025 A 
ATOM     23  C   UNL     1       1.231  -2.742  -7.728  1.00  0.00     0.014 A 
ATOM     24  C   UNL     1       3.500  -2.367  -7.132  1.00  0.00     0.122 A 
ATOM     25  C   UNL     1       1.357  -4.045  -7.253  1.00  0.00     0.041 A 
ATOM     26  N   UNL     1       3.662  -3.634  -6.684  1.00  0.00    -0.244 NA
ATOM     27  C   UNL     1       2.576  -4.426  -6.728  1.00  0.00     0.129 A 
ATOM     28  Cl  UNL     1       2.798  -5.988  -6.057  1.00  0.00    -0.062 Cl
ENDBRANCH  21  22
ENDBRANCH  12  21
ENDBRANCH   4   7
ENDBRANCH   2   3
ENDBRANCH   1   2
BRANCH   1  29
ATOM     29  C   UNL     1       5.257   4.567  -3.815  1.00  0.00     0.023 C 
BRANCH  29  30
ATOM     30  C   UNL     1       5.533   5.819  -4.647  1.00  0.00     0.116 C 
BRANCH  30  31
ATOM     31  N   UNL     1       4.602   6.900  -4.372  1.00  0.00    -0.352 N 
ATOM     32  C   UNL     1       4.823   8.254  -4.325  1.00  0.00     0.251 C 
ATOM     33  H   UNL     1       3.675   6.620  -4.194  1.00  0.00     0.163 HD
ATOM     34  O   UNL     1       3.917   8.997  -3.957  1.00  0.00    -0.269 OA
BRANCH  32  35
ATOM     35  C   UNL     1       6.147   8.815  -4.677  1.00  0.00     0.039 A 
ATOM     36  C   UNL     1       6.676   9.822  -3.864  1.00  0.00     0.014 A 
ATOM     37  C   UNL     1       6.859   8.378  -5.798  1.00  0.00     0.014 A 
ATOM     38  C   UNL     1       7.938  10.349  -4.143  1.00  0.00     0.010 A 
ATOM     39  C   UNL     1       8.145   8.863  -6.041  1.00  0.00     0.010 A 
ATOM     40  C   UNL     1       8.698   9.851  -5.215  1.00  0.00    -0.014 A 
BRANCH  40  41
ATOM     41  C   UNL     1      10.077  10.351  -5.454  1.00  0.00     0.031 A 
ATOM     42  C   UNL     1      10.406  11.142  -6.691  1.00  0.00     0.074 A 
ATOM     43  C   UNL     1      11.043  10.072  -4.555  1.00  0.00     0.049 A 
ATOM     44  N   UNL     1      11.548  11.676  -7.046  1.00  0.00    -0.248 NA
ATOM     45  C   UNL     1       9.320  11.348  -7.663  1.00  0.00     0.031 C 
ATOM     46  C   UNL     1      10.864   9.275  -3.338  1.00  0.00     0.029 A 
ATOM     47  N   UNL     1      12.366  10.436  -4.520  1.00  0.00    -0.354 N 
ATOM     48  C   UNL     1      11.319  12.281  -8.276  1.00  0.00     0.074 A 
ATOM     49  C   UNL     1       9.944  12.005  -8.632  1.00  0.00     0.031 C 
ATOM     50  C   UNL     1      12.023   9.242  -2.659  1.00  0.00     0.029 A 
ATOM     51  C   UNL     1      13.032   9.988  -3.403  1.00  0.00     0.049 A 
ATOM     52  H   UNL     1      12.798  10.967  -5.227  1.00  0.00     0.167 HD
ATOM     53  C   UNL     1      12.168  13.022  -9.029  1.00  0.00     0.031 A 
ATOM     54  C   UNL     1      14.309  10.165  -3.015  1.00  0.00     0.031 A 
ATOM     55  C   UNL     1      13.534  13.303  -8.675  1.00  0.00     0.049 A 
ATOM     56  C   UNL     1      15.229  10.991  -3.873  1.00  0.00     0.074 A 
ATOM     57  C   UNL     1      14.462  14.070  -9.359  1.00  0.00     0.029 A 
ATOM     58  N   UNL     1      14.169  12.834  -7.535  1.00  0.00    -0.354 N 
ATOM     59  N   UNL     1      14.974  11.601  -5.005  1.00  0.00    -0.248 NA
ATOM     60  C   UNL     1      16.605  11.165  -3.388  1.00  0.00     0.031 C 
ATOM     61  C   UNL     1      15.669  14.035  -8.652  1.00  0.00     0.029 A 
ATOM     62  C   UNL     1      15.478  13.286  -7.503  1.00  0.00     0.049 A 
ATOM     63  H   UNL     1      13.752  12.264  -6.850  1.00  0.00     0.167 HD
ATOM     64  C   UNL     1      16.152  12.251  -5.356  1.00  0.00     0.074 A 
ATOM     65  C   UNL     1      17.110  11.979  -4.303  1.00  0.00     0.031 C 
ATOM     66  C   UNL     1      16.420  13.003  -6.451  1.00  0.00     0.031 A 
BRANCH  53  67
ATOM     67  C   UNL     1      11.635  13.600 -10.314  1.00  0.00    -0.014 A 
ATOM     68  C   UNL     1      10.726  14.673 -10.294  1.00  0.00     0.010 A 
ATOM     69  C   UNL     1      12.095  13.115 -11.551  1.00  0.00     0.010 A 
ATOM     70  C   UNL     1      10.265  15.233 -11.488  1.00  0.00     0.020 A 
ATOM     71  C   UNL     1      11.655  13.688 -12.748  1.00  0.00     0.020 A 
ATOM     72  C   UNL     1      10.733  14.737 -12.709  1.00  0.00     0.054 A 
BRANCH  72  73
ATOM     73  S   UNL     1      10.152  15.513 -14.242  1.00  0.00     0.124 S 
ATOM     74  O   UNL     1       8.781  15.015 -14.330  1.00  0.00    -0.237 OA
ATOM     75  O   UNL     1      10.284  16.938 -13.951  1.00  0.00    -0.237 OA
ATOM     76  O   UNL     1      11.067  15.000 -15.259  1.00  0.00    -0.744 OA
ENDBRANCH  72  73
ENDBRANCH  53  67
BRANCH  54  77
ATOM     77  C   UNL     1      14.799   9.566  -1.744  1.00  0.00    -0.014 A 
ATOM     78  C   UNL     1      15.111  10.385  -0.644  1.00  0.00     0.010 A 
ATOM     79  C   UNL     1      14.982   8.176  -1.637  1.00  0.00     0.010 A 
ATOM     80  C   UNL     1      15.635   9.828   0.526  1.00  0.00     0.020 A 
ATOM     81  C   UNL     1      15.479   7.613  -0.459  1.00  0.00     0.020 A 
ATOM     82  C   UNL     1      15.822   8.446   0.609  1.00  0.00     0.054 A 
BRANCH  82  83
ATOM     83  S   UNL     1      16.488   7.737   2.140  1.00  0.00     0.124 S 
ATOM     84  O   UNL     1      17.911   8.036   2.017  1.00  0.00    -0.237 OA
ATOM     85  O   UNL     1      15.771   8.481   3.174  1.00  0.00    -0.237 OA
ATOM     86  O   UNL     1      16.132   6.324   2.043  1.00  0.00    -0.744 OA
ENDBRANCH  82  83
ENDBRANCH  54  77
BRANCH  66  87
ATOM     87  C   UNL     1      17.795  13.607  -6.546  1.00  0.00    -0.014 A 
ATOM     88  C   UNL     1      18.922  12.810  -6.816  1.00  0.00     0.010 A 
ATOM     89  C   UNL     1      17.960  14.992  -6.370  1.00  0.00     0.010 A 
ATOM     90  C   UNL     1      20.197  13.381  -6.856  1.00  0.00     0.020 A 
ATOM     91  C   UNL     1      19.230  15.571  -6.436  1.00  0.00     0.020 A 
ATOM     92  C   UNL     1      20.343  14.757  -6.657  1.00  0.00     0.054 A 
BRANCH  92  93
ATOM     93  S   UNL     1      22.006  15.479  -6.720  1.00  0.00     0.124 S 
ATOM     94  O   UNL     1      22.548  15.105  -5.417  1.00  0.00    -0.237 OA
ATOM     95  O   UNL     1      22.608  14.805  -7.868  1.00  0.00    -0.237 OA
ATOM     96  O   UNL     1      21.755  16.907  -6.905  1.00  0.00    -0.744 OA
ENDBRANCH  92  93
ENDBRANCH  66  87
ENDBRANCH  40  41
ENDBRANCH  32  35
ENDBRANCH  30  31
ENDBRANCH  29  30
ENDBRANCH   1  29
TORSDOF 19
