REMARK SMILES O=C(NCCCCNC(=O)c1ccc(-c2c3nc(c(-c4ccc(S(=O)(=O)[O-])cc4)c4ccc([nH]4)c(-c4ccc(S(=O)(=O)[O-])cc4)c4nc(c(-c5ccc(S(=O)(=O)[O-])cc5)c5ccc2[nH]5)C=C4)C=C3)cc1)C1=Cc2cc(Cl)cc(C#Cc3ccccc3)c2O[C@@H]1C(F)(F)F
REMARK SMILES IDX 6 1 5 2 4 3 3 4 1 5 2 6 71 8 72 9 89 10 73 11 88 12 74 13
REMARK SMILES IDX 87 14 75 15 78 16 76 17 77 18 90 19 91 20 92 21 93 22 79 23
REMARK SMILES IDX 80 24 81 25 82 26 86 27 83 28 85 29 84 30 7 31 8 32 9 33
REMARK SMILES IDX 10 35 11 36 12 37 70 38 13 39 69 40 14 41 15 42 16 43 63 44
REMARK SMILES IDX 17 45 68 46 62 47 64 48 18 49 67 50 61 51 60 52 19 54 49 55
REMARK SMILES IDX 30 56 48 57 31 58 34 59 47 60 65 61 32 62 33 63 46 65 66 66
REMARK SMILES IDX 35 67 20 68 21 69 29 70 22 71 28 72 23 73 24 74 25 75 26 76
REMARK SMILES IDX 27 77 50 78 51 79 59 80 52 81 58 82 53 83 54 84 55 85 56 86
REMARK SMILES IDX 57 87 36 88 37 89 45 90 38 91 44 92 39 93 40 94 41 95 42 96
REMARK SMILES IDX 43 97
REMARK H PARENT 3 7 8 34 64 53 34 64
REMARK Flexibility Score: inf
ROOT
ATOM      1  C   UNL     1       4.137  -3.601   2.631  1.00  0.00     0.023 C 
ENDROOT
BRANCH   1   2
ATOM      2  C   UNL     1       4.365  -2.101   2.551  1.00  0.00     0.023 C 
BRANCH   2   3
ATOM      3  C   UNL     1       3.916  -1.453   1.251  1.00  0.00     0.116 C 
BRANCH   3   4
ATOM      4  N   UNL     1       2.681  -0.696   1.313  1.00  0.00    -0.352 N 
ATOM      5  O   UNL     1       1.148   0.808   0.649  1.00  0.00    -0.270 OA
ATOM      6  C   UNL     1       2.321   0.435   0.632  1.00  0.00     0.251 C 
ATOM      7  H   UNL     1       2.003  -1.048   1.935  1.00  0.00     0.163 HD
BRANCH   6   8
ATOM      8  C   UNL     1       3.285   1.195  -0.220  1.00  0.00     0.067 C 
ATOM      9  C   UNL     1       4.535   1.488   0.180  1.00  0.00     0.025 C 
ATOM     10  C   UNL     1       3.041   0.986  -1.695  1.00  0.00     0.314 C 
ATOM     11  C   UNL     1       5.559   0.693  -0.557  1.00  0.00     0.020 A 
ATOM     12  O   UNL     1       3.934  -0.032  -2.227  1.00  0.00    -0.474 OA
ATOM     13  C   UNL     1       6.795   0.516   0.079  1.00  0.00     0.032 A 
ATOM     14  C   UNL     1       5.150  -0.177  -1.593  1.00  0.00     0.143 A 
ATOM     15  C   UNL     1       7.569  -0.596  -0.238  1.00  0.00     0.043 A 
ATOM     16  C   UNL     1       5.918  -1.322  -1.865  1.00  0.00     0.069 A 
ATOM     17  Cl  UNL     1       8.988  -0.924   0.678  1.00  0.00    -0.084 Cl
ATOM     18  C   UNL     1       7.129  -1.521  -1.183  1.00  0.00     0.041 A 
BRANCH  10  19
ATOM     19  C   UNL     1       3.117   2.323  -2.456  1.00  0.00     0.429 C 
ATOM     20  F   UNL     1       2.748   2.189  -3.750  1.00  0.00    -0.167 F 
ATOM     21  F   UNL     1       2.291   3.251  -1.908  1.00  0.00    -0.167 F 
ATOM     22  F   UNL     1       4.361   2.861  -2.447  1.00  0.00    -0.167 F 
ENDBRANCH  10  19
BRANCH  16  23
ATOM     23  C   UNL     1       5.413  -2.431  -2.622  1.00  0.00    -0.058 C 
ATOM     24  C   UNL     1       5.050  -3.481  -3.098  1.00  0.00    -0.062 C 
BRANCH  24  25
ATOM     25  C   UNL     1       4.684  -4.792  -3.544  1.00  0.00     0.025 A 
ATOM     26  C   UNL     1       3.515  -4.996  -4.279  1.00  0.00     0.017 A 
ATOM     27  C   UNL     1       5.491  -5.889  -3.219  1.00  0.00     0.017 A 
ATOM     28  C   UNL     1       3.158  -6.286  -4.687  1.00  0.00     0.001 A 
ATOM     29  C   UNL     1       5.126  -7.179  -3.615  1.00  0.00     0.001 A 
ATOM     30  C   UNL     1       3.961  -7.376  -4.352  1.00  0.00     0.000 A 
ENDBRANCH  24  25
ENDBRANCH  16  23
ENDBRANCH   6   8
ENDBRANCH   3   4
ENDBRANCH   2   3
ENDBRANCH   1   2
BRANCH   1  31
ATOM     31  C   UNL     1       4.726  -4.435   1.496  1.00  0.00     0.116 C 
BRANCH  31  32
ATOM     32  N   UNL     1       6.170  -4.327   1.326  1.00  0.00    -0.352 N 
ATOM     33  C   UNL     1       7.071  -5.339   1.062  1.00  0.00     0.251 C 
ATOM     34  H   UNL     1       6.549  -3.422   1.409  1.00  0.00     0.163 HD
ATOM     35  O   UNL     1       8.267  -5.098   0.939  1.00  0.00    -0.269 OA
BRANCH  33  36
ATOM     36  C   UNL     1       6.577  -6.732   0.976  1.00  0.00     0.039 A 
ATOM     37  C   UNL     1       7.153  -7.710   1.789  1.00  0.00     0.014 A 
ATOM     38  C   UNL     1       5.470  -7.037   0.180  1.00  0.00     0.014 A 
ATOM     39  C   UNL     1       6.547  -8.966   1.884  1.00  0.00     0.010 A 
ATOM     40  C   UNL     1       4.827  -8.258   0.331  1.00  0.00     0.010 A 
ATOM     41  C   UNL     1       5.348  -9.226   1.198  1.00  0.00    -0.014 A 
BRANCH  41  42
ATOM     42  C   UNL     1       4.592 -10.485   1.407  1.00  0.00     0.031 A 
ATOM     43  C   UNL     1       4.401 -11.443   0.266  1.00  0.00     0.074 A 
ATOM     44  C   UNL     1       4.005 -10.713   2.600  1.00  0.00     0.049 A 
ATOM     45  N   UNL     1       3.730 -12.565   0.238  1.00  0.00    -0.248 NA
ATOM     46  C   UNL     1       5.025 -11.084  -1.019  1.00  0.00     0.031 C 
ATOM     47  C   UNL     1       4.069  -9.819   3.761  1.00  0.00     0.029 A 
ATOM     48  N   UNL     1       3.230 -11.759   3.033  1.00  0.00    -0.354 N 
ATOM     49  C   UNL     1       3.851 -13.044  -1.060  1.00  0.00     0.074 A 
ATOM     50  C   UNL     1       4.606 -12.063  -1.808  1.00  0.00     0.031 C 
ATOM     51  C   UNL     1       3.385 -10.368   4.778  1.00  0.00     0.029 A 
ATOM     52  C   UNL     1       2.802 -11.629   4.334  1.00  0.00     0.049 A 
ATOM     53  H   UNL     1       3.002 -12.530   2.466  1.00  0.00     0.167 HD
ATOM     54  C   UNL     1       3.395 -14.210  -1.575  1.00  0.00     0.031 A 
ATOM     55  C   UNL     1       2.022 -12.434   5.083  1.00  0.00     0.031 A 
ATOM     56  C   UNL     1       2.641 -15.178  -0.823  1.00  0.00     0.049 A 
ATOM     57  C   UNL     1       1.511 -13.715   4.478  1.00  0.00     0.074 A 
ATOM     58  C   UNL     1       2.173 -16.412  -1.238  1.00  0.00     0.029 A 
ATOM     59  N   UNL     1       2.242 -15.019   0.495  1.00  0.00    -0.354 N 
ATOM     60  N   UNL     1       1.708 -14.192   3.271  1.00  0.00    -0.248 NA
ATOM     61  C   UNL     1       0.689 -14.575   5.339  1.00  0.00     0.031 C 
ATOM     62  C   UNL     1       1.442 -16.975  -0.188  1.00  0.00     0.029 A 
ATOM     63  C   UNL     1       1.514 -16.123   0.904  1.00  0.00     0.049 A 
ATOM     64  H   UNL     1       2.447 -14.238   1.058  1.00  0.00     0.167 HD
ATOM     65  C   UNL     1       1.063 -15.423   3.241  1.00  0.00     0.074 A 
ATOM     66  C   UNL     1       0.487 -15.625   4.554  1.00  0.00     0.031 C 
ATOM     67  C   UNL     1       0.955 -16.308   2.219  1.00  0.00     0.031 A 
BRANCH  54  68
ATOM     68  C   UNL     1       3.709 -14.511  -3.017  1.00  0.00    -0.014 A 
ATOM     69  C   UNL     1       5.026 -14.794  -3.424  1.00  0.00     0.010 A 
ATOM     70  C   UNL     1       2.672 -14.580  -3.964  1.00  0.00     0.010 A 
ATOM     71  C   UNL     1       5.303 -15.116  -4.755  1.00  0.00     0.020 A 
ATOM     72  C   UNL     1       2.940 -14.931  -5.290  1.00  0.00     0.020 A 
ATOM     73  C   UNL     1       4.257 -15.187  -5.679  1.00  0.00     0.054 A 
BRANCH  73  74
ATOM     74  S   UNL     1       4.642 -15.660  -7.387  1.00  0.00     0.124 S 
ATOM     75  O   UNL     1       5.362 -14.484  -7.869  1.00  0.00    -0.237 OA
ATOM     76  O   UNL     1       5.451 -16.863  -7.208  1.00  0.00    -0.237 OA
ATOM     77  O   UNL     1       3.330 -15.877  -7.992  1.00  0.00    -0.744 OA
ENDBRANCH  73  74
ENDBRANCH  54  68
BRANCH  55  78
ATOM     78  C   UNL     1       1.681 -12.064   6.486  1.00  0.00    -0.014 A 
ATOM     79  C   UNL     1       2.167 -12.821   7.567  1.00  0.00     0.010 A 
ATOM     80  C   UNL     1       0.849 -10.960   6.748  1.00  0.00     0.010 A 
ATOM     81  C   UNL     1       1.796 -12.506   8.879  1.00  0.00     0.020 A 
ATOM     82  C   UNL     1       0.503 -10.621   8.060  1.00  0.00     0.020 A 
ATOM     83  C   UNL     1       0.964 -11.409   9.116  1.00  0.00     0.054 A 
BRANCH  83  84
ATOM     84  S   UNL     1       0.508 -11.010  10.827  1.00  0.00     0.124 S 
ATOM     85  O   UNL     1      -0.417 -12.090  11.153  1.00  0.00    -0.237 OA
ATOM     86  O   UNL     1       1.797 -11.050  11.513  1.00  0.00    -0.237 OA
ATOM     87  O   UNL     1      -0.091  -9.682  10.719  1.00  0.00    -0.744 OA
ENDBRANCH  83  84
ENDBRANCH  55  78
BRANCH  67  88
ATOM     88  C   UNL     1       0.228 -17.598   2.493  1.00  0.00    -0.014 A 
ATOM     89  C   UNL     1      -1.165 -17.629   2.680  1.00  0.00     0.010 A 
ATOM     90  C   UNL     1       0.948 -18.807   2.505  1.00  0.00     0.010 A 
ATOM     91  C   UNL     1      -1.819 -18.842   2.909  1.00  0.00     0.020 A 
ATOM     92  C   UNL     1       0.294 -20.025   2.699  1.00  0.00     0.020 A 
ATOM     93  C   UNL     1      -1.085 -20.033   2.915  1.00  0.00     0.054 A 
BRANCH  93  94
ATOM     94  S   UNL     1      -1.966 -21.597   3.169  1.00  0.00     0.124 S 
ATOM     95  O   UNL     1      -2.318 -21.522   4.584  1.00  0.00    -0.237 OA
ATOM     96  O   UNL     1      -3.085 -21.489   2.236  1.00  0.00    -0.237 OA
ATOM     97  O   UNL     1      -0.974 -22.614   2.827  1.00  0.00    -0.744 OA
ENDBRANCH  93  94
ENDBRANCH  67  88
ENDBRANCH  41  42
ENDBRANCH  33  36
ENDBRANCH  31  32
ENDBRANCH   1  31
TORSDOF 17
