REMARK SMILES COc1ccccc1-n1nnc(C(=O)NCCCCNC(=O)c2ccc(-c3c4nc(c(-c5ccc(S(=O)(=O)[O-])cc5)c5ccc([nH]5)c(-c5ccc(S(=O)(=O)[O-])cc5)c5nc(c(-c6ccc(S(=O)(=O)[O-])cc6)c6ccc3[nH]6)C=C5)C=C4)cc2)c1-c1ccc(Cl)cc1
REMARK SMILES IDX 18 1 17 2 16 3 15 4 13 5 14 6 12 8 9 9 10 10 83 11 11 12
REMARK SMILES IDX 8 13 3 14 4 15 5 16 7 17 6 18 2 19 1 20 84 21 85 22 90 23
REMARK SMILES IDX 86 24 89 25 87 26 88 27 19 28 20 29 21 30 22 32 23 33 24 34
REMARK SMILES IDX 82 35 25 36 81 37 26 38 27 39 28 40 75 41 29 42 80 43 74 44
REMARK SMILES IDX 76 45 30 46 79 47 73 48 72 49 31 51 61 52 42 53 60 54 43 55
REMARK SMILES IDX 46 56 59 57 77 58 44 59 45 60 58 62 78 63 47 64 32 65 33 66
REMARK SMILES IDX 41 67 34 68 40 69 35 70 36 71 37 72 38 73 39 74 62 75 63 76
REMARK SMILES IDX 71 77 64 78 70 79 65 80 66 81 67 82 68 83 69 84 48 85 49 86
REMARK SMILES IDX 57 87 50 88 56 89 51 90 52 91 53 92 54 93 55 94
REMARK H PARENT 15 7 20 31 76 50 46 61
REMARK Flexibility Score: inf
ROOT
ATOM      1  C   UNL     1       5.746   0.180   6.299  1.00  0.00     0.023 C 
ENDROOT
BRANCH   1   2
ATOM      2  C   UNL     1       5.589  -0.673   5.042  1.00  0.00     0.023 C 
BRANCH   2   3
ATOM      3  C   UNL     1       4.843  -0.104   3.841  1.00  0.00     0.116 C 
BRANCH   3   4
ATOM      4  N   UNL     1       5.536   0.700   2.873  1.00  0.00    -0.351 N 
ATOM      5  C   UNL     1       5.399   0.683   1.490  1.00  0.00     0.274 C 
ATOM      6  O   UNL     1       6.096   1.497   0.878  1.00  0.00    -0.267 OA
ATOM      7  H   UNL     1       6.189   1.342   3.234  1.00  0.00     0.163 HD
BRANCH   5   8
ATOM      8  C   UNL     1       4.545  -0.271   0.749  1.00  0.00     0.178 A 
ATOM      9  N   UNL     1       3.118  -1.703  -0.128  1.00  0.00    -0.208 N 
ATOM     10  N   UNL     1       4.156  -1.597  -0.978  1.00  0.00    -0.061 NA
ATOM     11  C   UNL     1       3.359  -0.957   1.029  1.00  0.00     0.108 A 
ATOM     12  N   UNL     1       4.963  -0.657  -0.516  1.00  0.00    -0.124 NA
BRANCH   9  13
ATOM     13  C   UNL     1       2.081  -2.645  -0.340  1.00  0.00     0.109 A 
ATOM     14  C   UNL     1       0.750  -2.369   0.006  1.00  0.00     0.144 A 
ATOM     15  C   UNL     1      -0.140  -3.433   0.178  1.00  0.00     0.049 A 
ATOM     16  C   UNL     1       0.268  -4.748  -0.050  1.00  0.00     0.004 A 
ATOM     17  C   UNL     1       2.471  -3.960  -0.652  1.00  0.00     0.032 A 
ATOM     18  C   UNL     1       1.565  -5.009  -0.488  1.00  0.00     0.003 A 
BRANCH  14  19
ATOM     19  O   UNL     1       0.223  -1.141   0.301  1.00  0.00    -0.494 OA
ATOM     20  C   UNL     1       0.455  -0.119  -0.666  1.00  0.00     0.278 C 
ENDBRANCH  14  19
ENDBRANCH   9  13
BRANCH  11  21
ATOM     21  C   UNL     1       2.537  -1.143   2.225  1.00  0.00     0.003 A 
ATOM     22  C   UNL     1       1.708  -0.135   2.720  1.00  0.00     0.012 A 
ATOM     23  C   UNL     1       2.596  -2.384   2.894  1.00  0.00     0.012 A 
ATOM     24  C   UNL     1       0.942  -0.372   3.865  1.00  0.00     0.021 A 
ATOM     25  C   UNL     1       1.863  -2.601   4.057  1.00  0.00     0.021 A 
ATOM     26  C   UNL     1       1.034  -1.593   4.535  1.00  0.00     0.041 A 
ATOM     27  Cl  UNL     1       0.123  -1.863   5.965  1.00  0.00    -0.084 Cl
ENDBRANCH  11  21
ENDBRANCH   5   8
ENDBRANCH   3   4
ENDBRANCH   2   3
ENDBRANCH   1   2
BRANCH   1  28
ATOM     28  C   UNL     1       4.485   0.838   6.847  1.00  0.00     0.116 C 
BRANCH  28  29
ATOM     29  N   UNL     1       3.470  -0.075   7.378  1.00  0.00    -0.352 N 
ATOM     30  C   UNL     1       2.276   0.295   8.003  1.00  0.00     0.251 C 
ATOM     31  H   UNL     1       3.645  -1.039   7.286  1.00  0.00     0.163 HD
ATOM     32  O   UNL     1       1.717  -0.444   8.789  1.00  0.00    -0.269 OA
BRANCH  30  33
ATOM     33  C   UNL     1       1.722   1.632   7.686  1.00  0.00     0.039 A 
ATOM     34  C   UNL     1       1.227   2.490   8.669  1.00  0.00     0.014 A 
ATOM     35  C   UNL     1       1.818   2.054   6.366  1.00  0.00     0.014 A 
ATOM     36  C   UNL     1       0.970   3.820   8.326  1.00  0.00     0.010 A 
ATOM     37  C   UNL     1       1.717   3.389   6.066  1.00  0.00     0.010 A 
ATOM     38  C   UNL     1       1.268   4.280   7.031  1.00  0.00    -0.014 A 
BRANCH  38  39
ATOM     39  C   UNL     1       1.271   5.709   6.716  1.00  0.00     0.031 A 
ATOM     40  C   UNL     1       2.004   6.565   7.691  1.00  0.00     0.074 A 
ATOM     41  C   UNL     1       0.855   6.235   5.543  1.00  0.00     0.049 A 
ATOM     42  N   UNL     1       1.490   7.367   8.562  1.00  0.00    -0.248 NA
ATOM     43  C   UNL     1       3.463   6.415   7.811  1.00  0.00     0.031 C 
ATOM     44  C   UNL     1       0.393   5.543   4.334  1.00  0.00     0.029 A 
ATOM     45  N   UNL     1       0.865   7.537   5.150  1.00  0.00    -0.354 N 
ATOM     46  C   UNL     1       2.559   7.993   9.193  1.00  0.00     0.074 A 
ATOM     47  C   UNL     1       3.732   7.238   8.828  1.00  0.00     0.031 C 
ATOM     48  C   UNL     1       0.406   6.397   3.287  1.00  0.00     0.029 A 
ATOM     49  C   UNL     1       0.681   7.730   3.786  1.00  0.00     0.049 A 
ATOM     50  H   UNL     1       0.992   8.283   5.780  1.00  0.00     0.167 HD
ATOM     51  C   UNL     1       2.424   9.220   9.774  1.00  0.00     0.031 A 
ATOM     52  C   UNL     1       0.750   8.905   3.112  1.00  0.00     0.031 A 
ATOM     53  C   UNL     1       1.039   9.610   9.868  1.00  0.00     0.049 A 
ATOM     54  C   UNL     1       0.517   9.982   4.104  1.00  0.00     0.074 A 
ATOM     55  C   UNL     1      -0.085   9.078  10.469  1.00  0.00     0.029 A 
ATOM     56  N   UNL     1       0.578  10.493   8.918  1.00  0.00    -0.354 N 
ATOM     57  N   UNL     1      -0.618  10.144   4.725  1.00  0.00    -0.248 NA
ATOM     58  C   UNL     1       1.670  10.594   4.745  1.00  0.00     0.031 C 
ATOM     59  C   UNL     1      -1.135   9.289   9.528  1.00  0.00     0.029 A 
ATOM     60  C   UNL     1      -0.614  10.005   8.447  1.00  0.00     0.049 A 
ATOM     61  H   UNL     1       1.022  11.323   8.629  1.00  0.00     0.167 HD
ATOM     62  C   UNL     1      -0.266  10.475   6.026  1.00  0.00     0.074 A 
ATOM     63  C   UNL     1       1.147  10.844   5.949  1.00  0.00     0.031 C 
ATOM     64  C   UNL     1      -1.074  10.156   7.081  1.00  0.00     0.031 A 
BRANCH  51  65
ATOM     65  C   UNL     1       3.534  10.237   9.892  1.00  0.00    -0.014 A 
ATOM     66  C   UNL     1       3.272  11.451  10.562  1.00  0.00     0.010 A 
ATOM     67  C   UNL     1       4.723  10.168   9.139  1.00  0.00     0.010 A 
ATOM     68  C   UNL     1       4.113  12.562  10.414  1.00  0.00     0.020 A 
ATOM     69  C   UNL     1       5.592  11.255   9.021  1.00  0.00     0.020 A 
ATOM     70  C   UNL     1       5.260  12.459   9.629  1.00  0.00     0.054 A 
BRANCH  70  71
ATOM     71  S   UNL     1       6.276  13.929   9.346  1.00  0.00     0.124 S 
ATOM     72  O   UNL     1       5.376  14.768   8.561  1.00  0.00    -0.237 OA
ATOM     73  O   UNL     1       6.545  14.385  10.707  1.00  0.00    -0.237 OA
ATOM     74  O   UNL     1       7.437  13.409   8.627  1.00  0.00    -0.744 OA
ENDBRANCH  70  71
ENDBRANCH  51  65
BRANCH  52  75
ATOM     75  C   UNL     1       1.268   9.155   1.745  1.00  0.00    -0.014 A 
ATOM     76  C   UNL     1       1.054  10.389   1.105  1.00  0.00     0.010 A 
ATOM     77  C   UNL     1       2.227   8.284   1.187  1.00  0.00     0.010 A 
ATOM     78  C   UNL     1       1.826  10.771  -0.006  1.00  0.00     0.020 A 
ATOM     79  C   UNL     1       2.995   8.655   0.076  1.00  0.00     0.020 A 
ATOM     80  C   UNL     1       2.810   9.910  -0.498  1.00  0.00     0.054 A 
BRANCH  80  81
ATOM     81  S   UNL     1       3.939  10.494  -1.799  1.00  0.00     0.124 S 
ATOM     82  O   UNL     1       3.070  10.528  -2.972  1.00  0.00    -0.237 OA
ATOM     83  O   UNL     1       4.365  11.794  -1.290  1.00  0.00    -0.237 OA
ATOM     84  O   UNL     1       4.984   9.473  -1.831  1.00  0.00    -0.744 OA
ENDBRANCH  80  81
ENDBRANCH  52  75
BRANCH  64  85
ATOM     85  C   UNL     1      -2.489   9.699   6.798  1.00  0.00    -0.014 A 
ATOM     86  C   UNL     1      -2.812   8.555   6.040  1.00  0.00     0.010 A 
ATOM     87  C   UNL     1      -3.530  10.376   7.459  1.00  0.00     0.010 A 
ATOM     88  C   UNL     1      -4.143   8.121   5.927  1.00  0.00     0.020 A 
ATOM     89  C   UNL     1      -4.853   9.938   7.367  1.00  0.00     0.020 A 
ATOM     90  C   UNL     1      -5.156   8.818   6.593  1.00  0.00     0.054 A 
BRANCH  90  91
ATOM     91  S   UNL     1      -6.870   8.230   6.481  1.00  0.00     0.124 S 
ATOM     92  O   UNL     1      -7.209   8.503   5.088  1.00  0.00    -0.237 OA
ATOM     93  O   UNL     1      -6.754   6.818   6.836  1.00  0.00    -0.237 OA
ATOM     94  O   UNL     1      -7.583   9.049   7.462  1.00  0.00    -0.744 OA
ENDBRANCH  90  91
ENDBRANCH  64  85
ENDBRANCH  38  39
ENDBRANCH  30  33
ENDBRANCH  28  29
ENDBRANCH   1  28
TORSDOF 17
