REMARK SMILES CCCc1cc(O[C@H]2CCOC3(CCC3)C2)c(C(=O)NCCCCNC(=O)c2ccc(-c3c4nc(c(-c5ccc(S(=O)(=O)[O-])cc5)c5ccc([nH]5)c(-c5ccc(S(=O)(=O)[O-])cc5)c5nc(c(-c6ccc(S(=O)(=O)[O-])cc6)c6ccc3[nH]6)C=C5)C=C4)cc2)s1
REMARK SMILES IDX 23 1 22 2 21 3 20 4 18 5 19 6 17 8 4 9 5 10 88 11 6 12 3 13
REMARK SMILES IDX 2 14 1 15 7 16 8 17 9 18 16 19 10 20 12 21 11 22 13 23 15 24
REMARK SMILES IDX 14 25 24 26 25 27 26 28 27 30 28 31 29 32 87 33 30 34 86 35
REMARK SMILES IDX 31 36 32 37 33 38 80 39 34 40 85 41 79 42 81 43 35 44 84 45
REMARK SMILES IDX 78 46 77 47 36 49 66 50 47 51 65 52 48 53 51 54 64 55 82 56
REMARK SMILES IDX 49 57 50 58 63 60 83 61 52 62 37 63 38 64 46 65 39 66 45 67
REMARK SMILES IDX 40 68 41 69 42 70 43 71 44 72 67 73 68 74 76 75 69 76 75 77
REMARK SMILES IDX 70 78 71 79 72 80 73 81 74 82 53 83 54 84 62 85 55 86 61 87
REMARK SMILES IDX 56 88 57 89 58 90 59 91 60 92
REMARK H PARENT 20 7 25 29 81 48 51 59
REMARK Flexibility Score: inf
ROOT
ATOM      1  C   UNL     1      -0.050  -1.322  10.126  1.00  0.00     0.023 C 
ENDROOT
BRANCH   1   2
ATOM      2  C   UNL     1       0.682  -1.581   8.800  1.00  0.00     0.023 C 
BRANCH   2   3
ATOM      3  C   UNL     1       0.196  -0.738   7.602  1.00  0.00     0.116 C 
BRANCH   3   4
ATOM      4  N   UNL     1       1.181  -0.630   6.480  1.00  0.00    -0.351 N 
ATOM      5  C   UNL     1       1.648  -0.894   5.201  1.00  0.00     0.265 C 
ATOM      6  O   UNL     1       2.601  -0.076   5.133  1.00  0.00    -0.268 OA
ATOM      7  H   UNL     1       1.884  -0.053   6.857  1.00  0.00     0.163 HD
BRANCH   5   8
ATOM      8  C   UNL     1       1.392  -1.763   3.944  1.00  0.00     0.134 A 
ATOM      9  C   UNL     1       1.889  -1.896   1.364  1.00  0.00     0.009 A 
ATOM     10  C   UNL     1       1.253  -2.976   1.875  1.00  0.00     0.062 A 
ATOM     11  S   UNL     1       2.315  -0.848   2.590  1.00  0.00    -0.131 S 
ATOM     12  C   UNL     1       0.827  -2.897   3.254  1.00  0.00     0.143 A 
BRANCH   9  13
ATOM     13  C   UNL     1       2.182  -1.650  -0.081  1.00  0.00     0.046 C 
BRANCH  13  14
ATOM     14  C   UNL     1       1.027  -0.916  -0.774  1.00  0.00     0.002 C 
ATOM     15  C   UNL     1       1.020   0.578  -0.488  1.00  0.00     0.004 C 
ENDBRANCH  13  14
ENDBRANCH   9  13
BRANCH  12  16
ATOM     16  O   UNL     1       0.025  -3.995   3.387  1.00  0.00    -0.488 OA
BRANCH  16  17
ATOM     17  C   UNL     1      -0.934  -4.461   4.295  1.00  0.00     0.178 C 
ATOM     18  C   UNL     1      -0.269  -4.823   5.568  1.00  0.00     0.074 C 
ATOM     19  C   UNL     1      -2.220  -3.666   4.507  1.00  0.00     0.080 C 
ATOM     20  C   UNL     1       0.015  -3.538   6.258  1.00  0.00     0.165 C 
ATOM     21  C   UNL     1      -1.825  -2.283   4.921  1.00  0.00     0.072 C 
ATOM     22  O   UNL     1      -0.681  -2.372   5.799  1.00  0.00    -0.375 OA
ATOM     23  C   UNL     1      -1.774  -1.319   3.660  1.00  0.00     0.036 C 
ATOM     24  C   UNL     1      -2.895  -1.240   5.435  1.00  0.00     0.036 C 
ATOM     25  C   UNL     1      -2.173  -0.172   4.580  1.00  0.00     0.006 C 
ENDBRANCH  16  17
ENDBRANCH  12  16
ENDBRANCH   5   8
ENDBRANCH   3   4
ENDBRANCH   2   3
ENDBRANCH   1   2
BRANCH   1  26
ATOM     26  C   UNL     1      -1.566  -1.517  10.145  1.00  0.00     0.116 C 
BRANCH  26  27
ATOM     27  N   UNL     1      -2.002  -2.910  10.148  1.00  0.00    -0.352 N 
ATOM     28  C   UNL     1      -2.817  -3.569  11.047  1.00  0.00     0.251 C 
ATOM     29  H   UNL     1      -1.667  -3.458   9.402  1.00  0.00     0.163 HD
ATOM     30  O   UNL     1      -3.025  -4.776  10.925  1.00  0.00    -0.269 OA
BRANCH  28  31
ATOM     31  C   UNL     1      -3.410  -2.830  12.186  1.00  0.00     0.039 A 
ATOM     32  C   UNL     1      -3.261  -3.330  13.483  1.00  0.00     0.014 A 
ATOM     33  C   UNL     1      -4.058  -1.610  11.979  1.00  0.00     0.014 A 
ATOM     34  C   UNL     1      -3.666  -2.554  14.573  1.00  0.00     0.010 A 
ATOM     35  C   UNL     1      -4.368  -0.798  13.068  1.00  0.00     0.010 A 
ATOM     36  C   UNL     1      -4.174  -1.256  14.380  1.00  0.00    -0.014 A 
BRANCH  36  37
ATOM     37  C   UNL     1      -4.482  -0.375  15.540  1.00  0.00     0.031 A 
ATOM     38  C   UNL     1      -5.883   0.131  15.771  1.00  0.00     0.074 A 
ATOM     39  C   UNL     1      -3.488   0.004  16.372  1.00  0.00     0.049 A 
ATOM     40  N   UNL     1      -6.343   0.861  16.755  1.00  0.00    -0.248 NA
ATOM     41  C   UNL     1      -6.892  -0.202  14.753  1.00  0.00     0.031 C 
ATOM     42  C   UNL     1      -2.073  -0.347  16.218  1.00  0.00     0.029 A 
ATOM     43  N   UNL     1      -3.514   0.758  17.520  1.00  0.00    -0.354 N 
ATOM     44  C   UNL     1      -7.687   1.078  16.471  1.00  0.00     0.074 A 
ATOM     45  C   UNL     1      -7.951   0.465  15.189  1.00  0.00     0.031 C 
ATOM     46  C   UNL     1      -1.380   0.141  17.260  1.00  0.00     0.029 A 
ATOM     47  C   UNL     1      -2.290   0.868  18.140  1.00  0.00     0.049 A 
ATOM     48  H   UNL     1      -4.333   1.181  17.867  1.00  0.00     0.167 HD
ATOM     49  C   UNL     1      -8.627   1.703  17.220  1.00  0.00     0.031 A 
ATOM     50  C   UNL     1      -1.939   1.469  19.294  1.00  0.00     0.031 A 
ATOM     51  C   UNL     1      -8.365   2.308  18.499  1.00  0.00     0.049 A 
ATOM     52  C   UNL     1      -3.005   2.137  20.121  1.00  0.00     0.074 A 
ATOM     53  C   UNL     1      -9.259   2.914  19.365  1.00  0.00     0.029 A 
ATOM     54  N   UNL     1      -7.116   2.386  19.096  1.00  0.00    -0.354 N 
ATOM     55  N   UNL     1      -4.288   2.253  19.875  1.00  0.00    -0.248 NA
ATOM     56  C   UNL     1      -2.576   2.734  21.392  1.00  0.00     0.031 C 
ATOM     57  C   UNL     1      -8.540   3.408  20.459  1.00  0.00     0.029 A 
ATOM     58  C   UNL     1      -7.210   3.050  20.308  1.00  0.00     0.049 A 
ATOM     59  H   UNL     1      -6.284   2.024  18.713  1.00  0.00     0.167 HD
ATOM     60  C   UNL     1      -4.826   2.911  20.976  1.00  0.00     0.074 A 
ATOM     61  C   UNL     1      -3.731   3.144  21.897  1.00  0.00     0.031 C 
ATOM     62  C   UNL     1      -6.109   3.287  21.207  1.00  0.00     0.031 A 
BRANCH  49  63
ATOM     63  C   UNL     1     -10.031   1.757  16.671  1.00  0.00    -0.014 A 
ATOM     64  C   UNL     1     -10.808   0.590  16.546  1.00  0.00     0.010 A 
ATOM     65  C   UNL     1     -10.595   2.992  16.305  1.00  0.00     0.010 A 
ATOM     66  C   UNL     1     -12.103   0.650  16.023  1.00  0.00     0.020 A 
ATOM     67  C   UNL     1     -11.902   3.062  15.812  1.00  0.00     0.020 A 
ATOM     68  C   UNL     1     -12.641   1.887  15.658  1.00  0.00     0.054 A 
BRANCH  68  69
ATOM     69  S   UNL     1     -14.333   1.938  15.006  1.00  0.00     0.124 S 
ATOM     70  O   UNL     1     -14.163   1.342  13.683  1.00  0.00    -0.237 OA
ATOM     71  O   UNL     1     -15.072   1.127  15.970  1.00  0.00    -0.237 OA
ATOM     72  O   UNL     1     -14.664   3.361  15.009  1.00  0.00    -0.744 OA
ENDBRANCH  68  69
ENDBRANCH  49  63
BRANCH  50  73
ATOM     73  C   UNL     1      -0.523   1.430  19.758  1.00  0.00    -0.014 A 
ATOM     74  C   UNL     1      -0.158   0.674  20.887  1.00  0.00     0.010 A 
ATOM     75  C   UNL     1       0.472   2.147  19.069  1.00  0.00     0.010 A 
ATOM     76  C   UNL     1       1.169   0.654  21.331  1.00  0.00     0.020 A 
ATOM     77  C   UNL     1       1.805   2.104  19.490  1.00  0.00     0.020 A 
ATOM     78  C   UNL     1       2.143   1.367  20.627  1.00  0.00     0.054 A 
BRANCH  78  79
ATOM     79  S   UNL     1       3.866   1.286  21.191  1.00  0.00     0.124 S 
ATOM     80  O   UNL     1       3.828   2.099  22.402  1.00  0.00    -0.237 OA
ATOM     81  O   UNL     1       4.064  -0.146  21.394  1.00  0.00    -0.237 OA
ATOM     82  O   UNL     1       4.617   1.859  20.075  1.00  0.00    -0.744 OA
ENDBRANCH  78  79
ENDBRANCH  50  73
BRANCH  62  83
ATOM     83  C   UNL     1      -6.401   3.961  22.523  1.00  0.00    -0.014 A 
ATOM     84  C   UNL     1      -5.920   5.250  22.811  1.00  0.00     0.010 A 
ATOM     85  C   UNL     1      -7.181   3.291  23.484  1.00  0.00     0.010 A 
ATOM     86  C   UNL     1      -6.160   5.831  24.059  1.00  0.00     0.020 A 
ATOM     87  C   UNL     1      -7.453   3.883  24.720  1.00  0.00     0.020 A 
ATOM     88  C   UNL     1      -6.918   5.139  25.009  1.00  0.00     0.054 A 
BRANCH  88  89
ATOM     89  S   UNL     1      -7.210   5.910  26.624  1.00  0.00     0.124 S 
ATOM     90  O   UNL     1      -5.907   5.769  27.267  1.00  0.00    -0.237 OA
ATOM     91  O   UNL     1      -7.590   7.274  26.265  1.00  0.00    -0.237 OA
ATOM     92  O   UNL     1      -8.282   5.104  27.204  1.00  0.00    -0.744 OA
ENDBRANCH  88  89
ENDBRANCH  62  83
ENDBRANCH  36  37
ENDBRANCH  28  31
ENDBRANCH  26  27
ENDBRANCH   1  26
TORSDOF 18
