REMARK SMILES Cc1cc(C)n(-c2nc(C)c(C)c(Oc3cccc(C(=O)NCCCCNC(=O)c4ccc(-c5c6nc(c(-c7ccc(S(=O)(=O)[O-])cc7)c7ccc([nH]7)c(-c7ccc(S(=O)(=O)[O-])cc7)c7nc(c(-c8ccc(S(=O)(=O)[O-])cc8)c8ccc5[nH]8)C=C7)C=C6)cc4)c3)n2)n1
REMARK SMILES IDX 24 1 23 2 22 3 20 4 21 5 19 7 15 8 16 9 90 10 17 11 18 12
REMARK SMILES IDX 14 13 13 14 7 15 8 16 91 17 9 18 10 19 11 20 12 21 6 22 1 23
REMARK SMILES IDX 2 24 3 25 92 26 4 27 5 28 25 29 26 30 27 31 28 32 29 34
REMARK SMILES IDX 30 35 31 36 89 37 32 38 88 39 33 40 34 41 35 42 82 43 36 44
REMARK SMILES IDX 87 45 81 46 83 47 37 48 86 49 80 50 79 51 38 53 68 54 49 55
REMARK SMILES IDX 67 56 50 57 53 58 66 59 84 60 51 61 52 62 65 64 85 65 54 66
REMARK SMILES IDX 39 67 40 68 48 69 41 70 47 71 42 72 43 73 44 74 45 75 46 76
REMARK SMILES IDX 69 77 70 78 78 79 71 80 77 81 72 82 73 83 74 84 75 85 76 86
REMARK SMILES IDX 55 87 56 88 64 89 57 90 63 91 58 92 59 93 60 94 61 95 62 96
REMARK H PARENT 22 6 27 33 83 52 53 63
REMARK Flexibility Score: inf
ROOT
ATOM      1  C   UNL     1       3.845  -0.147  -7.409  1.00  0.00     0.023 C 
ENDROOT
BRANCH   1   2
ATOM      2  C   UNL     1       3.840   0.150  -5.906  1.00  0.00     0.116 C 
BRANCH   2   3
ATOM      3  N   UNL     1       4.906   1.069  -5.557  1.00  0.00    -0.352 N 
ATOM      4  C   UNL     1       4.985   2.428  -5.399  1.00  0.00     0.251 C 
ATOM      5  O   UNL     1       6.101   2.881  -5.131  1.00  0.00    -0.269 OA
ATOM      6  H   UNL     1       5.765   0.616  -5.399  1.00  0.00     0.163 HD
BRANCH   4   7
ATOM      7  C   UNL     1       3.838   3.381  -5.502  1.00  0.00     0.043 A 
ATOM      8  C   UNL     1       1.575   4.060  -6.052  1.00  0.00     0.130 A 
ATOM      9  C   UNL     1       1.790   5.324  -5.509  1.00  0.00     0.047 A 
ATOM     10  C   UNL     1       2.613   3.119  -6.115  1.00  0.00     0.061 A 
ATOM     11  C   UNL     1       3.029   5.628  -4.957  1.00  0.00     0.005 A 
ATOM     12  C   UNL     1       4.034   4.657  -4.938  1.00  0.00     0.014 A 
BRANCH   8  13
ATOM     13  O   UNL     1       0.328   3.810  -6.577  1.00  0.00    -0.439 OA
BRANCH  13  14
ATOM     14  C   UNL     1      -0.339   2.664  -6.137  1.00  0.00     0.227 A 
ATOM     15  C   UNL     1      -0.536   0.908  -4.683  1.00  0.00     0.254 A 
ATOM     16  N   UNL     1      -1.576   0.399  -5.377  1.00  0.00    -0.216 NA
ATOM     17  N   UNL     1       0.080   2.056  -5.010  1.00  0.00    -0.175 NA
ATOM     18  C   UNL     1      -2.042   1.092  -6.437  1.00  0.00     0.050 A 
ATOM     19  C   UNL     1      -3.331   0.569  -7.000  1.00  0.00     0.067 C 
ATOM     20  C   UNL     1      -1.417   2.238  -6.901  1.00  0.00     0.033 A 
ATOM     21  C   UNL     1      -1.881   2.971  -8.120  1.00  0.00     0.052 C 
BRANCH  15  22
ATOM     22  N   UNL     1      -0.071   0.162  -3.540  1.00  0.00    -0.203 N 
ATOM     23  C   UNL     1       1.121   0.144  -0.180  1.00  0.00     0.069 C 
ATOM     24  C   UNL     1       0.622  -0.174  -1.541  1.00  0.00     0.060 A 
ATOM     25  C   UNL     1       0.180  -1.424  -2.015  1.00  0.00     0.049 A 
ATOM     26  N   UNL     1       0.574   0.763  -2.496  1.00  0.00    -0.170 NA
ATOM     27  C   UNL     1      -0.204  -1.206  -3.319  1.00  0.00     0.045 A 
ATOM     28  C   UNL     1      -0.642  -2.177  -4.354  1.00  0.00     0.067 C 
ENDBRANCH  15  22
ENDBRANCH  13  14
ENDBRANCH   8  13
ENDBRANCH   4   7
ENDBRANCH   2   3
ENDBRANCH   1   2
BRANCH   1  29
ATOM     29  C   UNL     1       4.970  -1.094  -7.864  1.00  0.00     0.023 C 
BRANCH  29  30
ATOM     30  C   UNL     1       4.784  -2.552  -7.445  1.00  0.00     0.116 C 
BRANCH  30  31
ATOM     31  N   UNL     1       3.573  -3.142  -8.010  1.00  0.00    -0.352 N 
ATOM     32  C   UNL     1       2.830  -4.198  -7.538  1.00  0.00     0.251 C 
ATOM     33  H   UNL     1       3.245  -2.727  -8.841  1.00  0.00     0.163 HD
ATOM     34  O   UNL     1       2.031  -4.777  -8.277  1.00  0.00    -0.269 OA
BRANCH  32  35
ATOM     35  C   UNL     1       3.013  -4.641  -6.147  1.00  0.00     0.039 A 
ATOM     36  C   UNL     1       3.263  -5.983  -5.863  1.00  0.00     0.014 A 
ATOM     37  C   UNL     1       2.993  -3.690  -5.126  1.00  0.00     0.014 A 
ATOM     38  C   UNL     1       3.599  -6.349  -4.561  1.00  0.00     0.010 A 
ATOM     39  C   UNL     1       3.406  -4.041  -3.852  1.00  0.00     0.010 A 
ATOM     40  C   UNL     1       3.710  -5.372  -3.555  1.00  0.00    -0.014 A 
BRANCH  40  41
ATOM     41  C   UNL     1       4.262  -5.751  -2.246  1.00  0.00     0.031 A 
ATOM     42  C   UNL     1       5.561  -6.489  -2.267  1.00  0.00     0.074 A 
ATOM     43  C   UNL     1       3.801  -5.328  -1.049  1.00  0.00     0.049 A 
ATOM     44  N   UNL     1       5.792  -7.707  -1.898  1.00  0.00    -0.248 NA
ATOM     45  C   UNL     1       6.737  -5.800  -2.820  1.00  0.00     0.031 C 
ATOM     46  C   UNL     1       2.756  -4.335  -0.785  1.00  0.00     0.029 A 
ATOM     47  N   UNL     1       4.255  -5.634   0.204  1.00  0.00    -0.354 N 
ATOM     48  C   UNL     1       7.171  -7.889  -1.997  1.00  0.00     0.074 A 
ATOM     49  C   UNL     1       7.683  -6.733  -2.690  1.00  0.00     0.031 C 
ATOM     50  C   UNL     1       2.814  -3.950   0.509  1.00  0.00     0.029 A 
ATOM     51  C   UNL     1       3.757  -4.809   1.202  1.00  0.00     0.049 A 
ATOM     52  H   UNL     1       4.879  -6.374   0.382  1.00  0.00     0.167 HD
ATOM     53  C   UNL     1       7.822  -8.874  -1.315  1.00  0.00     0.031 A 
ATOM     54  C   UNL     1       4.065  -4.830   2.518  1.00  0.00     0.031 A 
ATOM     55  C   UNL     1       6.911  -9.805  -0.706  1.00  0.00     0.049 A 
ATOM     56  C   UNL     1       4.561  -6.181   2.854  1.00  0.00     0.074 A 
ATOM     57  C   UNL     1       6.138 -10.872  -1.100  1.00  0.00     0.029 A 
ATOM     58  N   UNL     1       6.502  -9.446   0.552  1.00  0.00    -0.354 N 
ATOM     59  N   UNL     1       3.819  -7.250   2.786  1.00  0.00    -0.248 NA
ATOM     60  C   UNL     1       5.985  -6.419   3.050  1.00  0.00     0.031 C 
ATOM     61  C   UNL     1       5.090 -10.977  -0.135  1.00  0.00     0.029 A 
ATOM     62  C   UNL     1       5.266  -9.976   0.818  1.00  0.00     0.049 A 
ATOM     63  H   UNL     1       7.021  -8.887   1.175  1.00  0.00     0.167 HD
ATOM     64  C   UNL     1       4.708  -8.268   2.517  1.00  0.00     0.074 A 
ATOM     65  C   UNL     1       6.017  -7.743   2.873  1.00  0.00     0.031 C 
ATOM     66  C   UNL     1       4.349  -9.320   1.728  1.00  0.00     0.031 A 
BRANCH  53  67
ATOM     67  C   UNL     1       9.252  -8.788  -0.822  1.00  0.00    -0.014 A 
ATOM     68  C   UNL     1       9.831  -9.923  -0.212  1.00  0.00     0.010 A 
ATOM     69  C   UNL     1       9.933  -7.564  -0.664  1.00  0.00     0.010 A 
ATOM     70  C   UNL     1      10.996  -9.826   0.564  1.00  0.00     0.020 A 
ATOM     71  C   UNL     1      11.117  -7.464   0.076  1.00  0.00     0.020 A 
ATOM     72  C   UNL     1      11.622  -8.590   0.715  1.00  0.00     0.054 A 
BRANCH  72  73
ATOM     73  S   UNL     1      13.052  -8.450   1.819  1.00  0.00     0.124 S 
ATOM     74  O   UNL     1      12.454  -8.711   3.124  1.00  0.00    -0.237 OA
ATOM     75  O   UNL     1      13.942  -9.490   1.309  1.00  0.00    -0.237 OA
ATOM     76  O   UNL     1      13.516  -7.081   1.604  1.00  0.00    -0.744 OA
ENDBRANCH  72  73
ENDBRANCH  53  67
BRANCH  54  77
ATOM     77  C   UNL     1       4.080  -3.726   3.500  1.00  0.00    -0.014 A 
ATOM     78  C   UNL     1       4.058  -4.006   4.878  1.00  0.00     0.010 A 
ATOM     79  C   UNL     1       4.434  -2.426   3.088  1.00  0.00     0.010 A 
ATOM     80  C   UNL     1       4.477  -3.050   5.810  1.00  0.00     0.020 A 
ATOM     81  C   UNL     1       4.845  -1.462   4.016  1.00  0.00     0.020 A 
ATOM     82  C   UNL     1       4.902  -1.794   5.369  1.00  0.00     0.054 A 
BRANCH  82  83
ATOM     83  S   UNL     1       5.671  -0.662   6.563  1.00  0.00     0.124 S 
ATOM     84  O   UNL     1       4.546  -0.305   7.423  1.00  0.00    -0.237 OA
ATOM     85  O   UNL     1       6.695  -1.503   7.176  1.00  0.00    -0.237 OA
ATOM     86  O   UNL     1       6.183   0.423   5.727  1.00  0.00    -0.744 OA
ENDBRANCH  82  83
ENDBRANCH  54  77
BRANCH  66  87
ATOM     87  C   UNL     1       2.887  -9.655   1.628  1.00  0.00    -0.014 A 
ATOM     88  C   UNL     1       1.930  -8.809   1.037  1.00  0.00     0.010 A 
ATOM     89  C   UNL     1       2.477 -10.917   2.091  1.00  0.00     0.010 A 
ATOM     90  C   UNL     1       0.591  -9.210   0.932  1.00  0.00     0.020 A 
ATOM     91  C   UNL     1       1.149 -11.330   1.974  1.00  0.00     0.020 A 
ATOM     92  C   UNL     1       0.209 -10.471   1.402  1.00  0.00     0.054 A 
BRANCH  92  93
ATOM     93  S   UNL     1      -1.516 -11.004   1.219  1.00  0.00     0.124 S 
ATOM     94  O   UNL     1      -2.219 -10.133   2.157  1.00  0.00    -0.237 OA
ATOM     95  O   UNL     1      -1.784 -10.752  -0.195  1.00  0.00    -0.237 OA
ATOM     96  O   UNL     1      -1.486 -12.418   1.592  1.00  0.00    -0.744 OA
ENDBRANCH  92  93
ENDBRANCH  66  87
ENDBRANCH  40  41
ENDBRANCH  32  35
ENDBRANCH  30  31
ENDBRANCH  29  30
ENDBRANCH   1  29
TORSDOF 17
