REMARK SMILES Cc1ccc(C(=O)NCCCCNC(=O)c2ccc(-c3c4nc(c(-c5ccc(S(=O)(=O)[O-])cc5)c5ccc([nH]5)c(-c5ccc(S(=O)(=O)[O-])cc5)c5nc(c(-c6ccc(S(=O)(=O)[O-])cc6)c6ccc3[nH]6)C=C5)C=C4)cc2)cc1O[C@@H](C)C(=O)N[C@@H]1CCS(=O)(=O)C1
REMARK SMILES IDX 10 1 9 2 8 3 6 4 7 5 5 7 1 8 2 9 3 10 77 11 4 12 76 13 78 14
REMARK SMILES IDX 79 15 80 16 81 17 82 18 83 19 84 21 85 22 90 23 86 24 87 25
REMARK SMILES IDX 88 26 89 27 11 28 12 29 13 30 14 31 15 33 16 34 17 35 75 36
REMARK SMILES IDX 18 37 74 38 19 39 20 40 21 41 68 42 22 43 73 44 67 45 69 46
REMARK SMILES IDX 23 47 72 48 66 49 65 50 24 52 54 53 35 54 53 55 36 56 39 57
REMARK SMILES IDX 52 58 70 59 37 60 38 61 51 63 71 64 40 65 25 66 26 67 34 68
REMARK SMILES IDX 27 69 33 70 28 71 29 72 30 73 31 74 32 75 55 76 56 77 64 78
REMARK SMILES IDX 57 79 63 80 58 81 59 82 60 83 61 84 62 85 41 86 42 87 50 88
REMARK SMILES IDX 43 89 49 90 44 91 45 92 46 93 47 94 48 95
REMARK H PARENT 8 6 83 20 13 32 69 51 39 62
REMARK Flexibility Score: inf
ROOT
ATOM      1  C   UNL     1      -3.496   3.360  -1.538  1.00  0.00     0.023 C 
ENDROOT
BRANCH   1   2
ATOM      2  C   UNL     1      -3.138   2.721  -0.185  1.00  0.00     0.116 C 
BRANCH   2   3
ATOM      3  N   UNL     1      -3.659   1.378   0.049  1.00  0.00    -0.352 N 
ATOM      4  C   UNL     1      -3.160   0.235   0.636  1.00  0.00     0.251 C 
ATOM      5  O   UNL     1      -3.928  -0.729   0.715  1.00  0.00    -0.269 OA
ATOM      6  H   UNL     1      -4.575   1.261  -0.290  1.00  0.00     0.163 HD
BRANCH   4   7
ATOM      7  C   UNL     1      -1.742   0.025   1.081  1.00  0.00     0.043 A 
ATOM      8  C   UNL     1       2.450  -0.966   1.745  1.00  0.00     0.048 C 
ATOM      9  C   UNL     1       1.023  -0.569   1.507  1.00  0.00    -0.009 A 
ATOM     10  C   UNL     1       0.067  -1.592   1.375  1.00  0.00     0.008 A 
ATOM     11  C   UNL     1       0.577   0.750   1.411  1.00  0.00     0.124 A 
ATOM     12  C   UNL     1      -1.279  -1.300   1.116  1.00  0.00     0.014 A 
ATOM     13  C   UNL     1      -0.812   1.028   1.349  1.00  0.00     0.060 A 
BRANCH  11  14
ATOM     14  O   UNL     1       1.324   1.876   1.321  1.00  0.00    -0.481 OA
BRANCH  14  15
ATOM     15  C   UNL     1       2.509   2.074   0.575  1.00  0.00     0.258 C 
ATOM     16  C   UNL     1       3.587   2.339   1.648  1.00  0.00     0.064 C 
BRANCH  15  17
ATOM     17  C   UNL     1       3.230   1.494  -0.736  1.00  0.00     0.261 C 
ATOM     18  O   UNL     1       4.401   1.812  -0.994  1.00  0.00    -0.271 OA
ATOM     19  N   UNL     1       2.637   0.746  -1.708  1.00  0.00    -0.349 N 
ATOM     20  H   UNL     1       3.151   0.670  -2.544  1.00  0.00     0.163 HD
BRANCH  19  21
ATOM     21  C   UNL     1       1.371   0.046  -1.707  1.00  0.00     0.098 C 
ATOM     22  C   UNL     1       1.229  -1.004  -2.827  1.00  0.00     0.042 C 
ATOM     23  C   UNL     1       0.181   0.982  -1.724  1.00  0.00     0.161 C 
ATOM     24  C   UNL     1       0.028  -0.682  -3.704  1.00  0.00     0.139 C 
ATOM     25  S   UNL     1      -0.431   0.984  -3.367  1.00  0.00     0.152 S 
ATOM     26  O   UNL     1       0.391   1.870  -4.173  1.00  0.00    -0.229 OA
ATOM     27  O   UNL     1      -1.868   1.049  -3.348  1.00  0.00    -0.229 OA
ENDBRANCH  19  21
ENDBRANCH  15  17
ENDBRANCH  14  15
ENDBRANCH  11  14
ENDBRANCH   4   7
ENDBRANCH   2   3
ENDBRANCH   1   2
BRANCH   1  28
ATOM     28  C   UNL     1      -4.962   3.479  -1.931  1.00  0.00     0.023 C 
BRANCH  28  29
ATOM     29  C   UNL     1      -5.776   4.391  -1.043  1.00  0.00     0.116 C 
BRANCH  29  30
ATOM     30  N   UNL     1      -5.690   5.821  -1.308  1.00  0.00    -0.352 N 
ATOM     31  C   UNL     1      -6.717   6.713  -0.987  1.00  0.00     0.251 C 
ATOM     32  H   UNL     1      -4.874   6.173  -1.731  1.00  0.00     0.163 HD
ATOM     33  O   UNL     1      -7.144   7.558  -1.762  1.00  0.00    -0.269 OA
BRANCH  31  34
ATOM     34  C   UNL     1      -7.166   6.682   0.427  1.00  0.00     0.039 A 
ATOM     35  C   UNL     1      -7.041   7.825   1.224  1.00  0.00     0.014 A 
ATOM     36  C   UNL     1      -7.422   5.448   1.006  1.00  0.00     0.014 A 
ATOM     37  C   UNL     1      -6.944   7.681   2.604  1.00  0.00     0.010 A 
ATOM     38  C   UNL     1      -7.102   5.272   2.317  1.00  0.00     0.010 A 
ATOM     39  C   UNL     1      -6.855   6.392   3.111  1.00  0.00    -0.014 A 
BRANCH  39  40
ATOM     40  C   UNL     1      -6.757   6.019   4.502  1.00  0.00     0.031 A 
ATOM     41  C   UNL     1      -8.044   5.709   5.153  1.00  0.00     0.074 A 
ATOM     42  C   UNL     1      -5.545   5.592   4.913  1.00  0.00     0.049 A 
ATOM     43  N   UNL     1      -8.181   5.388   6.384  1.00  0.00    -0.248 NA
ATOM     44  C   UNL     1      -9.325   5.745   4.431  1.00  0.00     0.031 C 
ATOM     45  C   UNL     1      -5.196   4.681   5.995  1.00  0.00     0.029 A 
ATOM     46  N   UNL     1      -4.321   6.118   4.515  1.00  0.00    -0.354 N 
ATOM     47  C   UNL     1      -9.442   4.848   6.521  1.00  0.00     0.074 A 
ATOM     48  C   UNL     1     -10.157   5.210   5.327  1.00  0.00     0.031 C 
ATOM     49  C   UNL     1      -3.922   4.918   6.367  1.00  0.00     0.029 A 
ATOM     50  C   UNL     1      -3.480   6.102   5.638  1.00  0.00     0.049 A 
ATOM     51  H   UNL     1      -4.088   6.441   3.615  1.00  0.00     0.167 HD
ATOM     52  C   UNL     1      -9.661   4.006   7.564  1.00  0.00     0.031 A 
ATOM     53  C   UNL     1      -3.182   7.301   6.236  1.00  0.00     0.031 A 
ATOM     54  C   UNL     1      -8.510   4.032   8.463  1.00  0.00     0.049 A 
ATOM     55  C   UNL     1      -3.838   7.421   7.597  1.00  0.00     0.074 A 
ATOM     56  C   UNL     1      -7.420   3.191   8.600  1.00  0.00     0.029 A 
ATOM     57  N   UNL     1      -8.166   5.239   9.063  1.00  0.00    -0.354 N 
ATOM     58  N   UNL     1      -4.954   6.829   7.935  1.00  0.00    -0.248 NA
ATOM     59  C   UNL     1      -3.229   8.147   8.707  1.00  0.00     0.031 C 
ATOM     60  C   UNL     1      -6.358   3.965   9.150  1.00  0.00     0.029 A 
ATOM     61  C   UNL     1      -6.821   5.251   9.381  1.00  0.00     0.049 A 
ATOM     62  H   UNL     1      -8.791   5.979   9.235  1.00  0.00     0.167 HD
ATOM     63  C   UNL     1      -5.181   7.017   9.272  1.00  0.00     0.074 A 
ATOM     64  C   UNL     1      -4.083   7.865   9.706  1.00  0.00     0.031 C 
ATOM     65  C   UNL     1      -6.218   6.446   9.955  1.00  0.00     0.031 A 
BRANCH  52  66
ATOM     66  C   UNL     1     -10.765   2.981   7.660  1.00  0.00    -0.014 A 
ATOM     67  C   UNL     1     -10.741   2.080   8.744  1.00  0.00     0.010 A 
ATOM     68  C   UNL     1     -11.777   2.771   6.700  1.00  0.00     0.010 A 
ATOM     69  C   UNL     1     -11.648   1.018   8.854  1.00  0.00     0.020 A 
ATOM     70  C   UNL     1     -12.705   1.720   6.806  1.00  0.00     0.020 A 
ATOM     71  C   UNL     1     -12.627   0.842   7.880  1.00  0.00     0.054 A 
BRANCH  71  72
ATOM     72  S   UNL     1     -13.778  -0.546   8.038  1.00  0.00     0.124 S 
ATOM     73  O   UNL     1     -12.891  -1.702   7.933  1.00  0.00    -0.237 OA
ATOM     74  O   UNL     1     -14.365  -0.320   9.356  1.00  0.00    -0.237 OA
ATOM     75  O   UNL     1     -14.696  -0.367   6.914  1.00  0.00    -0.744 OA
ENDBRANCH  71  72
ENDBRANCH  52  66
BRANCH  53  76
ATOM     76  C   UNL     1      -3.019   8.404   5.224  1.00  0.00    -0.014 A 
ATOM     77  C   UNL     1      -1.939   8.262   4.320  1.00  0.00     0.010 A 
ATOM     78  C   UNL     1      -4.123   9.184   4.831  1.00  0.00     0.010 A 
ATOM     79  C   UNL     1      -2.072   8.656   2.985  1.00  0.00     0.020 A 
ATOM     80  C   UNL     1      -4.238   9.616   3.497  1.00  0.00     0.020 A 
ATOM     81  C   UNL     1      -3.257   9.258   2.566  1.00  0.00     0.054 A 
BRANCH  81  82
ATOM     82  S   UNL     1      -3.567   9.370   0.774  1.00  0.00     0.124 S 
ATOM     83  O   UNL     1      -2.387  10.087   0.298  1.00  0.00    -0.237 OA
ATOM     84  O   UNL     1      -3.642   7.960   0.383  1.00  0.00    -0.237 OA
ATOM     85  O   UNL     1      -4.820  10.113   0.692  1.00  0.00    -0.744 OA
ENDBRANCH  81  82
ENDBRANCH  53  76
BRANCH  65  86
ATOM     86  C   UNL     1      -6.705   6.915  11.303  1.00  0.00    -0.014 A 
ATOM     87  C   UNL     1      -6.424   8.187  11.824  1.00  0.00     0.010 A 
ATOM     88  C   UNL     1      -7.604   6.105  12.038  1.00  0.00     0.010 A 
ATOM     89  C   UNL     1      -6.917   8.586  13.069  1.00  0.00     0.020 A 
ATOM     90  C   UNL     1      -8.159   6.521  13.248  1.00  0.00     0.020 A 
ATOM     91  C   UNL     1      -7.772   7.745  13.778  1.00  0.00     0.054 A 
BRANCH  91  92
ATOM     92  S   UNL     1      -8.391   8.282  15.387  1.00  0.00     0.124 S 
ATOM     93  O   UNL     1      -7.237   8.028  16.246  1.00  0.00    -0.237 OA
ATOM     94  O   UNL     1      -8.703   9.691  15.157  1.00  0.00    -0.237 OA
ATOM     95  O   UNL     1      -9.548   7.422  15.619  1.00  0.00    -0.744 OA
ENDBRANCH  91  92
ENDBRANCH  65  86
ENDBRANCH  39  40
ENDBRANCH  31  34
ENDBRANCH  29  30
ENDBRANCH  28  29
ENDBRANCH   1  28
TORSDOF 18
