REMARK SMILES NC(=O)[C@@H]1CCCCN1c1cncc(C(=O)NCCCCNC(=O)c2ccc(-c3c4nc(c(-c5ccc(S(=O)(=O)[O-])cc5)c5ccc([nH]5)c(-c5ccc(S(=O)(=O)[O-])cc5)c5nc(c(-c6ccc(S(=O)(=O)[O-])cc6)c6ccc3[nH]6)C=C5)C=C4)cc2)n1
REMARK SMILES IDX 20 1 19 2 18 3 17 4 15 5 16 6 14 8 10 9 11 10 85 11 12 12
REMARK SMILES IDX 13 13 9 14 4 15 5 16 6 17 8 18 7 19 2 20 1 21 3 24 21 25
REMARK SMILES IDX 22 26 23 27 24 29 25 30 26 31 84 32 27 33 83 34 28 35 29 36
REMARK SMILES IDX 30 37 77 38 31 39 82 40 76 41 78 42 32 43 81 44 75 45 74 46
REMARK SMILES IDX 33 48 63 49 44 50 62 51 45 52 48 53 61 54 79 55 46 56 47 57
REMARK SMILES IDX 60 59 80 60 49 61 34 62 35 63 43 64 36 65 42 66 37 67 38 68
REMARK SMILES IDX 39 69 40 70 41 71 64 72 65 73 73 74 66 75 72 76 67 77 68 78
REMARK SMILES IDX 69 79 70 80 71 81 50 82 51 83 59 84 52 85 58 86 53 87 54 88
REMARK SMILES IDX 55 89 56 90 57 91
REMARK H PARENT 17 7 1 22 1 23 22 28 78 47 48 58
REMARK Flexibility Score: inf
ROOT
ATOM      1  C   UNL     1      -5.299  -0.359   4.018  1.00  0.00     0.023 C 
ENDROOT
BRANCH   1   2
ATOM      2  C   UNL     1      -3.942   0.341   3.953  1.00  0.00     0.023 C 
BRANCH   2   3
ATOM      3  C   UNL     1      -3.365   0.472   2.546  1.00  0.00     0.116 C 
BRANCH   3   4
ATOM      4  N   UNL     1      -4.060   1.477   1.763  1.00  0.00    -0.351 N 
ATOM      5  C   UNL     1      -3.636   2.688   1.268  1.00  0.00     0.271 C 
ATOM      6  O   UNL     1      -4.454   3.369   0.643  1.00  0.00    -0.267 OA
ATOM      7  H   UNL     1      -4.995   1.253   1.550  1.00  0.00     0.163 HD
BRANCH   5   8
ATOM      8  C   UNL     1      -2.257   3.225   1.464  1.00  0.00     0.148 A 
ATOM      9  C   UNL     1      -0.061   2.974   2.160  1.00  0.00     0.148 A 
ATOM     10  C   UNL     1       0.141   4.320   1.821  1.00  0.00     0.157 A 
ATOM     11  N   UNL     1      -1.273   2.430   1.965  1.00  0.00    -0.222 NA
ATOM     12  N   UNL     1      -0.808   5.136   1.296  1.00  0.00    -0.258 NA
ATOM     13  C   UNL     1      -2.016   4.550   1.125  1.00  0.00     0.145 A 
BRANCH   9  14
ATOM     14  N   UNL     1       0.965   2.208   2.693  1.00  0.00    -0.343 N 
ATOM     15  C   UNL     1       1.081   0.747   2.438  1.00  0.00     0.172 C 
ATOM     16  C   UNL     1       0.598  -0.080   3.632  1.00  0.00     0.035 C 
ATOM     17  C   UNL     1       1.284   0.369   4.917  1.00  0.00     0.004 C 
ATOM     18  C   UNL     1       1.537   2.688   3.958  1.00  0.00     0.119 C 
ATOM     19  C   UNL     1       1.035   1.856   5.141  1.00  0.00     0.022 C 
BRANCH  15  20
ATOM     20  C   UNL     1       0.453   0.242   1.122  1.00  0.00     0.240 C 
ATOM     21  N   UNL     1       1.108   0.620  -0.020  1.00  0.00    -0.368 N 
ATOM     22  H   UNL     1       0.768   0.337  -0.899  1.00  0.00     0.159 HD
ATOM     23  H   UNL     1       1.919   1.175   0.039  1.00  0.00     0.159 HD
ATOM     24  O   UNL     1      -0.510  -0.516   1.050  1.00  0.00    -0.273 OA
ENDBRANCH  15  20
ENDBRANCH   9  14
ENDBRANCH   5   8
ENDBRANCH   3   4
ENDBRANCH   2   3
ENDBRANCH   1   2
BRANCH   1  25
ATOM     25  C   UNL     1      -5.356  -1.735   3.360  1.00  0.00     0.116 C 
BRANCH  25  26
ATOM     26  N   UNL     1      -4.348  -2.659   3.861  1.00  0.00    -0.352 N 
ATOM     27  C   UNL     1      -4.481  -3.989   4.180  1.00  0.00     0.251 C 
ATOM     28  H   UNL     1      -3.449  -2.279   3.989  1.00  0.00     0.163 HD
ATOM     29  O   UNL     1      -3.551  -4.598   4.701  1.00  0.00    -0.269 OA
BRANCH  27  30
ATOM     30  C   UNL     1      -5.768  -4.670   3.926  1.00  0.00     0.039 A 
ATOM     31  C   UNL     1      -6.351  -5.418   4.951  1.00  0.00     0.014 A 
ATOM     32  C   UNL     1      -6.414  -4.537   2.694  1.00  0.00     0.014 A 
ATOM     33  C   UNL     1      -7.622  -5.968   4.767  1.00  0.00     0.010 A 
ATOM     34  C   UNL     1      -7.707  -5.028   2.536  1.00  0.00     0.010 A 
ATOM     35  C   UNL     1      -8.327  -5.742   3.573  1.00  0.00    -0.014 A 
BRANCH  35  36
ATOM     36  C   UNL     1      -9.716  -6.234   3.391  1.00  0.00     0.031 A 
ATOM     37  C   UNL     1     -10.018  -7.261   2.334  1.00  0.00     0.074 A 
ATOM     38  C   UNL     1     -10.714  -5.713   4.134  1.00  0.00     0.049 A 
ATOM     39  N   UNL     1     -11.176  -7.746   1.964  1.00  0.00    -0.248 NA
ATOM     40  C   UNL     1      -8.873  -7.798   1.580  1.00  0.00     0.031 C 
ATOM     41  C   UNL     1     -10.558  -4.686   5.168  1.00  0.00     0.029 A 
ATOM     42  N   UNL     1     -12.062  -5.970   4.127  1.00  0.00    -0.354 N 
ATOM     43  C   UNL     1     -10.900  -8.636   0.932  1.00  0.00     0.074 A 
ATOM     44  C   UNL     1      -9.473  -8.588   0.700  1.00  0.00     0.031 C 
ATOM     45  C   UNL     1     -11.759  -4.418   5.708  1.00  0.00     0.029 A 
ATOM     46  C   UNL     1     -12.774  -5.220   5.035  1.00  0.00     0.049 A 
ATOM     47  H   UNL     1     -12.481  -6.630   3.528  1.00  0.00     0.167 HD
ATOM     48  C   UNL     1     -11.754  -9.440   0.255  1.00  0.00     0.031 A 
ATOM     49  C   UNL     1     -14.097  -5.176   5.289  1.00  0.00     0.031 A 
ATOM     50  C   UNL     1     -13.171  -9.499   0.493  1.00  0.00     0.049 A 
ATOM     51  C   UNL     1     -15.024  -6.068   4.507  1.00  0.00     0.074 A 
ATOM     52  C   UNL     1     -14.115 -10.298  -0.129  1.00  0.00     0.029 A 
ATOM     53  N   UNL     1     -13.847  -8.738   1.433  1.00  0.00    -0.354 N 
ATOM     54  N   UNL     1     -14.737  -6.929   3.561  1.00  0.00    -0.248 NA
ATOM     55  C   UNL     1     -16.455  -5.990   4.837  1.00  0.00     0.031 C 
ATOM     56  C   UNL     1     -15.368  -9.999   0.416  1.00  0.00     0.029 A 
ATOM     57  C   UNL     1     -15.196  -9.047   1.407  1.00  0.00     0.049 A 
ATOM     58  H   UNL     1     -13.430  -8.077   2.032  1.00  0.00     0.167 HD
ATOM     59  C   UNL     1     -15.946  -7.517   3.206  1.00  0.00     0.074 A 
ATOM     60  C   UNL     1     -16.965  -6.925   4.048  1.00  0.00     0.031 C 
ATOM     61  C   UNL     1     -16.193  -8.461   2.265  1.00  0.00     0.031 A 
BRANCH  48  62
ATOM     62  C   UNL     1     -11.172 -10.342  -0.799  1.00  0.00    -0.014 A 
ATOM     63  C   UNL     1     -10.411 -11.468  -0.436  1.00  0.00     0.010 A 
ATOM     64  C   UNL     1     -11.440 -10.105  -2.159  1.00  0.00     0.010 A 
ATOM     65  C   UNL     1      -9.906 -12.326  -1.415  1.00  0.00     0.020 A 
ATOM     66  C   UNL     1     -10.957 -10.976  -3.141  1.00  0.00     0.020 A 
ATOM     67  C   UNL     1     -10.184 -12.075  -2.762  1.00  0.00     0.054 A 
BRANCH  67  68
ATOM     68  S   UNL     1      -9.556 -13.236  -4.007  1.00  0.00     0.124 S 
ATOM     69  O   UNL     1      -8.131 -12.916  -4.026  1.00  0.00    -0.237 OA
ATOM     70  O   UNL     1      -9.901 -14.536  -3.437  1.00  0.00    -0.237 OA
ATOM     71  O   UNL     1     -10.291 -12.876  -5.218  1.00  0.00    -0.744 OA
ENDBRANCH  67  68
ENDBRANCH  48  62
BRANCH  49  72
ATOM     72  C   UNL     1     -14.636  -4.258   6.329  1.00  0.00    -0.014 A 
ATOM     73  C   UNL     1     -15.173  -4.770   7.523  1.00  0.00     0.010 A 
ATOM     74  C   UNL     1     -14.653  -2.868   6.112  1.00  0.00     0.010 A 
ATOM     75  C   UNL     1     -15.757  -3.915   8.462  1.00  0.00     0.020 A 
ATOM     76  C   UNL     1     -15.210  -2.007   7.062  1.00  0.00     0.020 A 
ATOM     77  C   UNL     1     -15.780  -2.538   8.221  1.00  0.00     0.054 A 
BRANCH  77  78
ATOM     78  S   UNL     1     -16.539  -1.442   9.451  1.00  0.00     0.124 S 
ATOM     79  O   UNL     1     -17.962  -1.635   9.188  1.00  0.00    -0.237 OA
ATOM     80  O   UNL     1     -16.048  -1.989  10.713  1.00  0.00    -0.237 OA
ATOM     81  O   UNL     1     -16.009  -0.125   9.104  1.00  0.00    -0.744 OA
ENDBRANCH  77  78
ENDBRANCH  49  72
BRANCH  61  82
ATOM     82  C   UNL     1     -17.608  -8.951   2.131  1.00  0.00    -0.014 A 
ATOM     83  C   UNL     1     -18.601  -8.158   1.532  1.00  0.00     0.010 A 
ATOM     84  C   UNL     1     -17.934 -10.250   2.565  1.00  0.00     0.010 A 
ATOM     85  C   UNL     1     -19.905  -8.643   1.396  1.00  0.00     0.020 A 
ATOM     86  C   UNL     1     -19.230 -10.747   2.408  1.00  0.00     0.020 A 
ATOM     87  C   UNL     1     -20.211  -9.934   1.837  1.00  0.00     0.054 A 
BRANCH  87  88
ATOM     88  S   UNL     1     -21.898 -10.560   1.608  1.00  0.00     0.124 S 
ATOM     89  O   UNL     1     -22.627  -9.861   2.663  1.00  0.00    -0.237 OA
ATOM     90  O   UNL     1     -22.214 -10.143   0.244  1.00  0.00    -0.237 OA
ATOM     91  O   UNL     1     -21.761 -12.002   1.795  1.00  0.00    -0.744 OA
ENDBRANCH  87  88
ENDBRANCH  61  82
ENDBRANCH  35  36
ENDBRANCH  27  30
ENDBRANCH  25  26
ENDBRANCH   1  25
TORSDOF 16
