REMARK SMILES CC1=NN(c2ccc(Cl)c(C(=O)NCCCCNC(=O)c3ccc(-c4c5nc(c(-c6ccc(S(=O)(=O)[O-])cc6)c6ccc([nH]6)c(-c6ccc(S(=O)(=O)[O-])cc6)c6nc(c(-c7ccc(S(=O)(=O)[O-])cc7)c7ccc4[nH]7)C=C6)C=C5)cc3)c2)C(=O)/C1=C\c1ccccc1Cl
REMARK SMILES IDX 16 1 15 2 14 3 13 4 11 5 12 6 10 8 5 9 6 10 81 11 7 12 8 13
REMARK SMILES IDX 9 14 4 15 1 16 2 17 3 18 84 19 82 20 85 21 83 22 86 23 87 24
REMARK SMILES IDX 91 25 88 26 90 27 92 28 89 29 17 30 18 31 19 32 20 34 21 35
REMARK SMILES IDX 22 36 80 37 23 38 79 39 24 40 25 41 26 42 73 43 27 44 78 45
REMARK SMILES IDX 72 46 74 47 28 48 77 49 71 50 70 51 29 53 59 54 40 55 58 56
REMARK SMILES IDX 41 57 44 58 57 59 75 60 42 61 43 62 56 64 76 65 45 66 30 67
REMARK SMILES IDX 31 68 39 69 32 70 38 71 33 72 34 73 35 74 36 75 37 76 60 77
REMARK SMILES IDX 61 78 69 79 62 80 68 81 63 82 64 83 65 84 66 85 67 86 46 87
REMARK SMILES IDX 47 88 55 89 48 90 54 91 49 92 50 93 51 94 52 95 53 96
REMARK H PARENT 13 7 18 33 74 52 44 63
REMARK Flexibility Score: inf
ROOT
ATOM      1  C   UNL     1       2.431  10.032   1.464  1.00  0.00     0.023 C 
ENDROOT
BRANCH   1   2
ATOM      2  C   UNL     1       2.228   8.978   0.379  1.00  0.00     0.023 C 
BRANCH   2   3
ATOM      3  C   UNL     1       2.802   7.597   0.661  1.00  0.00     0.116 C 
BRANCH   3   4
ATOM      4  N   UNL     1       2.186   6.886   1.768  1.00  0.00    -0.352 N 
ATOM      5  C   UNL     1       1.895   5.545   1.909  1.00  0.00     0.252 C 
ATOM      6  O   UNL     1       1.398   5.155   2.965  1.00  0.00    -0.269 OA
ATOM      7  H   UNL     1       1.936   7.449   2.536  1.00  0.00     0.163 HD
BRANCH   5   8
ATOM      8  C   UNL     1       2.087   4.564   0.807  1.00  0.00     0.060 A 
ATOM      9  C   UNL     1       1.232   2.588  -0.334  1.00  0.00     0.070 A 
ATOM     10  C   UNL     1       2.302   2.671  -1.231  1.00  0.00     0.030 A 
ATOM     11  C   UNL     1       1.066   3.600   0.619  1.00  0.00     0.044 A 
ATOM     12  C   UNL     1       3.317   3.596  -1.040  1.00  0.00     0.023 A 
ATOM     13  C   UNL     1       3.264   4.461   0.049  1.00  0.00     0.053 A 
ATOM     14  Cl  UNL     1       4.772   5.186   0.486  1.00  0.00    -0.083 Cl
BRANCH   9  15
ATOM     15  N   UNL     1       0.499   1.383  -0.290  1.00  0.00    -0.196 N 
ATOM     16  C   UNL     1      -2.540  -0.474   0.257  1.00  0.00     0.069 C 
ATOM     17  C   UNL     1      -1.160   0.063   0.067  1.00  0.00     0.071 C 
ATOM     18  N   UNL     1      -0.848   1.338   0.046  1.00  0.00    -0.169 NA
ATOM     19  C   UNL     1       0.015  -0.807  -0.130  1.00  0.00     0.065 C 
ATOM     20  C   UNL     1       1.103   0.128  -0.471  1.00  0.00     0.280 C 
ATOM     21  C   UNL     1       0.129  -2.126   0.091  1.00  0.00     0.025 C 
ATOM     22  O   UNL     1       2.240  -0.167  -0.793  1.00  0.00    -0.267 OA
BRANCH  21  23
ATOM     23  C   UNL     1       1.445  -2.793   0.123  1.00  0.00    -0.006 A 
ATOM     24  C   UNL     1       1.879  -3.504  -1.003  1.00  0.00     0.009 A 
ATOM     25  C   UNL     1       2.326  -2.651   1.215  1.00  0.00     0.048 A 
ATOM     26  C   UNL     1       3.172  -4.036  -1.049  1.00  0.00     0.001 A 
ATOM     27  C   UNL     1       3.620  -3.176   1.161  1.00  0.00     0.021 A 
ATOM     28  Cl  UNL     1       1.862  -1.812   2.658  1.00  0.00    -0.084 Cl
ATOM     29  C   UNL     1       4.045  -3.863   0.025  1.00  0.00     0.002 A 
ENDBRANCH  21  23
ENDBRANCH   9  15
ENDBRANCH   5   8
ENDBRANCH   3   4
ENDBRANCH   2   3
ENDBRANCH   1   2
BRANCH   1  30
ATOM     30  C   UNL     1       3.842  10.186   2.025  1.00  0.00     0.116 C 
BRANCH  30  31
ATOM     31  N   UNL     1       4.860  10.456   1.020  1.00  0.00    -0.352 N 
ATOM     32  C   UNL     1       5.818  11.445   0.975  1.00  0.00     0.251 C 
ATOM     33  H   UNL     1       4.865   9.837   0.254  1.00  0.00     0.163 HD
ATOM     34  O   UNL     1       6.550  11.539  -0.007  1.00  0.00    -0.269 OA
BRANCH  32  35
ATOM     35  C   UNL     1       5.939  12.421   2.083  1.00  0.00     0.039 A 
ATOM     36  C   UNL     1       6.064  13.779   1.774  1.00  0.00     0.014 A 
ATOM     37  C   UNL     1       5.908  12.011   3.417  1.00  0.00     0.014 A 
ATOM     38  C   UNL     1       6.069  14.727   2.801  1.00  0.00     0.010 A 
ATOM     39  C   UNL     1       5.824  12.960   4.432  1.00  0.00     0.010 A 
ATOM     40  C   UNL     1       5.902  14.329   4.138  1.00  0.00    -0.014 A 
BRANCH  40  41
ATOM     41  C   UNL     1       5.808  15.327   5.238  1.00  0.00     0.031 A 
ATOM     42  C   UNL     1       6.835  15.339   6.339  1.00  0.00     0.074 A 
ATOM     43  C   UNL     1       4.764  16.181   5.282  1.00  0.00     0.049 A 
ATOM     44  N   UNL     1       6.893  16.098   7.405  1.00  0.00    -0.248 NA
ATOM     45  C   UNL     1       7.923  14.352   6.247  1.00  0.00     0.031 C 
ATOM     46  C   UNL     1       3.674  16.241   4.305  1.00  0.00     0.029 A 
ATOM     47  N   UNL     1       4.447  17.162   6.189  1.00  0.00    -0.354 N 
ATOM     48  C   UNL     1       8.008  15.667   8.115  1.00  0.00     0.074 A 
ATOM     49  C   UNL     1       8.562  14.545   7.391  1.00  0.00     0.031 C 
ATOM     50  C   UNL     1       2.831  17.229   4.645  1.00  0.00     0.029 A 
ATOM     51  C   UNL     1       3.294  17.847   5.884  1.00  0.00     0.049 A 
ATOM     52  H   UNL     1       4.994  17.357   6.985  1.00  0.00     0.167 HD
ATOM     53  C   UNL     1       8.539  16.172   9.255  1.00  0.00     0.031 A 
ATOM     54  C   UNL     1       2.677  18.859   6.525  1.00  0.00     0.031 A 
ATOM     55  C   UNL     1       7.996  17.298   9.966  1.00  0.00     0.049 A 
ATOM     56  C   UNL     1       3.285  19.406   7.788  1.00  0.00     0.074 A 
ATOM     57  C   UNL     1       8.491  17.921  11.099  1.00  0.00     0.029 A 
ATOM     58  N   UNL     1       6.835  17.971   9.615  1.00  0.00    -0.354 N 
ATOM     59  N   UNL     1       4.377  19.027   8.408  1.00  0.00    -0.248 NA
ATOM     60  C   UNL     1       2.585  20.527   8.431  1.00  0.00     0.031 C 
ATOM     61  C   UNL     1       7.605  18.941  11.459  1.00  0.00     0.029 A 
ATOM     62  C   UNL     1       6.588  18.991  10.518  1.00  0.00     0.049 A 
ATOM     63  H   UNL     1       6.271  17.755   8.838  1.00  0.00     0.167 HD
ATOM     64  C   UNL     1       4.512  19.883   9.496  1.00  0.00     0.074 A 
ATOM     65  C   UNL     1       3.397  20.805   9.443  1.00  0.00     0.031 C 
ATOM     66  C   UNL     1       5.475  19.904  10.450  1.00  0.00     0.031 A 
BRANCH  53  67
ATOM     67  C   UNL     1       9.776  15.505   9.798  1.00  0.00    -0.014 A 
ATOM     68  C   UNL     1      11.007  15.596   9.122  1.00  0.00     0.010 A 
ATOM     69  C   UNL     1       9.715  14.796  11.012  1.00  0.00     0.010 A 
ATOM     70  C   UNL     1      12.140  14.950   9.621  1.00  0.00     0.020 A 
ATOM     71  C   UNL     1      10.854  14.174  11.532  1.00  0.00     0.020 A 
ATOM     72  C   UNL     1      12.055  14.238  10.821  1.00  0.00     0.054 A 
BRANCH  72  73
ATOM     73  S   UNL     1      13.545  13.417  11.451  1.00  0.00     0.124 S 
ATOM     74  O   UNL     1      13.670  12.282  10.541  1.00  0.00    -0.237 OA
ATOM     75  O   UNL     1      14.566  14.452  11.308  1.00  0.00    -0.237 OA
ATOM     76  O   UNL     1      13.197  13.076  12.828  1.00  0.00    -0.744 OA
ENDBRANCH  72  73
ENDBRANCH  53  67
BRANCH  54  77
ATOM     77  C   UNL     1       1.428  19.445   5.964  1.00  0.00    -0.014 A 
ATOM     78  C   UNL     1       1.438  20.730   5.394  1.00  0.00     0.010 A 
ATOM     79  C   UNL     1       0.225  18.715   5.981  1.00  0.00     0.010 A 
ATOM     80  C   UNL     1       0.267  21.282   4.865  1.00  0.00     0.020 A 
ATOM     81  C   UNL     1      -0.942  19.253   5.429  1.00  0.00     0.020 A 
ATOM     82  C   UNL     1      -0.916  20.538   4.884  1.00  0.00     0.054 A 
BRANCH  82  83
ATOM     83  S   UNL     1      -2.410  21.252   4.141  1.00  0.00     0.124 S 
ATOM     84  O   UNL     1      -2.789  22.257   5.129  1.00  0.00    -0.237 OA
ATOM     85  O   UNL     1      -1.913  21.770   2.869  1.00  0.00    -0.237 OA
ATOM     86  O   UNL     1      -3.314  20.110   4.029  1.00  0.00    -0.744 OA
ENDBRANCH  82  83
ENDBRANCH  54  77
BRANCH  66  87
ATOM     87  C   UNL     1       5.392  20.984  11.496  1.00  0.00    -0.014 A 
ATOM     88  C   UNL     1       4.420  20.946  12.511  1.00  0.00     0.010 A 
ATOM     89  C   UNL     1       6.344  22.020  11.495  1.00  0.00     0.010 A 
ATOM     90  C   UNL     1       4.383  21.944  13.489  1.00  0.00     0.020 A 
ATOM     91  C   UNL     1       6.327  23.003  12.488  1.00  0.00     0.020 A 
ATOM     92  C   UNL     1       5.338  22.966  13.472  1.00  0.00     0.054 A 
BRANCH  92  93
ATOM     93  S   UNL     1       5.297  24.222  14.780  1.00  0.00     0.124 S 
ATOM     94  O   UNL     1       4.144  25.029  14.391  1.00  0.00    -0.237 OA
ATOM     95  O   UNL     1       5.125  23.421  15.989  1.00  0.00    -0.237 OA
ATOM     96  O   UNL     1       6.592  24.888  14.661  1.00  0.00    -0.744 OA
ENDBRANCH  92  93
ENDBRANCH  66  87
ENDBRANCH  40  41
ENDBRANCH  32  35
ENDBRANCH  30  31
ENDBRANCH   1  30
TORSDOF 16
