REMARK SMILES Cc1ccc(OCC(=O)NNC(=O)[C@H]2CCCC[C@@H]2C(=O)NCCCCNC(=O)c2ccc(-c3c4nc(c(-c5ccc(S(=O)(=O)[O-])cc5)c5ccc([nH]5)c(-c5ccc(S(=O)(=O)[O-])cc5)c5nc(c(-c6ccc(S(=O)(=O)[O-])cc6)c6ccc3[nH]6)C=C5)C=C4)cc2)cc1
REMARK SMILES IDX 23 1 22 2 20 3 21 4 19 6 14 7 15 8 16 9 18 10 17 11 12 12
REMARK SMILES IDX 11 13 13 15 10 16 8 17 9 18 7 20 6 21 5 22 1 23 2 24 3 25
REMARK SMILES IDX 91 26 4 27 90 28 24 29 25 30 26 31 27 32 28 33 29 35 30 36
REMARK SMILES IDX 31 37 89 38 32 39 88 40 33 41 34 42 35 43 82 44 36 45 87 46
REMARK SMILES IDX 81 47 83 48 37 49 86 50 80 51 79 52 38 54 68 55 49 56 67 57
REMARK SMILES IDX 50 58 53 59 66 60 84 61 51 62 52 63 65 65 85 66 54 67 39 68
REMARK SMILES IDX 40 69 48 70 41 71 47 72 42 73 43 74 44 75 45 76 46 77 69 78
REMARK SMILES IDX 70 79 78 80 71 81 77 82 72 83 73 84 74 85 75 86 76 87 55 88
REMARK SMILES IDX 56 89 64 90 57 91 63 92 58 93 59 94 60 95 61 96 62 97
REMARK H PARENT 22 5 11 14 10 19 27 34 83 53 53 64
REMARK Flexibility Score: inf
ROOT
ATOM      1  C   UNL     1      -6.444   4.416   5.956  1.00  0.00     0.116 C 
ENDROOT
BRANCH   1   2
ATOM      2  N   UNL     1      -6.220   3.528   4.819  1.00  0.00    -0.356 N 
ATOM      3  C   UNL     1      -5.398   2.487   4.553  1.00  0.00     0.223 C 
ATOM      4  O   UNL     1      -5.580   1.948   3.449  1.00  0.00    -0.275 OA
ATOM      5  H   UNL     1      -6.811   3.738   4.060  1.00  0.00     0.163 HD
BRANCH   3   6
ATOM      6  C   UNL     1      -4.227   1.982   5.417  1.00  0.00     0.091 C 
ATOM      7  C   UNL     1      -4.206   0.424   5.358  1.00  0.00     0.092 C 
ATOM      8  C   UNL     1      -5.259  -0.173   6.315  1.00  0.00     0.014 C 
ATOM      9  C   UNL     1      -5.159   0.351   7.748  1.00  0.00     0.001 C 
ATOM     10  C   UNL     1      -4.044   2.434   6.862  1.00  0.00     0.014 C 
ATOM     11  C   UNL     1      -5.105   1.870   7.803  1.00  0.00     0.001 C 
BRANCH   7  12
ATOM     12  C   UNL     1      -2.811  -0.148   5.635  1.00  0.00     0.242 C 
ATOM     13  N   UNL     1      -1.796   0.061   4.740  1.00  0.00    -0.267 N 
ATOM     14  H   UNL     1      -0.901  -0.258   4.995  1.00  0.00     0.191 HD
ATOM     15  O   UNL     1      -2.547  -0.820   6.634  1.00  0.00    -0.273 OA
BRANCH  13  16
ATOM     16  N   UNL     1      -1.916   0.683   3.505  1.00  0.00    -0.265 N 
ATOM     17  C   UNL     1      -0.846   1.228   2.833  1.00  0.00     0.276 C 
ATOM     18  O   UNL     1      -0.992   1.685   1.697  1.00  0.00    -0.269 OA
ATOM     19  H   UNL     1      -2.807   0.736   3.091  1.00  0.00     0.191 HD
BRANCH  17  20
ATOM     20  C   UNL     1       0.536   1.193   3.500  1.00  0.00     0.331 C 
BRANCH  20  21
ATOM     21  O   UNL     1       0.629   1.793   4.782  1.00  0.00    -0.484 OA
BRANCH  21  22
ATOM     22  C   UNL     1       0.638   3.160   4.846  1.00  0.00     0.120 A 
ATOM     23  C   UNL     1       0.651   7.429   5.500  1.00  0.00     0.044 C 
ATOM     24  C   UNL     1       0.653   5.947   5.268  1.00  0.00    -0.051 A 
ATOM     25  C   UNL     1       0.773   5.066   6.346  1.00  0.00     0.007 A 
ATOM     26  C   UNL     1       0.537   5.421   3.978  1.00  0.00     0.007 A 
ATOM     27  C   UNL     1       0.763   3.684   6.135  1.00  0.00     0.047 A 
ATOM     28  C   UNL     1       0.530   4.038   3.767  1.00  0.00     0.047 A 
ENDBRANCH  21  22
ENDBRANCH  20  21
ENDBRANCH  17  20
ENDBRANCH  13  16
ENDBRANCH   7  12
ENDBRANCH   3   6
ENDBRANCH   1   2
BRANCH   1  29
ATOM     29  C   UNL     1      -6.381   5.899   5.577  1.00  0.00     0.023 C 
BRANCH  29  30
ATOM     30  C   UNL     1      -7.567   6.407   4.761  1.00  0.00     0.023 C 
BRANCH  30  31
ATOM     31  C   UNL     1      -8.898   6.393   5.504  1.00  0.00     0.116 C 
BRANCH  31  32
ATOM     32  N   UNL     1      -9.237   7.633   6.190  1.00  0.00    -0.352 N 
ATOM     33  C   UNL     1     -10.455   7.981   6.773  1.00  0.00     0.251 C 
ATOM     34  H   UNL     1      -8.520   8.306   6.250  1.00  0.00     0.163 HD
ATOM     35  O   UNL     1     -10.696   9.077   7.202  1.00  0.00    -0.269 OA
BRANCH  33  36
ATOM     36  C   UNL     1     -11.427   6.874   6.969  1.00  0.00     0.039 A 
ATOM     37  C   UNL     1     -11.668   6.473   8.287  1.00  0.00     0.014 A 
ATOM     38  C   UNL     1     -11.808   6.080   5.892  1.00  0.00     0.014 A 
ATOM     39  C   UNL     1     -12.088   5.169   8.526  1.00  0.00     0.010 A 
ATOM     40  C   UNL     1     -12.102   4.752   6.134  1.00  0.00     0.010 A 
ATOM     41  C   UNL     1     -12.185   4.284   7.450  1.00  0.00    -0.014 A 
BRANCH  41  42
ATOM     42  C   UNL     1     -12.291   2.842   7.638  1.00  0.00     0.031 A 
ATOM     43  C   UNL     1     -13.600   2.183   7.444  1.00  0.00     0.074 A 
ATOM     44  C   UNL     1     -11.227   2.112   8.046  1.00  0.00     0.049 A 
ATOM     45  N   UNL     1     -14.015   1.171   8.130  1.00  0.00    -0.248 NA
ATOM     46  C   UNL     1     -14.582   2.678   6.486  1.00  0.00     0.031 C 
ATOM     47  C   UNL     1     -11.163   0.656   8.159  1.00  0.00     0.029 A 
ATOM     48  N   UNL     1     -10.063   2.552   8.682  1.00  0.00    -0.354 N 
ATOM     49  C   UNL     1     -15.167   0.717   7.528  1.00  0.00     0.074 A 
ATOM     50  C   UNL     1     -15.524   1.736   6.568  1.00  0.00     0.031 C 
ATOM     51  C   UNL     1     -10.241   0.345   9.083  1.00  0.00     0.029 A 
ATOM     52  C   UNL     1      -9.758   1.591   9.657  1.00  0.00     0.049 A 
ATOM     53  H   UNL     1      -9.557   3.373   8.484  1.00  0.00     0.167 HD
ATOM     54  C   UNL     1     -15.627  -0.541   7.781  1.00  0.00     0.031 A 
ATOM     55  C   UNL     1      -9.652   1.861  10.988  1.00  0.00     0.031 A 
ATOM     56  C   UNL     1     -14.798  -1.236   8.761  1.00  0.00     0.049 A 
ATOM     57  C   UNL     1     -10.615   1.055  11.834  1.00  0.00     0.074 A 
ATOM     58  C   UNL     1     -13.783  -2.171   8.638  1.00  0.00     0.029 A 
ATOM     59  N   UNL     1     -14.745  -0.770  10.070  1.00  0.00    -0.354 N 
ATOM     60  N   UNL     1     -11.621   0.379  11.350  1.00  0.00    -0.248 NA
ATOM     61  C   UNL     1     -10.550   0.977  13.290  1.00  0.00     0.031 C 
ATOM     62  C   UNL     1     -13.068  -2.209   9.863  1.00  0.00     0.029 A 
ATOM     63  C   UNL     1     -13.670  -1.324  10.739  1.00  0.00     0.049 A 
ATOM     64  H   UNL     1     -15.385  -0.134  10.465  1.00  0.00     0.167 HD
ATOM     65  C   UNL     1     -12.316  -0.220  12.370  1.00  0.00     0.074 A 
ATOM     66  C   UNL     1     -11.598   0.180  13.568  1.00  0.00     0.031 C 
ATOM     67  C   UNL     1     -13.421  -0.992  12.138  1.00  0.00     0.031 A 
BRANCH  54  68
ATOM     68  C   UNL     1     -16.619  -1.221   6.864  1.00  0.00    -0.014 A 
ATOM     69  C   UNL     1     -16.503  -2.601   6.603  1.00  0.00     0.010 A 
ATOM     70  C   UNL     1     -17.633  -0.538   6.165  1.00  0.00     0.010 A 
ATOM     71  C   UNL     1     -17.254  -3.232   5.600  1.00  0.00     0.020 A 
ATOM     72  C   UNL     1     -18.357  -1.142   5.125  1.00  0.00     0.020 A 
ATOM     73  C   UNL     1     -18.148  -2.487   4.836  1.00  0.00     0.054 A 
BRANCH  73  74
ATOM     74  S   UNL     1     -19.003  -3.281   3.449  1.00  0.00     0.124 S 
ATOM     75  O   UNL     1     -17.905  -3.902   2.712  1.00  0.00    -0.237 OA
ATOM     76  O   UNL     1     -19.908  -4.203   4.127  1.00  0.00    -0.237 OA
ATOM     77  O   UNL     1     -19.650  -2.167   2.758  1.00  0.00    -0.744 OA
ENDBRANCH  73  74
ENDBRANCH  54  68
BRANCH  55  78
ATOM     78  C   UNL     1      -9.121   3.211  11.317  1.00  0.00    -0.014 A 
ATOM     79  C   UNL     1      -7.746   3.437  11.093  1.00  0.00     0.010 A 
ATOM     80  C   UNL     1      -9.974   4.319  11.452  1.00  0.00     0.010 A 
ATOM     81  C   UNL     1      -7.259   4.726  10.860  1.00  0.00     0.020 A 
ATOM     82  C   UNL     1      -9.489   5.615  11.209  1.00  0.00     0.020 A 
ATOM     83  C   UNL     1      -8.149   5.798  10.852  1.00  0.00     0.054 A 
BRANCH  83  84
ATOM     84  S   UNL     1      -7.558   7.413  10.261  1.00  0.00     0.124 S 
ATOM     85  O   UNL     1      -6.232   7.512  10.865  1.00  0.00    -0.237 OA
ATOM     86  O   UNL     1      -7.567   7.219   8.811  1.00  0.00    -0.237 OA
ATOM     87  O   UNL     1      -8.553   8.343  10.782  1.00  0.00    -0.744 OA
ENDBRANCH  83  84
ENDBRANCH  55  78
BRANCH  67  88
ATOM     88  C   UNL     1     -14.351  -1.594  13.172  1.00  0.00    -0.014 A 
ATOM     89  C   UNL     1     -14.473  -1.155  14.498  1.00  0.00     0.010 A 
ATOM     90  C   UNL     1     -15.258  -2.604  12.754  1.00  0.00     0.010 A 
ATOM     91  C   UNL     1     -15.419  -1.720  15.371  1.00  0.00     0.020 A 
ATOM     92  C   UNL     1     -16.231  -3.142  13.600  1.00  0.00     0.020 A 
ATOM     93  C   UNL     1     -16.294  -2.707  14.916  1.00  0.00     0.054 A 
BRANCH  93  94
ATOM     94  S   UNL     1     -17.574  -3.361  16.017  1.00  0.00     0.124 S 
ATOM     95  O   UNL     1     -16.875  -4.462  16.673  1.00  0.00    -0.237 OA
ATOM     96  O   UNL     1     -17.885  -2.218  16.873  1.00  0.00    -0.237 OA
ATOM     97  O   UNL     1     -18.644  -3.752  15.103  1.00  0.00    -0.744 OA
ENDBRANCH  93  94
ENDBRANCH  67  88
ENDBRANCH  41  42
ENDBRANCH  33  36
ENDBRANCH  31  32
ENDBRANCH  30  31
ENDBRANCH  29  30
ENDBRANCH   1  29
TORSDOF 19
