REMARK SMILES CC(C)(C)c1ccc(OCc2nnc(SCC(=O)NCCCCNC(=O)c3ccc(-c4c5nc(c(-c6ccc(S(=O)(=O)[O-])cc6)c6ccc([nH]6)c(-c6ccc(S(=O)(=O)[O-])cc6)c6nc(c(-c7ccc(S(=O)(=O)[O-])cc7)c7ccc4[nH]7)C=C6)C=C5)cc3)o2)cc1
REMARK SMILES IDX 20 1 19 2 17 3 18 4 16 6 15 7 14 8 11 9 12 10 87 11 13 12
REMARK SMILES IDX 10 13 9 14 8 15 5 16 6 17 89 18 7 19 88 20 2 21 1 22 3 23
REMARK SMILES IDX 4 24 21 25 22 26 23 27 24 28 25 29 26 31 27 32 28 33 86 34
REMARK SMILES IDX 29 35 85 36 30 37 31 38 32 39 79 40 33 41 84 42 78 43 80 44
REMARK SMILES IDX 34 45 83 46 77 47 76 48 35 50 65 51 46 52 64 53 47 54 50 55
REMARK SMILES IDX 63 56 81 57 48 58 49 59 62 61 82 62 51 63 36 64 37 65 45 66
REMARK SMILES IDX 38 67 44 68 39 69 40 70 41 71 42 72 43 73 66 74 67 75 75 76
REMARK SMILES IDX 68 77 74 78 69 79 70 80 71 81 72 82 73 83 52 84 53 85 61 86
REMARK SMILES IDX 54 87 60 88 55 89 56 90 57 91 58 92 59 93
REMARK H PARENT 19 5 24 30 80 49 50 60
REMARK Flexibility Score: inf
ROOT
ATOM      1  C   UNL     1       0.593   2.017  -4.284  1.00  0.00     0.116 C 
ENDROOT
BRANCH   1   2
ATOM      2  N   UNL     1       1.601   1.192  -3.643  1.00  0.00    -0.355 N 
ATOM      3  C   UNL     1       2.726   0.625  -4.163  1.00  0.00     0.230 C 
ATOM      4  O   UNL     1       3.483   0.027  -3.394  1.00  0.00    -0.274 OA
ATOM      5  H   UNL     1       1.449   1.015  -2.687  1.00  0.00     0.163 HD
BRANCH   3   6
ATOM      6  C   UNL     1       3.116   0.811  -5.614  1.00  0.00     0.179 C 
BRANCH   6   7
ATOM      7  S   UNL     1       1.948   0.149  -6.815  1.00  0.00    -0.055 SA
BRANCH   7   8
ATOM      8  C   UNL     1       1.832  -1.529  -6.397  1.00  0.00     0.277 A 
ATOM      9  C   UNL     1       2.167  -3.469  -5.579  1.00  0.00     0.254 A 
ATOM     10  N   UNL     1       1.117  -3.575  -6.365  1.00  0.00    -0.108 NA
ATOM     11  O   UNL     1       2.699  -2.201  -5.578  1.00  0.00    -0.412 OA
ATOM     12  N   UNL     1       0.900  -2.319  -6.890  1.00  0.00    -0.101 NA
BRANCH   9  13
ATOM     13  C   UNL     1       2.851  -4.501  -4.756  1.00  0.00     0.328 C 
BRANCH  13  14
ATOM     14  O   UNL     1       2.005  -4.949  -3.688  1.00  0.00    -0.484 OA
BRANCH  14  15
ATOM     15  C   UNL     1       1.749  -4.091  -2.655  1.00  0.00     0.120 A 
ATOM     16  C   UNL     1       0.891  -2.382  -0.550  1.00  0.00    -0.042 A 
ATOM     17  C   UNL     1       0.332  -3.659  -0.732  1.00  0.00     0.008 A 
ATOM     18  C   UNL     1       1.951  -2.031  -1.395  1.00  0.00     0.008 A 
ATOM     19  C   UNL     1       0.750  -4.497  -1.774  1.00  0.00     0.047 A 
ATOM     20  C   UNL     1       2.380  -2.876  -2.427  1.00  0.00     0.047 A 
BRANCH  16  21
ATOM     21  C   UNL     1       0.370  -1.435   0.543  1.00  0.00    -0.013 C 
ATOM     22  C   UNL     1       0.850   0.027   0.371  1.00  0.00     0.016 C 
ATOM     23  C   UNL     1       0.862  -1.936   1.913  1.00  0.00     0.016 C 
ATOM     24  C   UNL     1      -1.175  -1.390   0.535  1.00  0.00     0.016 C 
ENDBRANCH  16  21
ENDBRANCH  14  15
ENDBRANCH  13  14
ENDBRANCH   9  13
ENDBRANCH   7   8
ENDBRANCH   6   7
ENDBRANCH   3   6
ENDBRANCH   1   2
BRANCH   1  25
ATOM     25  C   UNL     1      -0.731   1.273  -4.458  1.00  0.00     0.023 C 
BRANCH  25  26
ATOM     26  C   UNL     1      -1.465   0.936  -3.155  1.00  0.00     0.023 C 
BRANCH  26  27
ATOM     27  C   UNL     1      -1.802   2.124  -2.258  1.00  0.00     0.116 C 
BRANCH  27  28
ATOM     28  N   UNL     1      -2.636   3.115  -2.920  1.00  0.00    -0.352 N 
ATOM     29  C   UNL     1      -3.762   3.756  -2.467  1.00  0.00     0.251 C 
ATOM     30  H   UNL     1      -2.350   3.363  -3.829  1.00  0.00     0.163 HD
ATOM     31  O   UNL     1      -4.408   4.461  -3.244  1.00  0.00    -0.269 OA
BRANCH  29  32
ATOM     32  C   UNL     1      -4.219   3.589  -1.070  1.00  0.00     0.039 A 
ATOM     33  C   UNL     1      -5.585   3.422  -0.825  1.00  0.00     0.014 A 
ATOM     34  C   UNL     1      -3.320   3.619  -0.000  1.00  0.00     0.014 A 
ATOM     35  C   UNL     1      -6.041   3.233   0.482  1.00  0.00     0.010 A 
ATOM     36  C   UNL     1      -3.767   3.358   1.294  1.00  0.00     0.010 A 
ATOM     37  C   UNL     1      -5.133   3.168   1.552  1.00  0.00    -0.014 A 
BRANCH  37  38
ATOM     38  C   UNL     1      -5.600   2.901   2.939  1.00  0.00     0.031 A 
ATOM     39  C   UNL     1      -5.412   3.932   4.021  1.00  0.00     0.074 A 
ATOM     40  C   UNL     1      -6.145   1.706   3.239  1.00  0.00     0.049 A 
ATOM     41  N   UNL     1      -5.729   3.863   5.289  1.00  0.00    -0.248 NA
ATOM     42  C   UNL     1      -4.760   5.193   3.635  1.00  0.00     0.031 C 
ATOM     43  C   UNL     1      -6.338   0.602   2.295  1.00  0.00     0.029 A 
ATOM     44  N   UNL     1      -6.631   1.214   4.426  1.00  0.00    -0.354 N 
ATOM     45  C   UNL     1      -5.298   5.058   5.854  1.00  0.00     0.074 A 
ATOM     46  C   UNL     1      -4.654   5.812   4.801  1.00  0.00     0.031 C 
ATOM     47  C   UNL     1      -6.921  -0.425   2.933  1.00  0.00     0.029 A 
ATOM     48  C   UNL     1      -7.107  -0.073   4.337  1.00  0.00     0.049 A 
ATOM     49  H   UNL     1      -6.638   1.735   5.262  1.00  0.00     0.167 HD
ATOM     50  C   UNL     1      -5.441   5.497   7.129  1.00  0.00     0.031 A 
ATOM     51  C   UNL     1      -7.626  -0.886   5.278  1.00  0.00     0.031 A 
ATOM     52  C   UNL     1      -6.087   4.746   8.174  1.00  0.00     0.049 A 
ATOM     53  C   UNL     1      -7.780  -0.377   6.685  1.00  0.00     0.074 A 
ATOM     54  C   UNL     1      -6.341   5.131   9.479  1.00  0.00     0.029 A 
ATOM     55  N   UNL     1      -6.573   3.454   8.038  1.00  0.00    -0.354 N 
ATOM     56  N   UNL     1      -7.443   0.790   7.180  1.00  0.00    -0.248 NA
ATOM     57  C   UNL     1      -8.399  -1.289   7.657  1.00  0.00     0.031 C 
ATOM     58  C   UNL     1      -6.922   4.049  10.149  1.00  0.00     0.029 A 
ATOM     59  C   UNL     1      -7.096   3.015   9.243  1.00  0.00     0.049 A 
ATOM     60  H   UNL     1      -6.550   2.926   7.207  1.00  0.00     0.167 HD
ATOM     61  C   UNL     1      -7.832   0.762   8.515  1.00  0.00     0.074 A 
ATOM     62  C   UNL     1      -8.446  -0.531   8.744  1.00  0.00     0.031 C 
ATOM     63  C   UNL     1      -7.696   1.722   9.464  1.00  0.00     0.031 A 
BRANCH  50  64
ATOM     64  C   UNL     1      -4.865   6.850   7.468  1.00  0.00    -0.014 A 
ATOM     65  C   UNL     1      -5.411   8.033   6.937  1.00  0.00     0.010 A 
ATOM     66  C   UNL     1      -3.778   6.941   8.357  1.00  0.00     0.010 A 
ATOM     67  C   UNL     1      -4.846   9.274   7.242  1.00  0.00     0.020 A 
ATOM     68  C   UNL     1      -3.230   8.183   8.691  1.00  0.00     0.020 A 
ATOM     69  C   UNL     1      -3.755   9.341   8.113  1.00  0.00     0.054 A 
BRANCH  69  70
ATOM     70  S   UNL     1      -3.043  10.965   8.493  1.00  0.00     0.124 S 
ATOM     71  O   UNL     1      -2.373  11.300   7.239  1.00  0.00    -0.237 OA
ATOM     72  O   UNL     1      -4.223  11.766   8.807  1.00  0.00    -0.237 OA
ATOM     73  O   UNL     1      -2.154  10.700   9.622  1.00  0.00    -0.744 OA
ENDBRANCH  69  70
ENDBRANCH  50  64
BRANCH  51  74
ATOM     74  C   UNL     1      -8.045  -2.267   4.909  1.00  0.00    -0.014 A 
ATOM     75  C   UNL     1      -9.405  -2.619   4.864  1.00  0.00     0.010 A 
ATOM     76  C   UNL     1      -7.078  -3.231   4.569  1.00  0.00     0.010 A 
ATOM     77  C   UNL     1      -9.789  -3.913   4.497  1.00  0.00     0.020 A 
ATOM     78  C   UNL     1      -7.459  -4.515   4.171  1.00  0.00     0.020 A 
ATOM     79  C   UNL     1      -8.814  -4.851   4.147  1.00  0.00     0.054 A 
BRANCH  79  80
ATOM     80  S   UNL     1      -9.340  -6.502   3.609  1.00  0.00     0.124 S 
ATOM     81  O   UNL     1      -9.791  -7.100   4.861  1.00  0.00    -0.237 OA
ATOM     82  O   UNL     1     -10.387  -6.197   2.638  1.00  0.00    -0.237 OA
ATOM     83  O   UNL     1      -8.124  -7.080   3.041  1.00  0.00    -0.744 OA
ENDBRANCH  79  80
ENDBRANCH  51  74
BRANCH  63  84
ATOM     84  C   UNL     1      -8.247   1.426  10.835  1.00  0.00    -0.014 A 
ATOM     85  C   UNL     1      -7.639   0.482  11.683  1.00  0.00     0.010 A 
ATOM     86  C   UNL     1      -9.366   2.141  11.300  1.00  0.00     0.010 A 
ATOM     87  C   UNL     1      -8.164   0.233  12.954  1.00  0.00     0.020 A 
ATOM     88  C   UNL     1      -9.874   1.918  12.583  1.00  0.00     0.020 A 
ATOM     89  C   UNL     1      -9.278   0.952  13.396  1.00  0.00     0.054 A 
BRANCH  89  90
ATOM     90  S   UNL     1      -9.919   0.634  15.063  1.00  0.00     0.124 S 
ATOM     91  O   UNL     1     -10.546  -0.675  14.903  1.00  0.00    -0.237 OA
ATOM     92  O   UNL     1      -8.709   0.656  15.881  1.00  0.00    -0.237 OA
ATOM     93  O   UNL     1     -10.843   1.742  15.297  1.00  0.00    -0.744 OA
ENDBRANCH  89  90
ENDBRANCH  63  84
ENDBRANCH  37  38
ENDBRANCH  29  32
ENDBRANCH  27  28
ENDBRANCH  26  27
ENDBRANCH  25  26
ENDBRANCH   1  25
TORSDOF 20
