REMARK SMILES CC[C@@H](C(=O)NCCCCNC(=O)c1ccc(-c2c3nc(c(-c4ccc(S(=O)(=O)[O-])cc4)c4ccc([nH]4)c(-c4ccc(S(=O)(=O)[O-])cc4)c4nc(c(-c5ccc(S(=O)(=O)[O-])cc5)c5ccc2[nH]5)C=C4)C=C3)cc1)N1CCN(Cc2cccc(C)c2)C(=O)C1=O
REMARK SMILES IDX 8 1 7 2 6 3 4 4 5 5 3 7 2 8 1 9 74 10 75 11 88 12 76 13
REMARK SMILES IDX 86 14 89 15 77 16 87 17 78 18 79 19 80 20 85 21 81 22 83 23
REMARK SMILES IDX 82 24 84 25 9 26 10 27 11 28 12 29 13 31 14 32 15 33 73 34
REMARK SMILES IDX 16 35 72 36 17 37 18 38 19 39 66 40 20 41 71 42 65 43 67 44
REMARK SMILES IDX 21 45 70 46 64 47 63 48 22 50 52 51 33 52 51 53 34 54 37 55
REMARK SMILES IDX 50 56 68 57 35 58 36 59 49 61 69 62 38 63 23 64 24 65 32 66
REMARK SMILES IDX 25 67 31 68 26 69 27 70 28 71 29 72 30 73 53 74 54 75 62 76
REMARK SMILES IDX 55 77 61 78 56 79 57 80 58 81 59 82 60 83 39 84 40 85 48 86
REMARK SMILES IDX 41 87 47 88 42 89 43 90 44 91 45 92 46 93
REMARK H PARENT 6 6 11 30 67 49 37 60
REMARK Flexibility Score: inf
ROOT
ATOM      1  C   UNL     1       1.101   1.663  -1.559  1.00  0.00     0.023 C 
ENDROOT
BRANCH   1   2
ATOM      2  C   UNL     1       1.716   1.939  -0.184  1.00  0.00     0.116 C 
BRANCH   2   3
ATOM      3  N   UNL     1       0.676   2.288   0.763  1.00  0.00    -0.354 N 
ATOM      4  C   UNL     1       0.066   1.518   1.706  1.00  0.00     0.242 C 
ATOM      5  O   UNL     1      -1.040   1.904   2.105  1.00  0.00    -0.273 OA
ATOM      6  H   UNL     1       0.364   3.221   0.718  1.00  0.00     0.163 HD
BRANCH   4   7
ATOM      7  C   UNL     1       0.742   0.239   2.290  1.00  0.00     0.174 C 
BRANCH   7   8
ATOM      8  C   UNL     1       0.037  -0.988   1.657  1.00  0.00     0.032 C 
ATOM      9  C   UNL     1       0.415  -1.269   0.213  1.00  0.00     0.006 C 
ENDBRANCH   7   8
BRANCH   7  10
ATOM     10  N   UNL     1       0.631   0.204   3.785  1.00  0.00    -0.321 N 
ATOM     11  C   UNL     1       0.280   1.379   4.566  1.00  0.00     0.142 C 
ATOM     12  C   UNL     1       0.827  -0.964   4.531  1.00  0.00     0.312 C 
ATOM     13  C   UNL     1      -1.048   1.092   5.240  1.00  0.00     0.142 C 
ATOM     14  C   UNL     1       0.045  -1.044   5.902  1.00  0.00     0.312 C 
ATOM     15  O   UNL     1       1.485  -1.921   4.141  1.00  0.00    -0.263 OA
ATOM     16  N   UNL     1      -0.896  -0.033   6.162  1.00  0.00    -0.328 N 
ATOM     17  O   UNL     1       0.241  -1.990   6.657  1.00  0.00    -0.263 OA
BRANCH  16  18
ATOM     18  C   UNL     1      -1.819  -0.157   7.285  1.00  0.00     0.155 C 
BRANCH  18  19
ATOM     19  C   UNL     1      -1.477   0.770   8.430  1.00  0.00    -0.028 A 
ATOM     20  C   UNL     1      -0.793   0.290   9.553  1.00  0.00     0.005 A 
ATOM     21  C   UNL     1      -1.809   2.133   8.377  1.00  0.00     0.009 A 
ATOM     22  C   UNL     1      -0.445   1.156  10.592  1.00  0.00     0.001 A 
ATOM     23  C   UNL     1      -1.396   3.022   9.376  1.00  0.00    -0.051 A 
ATOM     24  C   UNL     1      -0.734   2.518  10.498  1.00  0.00     0.003 A 
ATOM     25  C   UNL     1      -1.667   4.492   9.244  1.00  0.00     0.044 C 
ENDBRANCH  18  19
ENDBRANCH  16  18
ENDBRANCH   7  10
ENDBRANCH   4   7
ENDBRANCH   2   3
ENDBRANCH   1   2
BRANCH   1  26
ATOM     26  C   UNL     1       0.654   2.904  -2.330  1.00  0.00     0.023 C 
BRANCH  26  27
ATOM     27  C   UNL     1       1.782   3.827  -2.763  1.00  0.00     0.116 C 
BRANCH  27  28
ATOM     28  N   UNL     1       2.765   3.164  -3.609  1.00  0.00    -0.352 N 
ATOM     29  C   UNL     1       3.250   3.540  -4.839  1.00  0.00     0.251 C 
ATOM     30  H   UNL     1       3.135   2.327  -3.247  1.00  0.00     0.163 HD
ATOM     31  O   UNL     1       3.978   2.781  -5.471  1.00  0.00    -0.269 OA
BRANCH  29  32
ATOM     32  C   UNL     1       2.856   4.846  -5.406  1.00  0.00     0.039 A 
ATOM     33  C   UNL     1       2.403   4.903  -6.726  1.00  0.00     0.014 A 
ATOM     34  C   UNL     1       2.880   5.997  -4.615  1.00  0.00     0.014 A 
ATOM     35  C   UNL     1       1.883   6.100  -7.221  1.00  0.00     0.010 A 
ATOM     36  C   UNL     1       2.281   7.162  -5.081  1.00  0.00     0.010 A 
ATOM     37  C   UNL     1       1.768   7.223  -6.385  1.00  0.00    -0.014 A 
BRANCH  37  38
ATOM     38  C   UNL     1       1.087   8.461  -6.840  1.00  0.00     0.031 A 
ATOM     39  C   UNL     1       1.845   9.759  -6.909  1.00  0.00     0.074 A 
ATOM     40  C   UNL     1      -0.235   8.433  -7.105  1.00  0.00     0.049 A 
ATOM     41  N   UNL     1       1.404  10.955  -7.199  1.00  0.00    -0.248 NA
ATOM     42  C   UNL     1       3.279   9.711  -6.578  1.00  0.00     0.031 C 
ATOM     43  C   UNL     1      -1.093   7.247  -7.021  1.00  0.00     0.029 A 
ATOM     44  N   UNL     1      -1.093   9.433  -7.489  1.00  0.00    -0.354 N 
ATOM     45  C   UNL     1       2.497  11.803  -7.068  1.00  0.00     0.074 A 
ATOM     46  C   UNL     1       3.610  10.993  -6.622  1.00  0.00     0.031 C 
ATOM     47  C   UNL     1      -2.345   7.583  -7.372  1.00  0.00     0.029 A 
ATOM     48  C   UNL     1      -2.391   9.012  -7.662  1.00  0.00     0.049 A 
ATOM     49  H   UNL     1      -0.806  10.365  -7.627  1.00  0.00     0.167 HD
ATOM     50  C   UNL     1       2.574  13.132  -7.316  1.00  0.00     0.031 A 
ATOM     51  C   UNL     1      -3.497   9.699  -8.008  1.00  0.00     0.031 A 
ATOM     52  C   UNL     1       1.469  13.930  -7.776  1.00  0.00     0.049 A 
ATOM     53  C   UNL     1      -3.386  11.174  -8.277  1.00  0.00     0.074 A 
ATOM     54  C   UNL     1       1.461  15.270  -8.121  1.00  0.00     0.029 A 
ATOM     55  N   UNL     1       0.175  13.463  -7.952  1.00  0.00    -0.354 N 
ATOM     56  N   UNL     1      -2.326  11.944  -8.217  1.00  0.00    -0.248 NA
ATOM     57  C   UNL     1      -4.619  11.871  -8.665  1.00  0.00     0.031 C 
ATOM     58  C   UNL     1       0.151  15.625  -8.458  1.00  0.00     0.029 A 
ATOM     59  C   UNL     1      -0.646  14.495  -8.375  1.00  0.00     0.049 A 
ATOM     60  H   UNL     1      -0.116  12.535  -7.800  1.00  0.00     0.167 HD
ATOM     61  C   UNL     1      -2.761  13.214  -8.577  1.00  0.00     0.074 A 
ATOM     62  C   UNL     1      -4.175  13.104  -8.873  1.00  0.00     0.031 C 
ATOM     63  C   UNL     1      -2.054  14.368  -8.654  1.00  0.00     0.031 A 
BRANCH  50  64
ATOM     64  C   UNL     1       3.903  13.804  -7.093  1.00  0.00    -0.014 A 
ATOM     65  C   UNL     1       4.996  13.550  -7.942  1.00  0.00     0.010 A 
ATOM     66  C   UNL     1       4.054  14.726  -6.042  1.00  0.00     0.010 A 
ATOM     67  C   UNL     1       6.227  14.171  -7.717  1.00  0.00     0.020 A 
ATOM     68  C   UNL     1       5.276  15.372  -5.831  1.00  0.00     0.020 A 
ATOM     69  C   UNL     1       6.360  15.075  -6.659  1.00  0.00     0.054 A 
BRANCH  69  70
ATOM     70  S   UNL     1       7.964  15.881  -6.402  1.00  0.00     0.124 S 
ATOM     71  O   UNL     1       8.761  14.790  -5.844  1.00  0.00    -0.237 OA
ATOM     72  O   UNL     1       8.333  16.301  -7.751  1.00  0.00    -0.237 OA
ATOM     73  O   UNL     1       7.662  16.968  -5.474  1.00  0.00    -0.744 OA
ENDBRANCH  69  70
ENDBRANCH  50  64
BRANCH  51  74
ATOM     74  C   UNL     1      -4.802   8.994  -8.131  1.00  0.00    -0.014 A 
ATOM     75  C   UNL     1      -5.379   8.779  -9.395  1.00  0.00     0.010 A 
ATOM     76  C   UNL     1      -5.466   8.518  -6.986  1.00  0.00     0.010 A 
ATOM     77  C   UNL     1      -6.603   8.113  -9.511  1.00  0.00     0.020 A 
ATOM     78  C   UNL     1      -6.677   7.829  -7.100  1.00  0.00     0.020 A 
ATOM     79  C   UNL     1      -7.243   7.640  -8.363  1.00  0.00     0.054 A 
BRANCH  79  80
ATOM     80  S   UNL     1      -8.802   6.729  -8.541  1.00  0.00     0.124 S 
ATOM     81  O   UNL     1      -9.746   7.799  -8.842  1.00  0.00    -0.237 OA
ATOM     82  O   UNL     1      -8.509   5.814  -9.642  1.00  0.00    -0.237 OA
ATOM     83  O   UNL     1      -8.973   6.088  -7.239  1.00  0.00    -0.744 OA
ENDBRANCH  79  80
ENDBRANCH  51  74
BRANCH  63  84
ATOM     84  C   UNL     1      -2.796  15.603  -9.086  1.00  0.00    -0.014 A 
ATOM     85  C   UNL     1      -3.703  16.243  -8.223  1.00  0.00     0.010 A 
ATOM     86  C   UNL     1      -2.543  16.161 -10.353  1.00  0.00     0.010 A 
ATOM     87  C   UNL     1      -4.365  17.403  -8.630  1.00  0.00     0.020 A 
ATOM     88  C   UNL     1      -3.183  17.336 -10.753  1.00  0.00     0.020 A 
ATOM     89  C   UNL     1      -4.101  17.942  -9.893  1.00  0.00     0.054 A 
BRANCH  89  90
ATOM     90  S   UNL     1      -4.940  19.475 -10.380  1.00  0.00     0.124 S 
ATOM     91  O   UNL     1      -6.294  19.004 -10.660  1.00  0.00    -0.237 OA
ATOM     92  O   UNL     1      -4.799  20.310  -9.190  1.00  0.00    -0.237 OA
ATOM     93  O   UNL     1      -4.184  19.928 -11.545  1.00  0.00    -0.744 OA
ENDBRANCH  89  90
ENDBRANCH  63  84
ENDBRANCH  37  38
ENDBRANCH  29  32
ENDBRANCH  27  28
ENDBRANCH  26  27
ENDBRANCH   1  26
TORSDOF 18
