REMARK SMILES CC[NH+]1CC[NH+]([C@@H]2CC(=O)N(c3ccc(C(=O)NCCCCNC(=O)c4ccc(-c5c6nc(c(-c7ccc(S(=O)(=O)[O-])cc7)c7ccc([nH]7)c(-c7ccc(S(=O)(=O)[O-])cc7)c7nc(c(-c8ccc(S(=O)(=O)[O-])cc8)c8ccc5[nH]8)C=C7)C=C6)cc4)cc3)C2=O)CC1
REMARK SMILES IDX 20 1 19 2 18 3 16 4 17 5 15 7 12 8 13 9 87 10 14 11 86 12
REMARK SMILES IDX 11 13 7 14 8 15 88 16 9 17 89 18 10 19 6 20 3 21 4 22 91 23
REMARK SMILES IDX 5 25 90 26 2 28 1 29 21 30 22 31 23 32 24 33 25 35 26 36
REMARK SMILES IDX 27 37 85 38 28 39 84 40 29 41 30 42 31 43 78 44 32 45 83 46
REMARK SMILES IDX 77 47 79 48 33 49 82 50 76 51 75 52 34 54 64 55 45 56 63 57
REMARK SMILES IDX 46 58 49 59 62 60 80 61 47 62 48 63 61 65 81 66 50 67 35 68
REMARK SMILES IDX 36 69 44 70 37 71 43 72 38 73 39 74 40 75 41 76 42 77 65 78
REMARK SMILES IDX 66 79 74 80 67 81 73 82 68 83 69 84 70 85 71 86 72 87 51 88
REMARK SMILES IDX 52 89 60 90 53 91 59 92 54 93 55 94 56 95 57 96 58 97
REMARK H PARENT 18 6 3 24 6 27 23 34 79 53 49 64
REMARK Flexibility Score: inf
ROOT
ATOM      1  C   UNL     1       7.054  -5.694  -8.884  1.00  0.00     0.023 C 
ENDROOT
BRANCH   1   2
ATOM      2  C   UNL     1       5.769  -6.205  -8.225  1.00  0.00     0.116 C 
BRANCH   2   3
ATOM      3  N   UNL     1       6.046  -6.760  -6.916  1.00  0.00    -0.352 N 
ATOM      4  C   UNL     1       6.069  -6.201  -5.664  1.00  0.00     0.251 C 
ATOM      5  O   UNL     1       6.303  -6.953  -4.716  1.00  0.00    -0.269 OA
ATOM      6  H   UNL     1       6.259  -7.721  -6.927  1.00  0.00     0.163 HD
BRANCH   4   7
ATOM      7  C   UNL     1       5.793  -4.758  -5.385  1.00  0.00     0.039 A 
ATOM      8  C   UNL     1       5.197  -2.085  -4.671  1.00  0.00     0.052 A 
ATOM      9  C   UNL     1       5.213  -3.091  -3.699  1.00  0.00     0.027 A 
ATOM     10  C   UNL     1       5.513  -2.415  -5.986  1.00  0.00     0.027 A 
ATOM     11  C   UNL     1       5.477  -4.417  -4.060  1.00  0.00     0.016 A 
ATOM     12  C   UNL     1       5.854  -3.727  -6.323  1.00  0.00     0.016 A 
BRANCH   8  13
ATOM     13  N   UNL     1       4.846  -0.764  -4.337  1.00  0.00    -0.245 N 
ATOM     14  C   UNL     1       4.523   1.185  -3.072  1.00  0.00     0.285 C 
ATOM     15  C   UNL     1       3.801   1.324  -4.405  1.00  0.00     0.176 C 
ATOM     16  C   UNL     1       5.298  -0.119  -3.212  1.00  0.00     0.292 C 
ATOM     17  C   UNL     1       4.009   0.013  -5.095  1.00  0.00     0.240 C 
ATOM     18  O   UNL     1       6.161  -0.499  -2.430  1.00  0.00    -0.267 OA
ATOM     19  O   UNL     1       3.463  -0.265  -6.155  1.00  0.00    -0.274 OA
BRANCH  14  20
ATOM     20  N   UNL     1       3.749   1.195  -1.819  1.00  0.00    -0.315 N 
ATOM     21  N   UNL     1       0.753   1.218  -1.618  1.00  0.00    -0.326 N 
ATOM     22  C   UNL     1       1.510   2.436  -1.968  1.00  0.00     0.324 C 
ATOM     23  C   UNL     1       1.508   0.023  -2.005  1.00  0.00     0.324 C 
ATOM     24  H   UNL     1      -0.103   1.157  -2.170  1.00  0.00     0.348 HD
ATOM     25  C   UNL     1       3.001   2.427  -1.539  1.00  0.00     0.325 C 
ATOM     26  C   UNL     1       2.961  -0.002  -1.499  1.00  0.00     0.325 C 
ATOM     27  H   UNL     1       4.527   1.171  -1.159  1.00  0.00     0.349 HD
BRANCH  21  28
ATOM     28  C   UNL     1       0.227   1.272  -0.247  1.00  0.00     0.259 C 
ATOM     29  C   UNL     1       0.307   0.034   0.644  1.00  0.00     0.071 C 
ENDBRANCH  21  28
ENDBRANCH  14  20
ENDBRANCH   8  13
ENDBRANCH   4   7
ENDBRANCH   2   3
ENDBRANCH   1   2
BRANCH   1  30
ATOM     30  C   UNL     1       7.879  -6.778  -9.578  1.00  0.00     0.023 C 
BRANCH  30  31
ATOM     31  C   UNL     1       7.186  -7.448 -10.758  1.00  0.00     0.116 C 
BRANCH  31  32
ATOM     32  N   UNL     1       6.772  -6.511 -11.792  1.00  0.00    -0.352 N 
ATOM     33  C   UNL     1       6.646  -6.740 -13.142  1.00  0.00     0.251 C 
ATOM     34  H   UNL     1       6.554  -5.600 -11.487  1.00  0.00     0.163 HD
ATOM     35  O   UNL     1       6.380  -5.824 -13.908  1.00  0.00    -0.269 OA
BRANCH  33  36
ATOM     36  C   UNL     1       6.892  -8.104 -13.653  1.00  0.00     0.039 A 
ATOM     37  C   UNL     1       7.834  -8.279 -14.668  1.00  0.00     0.014 A 
ATOM     38  C   UNL     1       6.250  -9.203 -13.078  1.00  0.00     0.014 A 
ATOM     39  C   UNL     1       8.193  -9.571 -15.053  1.00  0.00     0.010 A 
ATOM     40  C   UNL     1       6.654 -10.489 -13.419  1.00  0.00     0.010 A 
ATOM     41  C   UNL     1       7.639 -10.684 -14.400  1.00  0.00    -0.014 A 
BRANCH  41  42
ATOM     42  C   UNL     1       8.105 -12.059 -14.698  1.00  0.00     0.031 A 
ATOM     43  C   UNL     1       7.172 -13.057 -15.320  1.00  0.00     0.074 A 
ATOM     44  C   UNL     1       9.349 -12.427 -14.331  1.00  0.00     0.049 A 
ATOM     45  N   UNL     1       7.381 -14.319 -15.593  1.00  0.00    -0.248 NA
ATOM     46  C   UNL     1       5.821 -12.583 -15.660  1.00  0.00     0.031 C 
ATOM     47  C   UNL     1      10.331 -11.560 -13.673  1.00  0.00     0.029 A 
ATOM     48  N   UNL     1       9.997 -13.631 -14.448  1.00  0.00    -0.354 N 
ATOM     49  C   UNL     1       6.187 -14.794 -16.121  1.00  0.00     0.074 A 
ATOM     50  C   UNL     1       5.245 -13.696 -16.092  1.00  0.00     0.031 C 
ATOM     51  C   UNL     1      11.461 -12.255 -13.464  1.00  0.00     0.029 A 
ATOM     52  C   UNL     1      11.274 -13.622 -13.939  1.00  0.00     0.049 A 
ATOM     53  H   UNL     1       9.586 -14.425 -14.859  1.00  0.00     0.167 HD
ATOM     54  C   UNL     1       5.905 -16.029 -16.600  1.00  0.00     0.031 A 
ATOM     55  C   UNL     1      12.189 -14.606 -13.854  1.00  0.00     0.031 A 
ATOM     56  C   UNL     1       6.847 -17.116 -16.635  1.00  0.00     0.049 A 
ATOM     57  C   UNL     1      11.852 -15.968 -14.392  1.00  0.00     0.074 A 
ATOM     58  C   UNL     1       6.677 -18.385 -17.158  1.00  0.00     0.029 A 
ATOM     59  N   UNL     1       8.135 -17.063 -16.123  1.00  0.00    -0.354 N 
ATOM     60  N   UNL     1      10.739 -16.379 -14.952  1.00  0.00    -0.248 NA
ATOM     61  C   UNL     1      12.896 -16.997 -14.294  1.00  0.00     0.031 C 
ATOM     62  C   UNL     1       7.847 -19.115 -16.923  1.00  0.00     0.029 A 
ATOM     63  C   UNL     1       8.763 -18.285 -16.296  1.00  0.00     0.049 A 
ATOM     64  H   UNL     1       8.542 -16.274 -15.699  1.00  0.00     0.167 HD
ATOM     65  C   UNL     1      10.956 -17.709 -15.290  1.00  0.00     0.074 A 
ATOM     66  C   UNL     1      12.311 -18.029 -14.887  1.00  0.00     0.031 C 
ATOM     67  C   UNL     1      10.109 -18.588 -15.881  1.00  0.00     0.031 A 
BRANCH  54  68
ATOM     68  C   UNL     1       4.515 -16.268 -17.124  1.00  0.00    -0.014 A 
ATOM     69  C   UNL     1       4.090 -15.694 -18.336  1.00  0.00     0.010 A 
ATOM     70  C   UNL     1       3.634 -17.103 -16.415  1.00  0.00     0.010 A 
ATOM     71  C   UNL     1       2.795 -15.918 -18.809  1.00  0.00     0.020 A 
ATOM     72  C   UNL     1       2.345 -17.350 -16.898  1.00  0.00     0.020 A 
ATOM     73  C   UNL     1       1.929 -16.741 -18.084  1.00  0.00     0.054 A 
BRANCH  73  74
ATOM     74  S   UNL     1       0.259 -17.031 -18.731  1.00  0.00     0.124 S 
ATOM     75  O   UNL     1      -0.404 -15.765 -18.427  1.00  0.00    -0.237 OA
ATOM     76  O   UNL     1       0.502 -17.288 -20.148  1.00  0.00    -0.237 OA
ATOM     77  O   UNL     1      -0.214 -18.181 -17.965  1.00  0.00    -0.744 OA
ENDBRANCH  73  74
ENDBRANCH  54  68
BRANCH  55  78
ATOM     78  C   UNL     1      13.518 -14.332 -13.246  1.00  0.00    -0.014 A 
ATOM     79  C   UNL     1      14.665 -14.243 -14.054  1.00  0.00     0.010 A 
ATOM     80  C   UNL     1      13.640 -14.139 -11.858  1.00  0.00     0.010 A 
ATOM     81  C   UNL     1      15.914 -13.980 -13.483  1.00  0.00     0.020 A 
ATOM     82  C   UNL     1      14.883 -13.852 -11.287  1.00  0.00     0.020 A 
ATOM     83  C   UNL     1      16.015 -13.784 -12.103  1.00  0.00     0.054 A 
BRANCH  83  84
ATOM     84  S   UNL     1      17.635 -13.386 -11.390  1.00  0.00     0.124 S 
ATOM     85  O   UNL     1      18.296 -14.687 -11.393  1.00  0.00    -0.237 OA
ATOM     86  O   UNL     1      18.165 -12.404 -12.333  1.00  0.00    -0.237 OA
ATOM     87  O   UNL     1      17.304 -12.853 -10.070  1.00  0.00    -0.744 OA
ENDBRANCH  83  84
ENDBRANCH  55  78
BRANCH  67  88
ATOM     88  C   UNL     1      10.629 -19.974 -16.144  1.00  0.00    -0.014 A 
ATOM     89  C   UNL     1      10.791 -20.898 -15.096  1.00  0.00     0.010 A 
ATOM     90  C   UNL     1      10.914 -20.372 -17.462  1.00  0.00     0.010 A 
ATOM     91  C   UNL     1      11.257 -22.188 -15.359  1.00  0.00     0.020 A 
ATOM     92  C   UNL     1      11.357 -21.670 -17.732  1.00  0.00     0.020 A 
ATOM     93  C   UNL     1      11.539 -22.565 -16.676  1.00  0.00     0.054 A 
BRANCH  93  94
ATOM     94  S   UNL     1      12.101 -24.259 -16.999  1.00  0.00     0.124 S 
ATOM     95  O   UNL     1      13.493 -24.205 -16.563  1.00  0.00    -0.237 OA
ATOM     96  O   UNL     1      11.210 -25.060 -16.163  1.00  0.00    -0.237 OA
ATOM     97  O   UNL     1      11.905 -24.420 -18.439  1.00  0.00    -0.744 OA
ENDBRANCH  93  94
ENDBRANCH  67  88
ENDBRANCH  41  42
ENDBRANCH  33  36
ENDBRANCH  31  32
ENDBRANCH  30  31
ENDBRANCH   1  30
TORSDOF 17
