REMARK SMILES O=C(NCCCCNC(=O)[C@@]1([NH2+]C2CC2)CCC[C@@H]([NH+]2CCS(=O)(=O)CC2)C1)c1ccc(-c2c3nc(c(-c4ccc(S(=O)(=O)[O-])cc4)c4ccc([nH]4)c(-c4ccc(S(=O)(=O)[O-])cc4)c4nc(c(-c5ccc(S(=O)(=O)[O-])cc5)c5ccc2[nH]5)C=C4)C=C3)cc1
REMARK SMILES IDX 5 1 4 2 3 3 1 4 2 5 29 7 30 8 88 9 31 10 87 11 32 12 33 13
REMARK SMILES IDX 34 14 81 15 35 16 86 17 80 18 82 19 36 20 85 21 79 22 78 23
REMARK SMILES IDX 37 25 67 26 48 27 66 28 49 29 52 30 65 31 83 32 50 33 51 34
REMARK SMILES IDX 64 36 84 37 53 38 38 39 39 40 47 41 40 42 46 43 41 44 42 45
REMARK SMILES IDX 43 46 44 47 45 48 68 49 69 50 77 51 70 52 76 53 71 54 72 55
REMARK SMILES IDX 73 56 74 57 75 58 54 59 55 60 63 61 56 62 62 63 57 64 58 65
REMARK SMILES IDX 59 66 60 67 61 68 6 69 7 70 8 71 9 72 10 74 11 75 16 76
REMARK SMILES IDX 28 77 17 78 19 79 18 80 12 81 13 84 14 85 15 86 20 87 21 88
REMARK SMILES IDX 27 89 22 91 26 92 23 93 24 94 25 95
REMARK H PARENT 3 6 82 24 52 35 8 73 12 82 12 83 20 90
REMARK Flexibility Score: inf
ROOT
ATOM      1  C   UNL     1       5.154  -0.089   2.369  1.00  0.00     0.023 C 
ENDROOT
BRANCH   1   2
ATOM      2  C   UNL     1       4.755  -0.700   1.029  1.00  0.00     0.116 C 
BRANCH   2   3
ATOM      3  N   UNL     1       3.313  -0.789   0.853  1.00  0.00    -0.352 N 
ATOM      4  O   UNL     1       1.268  -0.213   0.106  1.00  0.00    -0.269 OA
ATOM      5  C   UNL     1       2.486  -0.105  -0.005  1.00  0.00     0.251 C 
ATOM      6  H   UNL     1       2.861  -1.439   1.438  1.00  0.00     0.163 HD
BRANCH   5   7
ATOM      7  C   UNL     1       3.061   0.780  -1.041  1.00  0.00     0.039 A 
ATOM      8  C   UNL     1       4.116   0.348  -1.848  1.00  0.00     0.014 A 
ATOM      9  C   UNL     1       2.527   2.060  -1.209  1.00  0.00     0.014 A 
ATOM     10  C   UNL     1       4.736   1.242  -2.716  1.00  0.00     0.010 A 
ATOM     11  C   UNL     1       3.097   2.929  -2.142  1.00  0.00     0.010 A 
ATOM     12  C   UNL     1       4.227   2.539  -2.879  1.00  0.00    -0.014 A 
BRANCH  12  13
ATOM     13  C   UNL     1       4.843   3.470  -3.858  1.00  0.00     0.031 A 
ATOM     14  C   UNL     1       5.476   4.756  -3.403  1.00  0.00     0.074 A 
ATOM     15  C   UNL     1       4.794   3.168  -5.169  1.00  0.00     0.049 A 
ATOM     16  N   UNL     1       5.970   5.731  -4.123  1.00  0.00    -0.248 NA
ATOM     17  C   UNL     1       5.553   4.981  -1.952  1.00  0.00     0.031 C 
ATOM     18  C   UNL     1       4.214   1.946  -5.731  1.00  0.00     0.029 A 
ATOM     19  N   UNL     1       5.220   3.870  -6.268  1.00  0.00    -0.354 N 
ATOM     20  C   UNL     1       6.388   6.699  -3.217  1.00  0.00     0.074 A 
ATOM     21  C   UNL     1       6.070   6.200  -1.896  1.00  0.00     0.031 C 
ATOM     22  C   UNL     1       4.324   1.982  -7.066  1.00  0.00     0.029 A 
ATOM     23  C   UNL     1       4.915   3.256  -7.459  1.00  0.00     0.049 A 
ATOM     24  H   UNL     1       5.698   4.729  -6.209  1.00  0.00     0.167 HD
ATOM     25  C   UNL     1       6.978   7.894  -3.467  1.00  0.00     0.031 A 
ATOM     26  C   UNL     1       5.049   3.682  -8.729  1.00  0.00     0.031 A 
ATOM     27  C   UNL     1       7.270   8.384  -4.790  1.00  0.00     0.049 A 
ATOM     28  C   UNL     1       5.656   5.029  -8.989  1.00  0.00     0.074 A 
ATOM     29  C   UNL     1       7.896   9.565  -5.151  1.00  0.00     0.029 A 
ATOM     30  N   UNL     1       6.940   7.731  -5.970  1.00  0.00    -0.354 N 
ATOM     31  N   UNL     1       6.080   5.917  -8.121  1.00  0.00    -0.248 NA
ATOM     32  C   UNL     1       5.810   5.433 -10.392  1.00  0.00     0.031 C 
ATOM     33  C   UNL     1       7.881   9.658  -6.546  1.00  0.00     0.029 A 
ATOM     34  C   UNL     1       7.320   8.498  -7.059  1.00  0.00     0.049 A 
ATOM     35  H   UNL     1       6.501   6.851  -6.024  1.00  0.00     0.167 HD
ATOM     36  C   UNL     1       6.580   6.973  -8.873  1.00  0.00     0.074 A 
ATOM     37  C   UNL     1       6.405   6.613 -10.266  1.00  0.00     0.031 C 
ATOM     38  C   UNL     1       7.144   8.129  -8.443  1.00  0.00     0.031 A 
BRANCH  25  39
ATOM     39  C   UNL     1       7.289   8.777  -2.284  1.00  0.00    -0.014 A 
ATOM     40  C   UNL     1       8.266   8.426  -1.335  1.00  0.00     0.010 A 
ATOM     41  C   UNL     1       6.588   9.987  -2.122  1.00  0.00     0.010 A 
ATOM     42  C   UNL     1       8.483   9.229  -0.210  1.00  0.00     0.020 A 
ATOM     43  C   UNL     1       6.826  10.811  -1.018  1.00  0.00     0.020 A 
ATOM     44  C   UNL     1       7.752  10.410  -0.053  1.00  0.00     0.054 A 
BRANCH  44  45
ATOM     45  S   UNL     1       8.024  11.413   1.434  1.00  0.00     0.124 S 
ATOM     46  O   UNL     1       7.389  10.597   2.466  1.00  0.00    -0.237 OA
ATOM     47  O   UNL     1       9.480  11.493   1.505  1.00  0.00    -0.237 OA
ATOM     48  O   UNL     1       7.348  12.672   1.133  1.00  0.00    -0.744 OA
ENDBRANCH  44  45
ENDBRANCH  25  39
BRANCH  26  49
ATOM     49  C   UNL     1       4.567   2.810  -9.833  1.00  0.00    -0.014 A 
ATOM     50  C   UNL     1       5.475   2.130 -10.660  1.00  0.00     0.010 A 
ATOM     51  C   UNL     1       3.186   2.580  -9.995  1.00  0.00     0.010 A 
ATOM     52  C   UNL     1       5.012   1.226 -11.622  1.00  0.00     0.020 A 
ATOM     53  C   UNL     1       2.722   1.656 -10.934  1.00  0.00     0.020 A 
ATOM     54  C   UNL     1       3.640   0.985 -11.743  1.00  0.00     0.054 A 
BRANCH  54  55
ATOM     55  S   UNL     1       3.075  -0.272 -12.923  1.00  0.00     0.124 S 
ATOM     56  O   UNL     1       3.320   0.382 -14.204  1.00  0.00    -0.237 OA
ATOM     57  O   UNL     1       3.943  -1.405 -12.614  1.00  0.00    -0.237 OA
ATOM     58  O   UNL     1       1.668  -0.461 -12.575  1.00  0.00    -0.744 OA
ENDBRANCH  54  55
ENDBRANCH  26  49
BRANCH  38  59
ATOM     59  C   UNL     1       7.668   9.085  -9.482  1.00  0.00    -0.014 A 
ATOM     60  C   UNL     1       6.804   9.873 -10.260  1.00  0.00     0.010 A 
ATOM     61  C   UNL     1       9.059   9.274  -9.595  1.00  0.00     0.010 A 
ATOM     62  C   UNL     1       7.322  10.835 -11.133  1.00  0.00     0.020 A 
ATOM     63  C   UNL     1       9.579  10.251 -10.445  1.00  0.00     0.020 A 
ATOM     64  C   UNL     1       8.706  11.026 -11.211  1.00  0.00     0.054 A 
BRANCH  64  65
ATOM     65  S   UNL     1       9.347  12.349 -12.274  1.00  0.00     0.124 S 
ATOM     66  O   UNL     1       9.103  11.812 -13.610  1.00  0.00    -0.237 OA
ATOM     67  O   UNL     1       8.520  13.491 -11.895  1.00  0.00    -0.237 OA
ATOM     68  O   UNL     1      10.754  12.451 -11.892  1.00  0.00    -0.744 OA
ENDBRANCH  64  65
ENDBRANCH  38  59
ENDBRANCH  12  13
ENDBRANCH   5   7
ENDBRANCH   2   3
ENDBRANCH   1   2
BRANCH   1  69
ATOM     69  C   UNL     1       4.690  -0.853   3.607  1.00  0.00     0.023 C 
BRANCH  69  70
ATOM     70  C   UNL     1       4.980  -2.349   3.610  1.00  0.00     0.116 C 
BRANCH  70  71
ATOM     71  N   UNL     1       6.387  -2.685   3.513  1.00  0.00    -0.351 N 
ATOM     72  C   UNL     1       7.010  -3.859   3.852  1.00  0.00     0.281 C 
ATOM     73  H   UNL     1       6.972  -1.977   3.158  1.00  0.00     0.163 HD
ATOM     74  O   UNL     1       8.165  -4.015   3.439  1.00  0.00    -0.268 OA
BRANCH  72  75
ATOM     75  C   UNL     1       6.362  -4.885   4.843  1.00  0.00     0.181 C 
ATOM     76  C   UNL     1       7.198  -6.182   4.920  1.00  0.00     0.079 C 
ATOM     77  C   UNL     1       6.460  -4.176   6.226  1.00  0.00     0.144 C 
ATOM     78  C   UNL     1       6.724  -7.104   6.039  1.00  0.00     0.013 C 
ATOM     79  C   UNL     1       6.369  -5.026   7.511  1.00  0.00     0.190 C 
ATOM     80  C   UNL     1       6.979  -6.439   7.381  1.00  0.00     0.065 C 
BRANCH  75  81
ATOM     81  N   UNL     1       4.952  -5.189   4.516  1.00  0.00    -0.331 N 
ATOM     82  H   UNL     1       4.411  -4.367   4.785  1.00  0.00     0.347 HD
ATOM     83  H   UNL     1       4.795  -6.064   5.015  1.00  0.00     0.347 HD
BRANCH  81  84
ATOM     84  C   UNL     1       4.537  -5.527   3.150  1.00  0.00     0.183 C 
ATOM     85  C   UNL     1       5.451  -5.773   1.984  1.00  0.00     0.071 C 
ATOM     86  C   UNL     1       4.713  -6.918   2.611  1.00  0.00     0.071 C 
ENDBRANCH  81  84
ENDBRANCH  75  81
BRANCH  79  87
ATOM     87  N   UNL     1       6.830  -4.343   8.754  1.00  0.00    -0.331 N 
ATOM     88  C   UNL     1       6.282  -3.008   9.027  1.00  0.00     0.278 C 
ATOM     89  C   UNL     1       8.250  -4.407   9.125  1.00  0.00     0.278 C 
ATOM     90  H   UNL     1       6.373  -4.997   9.389  1.00  0.00     0.348 HD
ATOM     91  C   UNL     1       6.930  -1.825   8.320  1.00  0.00     0.198 C 
ATOM     92  C   UNL     1       9.167  -3.566   8.267  1.00  0.00     0.198 C 
ATOM     93  S   UNL     1       8.706  -1.854   8.380  1.00  0.00     0.161 S 
ATOM     94  O   UNL     1       9.192  -1.194   7.181  1.00  0.00    -0.228 OA
ATOM     95  O   UNL     1       9.111  -1.382   9.690  1.00  0.00    -0.228 OA
ENDBRANCH  79  87
ENDBRANCH  72  75
ENDBRANCH  70  71
ENDBRANCH  69  70
ENDBRANCH   1  69
TORSDOF 17
