REMARK SMILES Cc1cccc(C[C@H](C(=O)NCCCCNC(=O)c2ccc(-c3c4nc(c(-c5ccc(S(=O)(=O)[O-])cc5)c5ccc([nH]5)c(-c5ccc(S(=O)(=O)[O-])cc5)c5nc(c(-c6ccc(S(=O)(=O)[O-])cc6)c6ccc3[nH]6)C=C5)C=C4)cc2)[C@@H]2CCCC[C@@H]2O)c1
REMARK SMILES IDX 14 1 13 2 12 3 11 4 9 5 10 6 8 8 7 9 6 10 1 11 2 12 3 13
REMARK SMILES IDX 86 14 4 15 5 16 79 17 80 18 84 19 81 20 83 21 82 22 85 23
REMARK SMILES IDX 15 25 16 26 17 27 18 29 19 30 20 31 78 32 21 33 77 34 22 35
REMARK SMILES IDX 23 36 24 37 71 38 25 39 76 40 70 41 72 42 26 43 75 44 69 45
REMARK SMILES IDX 68 46 27 48 57 49 38 50 56 51 39 52 42 53 55 54 73 55 40 56
REMARK SMILES IDX 41 57 54 59 74 60 43 61 28 62 29 63 37 64 30 65 36 66 31 67
REMARK SMILES IDX 32 68 33 69 34 70 35 71 58 72 59 73 67 74 60 75 66 76 61 77
REMARK SMILES IDX 62 78 63 79 64 80 65 81 44 82 45 83 53 84 46 85 52 86 47 87
REMARK SMILES IDX 48 88 49 89 50 90 51 91
REMARK H PARENT 11 7 85 24 16 28 72 47 42 58
REMARK Flexibility Score: inf
ROOT
ATOM      1  C   UNL     1      -6.553   3.689   5.199  1.00  0.00     0.023 C 
ENDROOT
BRANCH   1   2
ATOM      2  C   UNL     1      -6.446   4.440   3.858  1.00  0.00     0.023 C 
BRANCH   2   3
ATOM      3  C   UNL     1      -6.682   3.579   2.588  1.00  0.00     0.116 C 
BRANCH   3   4
ATOM      4  N   UNL     1      -5.526   2.829   2.085  1.00  0.00    -0.356 N 
ATOM      5  C   UNL     1      -4.842   2.836   0.893  1.00  0.00     0.223 C 
ATOM      6  O   UNL     1      -4.165   1.826   0.658  1.00  0.00    -0.275 OA
ATOM      7  H   UNL     1      -5.164   2.187   2.738  1.00  0.00     0.163 HD
BRANCH   5   8
ATOM      8  C   UNL     1      -4.881   4.008  -0.134  1.00  0.00     0.088 C 
BRANCH   8   9
ATOM      9  C   UNL     1      -4.867   5.386   0.492  1.00  0.00     0.049 C 
BRANCH   9  10
ATOM     10  C   UNL     1      -3.848   5.684   1.552  1.00  0.00    -0.047 A 
ATOM     11  C   UNL     1      -3.947   8.369   4.133  1.00  0.00     0.044 C 
ATOM     12  C   UNL     1      -3.591   7.102   3.448  1.00  0.00    -0.051 A 
ATOM     13  C   UNL     1      -2.951   6.063   4.110  1.00  0.00     0.003 A 
ATOM     14  C   UNL     1      -4.002   6.928   2.145  1.00  0.00     0.007 A 
ATOM     15  C   UNL     1      -2.602   4.895   3.458  1.00  0.00     0.001 A 
ATOM     16  C   UNL     1      -3.008   4.729   2.147  1.00  0.00     0.004 A 
ENDBRANCH   9  10
ENDBRANCH   8   9
BRANCH   8  17
ATOM     17  C   UNL     1      -3.804   3.887  -1.310  1.00  0.00     0.030 C 
ATOM     18  C   UNL     1      -2.645   4.921  -1.415  1.00  0.00     0.007 C 
ATOM     19  C   UNL     1      -4.487   3.858  -2.692  1.00  0.00     0.118 C 
ATOM     20  C   UNL     1      -2.978   6.301  -2.003  1.00  0.00     0.001 C 
ATOM     21  C   UNL     1      -5.066   5.224  -3.057  1.00  0.00     0.032 C 
ATOM     22  C   UNL     1      -3.982   6.293  -3.155  1.00  0.00     0.003 C 
BRANCH  19  23
ATOM     23  O   UNL     1      -5.518   2.877  -2.725  1.00  0.00    -0.393 OA
ATOM     24  H   UNL     1      -6.199   3.102  -2.072  1.00  0.00     0.210 HD
ENDBRANCH  19  23
ENDBRANCH   8  17
ENDBRANCH   5   8
ENDBRANCH   3   4
ENDBRANCH   2   3
ENDBRANCH   1   2
BRANCH   1  25
ATOM     25  C   UNL     1      -5.593   4.126   6.318  1.00  0.00     0.116 C 
BRANCH  25  26
ATOM     26  N   UNL     1      -5.612   5.503   6.784  1.00  0.00    -0.352 N 
ATOM     27  C   UNL     1      -5.082   5.753   8.070  1.00  0.00     0.251 C 
ATOM     28  H   UNL     1      -5.978   6.229   6.228  1.00  0.00     0.163 HD
ATOM     29  O   UNL     1      -5.458   5.248   9.085  1.00  0.00    -0.269 OA
BRANCH  27  30
ATOM     30  C   UNL     1      -3.723   6.363   8.001  1.00  0.00     0.039 A 
ATOM     31  C   UNL     1      -3.420   7.703   8.241  1.00  0.00     0.014 A 
ATOM     32  C   UNL     1      -2.734   5.478   7.568  1.00  0.00     0.014 A 
ATOM     33  C   UNL     1      -2.141   8.181   7.901  1.00  0.00     0.010 A 
ATOM     34  C   UNL     1      -1.508   5.967   7.169  1.00  0.00     0.010 A 
ATOM     35  C   UNL     1      -1.220   7.330   7.287  1.00  0.00    -0.014 A 
BRANCH  35  36
ATOM     36  C   UNL     1       0.055   7.724   6.684  1.00  0.00     0.031 A 
ATOM     37  C   UNL     1       1.320   7.315   7.335  1.00  0.00     0.074 A 
ATOM     38  C   UNL     1       0.086   8.217   5.424  1.00  0.00     0.049 A 
ATOM     39  N   UNL     1       2.471   7.836   7.079  1.00  0.00    -0.248 NA
ATOM     40  C   UNL     1       1.381   6.257   8.343  1.00  0.00     0.031 C 
ATOM     41  C   UNL     1       1.221   8.288   4.502  1.00  0.00     0.029 A 
ATOM     42  N   UNL     1      -0.926   8.905   4.744  1.00  0.00    -0.354 N 
ATOM     43  C   UNL     1       3.421   6.995   7.612  1.00  0.00     0.074 A 
ATOM     44  C   UNL     1       2.699   6.078   8.460  1.00  0.00     0.031 C 
ATOM     45  C   UNL     1       0.959   9.207   3.555  1.00  0.00     0.029 A 
ATOM     46  C   UNL     1      -0.280   9.869   3.948  1.00  0.00     0.049 A 
ATOM     47  H   UNL     1      -1.895   8.747   4.810  1.00  0.00     0.167 HD
ATOM     48  C   UNL     1       4.701   7.036   7.154  1.00  0.00     0.031 A 
ATOM     49  C   UNL     1      -0.407  11.208   4.188  1.00  0.00     0.031 A 
ATOM     50  C   UNL     1       4.869   8.035   6.102  1.00  0.00     0.049 A 
ATOM     51  C   UNL     1       0.941  11.840   4.438  1.00  0.00     0.074 A 
ATOM     52  C   UNL     1       4.962   7.935   4.724  1.00  0.00     0.029 A 
ATOM     53  N   UNL     1       4.634   9.379   6.386  1.00  0.00    -0.354 N 
ATOM     54  N   UNL     1       1.945  11.210   4.988  1.00  0.00    -0.248 NA
ATOM     55  C   UNL     1       1.286  13.190   4.008  1.00  0.00     0.031 C 
ATOM     56  C   UNL     1       4.717   9.218   4.174  1.00  0.00     0.029 A 
ATOM     57  C   UNL     1       4.498  10.101   5.218  1.00  0.00     0.049 A 
ATOM     58  H   UNL     1       4.575   9.759   7.292  1.00  0.00     0.167 HD
ATOM     59  C   UNL     1       3.066  11.993   4.897  1.00  0.00     0.074 A 
ATOM     60  C   UNL     1       2.594  13.239   4.318  1.00  0.00     0.031 C 
ATOM     61  C   UNL     1       4.309  11.545   5.238  1.00  0.00     0.031 A 
BRANCH  48  62
ATOM     62  C   UNL     1       5.694   5.939   7.455  1.00  0.00    -0.014 A 
ATOM     63  C   UNL     1       6.608   5.526   6.466  1.00  0.00     0.010 A 
ATOM     64  C   UNL     1       5.754   5.261   8.689  1.00  0.00     0.010 A 
ATOM     65  C   UNL     1       7.481   4.447   6.663  1.00  0.00     0.020 A 
ATOM     66  C   UNL     1       6.598   4.155   8.889  1.00  0.00     0.020 A 
ATOM     67  C   UNL     1       7.457   3.753   7.870  1.00  0.00     0.054 A 
BRANCH  67  68
ATOM     68  S   UNL     1       8.567   2.337   8.083  1.00  0.00     0.124 S 
ATOM     69  O   UNL     1       8.221   1.490   6.944  1.00  0.00    -0.237 OA
ATOM     70  O   UNL     1       9.885   2.962   8.024  1.00  0.00    -0.237 OA
ATOM     71  O   UNL     1       8.193   1.796   9.388  1.00  0.00    -0.744 OA
ENDBRANCH  67  68
ENDBRANCH  48  62
BRANCH  49  72
ATOM     72  C   UNL     1      -1.696  11.626   4.823  1.00  0.00    -0.014 A 
ATOM     73  C   UNL     1      -2.866  11.683   4.035  1.00  0.00     0.010 A 
ATOM     74  C   UNL     1      -1.843  11.575   6.219  1.00  0.00     0.010 A 
ATOM     75  C   UNL     1      -4.140  11.523   4.615  1.00  0.00     0.020 A 
ATOM     76  C   UNL     1      -3.113  11.408   6.801  1.00  0.00     0.020 A 
ATOM     77  C   UNL     1      -4.243  11.299   5.989  1.00  0.00     0.054 A 
BRANCH  77  78
ATOM     78  S   UNL     1      -5.824  10.709   6.691  1.00  0.00     0.124 S 
ATOM     79  O   UNL     1      -6.800  11.601   6.072  1.00  0.00    -0.237 OA
ATOM     80  O   UNL     1      -5.878   9.319   6.243  1.00  0.00    -0.237 OA
ATOM     81  O   UNL     1      -5.641  10.875   8.130  1.00  0.00    -0.744 OA
ENDBRANCH  77  78
ENDBRANCH  49  72
BRANCH  61  82
ATOM     82  C   UNL     1       5.521  12.408   5.493  1.00  0.00    -0.014 A 
ATOM     83  C   UNL     1       5.463  13.791   5.715  1.00  0.00     0.010 A 
ATOM     84  C   UNL     1       6.779  11.782   5.683  1.00  0.00     0.010 A 
ATOM     85  C   UNL     1       6.606  14.521   6.064  1.00  0.00     0.020 A 
ATOM     86  C   UNL     1       7.914  12.491   6.079  1.00  0.00     0.020 A 
ATOM     87  C   UNL     1       7.823  13.865   6.251  1.00  0.00     0.054 A 
BRANCH  87  88
ATOM     88  S   UNL     1       9.258  14.811   6.811  1.00  0.00     0.124 S 
ATOM     89  O   UNL     1       9.740  15.392   5.561  1.00  0.00    -0.237 OA
ATOM     90  O   UNL     1       8.670  15.758   7.756  1.00  0.00    -0.237 OA
ATOM     91  O   UNL     1      10.125  13.801   7.411  1.00  0.00    -0.744 OA
ENDBRANCH  87  88
ENDBRANCH  61  82
ENDBRANCH  35  36
ENDBRANCH  27  30
ENDBRANCH  25  26
ENDBRANCH   1  25
TORSDOF 18
