REMARK SMILES Cc1ccc(C)c(-c2cc(C(=O)NCCCCNC(=O)c3ccc(-c4c5nc(c(-c6ccc(S(=O)(=O)[O-])cc6)c6ccc([nH]6)c(-c6ccc(S(=O)(=O)[O-])cc6)c6nc(c(-c7ccc(S(=O)(=O)[O-])cc7)c7ccc4[nH]7)C=C6)C=C5)cc3)c3cc(C)ccc3n2)c1
REMARK SMILES IDX 16 1 15 2 14 3 13 4 11 5 12 6 10 8 8 9 9 10 88 11 87 12
REMARK SMILES IDX 81 13 86 14 82 15 85 16 83 17 84 18 7 19 1 20 2 21 3 22
REMARK SMILES IDX 89 23 4 24 5 25 6 26 17 27 18 28 19 29 20 31 21 32 22 33
REMARK SMILES IDX 80 34 23 35 79 36 24 37 25 38 26 39 73 40 27 41 78 42 72 43
REMARK SMILES IDX 74 44 28 45 77 46 71 47 70 48 29 50 59 51 40 52 58 53 41 54
REMARK SMILES IDX 44 55 57 56 75 57 42 58 43 59 56 61 76 62 45 63 30 64 31 65
REMARK SMILES IDX 39 66 32 67 38 68 33 69 34 70 35 71 36 72 37 73 60 74 61 75
REMARK SMILES IDX 69 76 62 77 68 78 63 79 64 80 65 81 66 82 67 83 46 84 47 85
REMARK SMILES IDX 55 86 48 87 54 88 49 89 50 90 51 91 52 92 53 93
REMARK H PARENT 13 7 18 30 74 49 44 60
REMARK Flexibility Score: inf
ROOT
ATOM      1  C   UNL     1      -2.126  10.270  -1.246  1.00  0.00     0.023 C 
ENDROOT
BRANCH   1   2
ATOM      2  C   UNL     1      -1.930   9.062  -0.320  1.00  0.00     0.023 C 
BRANCH   2   3
ATOM      3  C   UNL     1      -2.551   7.705  -0.634  1.00  0.00     0.116 C 
BRANCH   3   4
ATOM      4  N   UNL     1      -2.107   6.967  -1.806  1.00  0.00    -0.352 N 
ATOM      5  C   UNL     1      -2.053   5.596  -2.047  1.00  0.00     0.252 C 
ATOM      6  O   UNL     1      -1.708   5.234  -3.173  1.00  0.00    -0.269 OA
ATOM      7  H   UNL     1      -1.793   7.529  -2.551  1.00  0.00     0.163 HD
BRANCH   5   8
ATOM      8  C   UNL     1      -2.279   4.539  -1.001  1.00  0.00     0.051 A 
ATOM      9  C   UNL     1      -1.448   2.520   0.012  1.00  0.00     0.072 A 
ATOM     10  C   UNL     1      -1.413   3.433  -1.034  1.00  0.00     0.043 A 
ATOM     11  N   UNL     1      -2.192   2.740   1.121  1.00  0.00    -0.248 NA
ATOM     12  C   UNL     1      -3.063   3.759   1.125  1.00  0.00     0.072 A 
ATOM     13  C   UNL     1      -3.244   4.610   0.023  1.00  0.00     0.013 A 
ATOM     14  C   UNL     1      -3.802   3.998   2.276  1.00  0.00     0.029 A 
ATOM     15  C   UNL     1      -4.350   5.484   0.030  1.00  0.00     0.014 A 
ATOM     16  C   UNL     1      -4.737   5.034   2.348  1.00  0.00     0.005 A 
ATOM     17  C   UNL     1      -5.038   5.773   1.209  1.00  0.00    -0.050 A 
ATOM     18  C   UNL     1      -5.953   6.960   1.262  1.00  0.00     0.044 C 
BRANCH   9  19
ATOM     19  C   UNL     1      -0.716   1.238  -0.005  1.00  0.00     0.003 A 
ATOM     20  C   UNL     1       2.927   0.026   0.005  1.00  0.00     0.044 C 
ATOM     21  C   UNL     1       1.427   0.028   0.004  1.00  0.00    -0.050 A 
ATOM     22  C   UNL     1       0.741  -1.188  -0.002  1.00  0.00     0.004 A 
ATOM     23  C   UNL     1       0.695   1.228   0.005  1.00  0.00     0.014 A 
ATOM     24  C   UNL     1      -0.651  -1.205  -0.013  1.00  0.00     0.004 A 
ATOM     25  C   UNL     1      -1.390  -0.008  -0.022  1.00  0.00    -0.042 A 
ATOM     26  C   UNL     1      -2.893  -0.137  -0.044  1.00  0.00     0.045 C 
ENDBRANCH   9  19
ENDBRANCH   5   8
ENDBRANCH   3   4
ENDBRANCH   2   3
ENDBRANCH   1   2
BRANCH   1  27
ATOM     27  C   UNL     1      -3.508  10.604  -1.808  1.00  0.00     0.116 C 
BRANCH  27  28
ATOM     28  N   UNL     1      -4.581  10.753  -0.818  1.00  0.00    -0.352 N 
ATOM     29  C   UNL     1      -5.964  10.678  -0.988  1.00  0.00     0.251 C 
ATOM     30  H   UNL     1      -4.281  10.932   0.102  1.00  0.00     0.163 HD
ATOM     31  O   UNL     1      -6.704  11.254  -0.204  1.00  0.00    -0.269 OA
BRANCH  29  32
ATOM     32  C   UNL     1      -6.534   9.887  -2.106  1.00  0.00     0.039 A 
ATOM     33  C   UNL     1      -7.799  10.121  -2.656  1.00  0.00     0.014 A 
ATOM     34  C   UNL     1      -5.762   8.855  -2.609  1.00  0.00     0.014 A 
ATOM     35  C   UNL     1      -8.219   9.341  -3.742  1.00  0.00     0.010 A 
ATOM     36  C   UNL     1      -6.050   8.280  -3.808  1.00  0.00     0.010 A 
ATOM     37  C   UNL     1      -7.324   8.424  -4.315  1.00  0.00    -0.014 A 
BRANCH  37  38
ATOM     38  C   UNL     1      -7.624   7.629  -5.494  1.00  0.00     0.031 A 
ATOM     39  C   UNL     1      -7.913   8.426  -6.702  1.00  0.00     0.074 A 
ATOM     40  C   UNL     1      -7.366   6.306  -5.593  1.00  0.00     0.049 A 
ATOM     41  N   UNL     1      -9.072   8.688  -7.202  1.00  0.00    -0.248 NA
ATOM     42  C   UNL     1      -6.804   9.165  -7.325  1.00  0.00     0.031 C 
ATOM     43  C   UNL     1      -6.689   5.428  -4.626  1.00  0.00     0.029 A 
ATOM     44  N   UNL     1      -7.554   5.482  -6.658  1.00  0.00    -0.354 N 
ATOM     45  C   UNL     1      -8.816   9.404  -8.362  1.00  0.00     0.074 A 
ATOM     46  C   UNL     1      -7.460   9.880  -8.241  1.00  0.00     0.031 C 
ATOM     47  C   UNL     1      -6.336   4.272  -5.232  1.00  0.00     0.029 A 
ATOM     48  C   UNL     1      -6.912   4.252  -6.564  1.00  0.00     0.049 A 
ATOM     49  H   UNL     1      -8.102   5.737  -7.436  1.00  0.00     0.167 HD
ATOM     50  C   UNL     1      -9.627   9.295  -9.452  1.00  0.00     0.031 A 
ATOM     51  C   UNL     1      -6.848   3.298  -7.525  1.00  0.00     0.031 A 
ATOM     52  C   UNL     1     -10.826   8.550  -9.140  1.00  0.00     0.049 A 
ATOM     53  C   UNL     1      -7.958   3.570  -8.473  1.00  0.00     0.074 A 
ATOM     54  C   UNL     1     -11.844   8.680  -8.215  1.00  0.00     0.029 A 
ATOM     55  N   UNL     1     -10.866   7.242  -9.571  1.00  0.00    -0.354 N 
ATOM     56  N   UNL     1      -9.219   3.458  -8.161  1.00  0.00    -0.248 NA
ATOM     57  C   UNL     1      -7.680   4.374  -9.652  1.00  0.00     0.031 C 
ATOM     58  C   UNL     1     -12.144   7.348  -7.803  1.00  0.00     0.029 A 
ATOM     59  C   UNL     1     -11.355   6.469  -8.550  1.00  0.00     0.049 A 
ATOM     60  H   UNL     1     -10.590   6.918 -10.459  1.00  0.00     0.167 HD
ATOM     61  C   UNL     1      -9.843   4.507  -8.819  1.00  0.00     0.074 A 
ATOM     62  C   UNL     1      -8.871   4.959  -9.811  1.00  0.00     0.031 C 
ATOM     63  C   UNL     1     -10.970   5.090  -8.310  1.00  0.00     0.031 A 
BRANCH  50  64
ATOM     64  C   UNL     1      -9.164   9.479 -10.878  1.00  0.00    -0.014 A 
ATOM     65  C   UNL     1     -10.118   9.376 -11.911  1.00  0.00     0.010 A 
ATOM     66  C   UNL     1      -7.809   9.499 -11.264  1.00  0.00     0.010 A 
ATOM     67  C   UNL     1      -9.731   9.226 -13.248  1.00  0.00     0.020 A 
ATOM     68  C   UNL     1      -7.412   9.399 -12.599  1.00  0.00     0.020 A 
ATOM     69  C   UNL     1      -8.377   9.226 -13.580  1.00  0.00     0.054 A 
BRANCH  69  70
ATOM     70  S   UNL     1      -7.883   8.942 -15.295  1.00  0.00     0.124 S 
ATOM     71  O   UNL     1      -8.270   7.548 -15.489  1.00  0.00    -0.237 OA
ATOM     72  O   UNL     1      -8.681   9.930 -16.014  1.00  0.00    -0.237 OA
ATOM     73  O   UNL     1      -6.444   9.199 -15.282  1.00  0.00    -0.744 OA
ENDBRANCH  69  70
ENDBRANCH  50  64
BRANCH  51  74
ATOM     74  C   UNL     1      -5.777   2.313  -7.816  1.00  0.00    -0.014 A 
ATOM     75  C   UNL     1      -6.003   1.263  -8.727  1.00  0.00     0.010 A 
ATOM     76  C   UNL     1      -4.446   2.569  -7.431  1.00  0.00     0.010 A 
ATOM     77  C   UNL     1      -4.933   0.558  -9.302  1.00  0.00     0.020 A 
ATOM     78  C   UNL     1      -3.373   1.862  -7.992  1.00  0.00     0.020 A 
ATOM     79  C   UNL     1      -3.621   0.881  -8.950  1.00  0.00     0.054 A 
BRANCH  79  80
ATOM     80  S   UNL     1      -2.243   0.116  -9.857  1.00  0.00     0.124 S 
ATOM     81  O   UNL     1      -2.266  -1.257  -9.361  1.00  0.00    -0.237 OA
ATOM     82  O   UNL     1      -2.644   0.289 -11.251  1.00  0.00    -0.237 OA
ATOM     83  O   UNL     1      -1.081   0.904  -9.450  1.00  0.00    -0.744 OA
ENDBRANCH  79  80
ENDBRANCH  51  74
BRANCH  63  84
ATOM     84  C   UNL     1     -11.757   4.350  -7.251  1.00  0.00    -0.014 A 
ATOM     85  C   UNL     1     -11.235   3.942  -6.008  1.00  0.00     0.010 A 
ATOM     86  C   UNL     1     -13.136   4.186  -7.481  1.00  0.00     0.010 A 
ATOM     87  C   UNL     1     -12.068   3.365  -5.036  1.00  0.00     0.020 A 
ATOM     88  C   UNL     1     -13.973   3.633  -6.511  1.00  0.00     0.020 A 
ATOM     89  C   UNL     1     -13.434   3.215  -5.295  1.00  0.00     0.054 A 
BRANCH  89  90
ATOM     90  S   UNL     1     -14.518   2.518  -4.017  1.00  0.00     0.124 S 
ATOM     91  O   UNL     1     -14.101   1.119  -3.975  1.00  0.00    -0.237 OA
ATOM     92  O   UNL     1     -14.183   3.311  -2.837  1.00  0.00    -0.237 OA
ATOM     93  O   UNL     1     -15.865   2.744  -4.540  1.00  0.00    -0.744 OA
ENDBRANCH  89  90
ENDBRANCH  63  84
ENDBRANCH  37  38
ENDBRANCH  29  32
ENDBRANCH  27  28
ENDBRANCH   1  27
TORSDOF 15
