REMARK SMILES O=C(NCCCCNC(=O)c1cc(S(=O)(=O)Nc2ccccc2-n2cc(Br)cn2)c[nH]1)c1ccc(-c2c3nc(c(-c4ccc(S(=O)(=O)[O-])cc4)c4ccc([nH]4)c(-c4ccc(S(=O)(=O)[O-])cc4)c4nc(c(-c5ccc(S(=O)(=O)[O-])cc5)c5ccc2[nH]5)C=C4)C=C3)cc1
REMARK SMILES IDX 6 1 5 2 4 3 3 4 1 5 2 6 32 8 33 9 91 10 34 11 90 12 35 13
REMARK SMILES IDX 36 14 37 15 84 16 38 17 89 18 83 19 85 20 39 21 88 22 82 23
REMARK SMILES IDX 81 24 40 26 70 27 51 28 69 29 52 30 55 31 68 32 86 33 53 34
REMARK SMILES IDX 54 35 67 37 87 38 56 39 41 40 42 41 50 42 43 43 49 44 44 45
REMARK SMILES IDX 45 46 46 47 47 48 48 49 71 50 72 51 80 52 73 53 79 54 74 55
REMARK SMILES IDX 75 56 76 57 77 58 78 59 57 60 58 61 66 62 59 63 65 64 60 65
REMARK SMILES IDX 61 66 62 67 63 68 64 69 7 70 8 71 9 72 10 74 11 75 12 76
REMARK SMILES IDX 31 77 13 78 30 79 14 81 15 82 16 83 17 84 18 86 19 87 23 88
REMARK SMILES IDX 20 89 22 90 21 91 24 92 25 93 29 94 26 95 28 96 27 97
REMARK H PARENT 3 7 85 25 55 36 8 73 31 80 17 85
REMARK Flexibility Score: inf
ROOT
ATOM      1  C   UNL     1       4.526   2.321  -2.376  1.00  0.00     0.023 C 
ENDROOT
BRANCH   1   2
ATOM      2  C   UNL     1       5.160   1.108  -1.710  1.00  0.00     0.023 C 
BRANCH   2   3
ATOM      3  C   UNL     1       4.834   0.943  -0.225  1.00  0.00     0.116 C 
BRANCH   3   4
ATOM      4  N   UNL     1       3.424   0.857   0.114  1.00  0.00    -0.352 N 
ATOM      5  O   UNL     1       1.358   0.106   0.435  1.00  0.00    -0.269 OA
ATOM      6  C   UNL     1       2.448  -0.083  -0.107  1.00  0.00     0.251 C 
ATOM      7  H   UNL     1       3.098   1.643   0.610  1.00  0.00     0.163 HD
BRANCH   6   8
ATOM      8  C   UNL     1       2.620  -1.252  -1.010  1.00  0.00     0.039 A 
ATOM      9  C   UNL     1       3.852  -1.842  -1.282  1.00  0.00     0.014 A 
ATOM     10  C   UNL     1       1.466  -1.786  -1.613  1.00  0.00     0.014 A 
ATOM     11  C   UNL     1       3.957  -2.847  -2.234  1.00  0.00     0.010 A 
ATOM     12  C   UNL     1       1.555  -2.838  -2.529  1.00  0.00     0.010 A 
ATOM     13  C   UNL     1       2.811  -3.356  -2.854  1.00  0.00    -0.014 A 
BRANCH  13  14
ATOM     14  C   UNL     1       2.998  -4.586  -3.656  1.00  0.00     0.031 A 
ATOM     15  C   UNL     1       3.217  -5.808  -2.750  1.00  0.00     0.074 A 
ATOM     16  C   UNL     1       3.114  -4.456  -5.012  1.00  0.00     0.049 A 
ATOM     17  N   UNL     1       3.992  -6.833  -2.925  1.00  0.00    -0.248 NA
ATOM     18  C   UNL     1       2.582  -5.838  -1.403  1.00  0.00     0.031 C 
ATOM     19  C   UNL     1       2.870  -3.205  -5.766  1.00  0.00     0.029 A 
ATOM     20  N   UNL     1       3.469  -5.321  -6.029  1.00  0.00    -0.354 N 
ATOM     21  C   UNL     1       3.830  -7.690  -1.813  1.00  0.00     0.074 A 
ATOM     22  C   UNL     1       3.030  -6.976  -0.865  1.00  0.00     0.031 C 
ATOM     23  C   UNL     1       3.143  -3.372  -7.081  1.00  0.00     0.029 A 
ATOM     24  C   UNL     1       3.584  -4.734  -7.317  1.00  0.00     0.049 A 
ATOM     25  H   UNL     1       3.632  -6.279  -5.871  1.00  0.00     0.167 HD
ATOM     26  C   UNL     1       4.274  -8.981  -1.791  1.00  0.00     0.031 A 
ATOM     27  C   UNL     1       4.036  -5.288  -8.484  1.00  0.00     0.031 A 
ATOM     28  C   UNL     1       4.936  -9.293  -3.010  1.00  0.00     0.049 A 
ATOM     29  C   UNL     1       4.303  -6.704  -8.193  1.00  0.00     0.074 A 
ATOM     30  C   UNL     1       6.149  -8.939  -3.539  1.00  0.00     0.029 A 
ATOM     31  N   UNL     1       4.149  -9.828  -4.002  1.00  0.00    -0.354 N 
ATOM     32  N   UNL     1       3.396  -7.615  -8.030  1.00  0.00    -0.248 NA
ATOM     33  C   UNL     1       5.698  -7.154  -8.080  1.00  0.00     0.031 C 
ATOM     34  C   UNL     1       5.886  -8.835  -4.921  1.00  0.00     0.029 A 
ATOM     35  C   UNL     1       4.585  -9.282  -5.181  1.00  0.00     0.049 A 
ATOM     36  H   UNL     1       3.417 -10.476  -3.888  1.00  0.00     0.167 HD
ATOM     37  C   UNL     1       4.097  -8.616  -7.409  1.00  0.00     0.074 A 
ATOM     38  C   UNL     1       5.487  -8.430  -7.767  1.00  0.00     0.031 C 
ATOM     39  C   UNL     1       3.621  -9.120  -6.243  1.00  0.00     0.031 A 
BRANCH  26  40
ATOM     40  C   UNL     1       3.977 -10.137  -0.871  1.00  0.00    -0.014 A 
ATOM     41  C   UNL     1       4.809 -11.282  -0.993  1.00  0.00     0.010 A 
ATOM     42  C   UNL     1       2.773 -10.286  -0.172  1.00  0.00     0.010 A 
ATOM     43  C   UNL     1       4.395 -12.545  -0.570  1.00  0.00     0.020 A 
ATOM     44  C   UNL     1       2.366 -11.550   0.294  1.00  0.00     0.020 A 
ATOM     45  C   UNL     1       3.154 -12.677   0.041  1.00  0.00     0.054 A 
BRANCH  45  46
ATOM     46  S   UNL     1       2.560 -14.348   0.417  1.00  0.00     0.124 S 
ATOM     47  O   UNL     1       2.280 -14.881  -0.913  1.00  0.00    -0.237 OA
ATOM     48  O   UNL     1       3.706 -14.945   1.101  1.00  0.00    -0.237 OA
ATOM     49  O   UNL     1       1.392 -14.116   1.262  1.00  0.00    -0.744 OA
ENDBRANCH  45  46
ENDBRANCH  26  40
BRANCH  27  50
ATOM     50  C   UNL     1       4.416  -4.866  -9.889  1.00  0.00    -0.014 A 
ATOM     51  C   UNL     1       4.458  -3.559 -10.384  1.00  0.00     0.010 A 
ATOM     52  C   UNL     1       4.935  -5.872 -10.761  1.00  0.00     0.010 A 
ATOM     53  C   UNL     1       5.117  -3.265 -11.604  1.00  0.00     0.020 A 
ATOM     54  C   UNL     1       5.638  -5.591 -11.933  1.00  0.00     0.020 A 
ATOM     55  C   UNL     1       5.752  -4.275 -12.339  1.00  0.00     0.054 A 
BRANCH  55  56
ATOM     56  S   UNL     1       6.850  -3.881 -13.731  1.00  0.00     0.124 S 
ATOM     57  O   UNL     1       5.925  -3.837 -14.859  1.00  0.00    -0.237 OA
ATOM     58  O   UNL     1       7.428  -2.598 -13.336  1.00  0.00    -0.237 OA
ATOM     59  O   UNL     1       7.797  -4.996 -13.741  1.00  0.00    -0.744 OA
ENDBRANCH  55  56
ENDBRANCH  27  50
BRANCH  39  60
ATOM     60  C   UNL     1       2.111  -9.001  -6.060  1.00  0.00    -0.014 A 
ATOM     61  C   UNL     1       1.244  -9.593  -6.997  1.00  0.00     0.010 A 
ATOM     62  C   UNL     1       1.522  -8.228  -5.040  1.00  0.00     0.010 A 
ATOM     63  C   UNL     1      -0.147  -9.418  -6.924  1.00  0.00     0.020 A 
ATOM     64  C   UNL     1       0.130  -8.048  -4.953  1.00  0.00     0.020 A 
ATOM     65  C   UNL     1      -0.699  -8.647  -5.900  1.00  0.00     0.054 A 
BRANCH  65  66
ATOM     66  S   UNL     1      -2.504  -8.439  -5.836  1.00  0.00     0.124 S 
ATOM     67  O   UNL     1      -2.805  -7.822  -7.126  1.00  0.00    -0.237 OA
ATOM     68  O   UNL     1      -2.974  -9.813  -5.678  1.00  0.00    -0.237 OA
ATOM     69  O   UNL     1      -2.719  -7.574  -4.677  1.00  0.00    -0.744 OA
ENDBRANCH  65  66
ENDBRANCH  39  60
ENDBRANCH  13  14
ENDBRANCH   6   8
ENDBRANCH   3   4
ENDBRANCH   2   3
ENDBRANCH   1   2
BRANCH   1  70
ATOM     70  C   UNL     1       4.885   3.653  -1.740  1.00  0.00     0.116 C 
BRANCH  70  71
ATOM     71  N   UNL     1       6.296   3.972  -1.883  1.00  0.00    -0.351 N 
ATOM     72  C   UNL     1       6.900   5.046  -2.486  1.00  0.00     0.267 C 
ATOM     73  H   UNL     1       6.914   3.316  -1.485  1.00  0.00     0.163 HD
ATOM     74  O   UNL     1       8.107   4.982  -2.713  1.00  0.00    -0.268 OA
BRANCH  72  75
ATOM     75  C   UNL     1       6.125   6.218  -2.822  1.00  0.00     0.105 A 
ATOM     76  C   UNL     1       4.939   6.705  -2.311  1.00  0.00     0.055 A 
ATOM     77  N   UNL     1       6.552   7.154  -3.743  1.00  0.00    -0.356 N 
ATOM     78  C   UNL     1       4.668   7.965  -2.882  1.00  0.00     0.106 A 
ATOM     79  C   UNL     1       5.672   8.209  -3.798  1.00  0.00     0.105 A 
ATOM     80  H   UNL     1       7.371   7.077  -4.284  1.00  0.00     0.166 HD
BRANCH  78  81
ATOM     81  S   UNL     1       3.304   8.934  -2.462  1.00  0.00     0.263 S 
ATOM     82  O   UNL     1       3.518  10.198  -3.117  1.00  0.00    -0.201 OA
ATOM     83  O   UNL     1       2.159   8.097  -2.783  1.00  0.00    -0.201 OA
BRANCH  81  84
ATOM     84  N   UNL     1       3.209   9.265  -0.786  1.00  0.00    -0.277 N 
ATOM     85  H   UNL     1       2.928  10.155  -0.470  1.00  0.00     0.180 HD
BRANCH  84  86
ATOM     86  C   UNL     1       3.542   8.232   0.159  1.00  0.00     0.075 A 
ATOM     87  C   UNL     1       2.525   7.350   0.555  1.00  0.00     0.029 A 
ATOM     88  C   UNL     1       4.865   7.987   0.584  1.00  0.00     0.089 A 
ATOM     89  C   UNL     1       2.808   6.254   1.377  1.00  0.00     0.002 A 
ATOM     90  C   UNL     1       5.141   6.862   1.387  1.00  0.00     0.030 A 
ATOM     91  C   UNL     1       4.114   6.010   1.792  1.00  0.00     0.002 A 
BRANCH  88  92
ATOM     92  N   UNL     1       5.965   8.784   0.156  1.00  0.00    -0.238 N 
ATOM     93  C   UNL     1       5.958  10.072  -0.335  1.00  0.00     0.130 A 
ATOM     94  N   UNL     1       7.221   8.253   0.110  1.00  0.00    -0.175 NA
ATOM     95  C   UNL     1       7.167  10.250  -0.946  1.00  0.00     0.056 A 
ATOM     96  C   UNL     1       7.905   9.101  -0.665  1.00  0.00     0.151 A 
ATOM     97  Br  UNL     1       7.736  11.708  -1.957  1.00  0.00    -0.047 Br
ENDBRANCH  88  92
ENDBRANCH  84  86
ENDBRANCH  81  84
ENDBRANCH  78  81
ENDBRANCH  72  75
ENDBRANCH  70  71
ENDBRANCH   1  70
TORSDOF 18
