REMARK SMILES Cc1ccnc(C(=O)c2[nH]c3ccc(OC(F)(F)F)cc3c2CC(=O)NCCCCNC(=O)c2ccc(-c3c4nc(c(-c5ccc(S(=O)(=O)[O-])cc5)c5ccc([nH]5)c(-c5ccc(S(=O)(=O)[O-])cc5)c5nc(c(-c6ccc(S(=O)(=O)[O-])cc6)c6ccc3[nH]6)C=C5)C=C4)cc2)c1
REMARK SMILES IDX 28 1 27 2 26 3 24 4 25 5 23 7 22 8 9 9 10 10 11 11 21 13
REMARK SMILES IDX 12 14 20 15 13 16 14 17 7 18 8 19 6 20 1 21 2 22 3 23 94 24
REMARK SMILES IDX 4 25 5 26 15 27 16 28 17 29 18 30 19 31 29 32 30 33 31 34
REMARK SMILES IDX 32 35 33 37 34 38 35 39 93 40 36 41 92 42 37 43 38 44 39 45
REMARK SMILES IDX 86 46 40 47 91 48 85 49 87 50 41 51 90 52 84 53 83 54 42 56
REMARK SMILES IDX 72 57 53 58 71 59 54 60 57 61 70 62 88 63 55 64 56 65 69 67
REMARK SMILES IDX 89 68 58 69 43 70 44 71 52 72 45 73 51 74 46 75 47 76 48 77
REMARK SMILES IDX 49 78 50 79 73 80 74 81 82 82 75 83 81 84 76 85 77 86 78 87
REMARK SMILES IDX 79 88 80 89 59 90 60 91 68 92 61 93 67 94 62 95 63 96 64 97
REMARK SMILES IDX 65 98 66 99
REMARK H PARENT 26 6 10 12 31 36 87 55 57 66
REMARK Flexibility Score: inf
ROOT
ATOM      1  C   UNL     1       3.093  -6.850  -0.752  1.00  0.00     0.023 C 
ENDROOT
BRANCH   1   2
ATOM      2  C   UNL     1       3.436  -6.882   0.736  1.00  0.00     0.116 C 
BRANCH   2   3
ATOM      3  N   UNL     1       4.014  -5.642   1.212  1.00  0.00    -0.356 N 
ATOM      4  C   UNL     1       3.422  -4.617   1.894  1.00  0.00     0.224 C 
ATOM      5  O   UNL     1       4.146  -3.729   2.352  1.00  0.00    -0.275 OA
ATOM      6  H   UNL     1       4.971  -5.521   1.016  1.00  0.00     0.163 HD
BRANCH   4   7
ATOM      7  C   UNL     1       1.931  -4.633   2.202  1.00  0.00     0.138 C 
BRANCH   7   8
ATOM      8  C   UNL     1       1.025  -4.656   1.002  1.00  0.00    -0.002 A 
ATOM      9  C   UNL     1       0.934  -3.703  -0.008  1.00  0.00     0.093 A 
ATOM     10  N   UNL     1       0.067  -4.194  -0.958  1.00  0.00    -0.352 N 
ATOM     11  C   UNL     1      -0.509  -5.365  -0.531  1.00  0.00     0.046 A 
ATOM     12  H   UNL     1      -0.115  -3.765  -1.825  1.00  0.00     0.167 HD
ATOM     13  C   UNL     1       0.054  -5.671   0.704  1.00  0.00     0.008 A 
ATOM     14  C   UNL     1      -1.456  -6.183  -1.153  1.00  0.00     0.030 A 
ATOM     15  C   UNL     1      -0.369  -6.849   1.354  1.00  0.00     0.057 A 
ATOM     16  C   UNL     1      -1.851  -7.352  -0.488  1.00  0.00     0.049 A 
ATOM     17  C   UNL     1      -1.318  -7.690   0.755  1.00  0.00     0.130 A 
BRANCH   9  18
ATOM     18  C   UNL     1       1.669  -2.459  -0.171  1.00  0.00     0.227 C 
ATOM     19  O   UNL     1       2.879  -2.464  -0.365  1.00  0.00    -0.285 OA
BRANCH  18  20
ATOM     20  C   UNL     1       0.902  -1.157  -0.125  1.00  0.00     0.113 A 
ATOM     21  C   UNL     1      -2.615   0.224   0.231  1.00  0.00     0.044 C 
ATOM     22  C   UNL     1      -1.129   0.127   0.064  1.00  0.00    -0.047 A 
ATOM     23  C   UNL     1      -0.365   1.281  -0.108  1.00  0.00     0.023 A 
ATOM     24  C   UNL     1      -0.478  -1.112   0.075  1.00  0.00     0.036 A 
ATOM     25  C   UNL     1       1.003   1.151  -0.280  1.00  0.00     0.112 A 
ATOM     26  N   UNL     1       1.643  -0.034  -0.305  1.00  0.00    -0.253 NA
ENDBRANCH  18  20
ENDBRANCH   9  18
BRANCH  17  27
ATOM     27  O   UNL     1      -1.619  -8.800   1.494  1.00  0.00    -0.406 OA
BRANCH  27  28
ATOM     28  C   UNL     1      -2.545  -9.725   0.954  1.00  0.00     0.573 C 
ATOM     29  F   UNL     1      -3.754  -9.152   0.771  1.00  0.00    -0.132 F 
ATOM     30  F   UNL     1      -2.105 -10.234  -0.216  1.00  0.00    -0.132 F 
ATOM     31  F   UNL     1      -2.696 -10.746   1.827  1.00  0.00    -0.132 F 
ENDBRANCH  27  28
ENDBRANCH  17  27
ENDBRANCH   7   8
ENDBRANCH   4   7
ENDBRANCH   2   3
ENDBRANCH   1   2
BRANCH   1  32
ATOM     32  C   UNL     1       4.290  -6.837  -1.705  1.00  0.00     0.023 C 
BRANCH  32  33
ATOM     33  C   UNL     1       5.256  -8.008  -1.570  1.00  0.00     0.116 C 
BRANCH  33  34
ATOM     34  N   UNL     1       4.617  -9.306  -1.721  1.00  0.00    -0.352 N 
ATOM     35  C   UNL     1       5.140 -10.471  -2.229  1.00  0.00     0.251 C 
ATOM     36  H   UNL     1       3.682  -9.357  -1.417  1.00  0.00     0.163 HD
ATOM     37  O   UNL     1       4.418 -11.456  -2.364  1.00  0.00    -0.269 OA
BRANCH  35  38
ATOM     38  C   UNL     1       6.557 -10.526  -2.655  1.00  0.00     0.039 A 
ATOM     39  C   UNL     1       6.860 -11.101  -3.893  1.00  0.00     0.014 A 
ATOM     40  C   UNL     1       7.579 -10.014  -1.851  1.00  0.00     0.014 A 
ATOM     41  C   UNL     1       8.177 -11.096  -4.358  1.00  0.00     0.010 A 
ATOM     42  C   UNL     1       8.884  -9.964  -2.336  1.00  0.00     0.010 A 
ATOM     43  C   UNL     1       9.193 -10.497  -3.597  1.00  0.00    -0.014 A 
BRANCH  43  44
ATOM     44  C   UNL     1      10.580 -10.397  -4.110  1.00  0.00     0.031 A 
ATOM     45  C   UNL     1      11.686 -11.182  -3.467  1.00  0.00     0.074 A 
ATOM     46  C   UNL     1      10.855  -9.543  -5.115  1.00  0.00     0.049 A 
ATOM     47  N   UNL     1      12.967 -11.169  -3.732  1.00  0.00    -0.248 NA
ATOM     48  C   UNL     1      11.304 -12.083  -2.369  1.00  0.00     0.031 C 
ATOM     49  C   UNL     1       9.876  -8.702  -5.806  1.00  0.00     0.029 A 
ATOM     50  N   UNL     1      12.046  -9.239  -5.724  1.00  0.00    -0.354 N 
ATOM     51  C   UNL     1      13.550 -12.037  -2.818  1.00  0.00     0.074 A 
ATOM     52  C   UNL     1      12.484 -12.543  -1.978  1.00  0.00     0.031 C 
ATOM     53  C   UNL     1      10.501  -7.997  -6.763  1.00  0.00     0.029 A 
ATOM     54  C   UNL     1      11.927  -8.312  -6.731  1.00  0.00     0.049 A 
ATOM     55  H   UNL     1      12.904  -9.646  -5.465  1.00  0.00     0.167 HD
ATOM     56  C   UNL     1      14.853 -12.387  -2.691  1.00  0.00     0.031 A 
ATOM     57  C   UNL     1      12.859  -7.774  -7.539  1.00  0.00     0.031 A 
ATOM     58  C   UNL     1      15.912 -11.903  -3.533  1.00  0.00     0.049 A 
ATOM     59  C   UNL     1      14.294  -8.185  -7.390  1.00  0.00     0.074 A 
ATOM     60  C   UNL     1      17.253 -12.243  -3.517  1.00  0.00     0.029 A 
ATOM     61  N   UNL     1      15.748 -10.970  -4.546  1.00  0.00    -0.354 N 
ATOM     62  N   UNL     1      14.821  -9.037  -6.544  1.00  0.00    -0.248 NA
ATOM     63  C   UNL     1      15.260  -7.562  -8.305  1.00  0.00     0.031 C 
ATOM     64  C   UNL     1      17.905 -11.498  -4.508  1.00  0.00     0.029 A 
ATOM     65  C   UNL     1      16.964 -10.713  -5.155  1.00  0.00     0.049 A 
ATOM     66  H   UNL     1      14.892 -10.552  -4.796  1.00  0.00     0.167 HD
ATOM     67  C   UNL     1      16.179  -9.066  -6.836  1.00  0.00     0.074 A 
ATOM     68  C   UNL     1      16.392  -8.149  -7.938  1.00  0.00     0.031 C 
ATOM     69  C   UNL     1      17.160  -9.793  -6.246  1.00  0.00     0.031 A 
BRANCH  56  70
ATOM     70  C   UNL     1      15.187 -13.336  -1.575  1.00  0.00    -0.014 A 
ATOM     71  C   UNL     1      14.882 -14.705  -1.675  1.00  0.00     0.010 A 
ATOM     72  C   UNL     1      15.779 -12.846  -0.398  1.00  0.00     0.010 A 
ATOM     73  C   UNL     1      15.105 -15.558  -0.592  1.00  0.00     0.020 A 
ATOM     74  C   UNL     1      16.021 -13.700   0.681  1.00  0.00     0.020 A 
ATOM     75  C   UNL     1      15.655 -15.046   0.587  1.00  0.00     0.054 A 
BRANCH  75  76
ATOM     76  S   UNL     1      15.904 -16.153   2.002  1.00  0.00     0.124 S 
ATOM     77  O   UNL     1      14.593 -16.116   2.644  1.00  0.00    -0.237 OA
ATOM     78  O   UNL     1      16.256 -17.423   1.371  1.00  0.00    -0.237 OA
ATOM     79  O   UNL     1      16.985 -15.514   2.748  1.00  0.00    -0.744 OA
ENDBRANCH  75  76
ENDBRANCH  56  70
BRANCH  57  80
ATOM     80  C   UNL     1      12.443  -6.814  -8.592  1.00  0.00    -0.014 A 
ATOM     81  C   UNL     1      12.292  -7.253  -9.918  1.00  0.00     0.010 A 
ATOM     82  C   UNL     1      12.142  -5.480  -8.268  1.00  0.00     0.010 A 
ATOM     83  C   UNL     1      11.840  -6.375 -10.905  1.00  0.00     0.020 A 
ATOM     84  C   UNL     1      11.676  -4.602  -9.251  1.00  0.00     0.020 A 
ATOM     85  C   UNL     1      11.531  -5.055 -10.565  1.00  0.00     0.054 A 
BRANCH  85  86
ATOM     86  S   UNL     1      10.857  -3.953 -11.840  1.00  0.00     0.124 S 
ATOM     87  O   UNL     1      12.064  -3.528 -12.543  1.00  0.00    -0.237 OA
ATOM     88  O   UNL     1       9.966  -4.836 -12.590  1.00  0.00    -0.237 OA
ATOM     89  O   UNL     1      10.181  -2.914 -11.066  1.00  0.00    -0.744 OA
ENDBRANCH  85  86
ENDBRANCH  57  80
BRANCH  69  90
ATOM     90  C   UNL     1      18.548  -9.638  -6.796  1.00  0.00    -0.014 A 
ATOM     91  C   UNL     1      19.345  -8.537  -6.439  1.00  0.00     0.010 A 
ATOM     92  C   UNL     1      19.074 -10.625  -7.648  1.00  0.00     0.010 A 
ATOM     93  C   UNL     1      20.643  -8.415  -6.943  1.00  0.00     0.020 A 
ATOM     94  C   UNL     1      20.375 -10.512  -8.144  1.00  0.00     0.020 A 
ATOM     95  C   UNL     1      21.148  -9.400  -7.797  1.00  0.00     0.054 A 
BRANCH  95  96
ATOM     96  S   UNL     1      22.849  -9.252  -8.410  1.00  0.00     0.124 S 
ATOM     97  O   UNL     1      22.684  -8.354  -9.549  1.00  0.00    -0.237 OA
ATOM     98  O   UNL     1      23.563  -8.690  -7.266  1.00  0.00    -0.237 OA
ATOM     99  O   UNL     1      23.212 -10.627  -8.745  1.00  0.00    -0.744 OA
ENDBRANCH  95  96
ENDBRANCH  69  90
ENDBRANCH  43  44
ENDBRANCH  35  38
ENDBRANCH  33  34
ENDBRANCH  32  33
ENDBRANCH   1  32
TORSDOF 19
