REMARK SMILES CC1(C)CSC[C@](O)([C@H](F)C(=O)NCCCCNC(=O)c2ccc(-c3c4nc(c(-c5ccc(S(=O)(=O)[O-])cc5)c5ccc([nH]5)c(-c5ccc(S(=O)(=O)[O-])cc5)c5nc(c(-c6ccc(S(=O)(=O)[O-])cc6)c6ccc3[nH]6)C=C5)C=C4)cc2)C1
REMARK SMILES IDX 16 1 15 2 14 3 13 4 11 5 12 6 9 8 10 9 7 10 1 11 2 12 3 13
REMARK SMILES IDX 4 14 81 15 5 16 6 17 8 18 17 20 18 21 19 22 20 24 21 25
REMARK SMILES IDX 22 26 80 27 23 28 79 29 24 30 25 31 26 32 73 33 27 34 78 35
REMARK SMILES IDX 72 36 74 37 28 38 77 39 71 40 70 41 29 43 59 44 40 45 58 46
REMARK SMILES IDX 41 47 44 48 57 49 75 50 42 51 43 52 56 54 76 55 45 56 30 57
REMARK SMILES IDX 31 58 39 59 32 60 38 61 33 62 34 63 35 64 36 65 37 66 60 67
REMARK SMILES IDX 61 68 69 69 62 70 68 71 63 72 64 73 65 74 66 75 67 76 46 77
REMARK SMILES IDX 47 78 55 79 48 80 54 81 49 82 50 83 51 84 52 85 53 86
REMARK H PARENT 13 7 8 19 18 23 74 42 44 53
REMARK Flexibility Score: inf
ROOT
ATOM      1  C   UNL     1      -3.699  -1.077  -3.997  1.00  0.00     0.023 C 
ENDROOT
BRANCH   1   2
ATOM      2  C   UNL     1      -2.851  -1.215  -2.735  1.00  0.00     0.023 C 
BRANCH   2   3
ATOM      3  C   UNL     1      -2.252  -2.597  -2.514  1.00  0.00     0.116 C 
BRANCH   3   4
ATOM      4  N   UNL     1      -1.265  -2.965  -3.514  1.00  0.00    -0.353 N 
ATOM      5  C   UNL     1      -0.087  -3.637  -3.303  1.00  0.00     0.257 C 
ATOM      6  O   UNL     1       0.543  -4.064  -4.274  1.00  0.00    -0.272 OA
ATOM      7  H   UNL     1      -1.462  -2.705  -4.443  1.00  0.00     0.163 HD
BRANCH   5   8
ATOM      8  C   UNL     1       0.426  -3.852  -1.879  1.00  0.00     0.287 C 
ATOM      9  F   UNL     1       0.326  -2.698  -1.144  1.00  0.00    -0.234 F 
BRANCH   8  10
ATOM     10  C   UNL     1      -0.265  -5.034  -1.125  1.00  0.00     0.114 C 
ATOM     11  C   UNL     1      -2.691  -5.992   0.872  1.00  0.00     0.012 C 
ATOM     12  C   UNL     1      -1.236  -5.655   1.264  1.00  0.00    -0.023 C 
ATOM     13  C   UNL     1      -1.299  -5.024   2.676  1.00  0.00     0.012 C 
ATOM     14  C   UNL     1      -0.365  -6.924   1.336  1.00  0.00     0.076 C 
ATOM     15  C   UNL     1      -0.595  -4.603   0.324  1.00  0.00     0.047 C 
ATOM     16  S   UNL     1      -0.029  -7.694  -0.282  1.00  0.00    -0.158 SA
ATOM     17  C   UNL     1       0.681  -6.251  -1.147  1.00  0.00     0.108 C 
BRANCH  10  18
ATOM     18  O   UNL     1      -1.497  -5.398  -1.769  1.00  0.00    -0.385 OA
ATOM     19  H   UNL     1      -1.909  -6.132  -1.288  1.00  0.00     0.211 HD
ENDBRANCH  10  18
ENDBRANCH   8  10
ENDBRANCH   5   8
ENDBRANCH   3   4
ENDBRANCH   2   3
ENDBRANCH   1   2
BRANCH   1  20
ATOM     20  C   UNL     1      -4.830  -2.090  -4.140  1.00  0.00     0.116 C 
BRANCH  20  21
ATOM     21  N   UNL     1      -5.801  -2.022  -3.057  1.00  0.00    -0.352 N 
ATOM     22  C   UNL     1      -7.168  -1.868  -3.121  1.00  0.00     0.251 C 
ATOM     23  H   UNL     1      -5.427  -2.095  -2.149  1.00  0.00     0.163 HD
ATOM     24  O   UNL     1      -7.817  -1.696  -2.097  1.00  0.00    -0.269 OA
BRANCH  22  25
ATOM     25  C   UNL     1      -7.841  -1.877  -4.439  1.00  0.00     0.039 A 
ATOM     26  C   UNL     1      -8.752  -0.863  -4.741  1.00  0.00     0.014 A 
ATOM     27  C   UNL     1      -7.548  -2.864  -5.384  1.00  0.00     0.014 A 
ATOM     28  C   UNL     1      -9.307  -0.792  -6.021  1.00  0.00     0.010 A 
ATOM     29  C   UNL     1      -8.040  -2.747  -6.680  1.00  0.00     0.010 A 
ATOM     30  C   UNL     1      -8.922  -1.707  -7.015  1.00  0.00    -0.014 A 
BRANCH  30  31
ATOM     31  C   UNL     1      -9.415  -1.587  -8.412  1.00  0.00     0.031 A 
ATOM     32  C   UNL     1     -10.254  -2.682  -9.016  1.00  0.00     0.074 A 
ATOM     33  C   UNL     1      -9.049  -0.528  -9.162  1.00  0.00     0.049 A 
ATOM     34  N   UNL     1     -10.717  -2.788 -10.235  1.00  0.00    -0.248 NA
ATOM     35  C   UNL     1     -10.594  -3.818  -8.143  1.00  0.00     0.031 C 
ATOM     36  C   UNL     1      -8.203   0.580  -8.711  1.00  0.00     0.029 A 
ATOM     37  N   UNL     1      -9.335  -0.213 -10.467  1.00  0.00    -0.354 N 
ATOM     38  C   UNL     1     -11.385  -4.006 -10.281  1.00  0.00     0.074 A 
ATOM     39  C   UNL     1     -11.226  -4.624  -8.983  1.00  0.00     0.031 C 
ATOM     40  C   UNL     1      -8.062   1.463  -9.713  1.00  0.00     0.029 A 
ATOM     41  C   UNL     1      -8.769   0.968 -10.889  1.00  0.00     0.049 A 
ATOM     42  H   UNL     1      -9.894  -0.779 -11.048  1.00  0.00     0.167 HD
ATOM     43  C   UNL     1     -12.085  -4.553 -11.304  1.00  0.00     0.031 A 
ATOM     44  C   UNL     1      -8.807   1.581 -12.088  1.00  0.00     0.031 A 
ATOM     45  C   UNL     1     -12.254  -3.931 -12.590  1.00  0.00     0.049 A 
ATOM     46  C   UNL     1      -9.586   0.952 -13.211  1.00  0.00     0.074 A 
ATOM     47  C   UNL     1     -12.992  -4.379 -13.671  1.00  0.00     0.029 A 
ATOM     48  N   UNL     1     -11.676  -2.729 -12.971  1.00  0.00    -0.354 N 
ATOM     49  N   UNL     1     -10.266  -0.170 -13.213  1.00  0.00    -0.248 NA
ATOM     50  C   UNL     1      -9.611   1.676 -14.489  1.00  0.00     0.031 C 
ATOM     51  C   UNL     1     -12.822  -3.473 -14.723  1.00  0.00     0.029 A 
ATOM     52  C   UNL     1     -12.023  -2.431 -14.278  1.00  0.00     0.049 A 
ATOM     53  H   UNL     1     -11.103  -2.171 -12.397  1.00  0.00     0.167 HD
ATOM     54  C   UNL     1     -10.823  -0.271 -14.484  1.00  0.00     0.074 A 
ATOM     55  C   UNL     1     -10.412   0.908 -15.217  1.00  0.00     0.031 C 
ATOM     56  C   UNL     1     -11.607  -1.252 -14.995  1.00  0.00     0.031 A 
BRANCH  43  57
ATOM     57  C   UNL     1     -12.720  -5.899 -11.070  1.00  0.00    -0.014 A 
ATOM     58  C   UNL     1     -13.817  -6.043 -10.200  1.00  0.00     0.010 A 
ATOM     59  C   UNL     1     -12.238  -7.029 -11.755  1.00  0.00     0.010 A 
ATOM     60  C   UNL     1     -14.391  -7.298  -9.987  1.00  0.00     0.020 A 
ATOM     61  C   UNL     1     -12.829  -8.282 -11.567  1.00  0.00     0.020 A 
ATOM     62  C   UNL     1     -13.890  -8.411 -10.669  1.00  0.00     0.054 A 
BRANCH  62  63
ATOM     63  S   UNL     1     -14.668 -10.025 -10.386  1.00  0.00     0.124 S 
ATOM     64  O   UNL     1     -14.185 -10.361  -9.049  1.00  0.00    -0.237 OA
ATOM     65  O   UNL     1     -16.092  -9.716 -10.480  1.00  0.00    -0.237 OA
ATOM     66  O   UNL     1     -14.141 -10.858 -11.465  1.00  0.00    -0.744 OA
ENDBRANCH  62  63
ENDBRANCH  43  57
BRANCH  44  67
ATOM     67  C   UNL     1      -8.098   2.875 -12.285  1.00  0.00    -0.014 A 
ATOM     68  C   UNL     1      -8.823   4.070 -12.432  1.00  0.00     0.010 A 
ATOM     69  C   UNL     1      -6.692   2.921 -12.313  1.00  0.00     0.010 A 
ATOM     70  C   UNL     1      -8.157   5.285 -12.623  1.00  0.00     0.020 A 
ATOM     71  C   UNL     1      -6.022   4.137 -12.475  1.00  0.00     0.020 A 
ATOM     72  C   UNL     1      -6.760   5.311 -12.641  1.00  0.00     0.054 A 
BRANCH  72  73
ATOM     73  S   UNL     1      -5.916   6.905 -12.836  1.00  0.00     0.124 S 
ATOM     74  O   UNL     1      -6.129   7.190 -14.252  1.00  0.00    -0.237 OA
ATOM     75  O   UNL     1      -6.641   7.763 -11.902  1.00  0.00    -0.237 OA
ATOM     76  O   UNL     1      -4.537   6.610 -12.457  1.00  0.00    -0.744 OA
ENDBRANCH  72  73
ENDBRANCH  44  67
BRANCH  56  77
ATOM     77  C   UNL     1     -12.103  -1.080 -16.406  1.00  0.00    -0.014 A 
ATOM     78  C   UNL     1     -11.240  -1.227 -17.507  1.00  0.00     0.010 A 
ATOM     79  C   UNL     1     -13.467  -0.822 -16.634  1.00  0.00     0.010 A 
ATOM     80  C   UNL     1     -11.729  -1.091 -18.809  1.00  0.00     0.020 A 
ATOM     81  C   UNL     1     -13.964  -0.713 -17.934  1.00  0.00     0.020 A 
ATOM     82  C   UNL     1     -13.088  -0.835 -19.015  1.00  0.00     0.054 A 
BRANCH  82  83
ATOM     83  S   UNL     1     -13.707  -0.709 -20.715  1.00  0.00     0.124 S 
ATOM     84  O   UNL     1     -13.204   0.600 -21.125  1.00  0.00    -0.237 OA
ATOM     85  O   UNL     1     -13.082  -1.855 -21.370  1.00  0.00    -0.237 OA
ATOM     86  O   UNL     1     -15.157  -0.799 -20.564  1.00  0.00    -0.744 OA
ENDBRANCH  82  83
ENDBRANCH  56  77
ENDBRANCH  30  31
ENDBRANCH  22  25
ENDBRANCH  20  21
ENDBRANCH   1  20
TORSDOF 16
