REMARK SMILES COc1ccc(S(=O)(=O)N[C@H]2C=C[C@@H](C(=O)NCCCCNC(=O)c3ccc(-c4c5nc(c(-c6ccc(S(=O)(=O)[O-])cc6)c6ccc([nH]6)c(-c6ccc(S(=O)(=O)[O-])cc6)c6nc(c(-c7ccc(S(=O)(=O)[O-])cc7)c7ccc4[nH]7)C=C6)C=C5)cc3)C2)cc1
REMARK SMILES IDX 19 1 18 2 17 3 15 4 16 5 14 7 11 8 12 9 85 10 13 11 10 12
REMARK SMILES IDX 7 14 8 15 9 16 6 17 3 18 4 19 87 20 5 21 86 22 2 23 1 24
REMARK SMILES IDX 20 25 21 26 22 27 23 28 24 30 25 31 26 32 84 33 27 34 83 35
REMARK SMILES IDX 28 36 29 37 30 38 77 39 31 40 82 41 76 42 78 43 32 44 81 45
REMARK SMILES IDX 75 46 74 47 33 49 63 50 44 51 62 52 45 53 48 54 61 55 79 56
REMARK SMILES IDX 46 57 47 58 60 60 80 61 49 62 34 63 35 64 43 65 36 66 42 67
REMARK SMILES IDX 37 68 38 69 39 70 40 71 41 72 64 73 65 74 73 75 66 76 72 77
REMARK SMILES IDX 67 78 68 79 69 80 70 81 71 82 50 83 51 84 59 85 52 86 58 87
REMARK SMILES IDX 53 88 54 89 55 90 56 91 57 92
REMARK H PARENT 17 6 10 13 22 29 78 48 48 59
REMARK Flexibility Score: inf
ROOT
ATOM      1  C   UNL     1       4.962   0.995  10.023  1.00  0.00     0.023 C 
ENDROOT
BRANCH   1   2
ATOM      2  C   UNL     1       5.072   2.428   9.506  1.00  0.00     0.116 C 
BRANCH   2   3
ATOM      3  N   UNL     1       6.454   2.832   9.329  1.00  0.00    -0.356 N 
ATOM      4  C   UNL     1       7.160   3.129   8.206  1.00  0.00     0.226 C 
ATOM      5  O   UNL     1       8.338   3.475   8.351  1.00  0.00    -0.274 OA
ATOM      6  H   UNL     1       6.969   2.904  10.165  1.00  0.00     0.163 HD
BRANCH   4   7
ATOM      7  C   UNL     1       6.562   3.054   6.797  1.00  0.00     0.103 C 
ATOM      8  C   UNL     1       4.617   1.882   5.816  1.00  0.00     0.093 C 
ATOM      9  C   UNL     1       4.349   3.325   6.064  1.00  0.00    -0.011 C 
ATOM     10  C   UNL     1       6.041   1.675   6.380  1.00  0.00     0.042 C 
ATOM     11  C   UNL     1       5.399   3.967   6.587  1.00  0.00    -0.016 C 
BRANCH   8  12
ATOM     12  N   UNL     1       3.707   0.984   6.511  1.00  0.00    -0.204 NA
ATOM     13  H   UNL     1       3.939   0.051   6.168  1.00  0.00     0.142 HD
BRANCH  12  14
ATOM     14  S   UNL     1       2.041   1.057   6.483  1.00  0.00     0.241 S 
ATOM     15  O   UNL     1       1.632   2.355   6.969  1.00  0.00    -0.207 OA
ATOM     16  O   UNL     1       1.596  -0.164   7.117  1.00  0.00    -0.207 OA
BRANCH  14  17
ATOM     17  C   UNL     1       1.563   0.942   4.779  1.00  0.00     0.082 A 
ATOM     18  C   UNL     1       0.757   0.830   2.102  1.00  0.00     0.118 A 
ATOM     19  C   UNL     1      -0.056   1.443   3.059  1.00  0.00     0.048 A 
ATOM     20  C   UNL     1       1.978   0.274   2.492  1.00  0.00     0.048 A 
ATOM     21  C   UNL     1       0.342   1.505   4.396  1.00  0.00     0.025 A 
ATOM     22  C   UNL     1       2.374   0.312   3.834  1.00  0.00     0.025 A 
BRANCH  18  23
ATOM     23  O   UNL     1       0.262   0.851   0.828  1.00  0.00    -0.497 OA
ATOM     24  C   UNL     1       0.865  -0.042  -0.100  1.00  0.00     0.278 C 
ENDBRANCH  18  23
ENDBRANCH  14  17
ENDBRANCH  12  14
ENDBRANCH   8  12
ENDBRANCH   4   7
ENDBRANCH   2   3
ENDBRANCH   1   2
BRANCH   1  25
ATOM     25  C   UNL     1       5.427   0.804  11.467  1.00  0.00     0.023 C 
BRANCH  25  26
ATOM     26  C   UNL     1       4.713   1.672  12.499  1.00  0.00     0.116 C 
BRANCH  26  27
ATOM     27  N   UNL     1       3.272   1.476  12.514  1.00  0.00    -0.352 N 
ATOM     28  C   UNL     1       2.428   1.391  13.596  1.00  0.00     0.251 C 
ATOM     29  H   UNL     1       2.843   1.393  11.631  1.00  0.00     0.163 HD
ATOM     30  O   UNL     1       1.247   1.099  13.439  1.00  0.00    -0.269 OA
BRANCH  28  31
ATOM     31  C   UNL     1       2.964   1.619  14.955  1.00  0.00     0.039 A 
ATOM     32  C   UNL     1       2.660   0.699  15.961  1.00  0.00     0.014 A 
ATOM     33  C   UNL     1       3.784   2.717  15.226  1.00  0.00     0.014 A 
ATOM     34  C   UNL     1       3.237   0.845  17.225  1.00  0.00     0.010 A 
ATOM     35  C   UNL     1       4.414   2.820  16.463  1.00  0.00     0.010 A 
ATOM     36  C   UNL     1       4.147   1.885  17.475  1.00  0.00    -0.014 A 
BRANCH  36  37
ATOM     37  C   UNL     1       4.834   2.008  18.785  1.00  0.00     0.031 A 
ATOM     38  C   UNL     1       4.588   3.210  19.656  1.00  0.00     0.074 A 
ATOM     39  C   UNL     1       5.726   1.071  19.162  1.00  0.00     0.049 A 
ATOM     40  N   UNL     1       5.135   3.522  20.804  1.00  0.00    -0.248 NA
ATOM     41  C   UNL     1       3.622   4.204  19.162  1.00  0.00     0.031 C 
ATOM     42  C   UNL     1       6.085  -0.119  18.386  1.00  0.00     0.029 A 
ATOM     43  N   UNL     1       6.499   0.974  20.292  1.00  0.00    -0.354 N 
ATOM     44  C   UNL     1       4.593   4.752  21.159  1.00  0.00     0.074 A 
ATOM     45  C   UNL     1       3.714   5.153  20.082  1.00  0.00     0.031 C 
ATOM     46  C   UNL     1       6.986  -0.839  19.075  1.00  0.00     0.029 A 
ATOM     47  C   UNL     1       7.297  -0.146  20.321  1.00  0.00     0.049 A 
ATOM     48  H   UNL     1       6.484   1.644  21.013  1.00  0.00     0.167 HD
ATOM     49  C   UNL     1       4.793   5.473  22.287  1.00  0.00     0.031 A 
ATOM     50  C   UNL     1       8.182  -0.567  21.245  1.00  0.00     0.031 A 
ATOM     51  C   UNL     1       5.658   5.066  23.362  1.00  0.00     0.049 A 
ATOM     52  C   UNL     1       8.388   0.252  22.490  1.00  0.00     0.074 A 
ATOM     53  C   UNL     1       5.887   5.701  24.571  1.00  0.00     0.029 A 
ATOM     54  N   UNL     1       6.436   3.918  23.360  1.00  0.00    -0.354 N 
ATOM     55  N   UNL     1       7.819   1.383  22.836  1.00  0.00    -0.248 NA
ATOM     56  C   UNL     1       9.345  -0.269  23.476  1.00  0.00     0.031 C 
ATOM     57  C   UNL     1       6.838   4.960  25.280  1.00  0.00     0.029 A 
ATOM     58  C   UNL     1       7.161   3.835  24.537  1.00  0.00     0.049 A 
ATOM     59  H   UNL     1       6.469   3.260  22.629  1.00  0.00     0.167 HD
ATOM     60  C   UNL     1       8.330   1.694  24.091  1.00  0.00     0.074 A 
ATOM     61  C   UNL     1       9.242   0.626  24.448  1.00  0.00     0.031 C 
ATOM     62  C   UNL     1       8.065   2.766  24.877  1.00  0.00     0.031 A 
BRANCH  49  63
ATOM     63  C   UNL     1       4.060   6.783  22.411  1.00  0.00    -0.014 A 
ATOM     64  C   UNL     1       2.665   6.819  22.596  1.00  0.00     0.010 A 
ATOM     65  C   UNL     1       4.775   7.993  22.370  1.00  0.00     0.010 A 
ATOM     66  C   UNL     1       1.995   8.041  22.691  1.00  0.00     0.020 A 
ATOM     67  C   UNL     1       4.111   9.218  22.494  1.00  0.00     0.020 A 
ATOM     68  C   UNL     1       2.722   9.233  22.634  1.00  0.00     0.054 A 
BRANCH  68  69
ATOM     69  S   UNL     1       1.828  10.805  22.775  1.00  0.00     0.124 S 
ATOM     70  O   UNL     1       1.186  10.903  21.467  1.00  0.00    -0.237 OA
ATOM     71  O   UNL     1       0.927  10.563  23.900  1.00  0.00    -0.237 OA
ATOM     72  O   UNL     1       2.883  11.783  23.026  1.00  0.00    -0.744 OA
ENDBRANCH  68  69
ENDBRANCH  49  63
BRANCH  50  73
ATOM     73  C   UNL     1       8.925  -1.839  21.037  1.00  0.00    -0.014 A 
ATOM     74  C   UNL     1       8.622  -2.975  21.809  1.00  0.00     0.010 A 
ATOM     75  C   UNL     1       9.930  -1.928  20.056  1.00  0.00     0.010 A 
ATOM     76  C   UNL     1       9.321  -4.170  21.617  1.00  0.00     0.020 A 
ATOM     77  C   UNL     1      10.613  -3.129  19.844  1.00  0.00     0.020 A 
ATOM     78  C   UNL     1      10.312  -4.240  20.634  1.00  0.00     0.054 A 
BRANCH  78  79
ATOM     79  S   UNL     1      11.171  -5.816  20.367  1.00  0.00     0.124 S 
ATOM     80  O   UNL     1      12.064  -5.874  21.519  1.00  0.00    -0.237 OA
ATOM     81  O   UNL     1      10.072  -6.779  20.366  1.00  0.00    -0.237 OA
ATOM     82  O   UNL     1      11.827  -5.631  19.074  1.00  0.00    -0.744 OA
ENDBRANCH  78  79
ENDBRANCH  50  73
BRANCH  62  83
ATOM     83  C   UNL     1       8.744   2.824  26.219  1.00  0.00    -0.014 A 
ATOM     84  C   UNL     1      10.115   3.113  26.331  1.00  0.00     0.010 A 
ATOM     85  C   UNL     1       7.984   2.636  27.388  1.00  0.00     0.010 A 
ATOM     86  C   UNL     1      10.721   3.181  27.589  1.00  0.00     0.020 A 
ATOM     87  C   UNL     1       8.580   2.730  28.648  1.00  0.00     0.020 A 
ATOM     88  C   UNL     1       9.949   2.988  28.739  1.00  0.00     0.054 A 
BRANCH  88  89
ATOM     89  S   UNL     1      10.750   3.123  30.362  1.00  0.00     0.124 S 
ATOM     90  O   UNL     1      11.492   1.869  30.439  1.00  0.00    -0.237 OA
ATOM     91  O   UNL     1      11.564   4.328  30.219  1.00  0.00    -0.237 OA
ATOM     92  O   UNL     1       9.629   3.243  31.292  1.00  0.00    -0.744 OA
ENDBRANCH  88  89
ENDBRANCH  62  83
ENDBRANCH  36  37
ENDBRANCH  28  31
ENDBRANCH  26  27
ENDBRANCH  25  26
ENDBRANCH   1  25
TORSDOF 18
