REMARK SMILES CC[C@H](C)N1C(=O)c2ccccc2[C@@H](C(=O)NCCCCNC(=O)c2ccc(-c3c4nc(c(-c5ccc(S(=O)(=O)[O-])cc5)c5ccc([nH]5)c(-c5ccc(S(=O)(=O)[O-])cc5)c5nc(c(-c6ccc(S(=O)(=O)[O-])cc6)c6ccc3[nH]6)C=C5)C=C4)cc2)C12CCCCC2
REMARK SMILES IDX 20 1 19 2 18 3 17 4 15 5 16 6 14 8 5 9 6 10 85 11 7 12 8 13
REMARK SMILES IDX 86 14 90 15 9 16 13 17 87 18 89 19 10 20 12 21 88 22 11 23
REMARK SMILES IDX 3 24 4 25 2 26 1 27 21 28 22 29 23 30 24 32 25 33 26 34
REMARK SMILES IDX 84 35 27 36 83 37 28 38 29 39 30 40 77 41 31 42 82 43 76 44
REMARK SMILES IDX 78 45 32 46 81 47 75 48 74 49 33 51 63 52 44 53 62 54 45 55
REMARK SMILES IDX 48 56 61 57 79 58 46 59 47 60 60 62 80 63 49 64 34 65 35 66
REMARK SMILES IDX 43 67 36 68 42 69 37 70 38 71 39 72 40 73 41 74 64 75 65 76
REMARK SMILES IDX 73 77 66 78 72 79 67 80 68 81 69 82 70 83 71 84 50 85 51 86
REMARK SMILES IDX 59 87 52 88 58 89 53 90 54 91 55 92 56 93 57 94
REMARK H PARENT 17 7 22 31 78 50 48 61
REMARK Flexibility Score: inf
ROOT
ATOM      1  C   UNL     1      -3.879   5.010  -6.011  1.00  0.00     0.023 C 
ENDROOT
BRANCH   1   2
ATOM      2  C   UNL     1      -2.431   4.822  -5.605  1.00  0.00     0.023 C 
BRANCH   2   3
ATOM      3  C   UNL     1      -1.948   5.729  -4.468  1.00  0.00     0.116 C 
BRANCH   3   4
ATOM      4  N   UNL     1      -2.804   5.736  -3.288  1.00  0.00    -0.355 N 
ATOM      5  C   UNL     1      -2.603   5.367  -1.988  1.00  0.00     0.229 C 
ATOM      6  O   UNL     1      -3.520   5.622  -1.199  1.00  0.00    -0.274 OA
ATOM      7  H   UNL     1      -3.711   6.076  -3.463  1.00  0.00     0.163 HD
BRANCH   5   8
ATOM      8  C   UNL     1      -1.303   4.708  -1.472  1.00  0.00     0.135 C 
ATOM      9  N   UNL     1       0.354   2.794  -1.906  1.00  0.00    -0.329 N 
ATOM     10  C   UNL     1       1.177   3.657  -2.662  1.00  0.00     0.254 C 
ATOM     11  C   UNL     1      -1.136   3.140  -1.736  1.00  0.00     0.059 C 
ATOM     12  O   UNL     1       2.123   3.274  -3.347  1.00  0.00    -0.269 OA
ATOM     13  C   UNL     1       0.969   5.111  -2.512  1.00  0.00     0.044 A 
ATOM     14  C   UNL     1      -1.842   2.636  -3.017  1.00  0.00     0.030 C 
ATOM     15  C   UNL     1      -1.786   2.366  -0.552  1.00  0.00     0.030 C 
ATOM     16  C   UNL     1       1.929   5.998  -3.028  1.00  0.00     0.014 A 
ATOM     17  C   UNL     1      -0.133   5.606  -1.827  1.00  0.00    -0.020 A 
ATOM     18  C   UNL     1      -3.372   2.564  -3.022  1.00  0.00     0.002 C 
ATOM     19  C   UNL     1      -3.314   2.407  -0.499  1.00  0.00     0.002 C 
ATOM     20  C   UNL     1       1.815   7.373  -2.817  1.00  0.00     0.001 A 
ATOM     21  C   UNL     1      -0.200   6.991  -1.558  1.00  0.00     0.005 A 
ATOM     22  C   UNL     1      -3.932   1.877  -1.787  1.00  0.00     0.000 C 
ATOM     23  C   UNL     1       0.762   7.868  -2.057  1.00  0.00     0.000 A 
BRANCH   9  24
ATOM     24  C   UNL     1       0.966   1.447  -1.667  1.00  0.00     0.082 C 
ATOM     25  C   UNL     1       1.006   0.993  -0.207  1.00  0.00     0.031 C 
BRANCH  24  26
ATOM     26  C   UNL     1       0.647   0.355  -2.714  1.00  0.00     0.021 C 
ATOM     27  C   UNL     1      -0.423  -0.667  -2.355  1.00  0.00     0.006 C 
ENDBRANCH  24  26
ENDBRANCH   9  24
ENDBRANCH   5   8
ENDBRANCH   3   4
ENDBRANCH   2   3
ENDBRANCH   1   2
BRANCH   1  28
ATOM     28  C   UNL     1      -4.134   6.363  -6.630  1.00  0.00     0.116 C 
BRANCH  28  29
ATOM     29  N   UNL     1      -3.392   6.540  -7.875  1.00  0.00    -0.352 N 
ATOM     30  C   UNL     1      -3.882   6.814  -9.133  1.00  0.00     0.251 C 
ATOM     31  H   UNL     1      -2.414   6.452  -7.806  1.00  0.00     0.163 HD
ATOM     32  O   UNL     1      -3.170   6.732 -10.118  1.00  0.00    -0.269 OA
BRANCH  30  33
ATOM     33  C   UNL     1      -5.306   7.183  -9.245  1.00  0.00     0.039 A 
ATOM     34  C   UNL     1      -5.843   8.085  -8.326  1.00  0.00     0.014 A 
ATOM     35  C   UNL     1      -6.120   6.543 -10.180  1.00  0.00     0.014 A 
ATOM     36  C   UNL     1      -7.215   8.175  -8.195  1.00  0.00     0.010 A 
ATOM     37  C   UNL     1      -7.499   6.754 -10.138  1.00  0.00     0.010 A 
ATOM     38  C   UNL     1      -8.061   7.535  -9.115  1.00  0.00    -0.014 A 
BRANCH  38  39
ATOM     39  C   UNL     1      -9.525   7.743  -8.997  1.00  0.00     0.031 A 
ATOM     40  C   UNL     1     -10.458   6.589  -8.756  1.00  0.00     0.074 A 
ATOM     41  C   UNL     1      -9.991   9.008  -9.039  1.00  0.00     0.049 A 
ATOM     42  N   UNL     1     -11.761   6.605  -8.641  1.00  0.00    -0.248 NA
ATOM     43  C   UNL     1      -9.865   5.247  -8.631  1.00  0.00     0.031 C 
ATOM     44  C   UNL     1      -9.161  10.202  -9.231  1.00  0.00     0.029 A 
ATOM     45  N   UNL     1     -11.255   9.512  -8.874  1.00  0.00    -0.354 N 
ATOM     46  C   UNL     1     -12.146   5.282  -8.461  1.00  0.00     0.074 A 
ATOM     47  C   UNL     1     -10.943   4.482  -8.500  1.00  0.00     0.031 C 
ATOM     48  C   UNL     1      -9.916  11.295  -9.074  1.00  0.00     0.029 A 
ATOM     49  C   UNL     1     -11.302  10.886  -8.889  1.00  0.00     0.049 A 
ATOM     50  H   UNL     1     -12.051   8.945  -8.757  1.00  0.00     0.167 HD
ATOM     51  C   UNL     1     -13.393   4.789  -8.274  1.00  0.00     0.031 A 
ATOM     52  C   UNL     1     -12.343  11.733  -8.790  1.00  0.00     0.031 A 
ATOM     53  C   UNL     1     -14.575   5.610  -8.216  1.00  0.00     0.049 A 
ATOM     54  C   UNL     1     -13.717  11.158  -8.635  1.00  0.00     0.074 A 
ATOM     55  C   UNL     1     -15.888   5.209  -8.037  1.00  0.00     0.029 A 
ATOM     56  N   UNL     1     -14.591   6.994  -8.321  1.00  0.00    -0.354 N 
ATOM     57  N   UNL     1     -14.065   9.899  -8.509  1.00  0.00    -0.248 NA
ATOM     58  C   UNL     1     -14.839  12.103  -8.628  1.00  0.00     0.031 C 
ATOM     59  C   UNL     1     -16.701   6.343  -8.093  1.00  0.00     0.029 A 
ATOM     60  C   UNL     1     -15.891   7.460  -8.234  1.00  0.00     0.049 A 
ATOM     61  H   UNL     1     -13.794   7.560  -8.440  1.00  0.00     0.167 HD
ATOM     62  C   UNL     1     -15.449   9.899  -8.407  1.00  0.00     0.074 A 
ATOM     63  C   UNL     1     -15.871  11.286  -8.458  1.00  0.00     0.031 C 
ATOM     64  C   UNL     1     -16.291   8.845  -8.292  1.00  0.00     0.031 A 
BRANCH  51  65
ATOM     65  C   UNL     1     -13.566   3.298  -8.127  1.00  0.00    -0.014 A 
ATOM     66  C   UNL     1     -14.246   2.574  -9.125  1.00  0.00     0.010 A 
ATOM     67  C   UNL     1     -13.166   2.632  -6.955  1.00  0.00     0.010 A 
ATOM     68  C   UNL     1     -14.553   1.223  -8.942  1.00  0.00     0.020 A 
ATOM     69  C   UNL     1     -13.447   1.272  -6.780  1.00  0.00     0.020 A 
ATOM     70  C   UNL     1     -14.159   0.582  -7.764  1.00  0.00     0.054 A 
BRANCH  70  71
ATOM     71  S   UNL     1     -14.588  -1.166  -7.532  1.00  0.00     0.124 S 
ATOM     72  O   UNL     1     -16.009  -1.096  -7.211  1.00  0.00    -0.237 OA
ATOM     73  O   UNL     1     -14.261  -1.751  -8.831  1.00  0.00    -0.237 OA
ATOM     74  O   UNL     1     -13.718  -1.587  -6.435  1.00  0.00    -0.744 OA
ENDBRANCH  70  71
ENDBRANCH  51  65
BRANCH  52  75
ATOM     75  C   UNL     1     -12.092  13.200  -8.843  1.00  0.00    -0.014 A 
ATOM     76  C   UNL     1     -11.576  13.791 -10.013  1.00  0.00     0.010 A 
ATOM     77  C   UNL     1     -12.254  13.991  -7.693  1.00  0.00     0.010 A 
ATOM     78  C   UNL     1     -11.157  15.122 -10.012  1.00  0.00     0.020 A 
ATOM     79  C   UNL     1     -11.869  15.336  -7.699  1.00  0.00     0.020 A 
ATOM     80  C   UNL     1     -11.291  15.882  -8.848  1.00  0.00     0.054 A 
BRANCH  80  81
ATOM     81  S   UNL     1     -10.684  17.592  -8.850  1.00  0.00     0.124 S 
ATOM     82  O   UNL     1      -9.242  17.396  -8.720  1.00  0.00    -0.237 OA
ATOM     83  O   UNL     1     -11.136  18.091 -10.146  1.00  0.00    -0.237 OA
ATOM     84  O   UNL     1     -11.342  18.188  -7.691  1.00  0.00    -0.744 OA
ENDBRANCH  80  81
ENDBRANCH  52  75
BRANCH  64  85
ATOM     85  C   UNL     1     -17.766   9.131  -8.216  1.00  0.00    -0.014 A 
ATOM     86  C   UNL     1     -18.463   8.882  -7.020  1.00  0.00     0.010 A 
ATOM     87  C   UNL     1     -18.480   9.517  -9.364  1.00  0.00     0.010 A 
ATOM     88  C   UNL     1     -19.855   8.972  -6.983  1.00  0.00     0.020 A 
ATOM     89  C   UNL     1     -19.871   9.637  -9.322  1.00  0.00     0.020 A 
ATOM     90  C   UNL     1     -20.551   9.336  -8.139  1.00  0.00     0.054 A 
BRANCH  90  91
ATOM     91  S   UNL     1     -22.362   9.404  -8.084  1.00  0.00     0.124 S 
ATOM     92  O   UNL     1     -22.723   7.990  -8.131  1.00  0.00    -0.237 OA
ATOM     93  O   UNL     1     -22.620  10.078  -6.813  1.00  0.00    -0.237 OA
ATOM     94  O   UNL     1     -22.712  10.178  -9.272  1.00  0.00    -0.744 OA
ENDBRANCH  90  91
ENDBRANCH  64  85
ENDBRANCH  38  39
ENDBRANCH  30  33
ENDBRANCH  28  29
ENDBRANCH   1  28
TORSDOF 16
