REMARK SMILES C=CC[C@@]1(C(=O)NCCCCNC(=O)c2ccc(-c3c4nc(c(-c5ccc(S(=O)(=O)[O-])cc5)c5ccc([nH]5)c(-c5ccc(S(=O)(=O)[O-])cc5)c5nc(c(-c6ccc(S(=O)(=O)[O-])cc6)c6ccc3[nH]6)C=C5)C=C4)cc2)CCCN(C(=O)c2ccc3c(c2)OCO3)C1
REMARK SMILES IDX 10 1 9 2 8 3 7 4 5 5 6 6 4 8 75 9 90 10 76 11 78 12 77 13
REMARK SMILES IDX 3 14 2 15 1 16 79 17 80 18 81 19 82 20 86 21 83 22 85 23
REMARK SMILES IDX 84 24 87 25 89 26 88 27 11 28 12 29 13 30 14 32 15 33 16 34
REMARK SMILES IDX 74 35 17 36 73 37 18 38 19 39 20 40 67 41 21 42 72 43 66 44
REMARK SMILES IDX 68 45 22 46 71 47 65 48 64 49 23 51 53 52 34 53 52 54 35 55
REMARK SMILES IDX 38 56 51 57 69 58 36 59 37 60 50 62 70 63 39 64 24 65 25 66
REMARK SMILES IDX 33 67 26 68 32 69 27 70 28 71 29 72 30 73 31 74 54 75 55 76
REMARK SMILES IDX 63 77 56 78 62 79 57 80 58 81 59 82 60 83 61 84 40 85 41 86
REMARK SMILES IDX 49 87 42 88 48 89 43 90 44 91 45 92 46 93 47 94
REMARK H PARENT 7 7 12 31 68 50 38 61
REMARK Flexibility Score: inf
ROOT
ATOM      1  C   UNL     1       2.724  -0.251  -0.649  1.00  0.00     0.023 C 
ENDROOT
BRANCH   1   2
ATOM      2  C   UNL     1       1.738   0.020   0.477  1.00  0.00     0.023 C 
BRANCH   2   3
ATOM      3  C   UNL     1       1.033   1.364   0.385  1.00  0.00     0.116 C 
BRANCH   3   4
ATOM      4  N   UNL     1      -0.326   1.220  -0.077  1.00  0.00    -0.356 N 
ATOM      5  C   UNL     1      -1.522   1.073   0.535  1.00  0.00     0.228 C 
ATOM      6  O   UNL     1      -2.465   0.929  -0.257  1.00  0.00    -0.274 OA
ATOM      7  H   UNL     1      -0.398   1.231  -1.059  1.00  0.00     0.163 HD
BRANCH   5   8
ATOM      8  C   UNL     1      -1.774   1.028   2.075  1.00  0.00     0.070 C 
ATOM      9  C   UNL     1      -0.992   2.079   2.891  1.00  0.00     0.021 C 
ATOM     10  C   UNL     1      -1.580  -0.418   2.569  1.00  0.00     0.137 C 
ATOM     11  C   UNL     1       0.195   1.611   3.735  1.00  0.00     0.023 C 
ATOM     12  N   UNL     1      -0.222  -0.767   2.967  1.00  0.00    -0.338 N 
ATOM     13  C   UNL     1       0.421   0.119   3.924  1.00  0.00     0.120 C 
BRANCH   8  14
ATOM     14  C   UNL     1      -3.318   1.376   2.187  1.00  0.00     0.045 C 
BRANCH  14  15
ATOM     15  C   UNL     1      -3.928   1.483   3.566  1.00  0.00    -0.034 C 
ATOM     16  C   UNL     1      -4.505   2.598   4.032  1.00  0.00     0.004 C 
ENDBRANCH  14  15
ENDBRANCH   8  14
BRANCH  12  17
ATOM     17  C   UNL     1       0.222  -2.076   2.679  1.00  0.00     0.254 C 
ATOM     18  O   UNL     1      -0.425  -2.881   2.015  1.00  0.00    -0.269 OA
BRANCH  17  19
ATOM     19  C   UNL     1       1.578  -2.496   3.112  1.00  0.00     0.043 A 
ATOM     20  C   UNL     1       2.519  -2.823   2.110  1.00  0.00     0.018 A 
ATOM     21  C   UNL     1       1.944  -2.489   4.460  1.00  0.00     0.064 A 
ATOM     22  C   UNL     1       3.865  -3.006   2.434  1.00  0.00     0.051 A 
ATOM     23  C   UNL     1       3.283  -2.646   4.743  1.00  0.00     0.166 A 
ATOM     24  C   UNL     1       4.218  -2.878   3.759  1.00  0.00     0.165 A 
ATOM     25  O   UNL     1       3.848  -2.531   5.976  1.00  0.00    -0.454 OA
ATOM     26  O   UNL     1       5.482  -2.938   4.254  1.00  0.00    -0.454 OA
ATOM     27  C   UNL     1       5.249  -2.569   5.627  1.00  0.00     0.468 C 
ENDBRANCH  17  19
ENDBRANCH  12  17
ENDBRANCH   5   8
ENDBRANCH   3   4
ENDBRANCH   2   3
ENDBRANCH   1   2
BRANCH   1  28
ATOM     28  C   UNL     1       3.928   0.676  -0.670  1.00  0.00     0.116 C 
BRANCH  28  29
ATOM     29  N   UNL     1       4.780   0.580   0.509  1.00  0.00    -0.352 N 
ATOM     30  C   UNL     1       6.159   0.519   0.576  1.00  0.00     0.251 C 
ATOM     31  H   UNL     1       4.310   0.557   1.374  1.00  0.00     0.163 HD
ATOM     32  O   UNL     1       6.724   0.400   1.653  1.00  0.00    -0.269 OA
BRANCH  30  33
ATOM     33  C   UNL     1       6.932   0.537  -0.687  1.00  0.00     0.039 A 
ATOM     34  C   UNL     1       7.882  -0.460  -0.917  1.00  0.00     0.014 A 
ATOM     35  C   UNL     1       6.623   1.461  -1.685  1.00  0.00     0.014 A 
ATOM     36  C   UNL     1       8.436  -0.598  -2.193  1.00  0.00     0.010 A 
ATOM     37  C   UNL     1       7.077   1.240  -2.979  1.00  0.00     0.010 A 
ATOM     38  C   UNL     1       7.988   0.208  -3.252  1.00  0.00    -0.014 A 
BRANCH  38  39
ATOM     39  C   UNL     1       8.443  -0.001  -4.654  1.00  0.00     0.031 A 
ATOM     40  C   UNL     1       9.071   1.139  -5.414  1.00  0.00     0.074 A 
ATOM     41  C   UNL     1       8.193  -1.169  -5.283  1.00  0.00     0.049 A 
ATOM     42  N   UNL     1       9.399   1.210  -6.679  1.00  0.00    -0.248 NA
ATOM     43  C   UNL     1       9.311   2.385  -4.665  1.00  0.00     0.031 C 
ATOM     44  C   UNL     1       7.519  -2.330  -4.694  1.00  0.00     0.029 A 
ATOM     45  N   UNL     1       8.465  -1.567  -6.569  1.00  0.00    -0.354 N 
ATOM     46  C   UNL     1       9.829   2.516  -6.884  1.00  0.00     0.074 A 
ATOM     47  C   UNL     1       9.666   3.217  -5.631  1.00  0.00     0.031 C 
ATOM     48  C   UNL     1       7.464  -3.318  -5.602  1.00  0.00     0.029 A 
ATOM     49  C   UNL     1       8.057  -2.851  -6.850  1.00  0.00     0.049 A 
ATOM     50  H   UNL     1       8.912  -0.989  -7.228  1.00  0.00     0.167 HD
ATOM     51  C   UNL     1      10.341   3.078  -8.005  1.00  0.00     0.031 A 
ATOM     52  C   UNL     1       8.145  -3.572  -7.985  1.00  0.00     0.031 A 
ATOM     53  C   UNL     1      10.561   2.363  -9.231  1.00  0.00     0.049 A 
ATOM     54  C   UNL     1       8.789  -2.955  -9.196  1.00  0.00     0.074 A 
ATOM     55  C   UNL     1      11.163   2.811 -10.393  1.00  0.00     0.029 A 
ATOM     56  N   UNL     1      10.202   1.041  -9.449  1.00  0.00    -0.354 N 
ATOM     57  N   UNL     1       9.259  -1.740  -9.348  1.00  0.00    -0.248 NA
ATOM     58  C   UNL     1       8.928  -3.810 -10.383  1.00  0.00     0.031 C 
ATOM     59  C   UNL     1      11.139   1.768 -11.326  1.00  0.00     0.029 A 
ATOM     60  C   UNL     1      10.561   0.659 -10.729  1.00  0.00     0.049 A 
ATOM     61  H   UNL     1       9.757   0.461  -8.790  1.00  0.00     0.167 HD
ATOM     62  C   UNL     1       9.769  -1.691 -10.640  1.00  0.00     0.074 A 
ATOM     63  C   UNL     1       9.565  -3.002 -11.221  1.00  0.00     0.031 C 
ATOM     64  C   UNL     1      10.354  -0.652 -11.287  1.00  0.00     0.031 A 
BRANCH  51  65
ATOM     65  C   UNL     1      10.704   4.538  -7.940  1.00  0.00    -0.014 A 
ATOM     66  C   UNL     1      11.780   4.986  -7.151  1.00  0.00     0.010 A 
ATOM     67  C   UNL     1       9.957   5.478  -8.673  1.00  0.00     0.010 A 
ATOM     68  C   UNL     1      12.060   6.350  -7.044  1.00  0.00     0.020 A 
ATOM     69  C   UNL     1      10.255   6.841  -8.594  1.00  0.00     0.020 A 
ATOM     70  C   UNL     1      11.288   7.270  -7.759  1.00  0.00     0.054 A 
BRANCH  70  71
ATOM     71  S   UNL     1      11.666   9.037  -7.595  1.00  0.00     0.124 S 
ATOM     72  O   UNL     1      11.090   9.345  -6.289  1.00  0.00    -0.237 OA
ATOM     73  O   UNL     1      13.125   9.062  -7.659  1.00  0.00    -0.237 OA
ATOM     74  O   UNL     1      10.985   9.643  -8.736  1.00  0.00    -0.744 OA
ENDBRANCH  70  71
ENDBRANCH  51  65
BRANCH  52  75
ATOM     75  C   UNL     1       7.638  -4.971  -8.017  1.00  0.00    -0.014 A 
ATOM     76  C   UNL     1       8.538  -6.052  -8.021  1.00  0.00     0.010 A 
ATOM     77  C   UNL     1       6.256  -5.233  -8.014  1.00  0.00     0.010 A 
ATOM     78  C   UNL     1       8.067  -7.368  -8.035  1.00  0.00     0.020 A 
ATOM     79  C   UNL     1       5.781  -6.548  -8.003  1.00  0.00     0.020 A 
ATOM     80  C   UNL     1       6.690  -7.608  -8.023  1.00  0.00     0.054 A 
BRANCH  80  81
ATOM     81  S   UNL     1       6.102  -9.325  -7.975  1.00  0.00     0.124 S 
ATOM     82  O   UNL     1       6.322  -9.760  -9.350  1.00  0.00    -0.237 OA
ATOM     83  O   UNL     1       6.974  -9.930  -6.971  1.00  0.00    -0.237 OA
ATOM     84  O   UNL     1       4.703  -9.193  -7.574  1.00  0.00    -0.744 OA
ENDBRANCH  80  81
ENDBRANCH  52  75
BRANCH  64  85
ATOM     85  C   UNL     1      10.844  -0.897 -12.688  1.00  0.00    -0.014 A 
ATOM     86  C   UNL     1       9.946  -0.993 -13.765  1.00  0.00     0.010 A 
ATOM     87  C   UNL     1      12.227  -0.965 -12.935  1.00  0.00     0.010 A 
ATOM     88  C   UNL     1      10.423  -1.177 -15.065  1.00  0.00     0.020 A 
ATOM     89  C   UNL     1      12.708  -1.126 -14.236  1.00  0.00     0.020 A 
ATOM     90  C   UNL     1      11.801  -1.243 -15.292  1.00  0.00     0.054 A 
BRANCH  90  91
ATOM     91  S   UNL     1      12.399  -1.429 -16.994  1.00  0.00     0.124 S 
ATOM     92  O   UNL     1      12.139  -2.842 -17.254  1.00  0.00    -0.237 OA
ATOM     93  O   UNL     1      11.562  -0.489 -17.735  1.00  0.00    -0.237 OA
ATOM     94  O   UNL     1      13.811  -1.061 -16.907  1.00  0.00    -0.744 OA
ENDBRANCH  90  91
ENDBRANCH  64  85
ENDBRANCH  38  39
ENDBRANCH  30  33
ENDBRANCH  28  29
ENDBRANCH   1  28
TORSDOF 18
