REMARK SMILES C[C@@H](C(=O)NCCCCNC(=O)c1ccc(-c2c3nc(c(-c4ccc(S(=O)(=O)[O-])cc4)c4ccc([nH]4)c(-c4ccc(S(=O)(=O)[O-])cc4)c4nc(c(-c5ccc(S(=O)(=O)[O-])cc5)c5ccc2[nH]5)C=C4)C=C3)cc1)c1ccc(-c2cccc(OC(=O)NCCC3CCCCC3)c2)c(F)c1
REMARK SMILES IDX 3 1 4 2 5 3 2 5 1 6 73 7 74 8 97 9 75 10 95 11 76 12 96 13
REMARK SMILES IDX 77 14 78 15 94 16 79 17 81 18 80 19 82 20 83 21 84 22 85 23
REMARK SMILES IDX 86 25 87 26 88 27 89 28 93 29 90 30 92 31 91 32 6 33 7 34
REMARK SMILES IDX 8 35 9 36 10 37 11 38 12 40 13 41 14 42 72 43 15 44 71 45
REMARK SMILES IDX 16 46 17 47 18 48 65 49 19 50 70 51 64 52 66 53 20 54 69 55
REMARK SMILES IDX 63 56 62 57 21 59 51 60 32 61 50 62 33 63 36 64 49 65 67 66
REMARK SMILES IDX 34 67 35 68 48 70 68 71 37 72 22 73 23 74 31 75 24 76 30 77
REMARK SMILES IDX 25 78 26 79 27 80 28 81 29 82 52 83 53 84 61 85 54 86 60 87
REMARK SMILES IDX 55 88 56 89 57 90 58 91 59 92 38 93 39 94 47 95 40 96 46 97
REMARK SMILES IDX 41 98 42 99 43 100 44 101 45 102
REMARK H PARENT 5 4 85 24 10 39 66 58 36 69
REMARK Flexibility Score: inf
ROOT
ATOM      1  C   UNL     1       1.091  -2.251   0.743  1.00  0.00     0.227 C 
ATOM      2  O   UNL     1       0.417  -2.803   1.613  1.00  0.00    -0.274 OA
ATOM      3  N   UNL     1       2.409  -2.607   0.670  1.00  0.00    -0.356 N 
ATOM      4  H   UNL     1       2.656  -3.405   1.190  1.00  0.00     0.163 HD
ENDROOT
BRANCH   1   5
ATOM      5  C   UNL     1       0.509  -1.238  -0.268  1.00  0.00     0.105 C 
ATOM      6  C   UNL     1       1.008   0.175   0.064  1.00  0.00     0.023 C 
BRANCH   5   7
ATOM      7  C   UNL     1      -1.021  -1.310  -0.374  1.00  0.00    -0.033 A 
ATOM      8  C   UNL     1      -1.829  -0.162  -0.354  1.00  0.00     0.005 A 
ATOM      9  C   UNL     1      -1.667  -2.551  -0.504  1.00  0.00     0.044 A 
ATOM     10  C   UNL     1      -3.222  -0.250  -0.385  1.00  0.00     0.012 A 
ATOM     11  C   UNL     1      -3.061  -2.634  -0.519  1.00  0.00     0.131 A 
ATOM     12  C   UNL     1      -3.865  -1.491  -0.438  1.00  0.00     0.018 A 
ATOM     13  F   UNL     1      -3.624  -3.851  -0.586  1.00  0.00    -0.206 F 
BRANCH  12  14
ATOM     14  C   UNL     1      -5.324  -1.559  -0.293  1.00  0.00    -0.012 A 
ATOM     15  C   UNL     1      -6.186  -0.861  -1.153  1.00  0.00     0.009 A 
ATOM     16  C   UNL     1      -5.877  -2.254   0.795  1.00  0.00     0.056 A 
ATOM     17  C   UNL     1      -7.563  -0.845  -0.923  1.00  0.00     0.004 A 
ATOM     18  C   UNL     1      -7.246  -2.210   1.043  1.00  0.00     0.133 A 
ATOM     19  C   UNL     1      -8.094  -1.515   0.180  1.00  0.00     0.047 A 
BRANCH  18  20
ATOM     20  O   UNL     1      -7.872  -2.827   2.154  1.00  0.00    -0.410 OA
BRANCH  20  21
ATOM     21  C   UNL     1      -7.200  -3.277   3.288  1.00  0.00     0.412 C 
ATOM     22  O   UNL     1      -5.989  -3.273   3.474  1.00  0.00    -0.224 OA
ATOM     23  N   UNL     1      -8.025  -3.733   4.273  1.00  0.00    -0.321 N 
ATOM     24  H   UNL     1      -7.584  -4.057   5.091  1.00  0.00     0.167 HD
BRANCH  23  25
ATOM     25  C   UNL     1      -9.469  -3.798   4.264  1.00  0.00     0.119 C 
BRANCH  25  26
ATOM     26  C   UNL     1      -9.964  -5.245   4.279  1.00  0.00     0.025 C 
BRANCH  26  27
ATOM     27  C   UNL     1      -9.535  -6.056   5.522  1.00  0.00    -0.009 C 
ATOM     28  C   UNL     1     -10.184  -5.526   6.811  1.00  0.00     0.003 C 
ATOM     29  C   UNL     1      -9.873  -7.542   5.316  1.00  0.00     0.003 C 
ATOM     30  C   UNL     1      -9.834  -6.383   8.027  1.00  0.00     0.000 C 
ATOM     31  C   UNL     1      -9.501  -8.382   6.535  1.00  0.00     0.000 C 
ATOM     32  C   UNL     1     -10.168  -7.852   7.799  1.00  0.00     0.000 C 
ENDBRANCH  26  27
ENDBRANCH  25  26
ENDBRANCH  23  25
ENDBRANCH  20  21
ENDBRANCH  18  20
ENDBRANCH  12  14
ENDBRANCH   5   7
ENDBRANCH   1   5
BRANCH   3  33
ATOM     33  C   UNL     1       3.495  -1.984  -0.057  1.00  0.00     0.116 C 
BRANCH  33  34
ATOM     34  C   UNL     1       4.299  -1.062   0.865  1.00  0.00     0.023 C 
BRANCH  34  35
ATOM     35  C   UNL     1       5.091  -1.785   1.956  1.00  0.00     0.023 C 
BRANCH  35  36
ATOM     36  C   UNL     1       6.080  -2.824   1.446  1.00  0.00     0.116 C 
BRANCH  36  37
ATOM     37  N   UNL     1       7.027  -2.270   0.493  1.00  0.00    -0.352 N 
ATOM     38  C   UNL     1       8.380  -2.469   0.396  1.00  0.00     0.251 C 
ATOM     39  H   UNL     1       6.641  -1.663  -0.179  1.00  0.00     0.163 HD
ATOM     40  O   UNL     1       9.037  -1.780  -0.380  1.00  0.00    -0.269 OA
BRANCH  38  41
ATOM     41  C   UNL     1       9.044  -3.486   1.239  1.00  0.00     0.039 A 
ATOM     42  C   UNL     1      10.276  -3.169   1.814  1.00  0.00     0.014 A 
ATOM     43  C   UNL     1       8.469  -4.741   1.462  1.00  0.00     0.014 A 
ATOM     44  C   UNL     1      10.905  -4.093   2.649  1.00  0.00     0.010 A 
ATOM     45  C   UNL     1       9.056  -5.626   2.363  1.00  0.00     0.010 A 
ATOM     46  C   UNL     1      10.284  -5.316   2.960  1.00  0.00    -0.014 A 
BRANCH  46  47
ATOM     47  C   UNL     1      10.919  -6.252   3.923  1.00  0.00     0.031 A 
ATOM     48  C   UNL     1      11.371  -7.619   3.487  1.00  0.00     0.074 A 
ATOM     49  C   UNL     1      11.082  -5.862   5.204  1.00  0.00     0.049 A 
ATOM     50  N   UNL     1      11.999  -8.536   4.179  1.00  0.00    -0.248 NA
ATOM     51  C   UNL     1      11.065  -8.021   2.104  1.00  0.00     0.031 C 
ATOM     52  C   UNL     1      10.625  -4.587   5.764  1.00  0.00     0.029 A 
ATOM     53  N   UNL     1      11.686  -6.490   6.263  1.00  0.00    -0.354 N 
ATOM     54  C   UNL     1      12.171  -9.613   3.318  1.00  0.00     0.074 A 
ATOM     55  C   UNL     1      11.519  -9.265   2.074  1.00  0.00     0.031 C 
ATOM     56  C   UNL     1      11.006  -4.508   7.048  1.00  0.00     0.029 A 
ATOM     57  C   UNL     1      11.698  -5.739   7.415  1.00  0.00     0.049 A 
ATOM     58  H   UNL     1      12.075  -7.393   6.204  1.00  0.00     0.167 HD
ATOM     59  C   UNL     1      12.835 -10.774   3.531  1.00  0.00     0.031 A 
ATOM     60  C   UNL     1      12.210  -6.008   8.632  1.00  0.00     0.031 A 
ATOM     61  C   UNL     1      13.474 -11.121   4.774  1.00  0.00     0.049 A 
ATOM     62  C   UNL     1      12.938  -7.307   8.844  1.00  0.00     0.074 A 
ATOM     63  C   UNL     1      14.202 -12.258   5.081  1.00  0.00     0.029 A 
ATOM     64  N   UNL     1      13.462 -10.337   5.919  1.00  0.00    -0.354 N 
ATOM     65  N   UNL     1      13.153  -8.280   7.991  1.00  0.00    -0.248 NA
ATOM     66  C   UNL     1      13.510  -7.532  10.177  1.00  0.00     0.031 C 
ATOM     67  C   UNL     1      14.581 -12.187   6.426  1.00  0.00     0.029 A 
ATOM     68  C   UNL     1      14.149 -10.975   6.939  1.00  0.00     0.049 A 
ATOM     69  H   UNL     1      13.028  -9.456   5.995  1.00  0.00     0.167 HD
ATOM     70  C   UNL     1      13.902  -9.228   8.681  1.00  0.00     0.074 A 
ATOM     71  C   UNL     1      14.132  -8.690  10.007  1.00  0.00     0.031 C 
ATOM     72  C   UNL     1      14.353 -10.436   8.260  1.00  0.00     0.031 A 
BRANCH  59  73
ATOM     73  C   UNL     1      12.915 -11.753   2.387  1.00  0.00    -0.014 A 
ATOM     74  C   UNL     1      13.680 -11.463   1.241  1.00  0.00     0.010 A 
ATOM     75  C   UNL     1      12.269 -13.000   2.477  1.00  0.00     0.010 A 
ATOM     76  C   UNL     1      13.771 -12.386   0.196  1.00  0.00     0.020 A 
ATOM     77  C   UNL     1      12.383 -13.938   1.446  1.00  0.00     0.020 A 
ATOM     78  C   UNL     1      13.123 -13.619   0.306  1.00  0.00     0.054 A 
BRANCH  78  79
ATOM     79  S   UNL     1      13.296 -14.812  -1.050  1.00  0.00     0.124 S 
ATOM     80  O   UNL     1      12.509 -14.181  -2.108  1.00  0.00    -0.237 OA
ATOM     81  O   UNL     1      14.739 -14.836  -1.271  1.00  0.00    -0.237 OA
ATOM     82  O   UNL     1      12.730 -16.043  -0.505  1.00  0.00    -0.744 OA
ENDBRANCH  78  79
ENDBRANCH  59  73
BRANCH  60  83
ATOM     83  C   UNL     1      12.053  -5.025   9.739  1.00  0.00    -0.014 A 
ATOM     84  C   UNL     1      13.164  -4.345  10.269  1.00  0.00     0.010 A 
ATOM     85  C   UNL     1      10.777  -4.765  10.273  1.00  0.00     0.010 A 
ATOM     86  C   UNL     1      13.006  -3.449  11.332  1.00  0.00     0.020 A 
ATOM     87  C   UNL     1      10.610  -3.844  11.310  1.00  0.00     0.020 A 
ATOM     88  C   UNL     1      11.729  -3.204  11.845  1.00  0.00     0.054 A 
BRANCH  88  89
ATOM     89  S   UNL     1      11.541  -2.012  13.199  1.00  0.00     0.124 S 
ATOM     90  O   UNL     1      12.102  -2.746  14.329  1.00  0.00    -0.237 OA
ATOM     91  O   UNL     1      12.328  -0.875  12.729  1.00  0.00    -0.237 OA
ATOM     92  O   UNL     1      10.099  -1.782  13.255  1.00  0.00    -0.744 OA
ENDBRANCH  88  89
ENDBRANCH  60  83
BRANCH  72  93
ATOM     93  C   UNL     1      15.158 -11.245   9.245  1.00  0.00    -0.014 A 
ATOM     94  C   UNL     1      14.566 -11.796  10.396  1.00  0.00     0.010 A 
ATOM     95  C   UNL     1      16.529 -11.462   9.012  1.00  0.00     0.010 A 
ATOM     96  C   UNL     1      15.341 -12.491  11.328  1.00  0.00     0.020 A 
ATOM     97  C   UNL     1      17.300 -12.188   9.923  1.00  0.00     0.020 A 
ATOM     98  C   UNL     1      16.706 -12.676  11.088  1.00  0.00     0.054 A 
BRANCH  98  99
ATOM     99  S   UNL     1      17.692 -13.576  12.315  1.00  0.00     0.124 S 
ATOM    100  O   UNL     1      17.786 -12.604  13.400  1.00  0.00    -0.237 OA
ATOM    101  O   UNL     1      16.866 -14.750  12.591  1.00  0.00    -0.237 OA
ATOM    102  O   UNL     1      18.945 -13.854  11.617  1.00  0.00    -0.744 OA
ENDBRANCH  98  99
ENDBRANCH  72  93
ENDBRANCH  46  47
ENDBRANCH  38  41
ENDBRANCH  36  37
ENDBRANCH  35  36
ENDBRANCH  34  35
ENDBRANCH  33  34
ENDBRANCH   3  33
TORSDOF 21
