REMARK SMILES CCc1ccnc(C(=O)c2[nH]c3ccc(OC(F)(F)F)cc3c2CC(=O)NCCCCNC(=O)c2ccc(-c3c4nc(c(-c5ccc(S(=O)(=O)[O-])cc5)c5ccc([nH]5)c(-c5ccc(S(=O)(=O)[O-])cc5)c5nc(c(-c6ccc(S(=O)(=O)[O-])cc6)c6ccc3[nH]6)C=C5)C=C4)cc2)c1
REMARK SMILES IDX 29 1 28 2 27 3 25 4 26 5 24 7 23 8 10 9 11 10 12 11 22 13
REMARK SMILES IDX 13 14 21 15 14 16 15 17 8 18 9 19 7 20 3 21 4 22 95 23 5 24
REMARK SMILES IDX 6 25 2 26 1 27 16 28 17 29 18 30 19 31 20 32 30 33 31 34
REMARK SMILES IDX 32 35 33 36 34 38 35 39 36 40 94 41 37 42 93 43 38 44 39 45
REMARK SMILES IDX 40 46 87 47 41 48 92 49 86 50 88 51 42 52 91 53 85 54 84 55
REMARK SMILES IDX 43 57 73 58 54 59 72 60 55 61 58 62 71 63 89 64 56 65 57 66
REMARK SMILES IDX 70 68 90 69 59 70 44 71 45 72 53 73 46 74 52 75 47 76 48 77
REMARK SMILES IDX 49 78 50 79 51 80 74 81 75 82 83 83 76 84 82 85 77 86 78 87
REMARK SMILES IDX 79 88 80 89 81 90 60 91 61 92 69 93 62 94 68 95 63 96 64 97
REMARK SMILES IDX 65 98 66 99 67 100
REMARK H PARENT 27 6 11 12 32 37 88 56 58 67
REMARK Flexibility Score: inf
ROOT
ATOM      1  C   UNL     1      -3.761   8.376   2.702  1.00  0.00     0.023 C 
ENDROOT
BRANCH   1   2
ATOM      2  C   UNL     1      -3.967   8.700   1.223  1.00  0.00     0.116 C 
BRANCH   2   3
ATOM      3  N   UNL     1      -2.724   8.827   0.492  1.00  0.00    -0.356 N 
ATOM      4  C   UNL     1      -2.103   7.924  -0.323  1.00  0.00     0.224 C 
ATOM      5  O   UNL     1      -1.132   8.307  -0.983  1.00  0.00    -0.275 OA
ATOM      6  H   UNL     1      -2.259   9.688   0.598  1.00  0.00     0.163 HD
BRANCH   4   7
ATOM      7  C   UNL     1      -2.666   6.524  -0.522  1.00  0.00     0.138 C 
BRANCH   7   8
ATOM      8  C   UNL     1      -2.760   5.682   0.720  1.00  0.00    -0.002 A 
ATOM      9  C   UNL     1      -1.718   5.280   1.551  1.00  0.00     0.093 A 
ATOM     10  N   UNL     1      -2.280   4.628   2.625  1.00  0.00    -0.352 N 
ATOM     11  C   UNL     1      -3.633   4.477   2.450  1.00  0.00     0.046 A 
ATOM     12  H   UNL     1      -1.779   4.312   3.412  1.00  0.00     0.167 HD
ATOM     13  C   UNL     1      -3.962   5.108   1.255  1.00  0.00     0.008 A 
ATOM     14  C   UNL     1      -4.585   3.859   3.267  1.00  0.00     0.030 A 
ATOM     15  C   UNL     1      -5.314   5.102   0.851  1.00  0.00     0.057 A 
ATOM     16  C   UNL     1      -5.922   3.878   2.845  1.00  0.00     0.049 A 
ATOM     17  C   UNL     1      -6.292   4.490   1.649  1.00  0.00     0.130 A 
BRANCH   9  18
ATOM     18  C   UNL     1      -0.295   5.559   1.445  1.00  0.00     0.227 C 
ATOM     19  O   UNL     1       0.129   6.706   1.534  1.00  0.00    -0.285 OA
BRANCH  18  20
ATOM     20  C   UNL     1       0.657   4.400   1.256  1.00  0.00     0.113 A 
ATOM     21  C   UNL     1       1.151   2.049   1.025  1.00  0.00    -0.044 A 
ATOM     22  C   UNL     1       2.506   2.385   0.992  1.00  0.00     0.024 A 
ATOM     23  C   UNL     1       0.212   3.082   1.141  1.00  0.00     0.036 A 
ATOM     24  C   UNL     1       2.862   3.720   1.083  1.00  0.00     0.112 A 
ATOM     25  N   UNL     1       1.975   4.723   1.226  1.00  0.00    -0.253 NA
BRANCH  21  26
ATOM     26  C   UNL     1       0.705   0.609   0.984  1.00  0.00     0.032 C 
ATOM     27  C   UNL     1       1.084  -0.103  -0.306  1.00  0.00     0.009 C 
ENDBRANCH  21  26
ENDBRANCH  18  20
ENDBRANCH   9  18
BRANCH  17  28
ATOM     28  O   UNL     1      -7.556   4.577   1.137  1.00  0.00    -0.406 OA
BRANCH  28  29
ATOM     29  C   UNL     1      -8.618   4.023   1.894  1.00  0.00     0.573 C 
ATOM     30  F   UNL     1      -8.455   2.692   2.055  1.00  0.00    -0.132 F 
ATOM     31  F   UNL     1      -8.720   4.614   3.103  1.00  0.00    -0.132 F 
ATOM     32  F   UNL     1      -9.776   4.223   1.227  1.00  0.00    -0.132 F 
ENDBRANCH  28  29
ENDBRANCH  17  28
ENDBRANCH   7   8
ENDBRANCH   4   7
ENDBRANCH   2   3
ENDBRANCH   1   2
BRANCH   1  33
ATOM     33  C   UNL     1      -3.166   9.504   3.548  1.00  0.00     0.023 C 
BRANCH  33  34
ATOM     34  C   UNL     1      -3.954  10.810   3.560  1.00  0.00     0.116 C 
BRANCH  34  35
ATOM     35  N   UNL     1      -5.330  10.648   4.000  1.00  0.00    -0.352 N 
ATOM     36  C   UNL     1      -6.134  11.539   4.671  1.00  0.00     0.251 C 
ATOM     37  H   UNL     1      -5.744   9.779   3.789  1.00  0.00     0.163 HD
ATOM     38  O   UNL     1      -7.248  11.187   5.048  1.00  0.00    -0.269 OA
BRANCH  36  39
ATOM     39  C   UNL     1      -5.645  12.903   4.974  1.00  0.00     0.039 A 
ATOM     40  C   UNL     1      -5.848  13.413   6.261  1.00  0.00     0.014 A 
ATOM     41  C   UNL     1      -5.002  13.681   4.008  1.00  0.00     0.014 A 
ATOM     42  C   UNL     1      -5.350  14.674   6.598  1.00  0.00     0.010 A 
ATOM     43  C   UNL     1      -4.465  14.919   4.357  1.00  0.00     0.010 A 
ATOM     44  C   UNL     1      -4.630  15.424   5.656  1.00  0.00    -0.014 A 
BRANCH  44  45
ATOM     45  C   UNL     1      -4.038  16.737   6.008  1.00  0.00     0.031 A 
ATOM     46  C   UNL     1      -4.583  17.999   5.399  1.00  0.00     0.074 A 
ATOM     47  C   UNL     1      -2.970  16.789   6.827  1.00  0.00     0.049 A 
ATOM     48  N   UNL     1      -4.138  19.224   5.507  1.00  0.00    -0.248 NA
ATOM     49  C   UNL     1      -5.771  17.861   4.543  1.00  0.00     0.031 C 
ATOM     50  C   UNL     1      -2.328  15.635   7.461  1.00  0.00     0.029 A 
ATOM     51  N   UNL     1      -2.227  17.860   7.257  1.00  0.00    -0.354 N 
ATOM     52  C   UNL     1      -4.973  20.000   4.713  1.00  0.00     0.074 A 
ATOM     53  C   UNL     1      -5.940  19.104   4.115  1.00  0.00     0.031 C 
ATOM     54  C   UNL     1      -1.298  16.062   8.211  1.00  0.00     0.029 A 
ATOM     55  C   UNL     1      -1.190  17.512   8.088  1.00  0.00     0.049 A 
ATOM     56  H   UNL     1      -2.420  18.789   6.995  1.00  0.00     0.167 HD
ATOM     57  C   UNL     1      -4.943  21.338   4.506  1.00  0.00     0.031 A 
ATOM     58  C   UNL     1      -0.252  18.276   8.681  1.00  0.00     0.031 A 
ATOM     59  C   UNL     1      -3.996  22.235   5.112  1.00  0.00     0.049 A 
ATOM     60  C   UNL     1      -0.262  19.762   8.463  1.00  0.00     0.074 A 
ATOM     61  C   UNL     1      -3.898  23.608   4.973  1.00  0.00     0.029 A 
ATOM     62  N   UNL     1      -2.991  21.847   5.983  1.00  0.00    -0.354 N 
ATOM     63  N   UNL     1      -1.068  20.478   7.717  1.00  0.00    -0.248 NA
ATOM     64  C   UNL     1       0.761  20.543   9.174  1.00  0.00     0.031 C 
ATOM     65  C   UNL     1      -2.824  24.051   5.756  1.00  0.00     0.029 A 
ATOM     66  C   UNL     1      -2.272  22.954   6.397  1.00  0.00     0.049 A 
ATOM     67  H   UNL     1      -2.815  20.921   6.266  1.00  0.00     0.167 HD
ATOM     68  C   UNL     1      -0.663  21.796   7.885  1.00  0.00     0.074 A 
ATOM     69  C   UNL     1       0.455  21.780   8.807  1.00  0.00     0.031 C 
ATOM     70  C   UNL     1      -1.171  22.920   7.324  1.00  0.00     0.031 A 
BRANCH  57  71
ATOM     71  C   UNL     1      -5.973  21.907   3.571  1.00  0.00    -0.014 A 
ATOM     72  C   UNL     1      -7.305  22.076   3.988  1.00  0.00     0.010 A 
ATOM     73  C   UNL     1      -5.604  22.285   2.268  1.00  0.00     0.010 A 
ATOM     74  C   UNL     1      -8.262  22.576   3.102  1.00  0.00     0.020 A 
ATOM     75  C   UNL     1      -6.556  22.802   1.385  1.00  0.00     0.020 A 
ATOM     76  C   UNL     1      -7.884  22.925   1.802  1.00  0.00     0.054 A 
BRANCH  76  77
ATOM     77  S   UNL     1      -9.139  23.574   0.664  1.00  0.00     0.124 S 
ATOM     78  O   UNL     1      -9.768  22.347   0.181  1.00  0.00    -0.237 OA
ATOM     79  O   UNL     1      -9.971  24.405   1.532  1.00  0.00    -0.237 OA
ATOM     80  O   UNL     1      -8.356  24.307  -0.328  1.00  0.00    -0.744 OA
ENDBRANCH  76  77
ENDBRANCH  57  71
BRANCH  58  81
ATOM     81  C   UNL     1       0.765  17.648   9.563  1.00  0.00    -0.014 A 
ATOM     82  C   UNL     1       0.638  17.736  10.960  1.00  0.00     0.010 A 
ATOM     83  C   UNL     1       1.856  16.954   9.012  1.00  0.00     0.010 A 
ATOM     84  C   UNL     1       1.596  17.154  11.794  1.00  0.00     0.020 A 
ATOM     85  C   UNL     1       2.807  16.357   9.844  1.00  0.00     0.020 A 
ATOM     86  C   UNL     1       2.677  16.472  11.231  1.00  0.00     0.054 A 
BRANCH  86  87
ATOM     87  S   UNL     1       3.888  15.676  12.324  1.00  0.00     0.124 S 
ATOM     88  O   UNL     1       4.786  16.782  12.636  1.00  0.00    -0.237 OA
ATOM     89  O   UNL     1       3.061  15.200  13.431  1.00  0.00    -0.237 OA
ATOM     90  O   UNL     1       4.454  14.621  11.486  1.00  0.00    -0.744 OA
ENDBRANCH  86  87
ENDBRANCH  58  81
BRANCH  70  91
ATOM     91  C   UNL     1      -0.548  24.226   7.723  1.00  0.00    -0.014 A 
ATOM     92  C   UNL     1       0.663  24.653   7.152  1.00  0.00     0.010 A 
ATOM     93  C   UNL     1      -1.206  25.055   8.649  1.00  0.00     0.010 A 
ATOM     94  C   UNL     1       1.220  25.881   7.519  1.00  0.00     0.020 A 
ATOM     95  C   UNL     1      -0.659  26.288   9.008  1.00  0.00     0.020 A 
ATOM     96  C   UNL     1       0.558  26.688   8.450  1.00  0.00     0.054 A 
BRANCH  96  97
ATOM     97  S   UNL     1       1.268  28.300   8.885  1.00  0.00     0.124 S 
ATOM     98  O   UNL     1       2.249  27.934   9.903  1.00  0.00    -0.237 OA
ATOM     99  O   UNL     1       1.824  28.767   7.617  1.00  0.00    -0.237 OA
ATOM    100  O   UNL     1       0.118  29.061   9.369  1.00  0.00    -0.744 OA
ENDBRANCH  96  97
ENDBRANCH  70  91
ENDBRANCH  44  45
ENDBRANCH  36  39
ENDBRANCH  34  35
ENDBRANCH  33  34
ENDBRANCH   1  33
TORSDOF 20
