REMARK SMILES CCOCCC(=O)Nc1cc(C(=O)NCCCCNC(=O)c2ccc(-c3c4nc(c(-c5ccc(S(=O)(=O)[O-])cc5)c5ccc([nH]5)c(-c5ccc(S(=O)(=O)[O-])cc5)c5nc(c(-c6ccc(S(=O)(=O)[O-])cc6)c6ccc3[nH]6)C=C5)C=C4)cc2)ccc1Cl
REMARK SMILES IDX 15 1 14 2 12 3 13 4 11 6 9 7 10 8 84 9 83 10 85 11 82 12
REMARK SMILES IDX 8 13 6 14 7 15 5 17 4 18 3 19 2 20 1 21 16 22 17 23 18 24
REMARK SMILES IDX 19 25 20 26 21 28 22 29 23 30 81 31 24 32 80 33 25 34 26 35
REMARK SMILES IDX 27 36 74 37 28 38 79 39 73 40 75 41 29 42 78 43 72 44 71 45
REMARK SMILES IDX 30 47 60 48 41 49 59 50 42 51 45 52 58 53 76 54 43 55 44 56
REMARK SMILES IDX 57 58 77 59 46 60 31 61 32 62 40 63 33 64 39 65 34 66 35 67
REMARK SMILES IDX 36 68 37 69 38 70 61 71 62 72 70 73 63 74 69 75 64 76 65 77
REMARK SMILES IDX 66 78 67 79 68 80 47 81 48 82 56 83 49 84 55 85 50 86 51 87
REMARK SMILES IDX 52 88 53 89 54 90
REMARK H PARENT 14 5 8 16 19 27 75 46 45 57
REMARK Flexibility Score: inf
ROOT
ATOM      1  C   UNL     1      -4.600   0.101   4.650  1.00  0.00     0.116 C 
ENDROOT
BRANCH   1   2
ATOM      2  N   UNL     1      -4.560  -1.354   4.636  1.00  0.00    -0.352 N 
ATOM      3  C   UNL     1      -3.461  -2.177   4.498  1.00  0.00     0.251 C 
ATOM      4  O   UNL     1      -3.586  -3.395   4.443  1.00  0.00    -0.269 OA
ATOM      5  H   UNL     1      -5.428  -1.809   4.737  1.00  0.00     0.163 HD
BRANCH   3   6
ATOM      6  C   UNL     1      -2.124  -1.567   4.319  1.00  0.00     0.041 A 
ATOM      7  C   UNL     1      -0.154  -1.320   2.919  1.00  0.00     0.060 A 
ATOM      8  C   UNL     1      -1.305  -2.032   3.285  1.00  0.00     0.041 A 
ATOM      9  C   UNL     1       0.005  -0.042   3.473  1.00  0.00     0.064 A 
ATOM     10  C   UNL     1      -0.695   0.324   4.625  1.00  0.00     0.023 A 
ATOM     11  Cl  UNL     1       0.714   1.286   2.621  1.00  0.00    -0.082 Cl
ATOM     12  C   UNL     1      -1.714  -0.487   5.098  1.00  0.00     0.015 A 
BRANCH   7  13
ATOM     13  N   UNL     1       0.716  -2.012   2.050  1.00  0.00    -0.325 N 
ATOM     14  C   UNL     1       2.058  -1.959   1.817  1.00  0.00     0.226 C 
ATOM     15  O   UNL     1       2.530  -2.822   1.065  1.00  0.00    -0.275 OA
ATOM     16  H   UNL     1       0.254  -2.677   1.490  1.00  0.00     0.169 HD
BRANCH  14  17
ATOM     17  C   UNL     1       2.982  -0.954   2.444  1.00  0.00     0.129 C 
BRANCH  17  18
ATOM     18  C   UNL     1       3.674  -0.082   1.394  1.00  0.00     0.170 C 
BRANCH  18  19
ATOM     19  O   UNL     1       2.834   0.686   0.529  1.00  0.00    -0.381 OA
BRANCH  19  20
ATOM     20  C   UNL     1       2.171  -0.070  -0.485  1.00  0.00     0.156 C 
ATOM     21  C   UNL     1       1.837   0.834  -1.653  1.00  0.00     0.035 C 
ENDBRANCH  19  20
ENDBRANCH  18  19
ENDBRANCH  17  18
ENDBRANCH  14  17
ENDBRANCH   7  13
ENDBRANCH   3   6
ENDBRANCH   1   2
BRANCH   1  22
ATOM     22  C   UNL     1      -5.858   0.718   4.059  1.00  0.00     0.023 C 
BRANCH  22  23
ATOM     23  C   UNL     1      -7.164   0.337   4.742  1.00  0.00     0.023 C 
BRANCH  23  24
ATOM     24  C   UNL     1      -7.170   0.430   6.261  1.00  0.00     0.116 C 
BRANCH  24  25
ATOM     25  N   UNL     1      -6.840   1.752   6.773  1.00  0.00    -0.352 N 
ATOM     26  C   UNL     1      -7.469   2.469   7.771  1.00  0.00     0.251 C 
ATOM     27  H   UNL     1      -6.067   2.193   6.353  1.00  0.00     0.163 HD
ATOM     28  O   UNL     1      -7.108   3.600   8.045  1.00  0.00    -0.269 OA
BRANCH  26  29
ATOM     29  C   UNL     1      -8.621   1.852   8.466  1.00  0.00     0.039 A 
ATOM     30  C   UNL     1      -9.831   2.547   8.510  1.00  0.00     0.014 A 
ATOM     31  C   UNL     1      -8.523   0.561   8.990  1.00  0.00     0.014 A 
ATOM     32  C   UNL     1     -10.971   1.910   9.005  1.00  0.00     0.010 A 
ATOM     33  C   UNL     1      -9.675  -0.099   9.404  1.00  0.00     0.010 A 
ATOM     34  C   UNL     1     -10.911   0.567   9.413  1.00  0.00    -0.014 A 
BRANCH  34  35
ATOM     35  C   UNL     1     -12.127  -0.162   9.855  1.00  0.00     0.031 A 
ATOM     36  C   UNL     1     -12.214  -0.686  11.263  1.00  0.00     0.074 A 
ATOM     37  C   UNL     1     -13.116  -0.418   8.975  1.00  0.00     0.049 A 
ATOM     38  N   UNL     1     -13.154  -1.408  11.818  1.00  0.00    -0.248 NA
ATOM     39  C   UNL     1     -11.082  -0.386  12.155  1.00  0.00     0.031 C 
ATOM     40  C   UNL     1     -13.129  -0.010   7.568  1.00  0.00     0.029 A 
ATOM     41  N   UNL     1     -14.301  -1.093   9.133  1.00  0.00    -0.354 N 
ATOM     42  C   UNL     1     -12.715  -1.668  13.111  1.00  0.00     0.074 A 
ATOM     43  C   UNL     1     -11.404  -1.073  13.241  1.00  0.00     0.031 C 
ATOM     44  C   UNL     1     -14.277  -0.416   7.001  1.00  0.00     0.029 A 
ATOM     45  C   UNL     1     -15.065  -1.144   7.990  1.00  0.00     0.049 A 
ATOM     46  H   UNL     1     -14.578  -1.501   9.985  1.00  0.00     0.167 HD
ATOM     47  C   UNL     1     -13.354  -2.323  14.109  1.00  0.00     0.031 A 
ATOM     48  C   UNL     1     -16.265  -1.714   7.764  1.00  0.00     0.031 A 
ATOM     49  C   UNL     1     -14.668  -2.894  13.984  1.00  0.00     0.049 A 
ATOM     50  C   UNL     1     -16.965  -2.421   8.893  1.00  0.00     0.074 A 
ATOM     51  C   UNL     1     -15.427  -3.526  14.953  1.00  0.00     0.029 A 
ATOM     52  N   UNL     1     -15.420  -2.897  12.819  1.00  0.00    -0.354 N 
ATOM     53  N   UNL     1     -16.561  -2.602  10.127  1.00  0.00    -0.248 NA
ATOM     54  C   UNL     1     -18.290  -2.986   8.602  1.00  0.00     0.031 C 
ATOM     55  C   UNL     1     -16.623  -3.947  14.363  1.00  0.00     0.029 A 
ATOM     56  C   UNL     1     -16.630  -3.531  13.041  1.00  0.00     0.049 A 
ATOM     57  H   UNL     1     -15.136  -2.505  11.962  1.00  0.00     0.167 HD
ATOM     58  C   UNL     1     -17.594  -3.275  10.769  1.00  0.00     0.074 A 
ATOM     59  C   UNL     1     -18.645  -3.459   9.789  1.00  0.00     0.031 C 
ATOM     60  C   UNL     1     -17.667  -3.700  12.055  1.00  0.00     0.031 A 
BRANCH  47  61
ATOM     61  C   UNL     1     -12.632  -2.452  15.424  1.00  0.00    -0.014 A 
ATOM     62  C   UNL     1     -12.414  -1.330  16.244  1.00  0.00     0.010 A 
ATOM     63  C   UNL     1     -12.180  -3.712  15.854  1.00  0.00     0.010 A 
ATOM     64  C   UNL     1     -11.713  -1.456  17.445  1.00  0.00     0.020 A 
ATOM     65  C   UNL     1     -11.503  -3.848  17.070  1.00  0.00     0.020 A 
ATOM     66  C   UNL     1     -11.256  -2.715  17.847  1.00  0.00     0.054 A 
BRANCH  66  67
ATOM     67  S   UNL     1     -10.356  -2.852  19.416  1.00  0.00     0.124 S 
ATOM     68  O   UNL     1      -9.056  -2.286  19.066  1.00  0.00    -0.237 OA
ATOM     69  O   UNL     1     -11.167  -2.046  20.324  1.00  0.00    -0.237 OA
ATOM     70  O   UNL     1     -10.357  -4.287  19.691  1.00  0.00    -0.744 OA
ENDBRANCH  66  67
ENDBRANCH  47  61
BRANCH  48  71
ATOM     71  C   UNL     1     -16.895  -1.613   6.419  1.00  0.00    -0.014 A 
ATOM     72  C   UNL     1     -18.010  -0.778   6.218  1.00  0.00     0.010 A 
ATOM     73  C   UNL     1     -16.378  -2.336   5.330  1.00  0.00     0.010 A 
ATOM     74  C   UNL     1     -18.605  -0.682   4.957  1.00  0.00     0.020 A 
ATOM     75  C   UNL     1     -16.954  -2.223   4.061  1.00  0.00     0.020 A 
ATOM     76  C   UNL     1     -18.072  -1.404   3.885  1.00  0.00     0.054 A 
BRANCH  76  77
ATOM     77  S   UNL     1     -18.826  -1.220   2.244  1.00  0.00     0.124 S 
ATOM     78  O   UNL     1     -20.052  -1.999   2.385  1.00  0.00    -0.237 OA
ATOM     79  O   UNL     1     -19.002   0.226   2.137  1.00  0.00    -0.237 OA
ATOM     80  O   UNL     1     -17.823  -1.785   1.344  1.00  0.00    -0.744 OA
ENDBRANCH  76  77
ENDBRANCH  48  71
BRANCH  60  81
ATOM     81  C   UNL     1     -18.942  -4.370  12.492  1.00  0.00    -0.014 A 
ATOM     82  C   UNL     1     -19.259  -5.676  12.081  1.00  0.00     0.010 A 
ATOM     83  C   UNL     1     -19.806  -3.698  13.376  1.00  0.00     0.010 A 
ATOM     84  C   UNL     1     -20.434  -6.288  12.524  1.00  0.00     0.020 A 
ATOM     85  C   UNL     1     -20.968  -4.317  13.841  1.00  0.00     0.020 A 
ATOM     86  C   UNL     1     -21.282  -5.604  13.401  1.00  0.00     0.054 A 
BRANCH  86  87
ATOM     87  S   UNL     1     -22.778  -6.437  13.999  1.00  0.00     0.124 S 
ATOM     88  O   UNL     1     -23.653  -6.363  12.832  1.00  0.00    -0.237 OA
ATOM     89  O   UNL     1     -22.291  -7.772  14.335  1.00  0.00    -0.237 OA
ATOM     90  O   UNL     1     -23.192  -5.626  15.142  1.00  0.00    -0.744 OA
ENDBRANCH  86  87
ENDBRANCH  60  81
ENDBRANCH  34  35
ENDBRANCH  26  29
ENDBRANCH  24  25
ENDBRANCH  23  24
ENDBRANCH  22  23
ENDBRANCH   1  22
TORSDOF 19
