REMARK SMILES CC(C)Cc1ccc(S(=O)(=O)Nc2cnc(N3CCCC3)c(C(=O)NCCCCNC(=O)c3ccc(-c4c5nc(c(-c6ccc(S(=O)(=O)[O-])cc6)c6ccc([nH]6)c(-c6ccc(S(=O)(=O)[O-])cc6)c6nc(c(-c7ccc(S(=O)(=O)[O-])cc7)c7ccc4[nH]7)C=C6)C=C5)cc3)c2)cc1
REMARK SMILES IDX 26 1 25 2 23 3 24 4 22 6 13 7 14 8 93 9 15 10 16 11 12 12
REMARK SMILES IDX 9 14 10 15 11 16 8 17 5 18 6 19 95 20 7 21 94 22 4 23 2 24
REMARK SMILES IDX 1 25 3 26 17 27 18 28 21 29 19 30 20 31 27 32 28 33 29 34
REMARK SMILES IDX 30 35 31 36 32 38 33 39 34 40 92 41 35 42 91 43 36 44 37 45
REMARK SMILES IDX 38 46 85 47 39 48 90 49 84 50 86 51 40 52 89 53 83 54 82 55
REMARK SMILES IDX 41 57 71 58 52 59 70 60 53 61 56 62 69 63 87 64 54 65 55 66
REMARK SMILES IDX 68 68 88 69 57 70 42 71 43 72 51 73 44 74 50 75 45 76 46 77
REMARK SMILES IDX 47 78 48 79 49 80 72 81 73 82 81 83 74 84 80 85 75 86 76 87
REMARK SMILES IDX 77 88 78 89 79 90 58 91 59 92 67 93 60 94 66 95 61 96 62 97
REMARK SMILES IDX 63 98 64 99 65 100
REMARK H PARENT 25 5 12 13 30 37 86 56 56 67
REMARK Flexibility Score: inf
ROOT
ATOM      1  C   UNL     1      -5.082  -0.960  -1.730  1.00  0.00     0.116 C 
ENDROOT
BRANCH   1   2
ATOM      2  N   UNL     1      -5.408  -2.364  -1.629  1.00  0.00    -0.352 N 
ATOM      3  C   UNL     1      -5.389  -3.438  -2.482  1.00  0.00     0.255 C 
ATOM      4  O   UNL     1      -5.820  -4.464  -1.960  1.00  0.00    -0.269 OA
ATOM      5  H   UNL     1      -5.721  -2.609  -0.728  1.00  0.00     0.163 HD
BRANCH   3   6
ATOM      6  C   UNL     1      -4.833  -3.408  -3.885  1.00  0.00     0.084 A 
ATOM      7  C   UNL     1      -3.748  -2.131  -5.628  1.00  0.00     0.068 A 
ATOM      8  C   UNL     1      -3.301  -3.325  -6.159  1.00  0.00     0.140 A 
ATOM      9  C   UNL     1      -4.641  -2.195  -4.569  1.00  0.00     0.046 A 
ATOM     10  N   UNL     1      -3.584  -4.528  -5.628  1.00  0.00    -0.236 NA
ATOM     11  C   UNL     1      -4.330  -4.585  -4.490  1.00  0.00     0.141 A 
BRANCH   7  12
ATOM     12  N   UNL     1      -3.277  -0.923  -6.239  1.00  0.00    -0.278 N 
ATOM     13  H   UNL     1      -3.184  -0.882  -7.218  1.00  0.00     0.180 HD
BRANCH  12  14
ATOM     14  S   UNL     1      -2.874   0.441  -5.305  1.00  0.00     0.261 S 
ATOM     15  O   UNL     1      -4.156   1.011  -4.916  1.00  0.00    -0.201 OA
ATOM     16  O   UNL     1      -1.936   1.209  -6.083  1.00  0.00    -0.201 OA
BRANCH  14  17
ATOM     17  C   UNL     1      -2.059  -0.039  -3.798  1.00  0.00     0.087 A 
ATOM     18  C   UNL     1      -1.186  -0.786  -1.235  1.00  0.00    -0.048 A 
ATOM     19  C   UNL     1      -1.664   0.509  -1.466  1.00  0.00     0.005 A 
ATOM     20  C   UNL     1      -1.090  -1.678  -2.313  1.00  0.00     0.005 A 
ATOM     21  C   UNL     1      -2.106   0.879  -2.738  1.00  0.00     0.022 A 
ATOM     22  C   UNL     1      -1.498  -1.299  -3.598  1.00  0.00     0.022 A 
BRANCH  18  23
ATOM     23  C   UNL     1      -0.796  -1.217   0.162  1.00  0.00     0.038 C 
BRANCH  23  24
ATOM     24  C   UNL     1       0.721  -1.388   0.364  1.00  0.00    -0.013 C 
ATOM     25  C   UNL     1       1.461  -0.053   0.260  1.00  0.00     0.008 C 
ATOM     26  C   UNL     1       0.997  -2.025   1.728  1.00  0.00     0.008 C 
ENDBRANCH  23  24
ENDBRANCH  18  23
ENDBRANCH  14  17
ENDBRANCH  12  14
ENDBRANCH   7  12
BRANCH  11  27
ATOM     27  N   UNL     1      -4.494  -5.844  -3.997  1.00  0.00    -0.356 N 
ATOM     28  C   UNL     1      -5.774  -6.513  -3.858  1.00  0.00     0.118 C 
ATOM     29  C   UNL     1      -3.392  -6.789  -3.925  1.00  0.00     0.118 C 
ATOM     30  C   UNL     1      -5.413  -7.639  -2.897  1.00  0.00     0.023 C 
ATOM     31  C   UNL     1      -4.045  -8.079  -3.410  1.00  0.00     0.023 C 
ENDBRANCH  11  27
ENDBRANCH   3   6
ENDBRANCH   1   2
BRANCH   1  32
ATOM     32  C   UNL     1      -6.343  -0.139  -1.982  1.00  0.00     0.023 C 
BRANCH  32  33
ATOM     33  C   UNL     1      -7.248  -0.014  -0.750  1.00  0.00     0.023 C 
BRANCH  33  34
ATOM     34  C   UNL     1      -6.580   0.588   0.482  1.00  0.00     0.116 C 
BRANCH  34  35
ATOM     35  N   UNL     1      -5.954   1.874   0.218  1.00  0.00    -0.352 N 
ATOM     36  C   UNL     1      -5.794   2.936   1.073  1.00  0.00     0.251 C 
ATOM     37  H   UNL     1      -5.599   1.999  -0.692  1.00  0.00     0.163 HD
ATOM     38  O   UNL     1      -5.332   3.995   0.664  1.00  0.00    -0.269 OA
BRANCH  36  39
ATOM     39  C   UNL     1      -6.218   2.797   2.479  1.00  0.00     0.039 A 
ATOM     40  C   UNL     1      -7.081   3.755   3.018  1.00  0.00     0.014 A 
ATOM     41  C   UNL     1      -5.787   1.714   3.251  1.00  0.00     0.014 A 
ATOM     42  C   UNL     1      -7.557   3.597   4.319  1.00  0.00     0.010 A 
ATOM     43  C   UNL     1      -6.303   1.531   4.530  1.00  0.00     0.010 A 
ATOM     44  C   UNL     1      -7.192   2.471   5.075  1.00  0.00    -0.014 A 
BRANCH  44  45
ATOM     45  C   UNL     1      -7.734   2.259   6.439  1.00  0.00     0.031 A 
ATOM     46  C   UNL     1      -6.823   2.329   7.631  1.00  0.00     0.074 A 
ATOM     47  C   UNL     1      -9.035   1.944   6.595  1.00  0.00     0.049 A 
ATOM     48  N   UNL     1      -7.102   2.125   8.893  1.00  0.00    -0.248 NA
ATOM     49  C   UNL     1      -5.410   2.644   7.369  1.00  0.00     0.031 C 
ATOM     50  C   UNL     1     -10.009   1.800   5.510  1.00  0.00     0.029 A 
ATOM     51  N   UNL     1      -9.759   1.679   7.729  1.00  0.00    -0.354 N 
ATOM     52  C   UNL     1      -5.898   2.267   9.573  1.00  0.00     0.074 A 
ATOM     53  C   UNL     1      -4.881   2.536   8.580  1.00  0.00     0.031 C 
ATOM     54  C   UNL     1     -11.207   1.495   6.034  1.00  0.00     0.029 A 
ATOM     55  C   UNL     1     -11.081   1.394   7.485  1.00  0.00     0.049 A 
ATOM     56  H   UNL     1      -9.369   1.693   8.633  1.00  0.00     0.167 HD
ATOM     57  C   UNL     1      -5.663   2.196  10.905  1.00  0.00     0.031 A 
ATOM     58  C   UNL     1     -12.080   1.087   8.334  1.00  0.00     0.031 A 
ATOM     59  C   UNL     1      -6.679   1.947  11.892  1.00  0.00     0.049 A 
ATOM     60  C   UNL     1     -11.801   1.042   9.810  1.00  0.00     0.074 A 
ATOM     61  C   UNL     1      -6.551   1.911  13.269  1.00  0.00     0.029 A 
ATOM     62  N   UNL     1      -8.012   1.696  11.606  1.00  0.00    -0.354 N 
ATOM     63  N   UNL     1     -10.667   1.238  10.439  1.00  0.00    -0.248 NA
ATOM     64  C   UNL     1     -12.940   0.749  10.691  1.00  0.00     0.031 C 
ATOM     65  C   UNL     1      -7.803   1.607  13.816  1.00  0.00     0.029 A 
ATOM     66  C   UNL     1      -8.717   1.494  12.780  1.00  0.00     0.049 A 
ATOM     67  H   UNL     1      -8.400   1.667  10.702  1.00  0.00     0.167 HD
ATOM     68  C   UNL     1     -10.960   1.114  11.792  1.00  0.00     0.074 A 
ATOM     69  C   UNL     1     -12.380   0.838  11.890  1.00  0.00     0.031 C 
ATOM     70  C   UNL     1     -10.129   1.220  12.858  1.00  0.00     0.031 A 
BRANCH  57  71
ATOM     71  C   UNL     1      -4.244   2.389  11.364  1.00  0.00    -0.014 A 
ATOM     72  C   UNL     1      -3.639   3.659  11.328  1.00  0.00     0.010 A 
ATOM     73  C   UNL     1      -3.510   1.293  11.850  1.00  0.00     0.010 A 
ATOM     74  C   UNL     1      -2.309   3.820  11.725  1.00  0.00     0.020 A 
ATOM     75  C   UNL     1      -2.187   1.454  12.271  1.00  0.00     0.020 A 
ATOM     76  C   UNL     1      -1.588   2.714  12.185  1.00  0.00     0.054 A 
BRANCH  76  77
ATOM     77  S   UNL     1       0.136   2.947  12.698  1.00  0.00     0.124 S 
ATOM     78  O   UNL     1       0.824   3.013  11.411  1.00  0.00    -0.237 OA
ATOM     79  O   UNL     1       0.085   4.199  13.448  1.00  0.00    -0.237 OA
ATOM     80  O   UNL     1       0.422   1.758  13.497  1.00  0.00    -0.744 OA
ENDBRANCH  76  77
ENDBRANCH  57  71
BRANCH  58  81
ATOM     81  C   UNL     1     -13.445   0.830   7.807  1.00  0.00    -0.014 A 
ATOM     82  C   UNL     1     -14.456   1.795   7.955  1.00  0.00     0.010 A 
ATOM     83  C   UNL     1     -13.735  -0.370   7.133  1.00  0.00     0.010 A 
ATOM     84  C   UNL     1     -15.738   1.560   7.451  1.00  0.00     0.020 A 
ATOM     85  C   UNL     1     -15.011  -0.600   6.610  1.00  0.00     0.020 A 
ATOM     86  C   UNL     1     -16.007   0.363   6.781  1.00  0.00     0.054 A 
BRANCH  86  87
ATOM     87  S   UNL     1     -17.661   0.102   6.080  1.00  0.00     0.124 S 
ATOM     88  O   UNL     1     -18.434  -0.272   7.260  1.00  0.00    -0.237 OA
ATOM     89  O   UNL     1     -17.974   1.408   5.505  1.00  0.00    -0.237 OA
ATOM     90  O   UNL     1     -17.450  -0.964   5.103  1.00  0.00    -0.744 OA
ENDBRANCH  86  87
ENDBRANCH  58  81
BRANCH  70  91
ATOM     91  C   UNL     1     -10.739   1.066  14.223  1.00  0.00    -0.014 A 
ATOM     92  C   UNL     1     -11.099  -0.199  14.717  1.00  0.00     0.010 A 
ATOM     93  C   UNL     1     -10.907   2.199  15.040  1.00  0.00     0.010 A 
ATOM     94  C   UNL     1     -11.645  -0.326  15.997  1.00  0.00     0.020 A 
ATOM     95  C   UNL     1     -11.433   2.073  16.327  1.00  0.00     0.020 A 
ATOM     96  C   UNL     1     -11.812   0.811  16.793  1.00  0.00     0.054 A 
BRANCH  96  97
ATOM     97  S   UNL     1     -12.481   0.620  18.468  1.00  0.00     0.124 S 
ATOM     98  O   UNL     1     -13.910   0.474  18.208  1.00  0.00    -0.237 OA
ATOM     99  O   UNL     1     -11.804  -0.580  18.953  1.00  0.00    -0.237 OA
ATOM    100  O   UNL     1     -12.092   1.859  19.138  1.00  0.00    -0.744 OA
ENDBRANCH  96  97
ENDBRANCH  70  91
ENDBRANCH  44  45
ENDBRANCH  36  39
ENDBRANCH  34  35
ENDBRANCH  33  34
ENDBRANCH  32  33
ENDBRANCH   1  32
TORSDOF 20
