REMARK SMILES Nc1c(Nc2ccc(I)cc2)ncnc1Nc1ccc(C(=O)NCCCCNC(=O)c2ccc(-c3c4nc(c(-c5ccc(S(=O)(=O)[O-])cc5)c5ccc([nH]5)c(-c5ccc(S(=O)(=O)[O-])cc5)c5nc(c(-c6ccc(S(=O)(=O)[O-])cc6)c6ccc3[nH]6)C=C5)C=C4)cc2)cc1
REMARK SMILES IDX 25 1 24 2 23 3 21 4 22 5 20 7 17 8 18 9 92 10 19 11 91 12
REMARK SMILES IDX 16 13 15 15 2 16 3 17 12 18 14 19 13 20 1 21 4 24 5 26 6 27
REMARK SMILES IDX 11 28 7 29 10 30 8 31 9 32 26 33 27 34 28 35 29 36 30 38
REMARK SMILES IDX 31 39 32 40 90 41 33 42 89 43 34 44 35 45 36 46 83 47 37 48
REMARK SMILES IDX 88 49 82 50 84 51 38 52 87 53 81 54 80 55 39 57 69 58 50 59
REMARK SMILES IDX 68 60 51 61 54 62 67 63 85 64 52 65 53 66 66 68 86 69 55 70
REMARK SMILES IDX 40 71 41 72 49 73 42 74 48 75 43 76 44 77 45 78 46 79 47 80
REMARK SMILES IDX 70 81 71 82 79 83 72 84 78 85 73 86 74 87 75 88 76 89 77 90
REMARK SMILES IDX 56 91 57 92 65 93 58 94 64 95 59 96 60 97 61 98 62 99 63 100
REMARK H PARENT 23 6 16 14 1 22 1 23 4 25 28 37 84 56 54 67
REMARK Flexibility Score: inf
ROOT
ATOM      1  C   UNL     1       4.369  -7.120  -5.323  1.00  0.00     0.023 C 
ENDROOT
BRANCH   1   2
ATOM      2  C   UNL     1       3.132  -7.671  -4.610  1.00  0.00     0.116 C 
BRANCH   2   3
ATOM      3  N   UNL     1       3.494  -8.262  -3.337  1.00  0.00    -0.352 N 
ATOM      4  C   UNL     1       3.510  -7.770  -2.057  1.00  0.00     0.251 C 
ATOM      5  O   UNL     1       3.850  -8.544  -1.160  1.00  0.00    -0.269 OA
ATOM      6  H   UNL     1       3.785  -9.200  -3.404  1.00  0.00     0.163 HD
BRANCH   4   7
ATOM      7  C   UNL     1       3.096  -6.383  -1.685  1.00  0.00     0.039 A 
ATOM      8  C   UNL     1       2.172  -3.854  -0.799  1.00  0.00     0.040 A 
ATOM      9  C   UNL     1       2.225  -4.936   0.081  1.00  0.00     0.027 A 
ATOM     10  C   UNL     1       2.625  -4.039  -2.108  1.00  0.00     0.027 A 
ATOM     11  C   UNL     1       2.674  -6.186  -0.360  1.00  0.00     0.016 A 
ATOM     12  C   UNL     1       3.114  -5.279  -2.536  1.00  0.00     0.016 A 
BRANCH   8  13
ATOM     13  N   UNL     1       1.569  -2.647  -0.406  1.00  0.00    -0.338 N 
ATOM     14  H   UNL     1       1.937  -2.193   0.387  1.00  0.00     0.168 HD
BRANCH  13  15
ATOM     15  C   UNL     1       0.472  -2.031  -1.061  1.00  0.00     0.159 A 
ATOM     16  C   UNL     1       0.149  -0.706  -0.741  1.00  0.00     0.118 A 
ATOM     17  C   UNL     1      -0.969  -0.186  -1.409  1.00  0.00     0.159 A 
ATOM     18  N   UNL     1      -1.723  -0.924  -2.245  1.00  0.00    -0.217 NA
ATOM     19  N   UNL     1      -0.239  -2.756  -1.945  1.00  0.00    -0.217 NA
ATOM     20  C   UNL     1      -1.310  -2.170  -2.482  1.00  0.00     0.226 A 
BRANCH  16  21
ATOM     21  N   UNL     1       0.936   0.078   0.114  1.00  0.00    -0.393 N 
ATOM     22  H   UNL     1       0.672   1.005   0.313  1.00  0.00     0.156 HD
ATOM     23  H   UNL     1       1.752  -0.299   0.516  1.00  0.00     0.156 HD
ENDBRANCH  16  21
BRANCH  17  24
ATOM     24  N   UNL     1      -1.299   1.178  -1.210  1.00  0.00    -0.338 N 
ATOM     25  H   UNL     1      -0.628   1.729  -0.745  1.00  0.00     0.168 HD
BRANCH  24  26
ATOM     26  C   UNL     1      -2.479   1.830  -1.604  1.00  0.00     0.040 A 
ATOM     27  C   UNL     1      -2.408   3.073  -2.246  1.00  0.00     0.027 A 
ATOM     28  C   UNL     1      -3.738   1.234  -1.443  1.00  0.00     0.027 A 
ATOM     29  C   UNL     1      -3.562   3.696  -2.732  1.00  0.00     0.017 A 
ATOM     30  C   UNL     1      -4.897   1.857  -1.914  1.00  0.00     0.017 A 
ATOM     31  C   UNL     1      -4.803   3.084  -2.565  1.00  0.00     0.013 A 
ATOM     32  I   UNL     1      -6.516   3.992  -3.312  1.00  0.00    -0.044 I 
ENDBRANCH  24  26
ENDBRANCH  17  24
ENDBRANCH  13  15
ENDBRANCH   8  13
ENDBRANCH   4   7
ENDBRANCH   2   3
ENDBRANCH   1   2
BRANCH   1  33
ATOM     33  C   UNL     1       5.231  -8.185  -6.008  1.00  0.00     0.023 C 
BRANCH  33  34
ATOM     34  C   UNL     1       4.552  -8.924  -7.157  1.00  0.00     0.116 C 
BRANCH  34  35
ATOM     35  N   UNL     1       4.085  -8.040  -8.214  1.00  0.00    -0.352 N 
ATOM     36  C   UNL     1       3.954  -8.312  -9.556  1.00  0.00     0.251 C 
ATOM     37  H   UNL     1       3.831  -7.131  -7.933  1.00  0.00     0.163 HD
ATOM     38  O   UNL     1       3.639  -7.428 -10.340  1.00  0.00    -0.269 OA
BRANCH  36  39
ATOM     39  C   UNL     1       4.247  -9.677 -10.039  1.00  0.00     0.039 A 
ATOM     40  C   UNL     1       5.167  -9.838 -11.078  1.00  0.00     0.014 A 
ATOM     41  C   UNL     1       3.653 -10.789  -9.437  1.00  0.00     0.014 A 
ATOM     42  C   UNL     1       5.549 -11.123 -11.464  1.00  0.00     0.010 A 
ATOM     43  C   UNL     1       4.074 -12.068  -9.787  1.00  0.00     0.010 A 
ATOM     44  C   UNL     1       5.033 -12.245 -10.796  1.00  0.00    -0.014 A 
BRANCH  44  45
ATOM     45  C   UNL     1       5.497 -13.615 -11.123  1.00  0.00     0.031 A 
ATOM     46  C   UNL     1       4.553 -14.600 -11.749  1.00  0.00     0.074 A 
ATOM     47  C   UNL     1       6.751 -13.986 -10.798  1.00  0.00     0.049 A 
ATOM     48  N   UNL     1       4.750 -15.861 -12.037  1.00  0.00    -0.248 NA
ATOM     49  C   UNL     1       3.204 -14.110 -12.079  1.00  0.00     0.031 C 
ATOM     50  C   UNL     1       7.753 -13.125 -10.166  1.00  0.00     0.029 A 
ATOM     51  N   UNL     1       7.396 -15.188 -10.951  1.00  0.00    -0.354 N 
ATOM     52  C   UNL     1       3.553 -16.317 -12.573  1.00  0.00     0.074 A 
ATOM     53  C   UNL     1       2.620 -15.211 -12.530  1.00  0.00     0.031 C 
ATOM     54  C   UNL     1       8.894 -13.817 -10.013  1.00  0.00     0.029 A 
ATOM     55  C   UNL     1       8.693 -15.179 -10.498  1.00  0.00     0.049 A 
ATOM     56  H   UNL     1       6.969 -15.981 -11.348  1.00  0.00     0.167 HD
ATOM     57  C   UNL     1       3.261 -17.541 -13.073  1.00  0.00     0.031 A 
ATOM     58  C   UNL     1       9.618 -16.158 -10.473  1.00  0.00     0.031 A 
ATOM     59  C   UNL     1       4.191 -18.637 -13.117  1.00  0.00     0.049 A 
ATOM     60  C   UNL     1       9.264 -17.516 -11.013  1.00  0.00     0.074 A 
ATOM     61  C   UNL     1       3.997 -19.911 -13.623  1.00  0.00     0.029 A 
ATOM     62  N   UNL     1       5.493 -18.589 -12.643  1.00  0.00    -0.354 N 
ATOM     63  N   UNL     1       8.131 -17.923 -11.533  1.00  0.00    -0.248 NA
ATOM     64  C   UNL     1      10.314 -18.543 -10.969  1.00  0.00     0.031 C 
ATOM     65  C   UNL     1       5.171 -20.644 -13.423  1.00  0.00     0.029 A 
ATOM     66  C   UNL     1       6.112 -19.812 -12.836  1.00  0.00     0.049 A 
ATOM     67  H   UNL     1       5.915 -17.802 -12.231  1.00  0.00     0.167 HD
ATOM     68  C   UNL     1       8.339 -19.247 -11.901  1.00  0.00     0.074 A 
ATOM     69  C   UNL     1       9.708 -19.569 -11.551  1.00  0.00     0.031 C 
ATOM     70  C   UNL     1       7.475 -20.116 -12.480  1.00  0.00     0.031 A 
BRANCH  57  71
ATOM     71  C   UNL     1       1.874 -17.753 -13.616  1.00  0.00    -0.014 A 
ATOM     72  C   UNL     1       1.479 -17.162 -14.829  1.00  0.00     0.010 A 
ATOM     73  C   UNL     1       0.967 -18.578 -12.927  1.00  0.00     0.010 A 
ATOM     74  C   UNL     1       0.188 -17.361 -15.325  1.00  0.00     0.020 A 
ATOM     75  C   UNL     1      -0.318 -18.799 -13.433  1.00  0.00     0.020 A 
ATOM     76  C   UNL     1      -0.703 -18.176 -14.622  1.00  0.00     0.054 A 
BRANCH  76  77
ATOM     77  S   UNL     1      -2.366 -18.432 -15.300  1.00  0.00     0.124 S 
ATOM     78  O   UNL     1      -2.998 -17.141 -15.041  1.00  0.00    -0.237 OA
ATOM     79  O   UNL     1      -2.096 -18.728 -16.705  1.00  0.00    -0.237 OA
ATOM     80  O   UNL     1      -2.890 -19.550 -14.520  1.00  0.00    -0.744 OA
ENDBRANCH  76  77
ENDBRANCH  57  71
BRANCH  58  81
ATOM     81  C   UNL     1      10.979 -15.875  -9.946  1.00  0.00    -0.014 A 
ATOM     82  C   UNL     1      12.065 -15.747 -10.829  1.00  0.00     0.010 A 
ATOM     83  C   UNL     1      11.192 -15.694  -8.567  1.00  0.00     0.010 A 
ATOM     84  C   UNL     1      13.341 -15.448 -10.344  1.00  0.00     0.020 A 
ATOM     85  C   UNL     1      12.463 -15.374  -8.080  1.00  0.00     0.020 A 
ATOM     86  C   UNL     1      13.531 -15.259  -8.972  1.00  0.00     0.054 A 
BRANCH  86  87
ATOM     87  S   UNL     1      15.182 -14.801  -8.374  1.00  0.00     0.124 S 
ATOM     88  O   UNL     1      15.912 -16.058  -8.505  1.00  0.00    -0.237 OA
ATOM     89  O   UNL     1      15.571 -13.743  -9.303  1.00  0.00    -0.237 OA
ATOM     90  O   UNL     1      14.938 -14.356  -7.004  1.00  0.00    -0.744 OA
ENDBRANCH  86  87
ENDBRANCH  58  81
BRANCH  70  91
ATOM     91  C   UNL     1       7.987 -21.492 -12.802  1.00  0.00    -0.014 A 
ATOM     92  C   UNL     1       8.170 -22.453 -11.792  1.00  0.00     0.010 A 
ATOM     93  C   UNL     1       8.223 -21.849 -14.142  1.00  0.00     0.010 A 
ATOM     94  C   UNL     1       8.600 -23.742 -12.116  1.00  0.00     0.020 A 
ATOM     95  C   UNL     1       8.632 -23.143 -14.472  1.00  0.00     0.020 A 
ATOM     96  C   UNL     1       8.828 -24.079 -13.454  1.00  0.00     0.054 A 
BRANCH  96  97
ATOM     97  S   UNL     1       9.333 -25.775 -13.853  1.00  0.00     0.124 S 
ATOM     98  O   UNL     1      10.726 -25.788 -13.416  1.00  0.00    -0.237 OA
ATOM     99  O   UNL     1       8.415 -26.581 -13.052  1.00  0.00    -0.237 OA
ATOM    100  O   UNL     1       9.133 -25.866 -15.298  1.00  0.00    -0.744 OA
ENDBRANCH  96  97
ENDBRANCH  70  91
ENDBRANCH  44  45
ENDBRANCH  36  39
ENDBRANCH  34  35
ENDBRANCH  33  34
ENDBRANCH   1  33
TORSDOF 19
