REMARK SMILES CCOC(=O)c1nc(Nc2cccc(C(=O)NCCCCNC(=O)c3ccc(-c4c5nc(c(-c6ccc(S(=O)(=O)[O-])cc6)c6ccc([nH]6)c(-c6ccc(S(=O)(=O)[O-])cc6)c6nc(c(-c7ccc(S(=O)(=O)[O-])cc7)c7ccc4[nH]7)C=C6)C=C5)cc3)c2)c2ccccc2n1
REMARK SMILES IDX 18 1 17 2 15 3 16 4 14 6 10 7 11 8 85 9 12 10 13 11 9 12
REMARK SMILES IDX 8 14 6 15 7 16 92 17 91 18 86 19 90 20 87 21 89 22 88 23
REMARK SMILES IDX 4 24 5 25 3 26 2 27 1 28 19 29 20 30 21 31 22 32 23 33 24 35
REMARK SMILES IDX 25 36 26 37 84 38 27 39 83 40 28 41 29 42 30 43 77 44 31 45
REMARK SMILES IDX 82 46 76 47 78 48 32 49 81 50 75 51 74 52 33 54 63 55 44 56
REMARK SMILES IDX 62 57 45 58 48 59 61 60 79 61 46 62 47 63 60 65 80 66 49 67
REMARK SMILES IDX 34 68 35 69 43 70 36 71 42 72 37 73 38 74 39 75 40 76 41 77
REMARK SMILES IDX 64 78 65 79 73 80 66 81 72 82 67 83 68 84 69 85 70 86 71 87
REMARK SMILES IDX 50 88 51 89 59 90 52 91 58 92 53 93 54 94 55 95 56 96 57 97
REMARK H PARENT 17 5 9 13 22 34 78 53 48 64
REMARK Flexibility Score: inf
ROOT
ATOM      1  C   UNL     1       2.507   0.850   5.216  1.00  0.00     0.116 C 
ENDROOT
BRANCH   1   2
ATOM      2  N   UNL     1       3.249   1.987   4.688  1.00  0.00    -0.352 N 
ATOM      3  C   UNL     1       4.564   2.101   4.281  1.00  0.00     0.251 C 
ATOM      4  O   UNL     1       4.972   3.191   3.885  1.00  0.00    -0.269 OA
ATOM      5  H   UNL     1       2.723   2.815   4.607  1.00  0.00     0.163 HD
BRANCH   3   6
ATOM      6  C   UNL     1       5.520   0.964   4.382  1.00  0.00     0.041 A 
ATOM      7  C   UNL     1       5.922  -1.433   4.599  1.00  0.00     0.040 A 
ATOM      8  C   UNL     1       7.244  -1.154   4.960  1.00  0.00     0.026 A 
ATOM      9  C   UNL     1       5.115  -0.359   4.210  1.00  0.00     0.040 A 
ATOM     10  C   UNL     1       7.723   0.162   4.963  1.00  0.00     0.003 A 
ATOM     11  C   UNL     1       6.854   1.223   4.703  1.00  0.00     0.014 A 
BRANCH   7  12
ATOM     12  N   UNL     1       5.418  -2.747   4.681  1.00  0.00    -0.340 N 
ATOM     13  H   UNL     1       5.916  -3.362   5.266  1.00  0.00     0.168 HD
BRANCH  12  14
ATOM     14  C   UNL     1       4.292  -3.296   4.033  1.00  0.00     0.142 A 
ATOM     15  C   UNL     1       2.812  -3.199   2.285  1.00  0.00     0.241 A 
ATOM     16  N   UNL     1       3.910  -2.722   2.883  1.00  0.00    -0.204 NA
ATOM     17  N   UNL     1       2.076  -4.236   2.712  1.00  0.00    -0.222 NA
ATOM     18  C   UNL     1       2.476  -4.820   3.843  1.00  0.00     0.077 A 
ATOM     19  C   UNL     1       3.581  -4.376   4.592  1.00  0.00     0.043 A 
ATOM     20  C   UNL     1       1.758  -5.920   4.295  1.00  0.00     0.029 A 
ATOM     21  C   UNL     1       3.884  -5.022   5.820  1.00  0.00     0.014 A 
ATOM     22  C   UNL     1       2.084  -6.579   5.481  1.00  0.00     0.002 A 
ATOM     23  C   UNL     1       3.140  -6.119   6.256  1.00  0.00     0.001 A 
BRANCH  15  24
ATOM     24  C   UNL     1       2.406  -2.492   1.031  1.00  0.00     0.376 C 
ATOM     25  O   UNL     1       3.178  -2.121   0.168  1.00  0.00    -0.242 OA
BRANCH  24  26
ATOM     26  O   UNL     1       1.061  -2.268   1.058  1.00  0.00    -0.460 OA
BRANCH  26  27
ATOM     27  C   UNL     1       0.539  -1.547  -0.067  1.00  0.00     0.230 C 
ATOM     28  C   UNL     1       0.818  -0.057   0.047  1.00  0.00     0.049 C 
ENDBRANCH  26  27
ENDBRANCH  24  26
ENDBRANCH  15  24
ENDBRANCH  12  14
ENDBRANCH   7  12
ENDBRANCH   3   6
ENDBRANCH   1   2
BRANCH   1  29
ATOM     29  C   UNL     1       1.690   1.141   6.466  1.00  0.00     0.023 C 
BRANCH  29  30
ATOM     30  C   UNL     1       0.520   2.099   6.299  1.00  0.00     0.023 C 
BRANCH  30  31
ATOM     31  C   UNL     1      -0.454   1.770   5.175  1.00  0.00     0.116 C 
BRANCH  31  32
ATOM     32  N   UNL     1      -1.046   0.442   5.275  1.00  0.00    -0.352 N 
ATOM     33  C   UNL     1      -2.372   0.073   5.251  1.00  0.00     0.251 C 
ATOM     34  H   UNL     1      -0.405  -0.299   5.375  1.00  0.00     0.163 HD
ATOM     35  O   UNL     1      -2.690  -1.097   5.446  1.00  0.00    -0.269 OA
BRANCH  33  36
ATOM     36  C   UNL     1      -3.414   1.100   5.033  1.00  0.00     0.039 A 
ATOM     37  C   UNL     1      -4.512   1.145   5.896  1.00  0.00     0.014 A 
ATOM     38  C   UNL     1      -3.282   2.046   4.014  1.00  0.00     0.014 A 
ATOM     39  C   UNL     1      -5.425   2.198   5.796  1.00  0.00     0.010 A 
ATOM     40  C   UNL     1      -4.141   3.141   3.975  1.00  0.00     0.010 A 
ATOM     41  C   UNL     1      -5.218   3.233   4.869  1.00  0.00    -0.014 A 
BRANCH  41  42
ATOM     42  C   UNL     1      -6.104   4.427   4.829  1.00  0.00     0.031 A 
ATOM     43  C   UNL     1      -6.893   4.741   3.584  1.00  0.00     0.074 A 
ATOM     44  C   UNL     1      -6.143   5.269   5.883  1.00  0.00     0.049 A 
ATOM     45  N   UNL     1      -7.660   5.770   3.334  1.00  0.00    -0.248 NA
ATOM     46  C   UNL     1      -6.784   3.789   2.466  1.00  0.00     0.031 C 
ATOM     47  C   UNL     1      -5.388   5.106   7.129  1.00  0.00     0.029 A 
ATOM     48  N   UNL     1      -6.839   6.438   6.072  1.00  0.00    -0.354 N 
ATOM     49  C   UNL     1      -8.108   5.601   2.029  1.00  0.00     0.074 A 
ATOM     50  C   UNL     1      -7.488   4.396   1.522  1.00  0.00     0.031 C 
ATOM     51  C   UNL     1      -5.684   6.119   7.960  1.00  0.00     0.029 A 
ATOM     52  C   UNL     1      -6.611   7.028   7.295  1.00  0.00     0.049 A 
ATOM     53  H   UNL     1      -7.445   6.818   5.396  1.00  0.00     0.167 HD
ATOM     54  C   UNL     1      -8.972   6.366   1.322  1.00  0.00     0.031 A 
ATOM     55  C   UNL     1      -7.085   8.175   7.819  1.00  0.00     0.031 A 
ATOM     56  C   UNL     1      -9.604   7.552   1.836  1.00  0.00     0.049 A 
ATOM     57  C   UNL     1      -8.043   9.009   7.009  1.00  0.00     0.074 A 
ATOM     58  C   UNL     1     -10.546   8.358   1.219  1.00  0.00     0.029 A 
ATOM     59  N   UNL     1      -9.362   8.103   3.084  1.00  0.00    -0.354 N 
ATOM     60  N   UNL     1      -8.512   8.788   5.804  1.00  0.00    -0.248 NA
ATOM     61  C   UNL     1      -8.544  10.241   7.635  1.00  0.00     0.031 C 
ATOM     62  C   UNL     1     -10.831   9.427   2.072  1.00  0.00     0.029 A 
ATOM     63  C   UNL     1     -10.117   9.252   3.247  1.00  0.00     0.049 A 
ATOM     64  H   UNL     1      -8.745   7.732   3.756  1.00  0.00     0.167 HD
ATOM     65  C   UNL     1      -9.389   9.836   5.543  1.00  0.00     0.074 A 
ATOM     66  C   UNL     1      -9.397  10.680   6.719  1.00  0.00     0.031 C 
ATOM     67  C   UNL     1     -10.122  10.077   4.428  1.00  0.00     0.031 A 
BRANCH  54  68
ATOM     68  C   UNL     1      -9.294   5.946  -0.088  1.00  0.00    -0.014 A 
ATOM     69  C   UNL     1     -10.070   4.801  -0.345  1.00  0.00     0.010 A 
ATOM     70  C   UNL     1      -8.876   6.745  -1.168  1.00  0.00     0.010 A 
ATOM     71  C   UNL     1     -10.399   4.449  -1.657  1.00  0.00     0.020 A 
ATOM     72  C   UNL     1      -9.228   6.413  -2.479  1.00  0.00     0.020 A 
ATOM     73  C   UNL     1      -9.979   5.260  -2.716  1.00  0.00     0.054 A 
BRANCH  73  74
ATOM     74  S   UNL     1     -10.468   4.806  -4.402  1.00  0.00     0.124 S 
ATOM     75  O   UNL     1      -9.643   3.625  -4.647  1.00  0.00    -0.237 OA
ATOM     76  O   UNL     1     -11.899   4.553  -4.262  1.00  0.00    -0.237 OA
ATOM     77  O   UNL     1     -10.120   5.983  -5.194  1.00  0.00    -0.744 OA
ENDBRANCH  73  74
ENDBRANCH  54  68
BRANCH  55  78
ATOM     78  C   UNL     1      -6.668   8.609   9.183  1.00  0.00    -0.014 A 
ATOM     79  C   UNL     1      -7.593   8.630  10.242  1.00  0.00     0.010 A 
ATOM     80  C   UNL     1      -5.346   9.024   9.425  1.00  0.00     0.010 A 
ATOM     81  C   UNL     1      -7.213   9.089  11.508  1.00  0.00     0.020 A 
ATOM     82  C   UNL     1      -4.954   9.453  10.697  1.00  0.00     0.020 A 
ATOM     83  C   UNL     1      -5.896   9.499  11.726  1.00  0.00     0.054 A 
BRANCH  83  84
ATOM     84  S   UNL     1      -5.419  10.069  13.382  1.00  0.00     0.124 S 
ATOM     85  O   UNL     1      -6.061  11.377  13.449  1.00  0.00    -0.237 OA
ATOM     86  O   UNL     1      -5.988   9.038  14.246  1.00  0.00    -0.237 OA
ATOM     87  O   UNL     1      -3.958  10.089  13.328  1.00  0.00    -0.744 OA
ENDBRANCH  83  84
ENDBRANCH  55  78
BRANCH  67  88
ATOM     88  C   UNL     1     -11.034  11.275   4.439  1.00  0.00    -0.014 A 
ATOM     89  C   UNL     1     -10.525  12.584   4.378  1.00  0.00     0.010 A 
ATOM     90  C   UNL     1     -12.428  11.082   4.449  1.00  0.00     0.010 A 
ATOM     91  C   UNL     1     -11.393  13.679   4.361  1.00  0.00     0.020 A 
ATOM     92  C   UNL     1     -13.299  12.172   4.400  1.00  0.00     0.020 A 
ATOM     93  C   UNL     1     -12.775  13.466   4.371  1.00  0.00     0.054 A 
BRANCH  93  94
ATOM     94  S   UNL     1     -13.881  14.902   4.301  1.00  0.00     0.124 S 
ATOM     95  O   UNL     1     -13.738  15.461   5.642  1.00  0.00    -0.237 OA
ATOM     96  O   UNL     1     -13.303  15.699   3.222  1.00  0.00    -0.237 OA
ATOM     97  O   UNL     1     -15.188  14.319   4.005  1.00  0.00    -0.744 OA
ENDBRANCH  93  94
ENDBRANCH  67  88
ENDBRANCH  41  42
ENDBRANCH  33  36
ENDBRANCH  31  32
ENDBRANCH  30  31
ENDBRANCH  29  30
ENDBRANCH   1  29
TORSDOF 19
