REMARK SMILES CC[N@@H+]1CCO[C@H](C[NH2+][C@@H]2CCC[C@H](C(=O)NCCCCNC(=O)c3ccc(-c4c5nc(c(-c6ccc(S(=O)(=O)[O-])cc6)c6ccc([nH]6)c(-c6ccc(S(=O)(=O)[O-])cc6)c6nc(c(-c7ccc(S(=O)(=O)[O-])cc7)c7ccc4[nH]7)C=C6)C=C5)cc3)C2)C1
REMARK SMILES IDX 19 1 18 2 17 3 15 4 16 5 14 7 10 8 11 9 85 10 12 11 13 12
REMARK SMILES IDX 9 13 8 16 7 17 3 18 4 19 86 20 5 22 6 23 2 24 1 25 20 26
REMARK SMILES IDX 21 27 22 28 23 29 24 31 25 32 26 33 84 34 27 35 83 36 28 37
REMARK SMILES IDX 29 38 30 39 77 40 31 41 82 42 76 43 78 44 32 45 81 46 75 47
REMARK SMILES IDX 74 48 33 50 63 51 44 52 62 53 45 54 48 55 61 56 79 57 46 58
REMARK SMILES IDX 47 59 60 61 80 62 49 63 34 64 35 65 43 66 36 67 42 68 37 69
REMARK SMILES IDX 38 70 39 71 40 72 41 73 64 74 65 75 73 76 66 77 72 78 67 79
REMARK SMILES IDX 68 80 69 81 70 82 71 83 50 84 51 85 59 86 52 87 58 88 53 89
REMARK SMILES IDX 54 90 55 91 56 92 57 93
REMARK H PARENT 17 6 9 14 9 15 3 21 22 30 78 49 48 60
REMARK Flexibility Score: inf
ROOT
ATOM      1  C   UNL     1      -2.901  -3.124   4.408  1.00  0.00     0.023 C 
ENDROOT
BRANCH   1   2
ATOM      2  C   UNL     1      -1.776  -3.012   3.381  1.00  0.00     0.116 C 
BRANCH   2   3
ATOM      3  N   UNL     1      -1.754  -4.139   2.466  1.00  0.00    -0.356 N 
ATOM      4  C   UNL     1      -2.006  -4.228   1.131  1.00  0.00     0.223 C 
ATOM      5  O   UNL     1      -1.910  -5.340   0.606  1.00  0.00    -0.275 OA
ATOM      6  H   UNL     1      -1.512  -4.995   2.887  1.00  0.00     0.163 HD
BRANCH   4   7
ATOM      7  C   UNL     1      -2.367  -3.012   0.283  1.00  0.00     0.084 C 
ATOM      8  C   UNL     1      -1.513  -0.750  -0.570  1.00  0.00     0.183 C 
ATOM      9  C   UNL     1      -2.757  -0.114   0.076  1.00  0.00     0.065 C 
ATOM     10  C   UNL     1      -1.169  -2.057   0.155  1.00  0.00     0.078 C 
ATOM     11  C   UNL     1      -3.960  -1.044   0.025  1.00  0.00     0.007 C 
ATOM     12  C   UNL     1      -3.680  -2.362   0.732  1.00  0.00     0.014 C 
BRANCH   8  13
ATOM     13  N   UNL     1      -0.467   0.261  -0.471  1.00  0.00    -0.341 N 
ATOM     14  H   UNL     1      -0.846   1.123  -0.863  1.00  0.00     0.346 HD
ATOM     15  H   UNL     1      -0.235   0.279   0.522  1.00  0.00     0.346 HD
BRANCH  13  16
ATOM     16  C   UNL     1       0.812   0.016  -1.128  1.00  0.00     0.299 C 
BRANCH  16  17
ATOM     17  C   UNL     1       1.916   1.081  -0.817  1.00  0.00     0.227 C 
ATOM     18  N   UNL     1       1.613   1.572   1.641  1.00  0.00    -0.331 N 
ATOM     19  C   UNL     1       0.970   2.833   1.272  1.00  0.00     0.291 C 
ATOM     20  C   UNL     1       2.502   1.062   0.609  1.00  0.00     0.300 C 
ATOM     21  H   UNL     1       2.305   1.771   2.364  1.00  0.00     0.348 HD
ATOM     22  C   UNL     1       0.632   3.028  -0.230  1.00  0.00     0.222 C 
ATOM     23  O   UNL     1       1.547   2.431  -1.157  1.00  0.00    -0.361 OA
BRANCH  18  24
ATOM     24  C   UNL     1       0.923   0.703   2.579  1.00  0.00     0.258 C 
ATOM     25  C   UNL     1       1.388  -0.751   2.611  1.00  0.00     0.071 C 
ENDBRANCH  18  24
ENDBRANCH  16  17
ENDBRANCH  13  16
ENDBRANCH   8  13
ENDBRANCH   4   7
ENDBRANCH   2   3
ENDBRANCH   1   2
BRANCH   1  26
ATOM     26  C   UNL     1      -2.729  -4.255   5.422  1.00  0.00     0.023 C 
BRANCH  26  27
ATOM     27  C   UNL     1      -1.435  -4.217   6.225  1.00  0.00     0.116 C 
BRANCH  27  28
ATOM     28  N   UNL     1      -1.281  -2.996   7.001  1.00  0.00    -0.352 N 
ATOM     29  C   UNL     1      -0.902  -2.850   8.316  1.00  0.00     0.251 C 
ATOM     30  H   UNL     1      -1.476  -2.159   6.520  1.00  0.00     0.163 HD
ATOM     31  O   UNL     1      -0.963  -1.750   8.851  1.00  0.00    -0.269 OA
BRANCH  29  32
ATOM     32  C   UNL     1      -0.451  -4.033   9.083  1.00  0.00     0.039 A 
ATOM     33  C   UNL     1      -0.943  -4.231  10.375  1.00  0.00     0.014 A 
ATOM     34  C   UNL     1       0.441  -4.951   8.523  1.00  0.00     0.014 A 
ATOM     35  C   UNL     1      -0.584  -5.381  11.082  1.00  0.00     0.010 A 
ATOM     36  C   UNL     1       0.727  -6.136   9.194  1.00  0.00     0.010 A 
ATOM     37  C   UNL     1       0.230  -6.359  10.486  1.00  0.00    -0.014 A 
BRANCH  37  38
ATOM     38  C   UNL     1       0.596  -7.606  11.207  1.00  0.00     0.031 A 
ATOM     39  C   UNL     1       2.041  -7.896  11.523  1.00  0.00     0.074 A 
ATOM     40  C   UNL     1      -0.357  -8.502  11.530  1.00  0.00     0.049 A 
ATOM     41  N   UNL     1       2.566  -8.947  12.097  1.00  0.00    -0.248 NA
ATOM     42  C   UNL     1       3.029  -6.883  11.113  1.00  0.00     0.031 C 
ATOM     43  C   UNL     1      -1.787  -8.361  11.245  1.00  0.00     0.029 A 
ATOM     44  N   UNL     1      -0.267  -9.716  12.167  1.00  0.00    -0.354 N 
ATOM     45  C   UNL     1       3.939  -8.732  12.100  1.00  0.00     0.074 A 
ATOM     46  C   UNL     1       4.172  -7.478  11.418  1.00  0.00     0.031 C 
ATOM     47  C   UNL     1      -2.441  -9.428  11.732  1.00  0.00     0.029 A 
ATOM     48  C   UNL     1      -1.477 -10.350  12.325  1.00  0.00     0.049 A 
ATOM     49  H   UNL     1       0.585 -10.096  12.482  1.00  0.00     0.167 HD
ATOM     50  C   UNL     1       4.919  -9.494  12.641  1.00  0.00     0.031 A 
ATOM     51  C   UNL     1      -1.778 -11.540  12.880  1.00  0.00     0.031 A 
ATOM     52  C   UNL     1       4.684 -10.735  13.330  1.00  0.00     0.049 A 
ATOM     53  C   UNL     1      -0.672 -12.373  13.472  1.00  0.00     0.074 A 
ATOM     54  C   UNL     1       5.602 -11.557  13.960  1.00  0.00     0.029 A 
ATOM     55  N   UNL     1       3.442 -11.334  13.481  1.00  0.00    -0.354 N 
ATOM     56  N   UNL     1       0.615 -12.122  13.518  1.00  0.00    -0.248 NA
ATOM     57  C   UNL     1      -1.062 -13.641  14.103  1.00  0.00     0.031 C 
ATOM     58  C   UNL     1       4.924 -12.681  14.441  1.00  0.00     0.029 A 
ATOM     59  C   UNL     1       3.573 -12.524  14.176  1.00  0.00     0.049 A 
ATOM     60  H   UNL     1       2.593 -10.967  13.144  1.00  0.00     0.167 HD
ATOM     61  C   UNL     1       1.182 -13.182  14.219  1.00  0.00     0.074 A 
ATOM     62  C   UNL     1       0.097 -14.069  14.584  1.00  0.00     0.031 C 
ATOM     63  C   UNL     1       2.483 -13.396  14.538  1.00  0.00     0.031 A 
BRANCH  50  64
ATOM     64  C   UNL     1       6.339  -9.008  12.503  1.00  0.00    -0.014 A 
ATOM     65  C   UNL     1       6.785  -7.854  13.175  1.00  0.00     0.010 A 
ATOM     66  C   UNL     1       7.253  -9.734  11.717  1.00  0.00     0.010 A 
ATOM     67  C   UNL     1       8.102  -7.412  13.029  1.00  0.00     0.020 A 
ATOM     68  C   UNL     1       8.581  -9.314  11.595  1.00  0.00     0.020 A 
ATOM     69  C   UNL     1       8.992  -8.145  12.238  1.00  0.00     0.054 A 
BRANCH  69  70
ATOM     70  S   UNL     1      10.701  -7.559  12.086  1.00  0.00     0.124 S 
ATOM     71  O   UNL     1      10.539  -6.372  11.250  1.00  0.00    -0.237 OA
ATOM     72  O   UNL     1      11.076  -7.303  13.474  1.00  0.00    -0.237 OA
ATOM     73  O   UNL     1      11.396  -8.677  11.451  1.00  0.00    -0.744 OA
ENDBRANCH  69  70
ENDBRANCH  50  64
BRANCH  51  74
ATOM     74  C   UNL     1      -3.192 -12.007  12.924  1.00  0.00    -0.014 A 
ATOM     75  C   UNL     1      -3.884 -12.085  14.146  1.00  0.00     0.010 A 
ATOM     76  C   UNL     1      -3.859 -12.370  11.739  1.00  0.00     0.010 A 
ATOM     77  C   UNL     1      -5.205 -12.540  14.186  1.00  0.00     0.020 A 
ATOM     78  C   UNL     1      -5.191 -12.794  11.771  1.00  0.00     0.020 A 
ATOM     79  C   UNL     1      -5.852 -12.889  12.997  1.00  0.00     0.054 A 
BRANCH  79  80
ATOM     80  S   UNL     1      -7.582 -13.430  13.069  1.00  0.00     0.124 S 
ATOM     81  O   UNL     1      -7.462 -14.754  13.671  1.00  0.00    -0.237 OA
ATOM     82  O   UNL     1      -8.198 -12.405  13.908  1.00  0.00    -0.237 OA
ATOM     83  O   UNL     1      -8.003 -13.414  11.669  1.00  0.00    -0.744 OA
ENDBRANCH  79  80
ENDBRANCH  51  74
BRANCH  63  84
ATOM     84  C   UNL     1       2.804 -14.608  15.374  1.00  0.00    -0.014 A 
ATOM     85  C   UNL     1       2.702 -15.912  14.856  1.00  0.00     0.010 A 
ATOM     86  C   UNL     1       3.261 -14.430  16.693  1.00  0.00     0.010 A 
ATOM     87  C   UNL     1       3.010 -17.015  15.658  1.00  0.00     0.020 A 
ATOM     88  C   UNL     1       3.601 -15.528  17.486  1.00  0.00     0.020 A 
ATOM     89  C   UNL     1       3.456 -16.816  16.969  1.00  0.00     0.054 A 
BRANCH  89  90
ATOM     90  S   UNL     1       3.875 -18.262  17.979  1.00  0.00     0.124 S 
ATOM     91  O   UNL     1       2.557 -18.819  18.273  1.00  0.00    -0.237 OA
ATOM     92  O   UNL     1       4.705 -19.054  17.076  1.00  0.00    -0.237 OA
ATOM     93  O   UNL     1       4.579 -17.692  19.125  1.00  0.00    -0.744 OA
ENDBRANCH  89  90
ENDBRANCH  63  84
ENDBRANCH  37  38
ENDBRANCH  29  32
ENDBRANCH  27  28
ENDBRANCH  26  27
ENDBRANCH   1  26
TORSDOF 18
