REMARK SMILES Cc1cc(Br)cc([N+](=O)[O-])c1OCCC[C@@](C)([NH3+])C(=O)NCCCCNC(=O)c1ccc(-c2c3nc(c(-c4ccc(S(=O)(=O)[O-])cc4)c4ccc([nH]4)c(-c4ccc(S(=O)(=O)[O-])cc4)c4nc(c(-c5ccc(S(=O)(=O)[O-])cc5)c5ccc2[nH]5)C=C4)C=C3)cc1
REMARK SMILES IDX 22 1 21 2 19 3 20 4 16 6 17 7 15 8 14 9 13 10 12 11 11 12
REMARK SMILES IDX 1 13 2 14 3 15 4 16 7 17 5 18 6 19 8 20 9 21 10 22 18 23
REMARK SMILES IDX 23 27 24 28 25 29 26 30 27 31 28 33 29 34 30 35 88 36 31 37
REMARK SMILES IDX 87 38 32 39 33 40 34 41 81 42 35 43 86 44 80 45 82 46 36 47
REMARK SMILES IDX 85 48 79 49 78 50 37 52 67 53 48 54 66 55 49 56 52 57 65 58
REMARK SMILES IDX 83 59 50 60 51 61 64 63 84 64 53 65 38 66 39 67 47 68 40 69
REMARK SMILES IDX 46 70 41 71 42 72 43 73 44 74 45 75 68 76 69 77 77 78 70 79
REMARK SMILES IDX 76 80 71 81 72 82 73 83 74 84 75 85 54 86 55 87 63 88 56 89
REMARK SMILES IDX 62 90 57 91 58 92 59 93 60 94 61 95
REMARK H PARENT 21 5 18 24 18 25 18 26 26 32 82 51 52 62
REMARK Flexibility Score: inf
ROOT
ATOM      1  C   UNL     1      -3.074  -4.248   2.746  1.00  0.00     0.116 C 
ENDROOT
BRANCH   1   2
ATOM      2  N   UNL     1      -3.820  -3.039   2.451  1.00  0.00    -0.351 N 
ATOM      3  C   UNL     1      -4.522  -2.626   1.363  1.00  0.00     0.280 C 
ATOM      4  O   UNL     1      -5.341  -1.728   1.596  1.00  0.00    -0.268 OA
ATOM      5  H   UNL     1      -3.818  -2.387   3.188  1.00  0.00     0.163 HD
BRANCH   3   6
ATOM      6  C   UNL     1      -4.383  -3.222  -0.074  1.00  0.00     0.171 C 
ATOM      7  C   UNL     1      -5.565  -4.187  -0.246  1.00  0.00     0.090 C 
BRANCH   6   8
ATOM      8  C   UNL     1      -4.362  -2.151  -1.226  1.00  0.00     0.082 C 
BRANCH   8   9
ATOM      9  C   UNL     1      -5.091  -0.799  -1.068  1.00  0.00     0.049 C 
BRANCH   9  10
ATOM     10  C   UNL     1      -4.340   0.341  -0.328  1.00  0.00     0.230 C 
BRANCH  10  11
ATOM     11  O   UNL     1      -3.184   0.753  -1.080  1.00  0.00    -0.487 OA
BRANCH  11  12
ATOM     12  C   UNL     1      -2.064   1.141  -0.372  1.00  0.00     0.200 A 
ATOM     13  C   UNL     1      -1.488  -1.268   0.236  1.00  0.00     0.049 C 
ATOM     14  C   UNL     1      -1.137   0.160   0.027  1.00  0.00    -0.001 A 
ATOM     15  C   UNL     1       0.215   0.489   0.219  1.00  0.00     0.023 A 
ATOM     16  C   UNL     1       0.646   1.799   0.102  1.00  0.00     0.025 A 
ATOM     17  C   UNL     1      -1.628   2.478  -0.376  1.00  0.00     0.312 A 
ATOM     18  Br  UNL     1       2.484   2.186   0.277  1.00  0.00    -0.051 Br
ATOM     19  C   UNL     1      -0.275   2.808  -0.139  1.00  0.00     0.105 A 
BRANCH  17  20
ATOM     20  N   UNL     1      -2.560   3.589  -0.564  1.00  0.00     0.066 N 
ATOM     21  O   UNL     1      -2.089   4.665  -0.964  1.00  0.00    -0.258 OA
ATOM     22  O   UNL     1      -3.745   3.424  -0.247  1.00  0.00    -0.258 OA
ENDBRANCH  17  20
ENDBRANCH  11  12
ENDBRANCH  10  11
ENDBRANCH   9  10
ENDBRANCH   8   9
ENDBRANCH   6   8
BRANCH   6  23
ATOM     23  N   UNL     1      -3.173  -4.067  -0.246  1.00  0.00    -0.345 N 
ATOM     24  H   UNL     1      -3.140  -4.424  -1.201  1.00  0.00     0.345 HD
ATOM     25  H   UNL     1      -3.208  -4.849   0.408  1.00  0.00     0.345 HD
ATOM     26  H   UNL     1      -2.339  -3.509  -0.063  1.00  0.00     0.345 HD
ENDBRANCH   6  23
ENDBRANCH   3   6
ENDBRANCH   1   2
BRANCH   1  27
ATOM     27  C   UNL     1      -1.688  -3.946   3.321  1.00  0.00     0.023 C 
BRANCH  27  28
ATOM     28  C   UNL     1      -1.672  -3.168   4.644  1.00  0.00     0.023 C 
BRANCH  28  29
ATOM     29  C   UNL     1      -2.607  -3.689   5.731  1.00  0.00     0.116 C 
BRANCH  29  30
ATOM     30  N   UNL     1      -2.455  -5.111   5.984  1.00  0.00    -0.352 N 
ATOM     31  C   UNL     1      -2.552  -5.806   7.162  1.00  0.00     0.251 C 
ATOM     32  H   UNL     1      -2.252  -5.658   5.191  1.00  0.00     0.163 HD
ATOM     33  O   UNL     1      -2.306  -7.011   7.171  1.00  0.00    -0.269 OA
BRANCH  31  34
ATOM     34  C   UNL     1      -2.905  -5.111   8.419  1.00  0.00     0.039 A 
ATOM     35  C   UNL     1      -2.190  -5.434   9.575  1.00  0.00     0.014 A 
ATOM     36  C   UNL     1      -3.926  -4.159   8.473  1.00  0.00     0.014 A 
ATOM     37  C   UNL     1      -2.465  -4.768  10.769  1.00  0.00     0.010 A 
ATOM     38  C   UNL     1      -4.146  -3.439   9.646  1.00  0.00     0.010 A 
ATOM     39  C   UNL     1      -3.424  -3.742  10.809  1.00  0.00    -0.014 A 
BRANCH  39  40
ATOM     40  C   UNL     1      -3.663  -2.986  12.066  1.00  0.00     0.031 A 
ATOM     41  C   UNL     1      -4.995  -3.060  12.763  1.00  0.00     0.074 A 
ATOM     42  C   UNL     1      -2.678  -2.216  12.570  1.00  0.00     0.049 A 
ATOM     43  N   UNL     1      -5.363  -2.510  13.893  1.00  0.00    -0.248 NA
ATOM     44  C   UNL     1      -6.058  -3.831  12.099  1.00  0.00     0.031 C 
ATOM     45  C   UNL     1      -1.362  -2.017  11.957  1.00  0.00     0.029 A 
ATOM     46  N   UNL     1      -2.624  -1.467  13.718  1.00  0.00    -0.354 N 
ATOM     47  C   UNL     1      -6.697  -2.863  14.070  1.00  0.00     0.074 A 
ATOM     48  C   UNL     1      -7.090  -3.622  12.904  1.00  0.00     0.031 C 
ATOM     49  C   UNL     1      -0.616  -1.240  12.757  1.00  0.00     0.029 A 
ATOM     50  C   UNL     1      -1.408  -0.856  13.921  1.00  0.00     0.049 A 
ATOM     51  H   UNL     1      -3.383  -1.375  14.338  1.00  0.00     0.167 HD
ATOM     52  C   UNL     1      -7.513  -2.600  15.118  1.00  0.00     0.031 A 
ATOM     53  C   UNL     1      -0.975  -0.082  14.935  1.00  0.00     0.031 A 
ATOM     54  C   UNL     1      -7.116  -1.845  16.278  1.00  0.00     0.049 A 
ATOM     55  C   UNL     1      -1.896   0.188  16.092  1.00  0.00     0.074 A 
ATOM     56  C   UNL     1      -7.851  -1.566  17.417  1.00  0.00     0.029 A 
ATOM     57  N   UNL     1      -5.876  -1.246  16.447  1.00  0.00    -0.354 N 
ATOM     58  N   UNL     1      -3.130  -0.219  16.276  1.00  0.00    -0.248 NA
ATOM     59  C   UNL     1      -1.358   1.003  17.189  1.00  0.00     0.031 C 
ATOM     60  C   UNL     1      -7.075  -0.753  18.251  1.00  0.00     0.029 A 
ATOM     61  C   UNL     1      -5.832  -0.582  17.662  1.00  0.00     0.049 A 
ATOM     62  H   UNL     1      -5.136  -1.288  15.799  1.00  0.00     0.167 HD
ATOM     63  C   UNL     1      -3.505   0.266  17.525  1.00  0.00     0.074 A 
ATOM     64  C   UNL     1      -2.361   0.978  18.056  1.00  0.00     0.031 C 
ATOM     65  C   UNL     1      -4.689   0.130  18.174  1.00  0.00     0.031 A 
BRANCH  52  66
ATOM     66  C   UNL     1      -8.922  -3.132  15.055  1.00  0.00    -0.014 A 
ATOM     67  C   UNL     1      -9.182  -4.514  15.131  1.00  0.00     0.010 A 
ATOM     68  C   UNL     1     -10.006  -2.240  14.958  1.00  0.00     0.010 A 
ATOM     69  C   UNL     1     -10.493  -4.994  15.066  1.00  0.00     0.020 A 
ATOM     70  C   UNL     1     -11.321  -2.715  14.925  1.00  0.00     0.020 A 
ATOM     71  C   UNL     1     -11.554  -4.091  14.961  1.00  0.00     0.054 A 
BRANCH  71  72
ATOM     72  S   UNL     1     -13.246  -4.743  14.903  1.00  0.00     0.124 S 
ATOM     73  O   UNL     1     -13.296  -5.331  13.566  1.00  0.00    -0.237 OA
ATOM     74  O   UNL     1     -13.260  -5.697  16.009  1.00  0.00    -0.237 OA
ATOM     75  O   UNL     1     -14.081  -3.559  15.094  1.00  0.00    -0.744 OA
ENDBRANCH  71  72
ENDBRANCH  52  66
BRANCH  53  76
ATOM     76  C   UNL     1       0.412   0.462  14.915  1.00  0.00    -0.014 A 
ATOM     77  C   UNL     1       1.382  -0.013  15.815  1.00  0.00     0.010 A 
ATOM     78  C   UNL     1       0.773   1.452  13.983  1.00  0.00     0.010 A 
ATOM     79  C   UNL     1       2.680   0.507  15.799  1.00  0.00     0.020 A 
ATOM     80  C   UNL     1       2.077   1.952  13.943  1.00  0.00     0.020 A 
ATOM     81  C   UNL     1       3.020   1.485  14.861  1.00  0.00     0.054 A 
BRANCH  81  82
ATOM     82  S   UNL     1       4.723   2.109  14.825  1.00  0.00     0.124 S 
ATOM     83  O   UNL     1       4.768   2.939  16.024  1.00  0.00    -0.237 OA
ATOM     84  O   UNL     1       5.510   0.880  14.874  1.00  0.00    -0.237 OA
ATOM     85  O   UNL     1       4.794   2.834  13.558  1.00  0.00    -0.744 OA
ENDBRANCH  81  82
ENDBRANCH  53  76
BRANCH  65  86
ATOM     86  C   UNL     1      -4.790   0.733  19.552  1.00  0.00    -0.014 A 
ATOM     87  C   UNL     1      -4.807   2.125  19.746  1.00  0.00     0.010 A 
ATOM     88  C   UNL     1      -4.892  -0.116  20.670  1.00  0.00     0.010 A 
ATOM     89  C   UNL     1      -4.869   2.658  21.037  1.00  0.00     0.020 A 
ATOM     90  C   UNL     1      -4.988   0.413  21.959  1.00  0.00     0.020 A 
ATOM     91  C   UNL     1      -4.953   1.797  22.136  1.00  0.00     0.054 A 
BRANCH  91  92
ATOM     92  S   UNL     1      -5.041   2.511  23.800  1.00  0.00     0.124 S 
ATOM     93  O   UNL     1      -3.670   2.968  24.007  1.00  0.00    -0.237 OA
ATOM     94  O   UNL     1      -6.038   3.567  23.644  1.00  0.00    -0.237 OA
ATOM     95  O   UNL     1      -5.457   1.388  24.638  1.00  0.00    -0.744 OA
ENDBRANCH  91  92
ENDBRANCH  65  86
ENDBRANCH  39  40
ENDBRANCH  31  34
ENDBRANCH  29  30
ENDBRANCH  28  29
ENDBRANCH  27  28
ENDBRANCH   1  27
TORSDOF 21
