REMARK SMILES O=C(CCN1C(=O)S/C(=C\c2ccc(F)cc2)C1=O)Nc1ccc(O)cc1C(=O)NCCCCNC(=O)c1ccc(-c2c3nc(c(-c4ccc(S(=O)(=O)[O-])cc4)c4ccc([nH]4)c(-c4ccc(S(=O)(=O)[O-])cc4)c4nc(c(-c5ccc(S(=O)(=O)[O-])cc5)c5ccc2[nH]5)C=C4)C=C3)cc1
REMARK SMILES IDX 31 1 30 2 28 3 29 4 27 6 21 7 22 8 23 9 26 10 24 11 20 12
REMARK SMILES IDX 1 13 2 14 3 16 4 17 5 18 6 19 18 20 7 21 8 22 9 23 19 24
REMARK SMILES IDX 10 25 11 26 12 27 17 28 13 29 16 30 14 31 15 32 25 33 32 35
REMARK SMILES IDX 33 36 34 37 35 38 36 39 37 41 38 42 39 43 97 44 40 45 96 46
REMARK SMILES IDX 41 47 42 48 43 49 90 50 44 51 95 52 89 53 91 54 45 55 94 56
REMARK SMILES IDX 88 57 87 58 46 60 76 61 57 62 75 63 58 64 61 65 74 66 92 67
REMARK SMILES IDX 59 68 60 69 73 71 93 72 62 73 47 74 48 75 56 76 49 77 55 78
REMARK SMILES IDX 50 79 51 80 52 81 53 82 54 83 77 84 78 85 86 86 79 87 85 88
REMARK SMILES IDX 80 89 81 90 82 91 83 92 84 93 63 94 64 95 72 96 65 97 71 98
REMARK SMILES IDX 66 99 67 100 68 101 69 102 70 103
REMARK H PARENT 30 5 20 15 25 34 35 40 91 59 61 70
REMARK Flexibility Score: inf
ROOT
ATOM      1  C   UNL     1       2.729   1.932  -1.778  1.00  0.00     0.116 C 
ENDROOT
BRANCH   1   2
ATOM      2  N   UNL     1       3.408   3.019  -1.067  1.00  0.00    -0.352 N 
ATOM      3  C   UNL     1       3.211   3.607   0.168  1.00  0.00     0.253 C 
ATOM      4  O   UNL     1       4.011   4.462   0.551  1.00  0.00    -0.269 OA
ATOM      5  H   UNL     1       4.156   3.410  -1.573  1.00  0.00     0.163 HD
BRANCH   3   6
ATOM      6  C   UNL     1       2.088   3.267   1.084  1.00  0.00     0.067 A 
ATOM      7  C   UNL     1       1.765   1.962   1.490  1.00  0.00     0.054 A 
ATOM      8  C   UNL     1       0.670   1.760   2.350  1.00  0.00     0.031 A 
ATOM      9  C   UNL     1      -0.040   2.840   2.880  1.00  0.00     0.048 A 
ATOM     10  C   UNL     1       1.389   4.351   1.652  1.00  0.00     0.062 A 
ATOM     11  C   UNL     1       0.345   4.130   2.547  1.00  0.00     0.116 A 
BRANCH   7  12
ATOM     12  N   UNL     1       2.620   0.883   1.178  1.00  0.00    -0.325 N 
ATOM     13  O   UNL     1       1.056  -0.802   0.997  1.00  0.00    -0.275 OA
ATOM     14  C   UNL     1       2.227  -0.429   1.039  1.00  0.00     0.226 C 
ATOM     15  H   UNL     1       3.575   1.085   1.050  1.00  0.00     0.169 HD
BRANCH  14  16
ATOM     16  C   UNL     1       3.356  -1.440   0.974  1.00  0.00     0.122 C 
BRANCH  16  17
ATOM     17  C   UNL     1       4.470  -1.139  -0.021  1.00  0.00     0.140 C 
BRANCH  17  18
ATOM     18  N   UNL     1       5.518  -0.229   0.440  1.00  0.00    -0.268 N 
ATOM     19  C   UNL     1       5.842   0.898  -0.248  1.00  0.00     0.293 C 
ATOM     20  C   UNL     1       6.380  -0.554   1.462  1.00  0.00     0.268 C 
ATOM     21  O   UNL     1       5.297   1.333  -1.247  1.00  0.00    -0.261 OA
ATOM     22  S   UNL     1       7.158   1.752   0.455  1.00  0.00    -0.022 SA
ATOM     23  C   UNL     1       7.355   0.552   1.668  1.00  0.00     0.083 C 
ATOM     24  O   UNL     1       6.337  -1.567   2.142  1.00  0.00    -0.268 OA
ATOM     25  C   UNL     1       8.201   0.643   2.702  1.00  0.00     0.029 C 
BRANCH  25  26
ATOM     26  C   UNL     1       8.921   1.899   2.940  1.00  0.00    -0.024 A 
ATOM     27  C   UNL     1       8.225   2.945   3.570  1.00  0.00     0.011 A 
ATOM     28  C   UNL     1      10.173   2.143   2.364  1.00  0.00     0.011 A 
ATOM     29  C   UNL     1       8.769   4.226   3.609  1.00  0.00     0.040 A 
ATOM     30  C   UNL     1      10.719   3.429   2.415  1.00  0.00     0.040 A 
ATOM     31  C   UNL     1      10.010   4.457   3.031  1.00  0.00     0.123 A 
ATOM     32  F   UNL     1      10.520   5.695   3.048  1.00  0.00    -0.207 F 
ENDBRANCH  25  26
ENDBRANCH  17  18
ENDBRANCH  16  17
ENDBRANCH  14  16
ENDBRANCH   7  12
BRANCH  11  33
ATOM     33  O   UNL     1      -0.277   5.212   3.097  1.00  0.00    -0.508 OA
ATOM     34  H   UNL     1      -0.982   5.090   3.701  1.00  0.00     0.293 HD
ENDBRANCH  11  33
ENDBRANCH   3   6
ENDBRANCH   1   2
BRANCH   1  35
ATOM     35  C   UNL     1       3.034   1.786  -3.290  1.00  0.00     0.023 C 
BRANCH  35  36
ATOM     36  C   UNL     1       4.178   1.062  -4.104  1.00  0.00     0.023 C 
BRANCH  36  37
ATOM     37  C   UNL     1       5.545   0.427  -3.746  1.00  0.00     0.116 C 
BRANCH  37  38
ATOM     38  N   UNL     1       5.494  -0.889  -3.117  1.00  0.00    -0.352 N 
ATOM     39  C   UNL     1       6.498  -1.819  -2.933  1.00  0.00     0.251 C 
ATOM     40  H   UNL     1       4.610  -1.154  -2.772  1.00  0.00     0.163 HD
ATOM     41  O   UNL     1       6.246  -2.884  -2.374  1.00  0.00    -0.269 OA
BRANCH  39  42
ATOM     42  C   UNL     1       7.861  -1.587  -3.461  1.00  0.00     0.039 A 
ATOM     43  C   UNL     1       8.352  -2.465  -4.436  1.00  0.00     0.014 A 
ATOM     44  C   UNL     1       8.657  -0.534  -3.007  1.00  0.00     0.014 A 
ATOM     45  C   UNL     1       9.586  -2.215  -5.047  1.00  0.00     0.010 A 
ATOM     46  C   UNL     1       9.882  -0.273  -3.632  1.00  0.00     0.010 A 
ATOM     47  C   UNL     1      10.330  -1.078  -4.692  1.00  0.00    -0.014 A 
BRANCH  47  48
ATOM     48  C   UNL     1      11.474  -0.626  -5.531  1.00  0.00     0.031 A 
ATOM     49  C   UNL     1      12.886  -0.653  -5.022  1.00  0.00     0.074 A 
ATOM     50  C   UNL     1      11.199  -0.095  -6.741  1.00  0.00     0.049 A 
ATOM     51  N   UNL     1      13.980  -0.245  -5.613  1.00  0.00    -0.248 NA
ATOM     52  C   UNL     1      13.094  -1.190  -3.670  1.00  0.00     0.031 C 
ATOM     53  C   UNL     1       9.856   0.027  -7.319  1.00  0.00     0.029 A 
ATOM     54  N   UNL     1      12.018   0.451  -7.697  1.00  0.00    -0.354 N 
ATOM     55  C   UNL     1      15.009  -0.466  -4.705  1.00  0.00     0.074 A 
ATOM     56  C   UNL     1      14.400  -1.012  -3.509  1.00  0.00     0.031 C 
ATOM     57  C   UNL     1       9.946   0.592  -8.532  1.00  0.00     0.029 A 
ATOM     58  C   UNL     1      11.343   0.907  -8.807  1.00  0.00     0.049 A 
ATOM     59  H   UNL     1      12.995   0.512  -7.598  1.00  0.00     0.167 HD
ATOM     60  C   UNL     1      16.338  -0.243  -4.859  1.00  0.00     0.031 A 
ATOM     61  C   UNL     1      11.794   1.515  -9.921  1.00  0.00     0.031 A 
ATOM     62  C   UNL     1      16.928   0.320  -6.048  1.00  0.00     0.049 A 
ATOM     63  C   UNL     1      13.269   1.759 -10.066  1.00  0.00     0.074 A 
ATOM     64  C   UNL     1      18.265   0.550  -6.324  1.00  0.00     0.029 A 
ATOM     65  N   UNL     1      16.213   0.752  -7.158  1.00  0.00    -0.354 N 
ATOM     66  N   UNL     1      14.234   1.473  -9.224  1.00  0.00    -0.248 NA
ATOM     67  C   UNL     1      13.719   2.392 -11.312  1.00  0.00     0.031 C 
ATOM     68  C   UNL     1      18.354   1.163  -7.579  1.00  0.00     0.029 A 
ATOM     69  C   UNL     1      17.078   1.264  -8.111  1.00  0.00     0.049 A 
ATOM     70  H   UNL     1      15.235   0.701  -7.253  1.00  0.00     0.167 HD
ATOM     71  C   UNL     1      15.410   1.868  -9.850  1.00  0.00     0.074 A 
ATOM     72  C   UNL     1      15.035   2.401 -11.145  1.00  0.00     0.031 C 
ATOM     73  C   UNL     1      16.684   1.792  -9.394  1.00  0.00     0.031 A 
BRANCH  60  74
ATOM     74  C   UNL     1      17.242  -0.596  -3.705  1.00  0.00    -0.014 A 
ATOM     75  C   UNL     1      17.466  -1.938  -3.344  1.00  0.00     0.010 A 
ATOM     76  C   UNL     1      17.897   0.419  -2.984  1.00  0.00     0.010 A 
ATOM     77  C   UNL     1      18.279  -2.255  -2.252  1.00  0.00     0.020 A 
ATOM     78  C   UNL     1      18.734   0.106  -1.907  1.00  0.00     0.020 A 
ATOM     79  C   UNL     1      18.900  -1.229  -1.533  1.00  0.00     0.054 A 
BRANCH  79  80
ATOM     80  S   UNL     1      19.941  -1.669  -0.114  1.00  0.00     0.124 S 
ATOM     81  O   UNL     1      18.943  -2.051   0.882  1.00  0.00    -0.237 OA
ATOM     82  O   UNL     1      20.755  -2.763  -0.638  1.00  0.00    -0.237 OA
ATOM     83  O   UNL     1      20.671  -0.437   0.177  1.00  0.00    -0.744 OA
ENDBRANCH  79  80
ENDBRANCH  60  74
BRANCH  61  84
ATOM     84  C   UNL     1      10.836   1.901 -10.994  1.00  0.00    -0.014 A 
ATOM     85  C   UNL     1      10.804   1.192 -12.207  1.00  0.00     0.010 A 
ATOM     86  C   UNL     1       9.922   2.952 -10.794  1.00  0.00     0.010 A 
ATOM     87  C   UNL     1       9.885   1.532 -13.205  1.00  0.00     0.020 A 
ATOM     88  C   UNL     1       8.984   3.278 -11.779  1.00  0.00     0.020 A 
ATOM     89  C   UNL     1       8.978   2.571 -12.983  1.00  0.00     0.054 A 
BRANCH  89  90
ATOM     90  S   UNL     1       7.752   2.951 -14.266  1.00  0.00     0.124 S 
ATOM     91  O   UNL     1       8.568   3.614 -15.279  1.00  0.00    -0.237 OA
ATOM     92  O   UNL     1       7.249   1.627 -14.624  1.00  0.00    -0.237 OA
ATOM     93  O   UNL     1       6.790   3.808 -13.576  1.00  0.00    -0.744 OA
ENDBRANCH  89  90
ENDBRANCH  61  84
BRANCH  73  94
ATOM     94  C   UNL     1      17.774   2.269 -10.315  1.00  0.00    -0.014 A 
ATOM     95  C   UNL     1      17.978   3.639 -10.555  1.00  0.00     0.010 A 
ATOM     96  C   UNL     1      18.646   1.331 -10.899  1.00  0.00     0.010 A 
ATOM     97  C   UNL     1      19.023   4.062 -11.380  1.00  0.00     0.020 A 
ATOM     98  C   UNL     1      19.707   1.752 -11.703  1.00  0.00     0.020 A 
ATOM     99  C   UNL     1      19.883   3.116 -11.947  1.00  0.00     0.054 A 
BRANCH  99 100
ATOM    100  S   UNL     1      21.269   3.693 -12.964  1.00  0.00     0.124 S 
ATOM    101  O   UNL     1      20.595   4.093 -14.197  1.00  0.00    -0.237 OA
ATOM    102  O   UNL     1      21.819   4.786 -12.165  1.00  0.00    -0.237 OA
ATOM    103  O   UNL     1      22.129   2.518 -13.077  1.00  0.00    -0.744 OA
ENDBRANCH  99 100
ENDBRANCH  73  94
ENDBRANCH  47  48
ENDBRANCH  39  42
ENDBRANCH  37  38
ENDBRANCH  36  37
ENDBRANCH  35  36
ENDBRANCH   1  35
TORSDOF 20
