REMARK SMILES Cc1cc(C)c2c(c1)C=C(C(=O)NCCCCNC(=O)c1ccc(-c3c4nc(c(-c5ccc(S(=O)(=O)[O-])cc5)c5ccc([nH]5)c(-c5ccc(S(=O)(=O)[O-])cc5)c5nc(c(-c6ccc(S(=O)(=O)[O-])cc6)c6ccc3[nH]6)C=C5)C=C4)cc1)[C@@H](C(F)(F)F)O2
REMARK SMILES IDX 16 1 15 2 14 3 13 4 11 5 12 6 10 8 1 9 2 10 3 11 8 12 4 13
REMARK SMILES IDX 7 14 5 15 6 16 9 17 86 18 81 19 82 20 83 21 84 22 85 23
REMARK SMILES IDX 17 24 18 25 19 26 20 28 21 29 22 30 80 31 23 32 79 33 24 34
REMARK SMILES IDX 25 35 26 36 73 37 27 38 78 39 72 40 74 41 28 42 77 43 71 44
REMARK SMILES IDX 70 45 29 47 59 48 40 49 58 50 41 51 44 52 57 53 75 54 42 55
REMARK SMILES IDX 43 56 56 58 76 59 45 60 30 61 31 62 39 63 32 64 38 65 33 66
REMARK SMILES IDX 34 67 35 68 36 69 37 70 60 71 61 72 69 73 62 74 68 75 63 76
REMARK SMILES IDX 64 77 65 78 66 79 67 80 46 81 47 82 55 83 48 84 54 85 49 86
REMARK SMILES IDX 50 87 51 88 52 89 53 90
REMARK H PARENT 13 7 18 27 74 46 44 57
REMARK Flexibility Score: inf
ROOT
ATOM      1  C   UNL     1       1.673  10.153   4.667  1.00  0.00     0.023 C 
ENDROOT
BRANCH   1   2
ATOM      2  C   UNL     1       1.128   8.724   4.592  1.00  0.00     0.023 C 
BRANCH   2   3
ATOM      3  C   UNL     1       0.139   8.495   3.454  1.00  0.00     0.116 C 
BRANCH   3   4
ATOM      4  N   UNL     1       0.809   8.158   2.211  1.00  0.00    -0.352 N 
ATOM      5  C   UNL     1       1.027   7.041   1.479  1.00  0.00     0.251 C 
ATOM      6  O   UNL     1       1.676   7.210   0.441  1.00  0.00    -0.270 OA
ATOM      7  H   UNL     1       1.211   8.951   1.790  1.00  0.00     0.163 HD
BRANCH   5   8
ATOM      8  C   UNL     1       0.551   5.670   1.833  1.00  0.00     0.067 C 
ATOM      9  C   UNL     1       0.906  -0.151  -0.221  1.00  0.00     0.044 C 
ATOM     10  C   UNL     1       0.534   0.953   0.724  1.00  0.00    -0.050 A 
ATOM     11  C   UNL     1      -0.179   0.682   1.900  1.00  0.00     0.010 A 
ATOM     12  C   UNL     1       0.919   2.271   0.443  1.00  0.00     0.015 A 
ATOM     13  C   UNL     1      -0.510   1.711   2.792  1.00  0.00    -0.008 A 
ATOM     14  C   UNL     1       0.594   3.308   1.323  1.00  0.00     0.018 A 
ATOM     15  C   UNL     1      -1.270   1.412   4.051  1.00  0.00     0.048 C 
ATOM     16  C   UNL     1      -0.120   3.023   2.487  1.00  0.00     0.130 A 
ATOM     17  C   UNL     1       1.029   4.675   1.063  1.00  0.00     0.025 C 
ATOM     18  O   UNL     1      -0.424   3.991   3.404  1.00  0.00    -0.475 OA
ATOM     19  C   UNL     1      -0.427   5.365   2.930  1.00  0.00     0.314 C 
BRANCH  19  20
ATOM     20  C   UNL     1      -1.869   5.768   2.573  1.00  0.00     0.429 C 
ATOM     21  F   UNL     1      -2.648   5.772   3.684  1.00  0.00    -0.167 F 
ATOM     22  F   UNL     1      -1.948   7.013   2.048  1.00  0.00    -0.167 F 
ATOM     23  F   UNL     1      -2.442   4.928   1.682  1.00  0.00    -0.167 F 
ENDBRANCH  19  20
ENDBRANCH   5   8
ENDBRANCH   3   4
ENDBRANCH   2   3
ENDBRANCH   1   2
BRANCH   1  24
ATOM     24  C   UNL     1       0.617  11.255   4.745  1.00  0.00     0.116 C 
BRANCH  24  25
ATOM     25  N   UNL     1      -0.387  11.028   5.775  1.00  0.00    -0.352 N 
ATOM     26  C   UNL     1      -1.029  11.960   6.555  1.00  0.00     0.251 C 
ATOM     27  H   UNL     1      -0.638  10.089   5.933  1.00  0.00     0.163 HD
ATOM     28  O   UNL     1      -1.792  11.605   7.447  1.00  0.00    -0.269 OA
BRANCH  26  29
ATOM     29  C   UNL     1      -0.753  13.390   6.326  1.00  0.00     0.039 A 
ATOM     30  C   UNL     1      -0.329  14.174   7.401  1.00  0.00     0.014 A 
ATOM     31  C   UNL     1      -0.860  13.932   5.042  1.00  0.00     0.014 A 
ATOM     32  C   UNL     1       0.052  15.496   7.174  1.00  0.00     0.010 A 
ATOM     33  C   UNL     1      -0.424  15.232   4.809  1.00  0.00     0.010 A 
ATOM     34  C   UNL     1       0.036  16.024   5.872  1.00  0.00    -0.014 A 
BRANCH  34  35
ATOM     35  C   UNL     1       0.478  17.412   5.605  1.00  0.00     0.031 A 
ATOM     36  C   UNL     1      -0.522  18.437   5.151  1.00  0.00     0.074 A 
ATOM     37  C   UNL     1       1.781  17.736   5.726  1.00  0.00     0.049 A 
ATOM     38  N   UNL     1      -0.326  19.684   4.812  1.00  0.00    -0.248 NA
ATOM     39  C   UNL     1      -1.922  17.996   5.045  1.00  0.00     0.031 C 
ATOM     40  C   UNL     1       2.849  16.820   6.134  1.00  0.00     0.029 A 
ATOM     41  N   UNL     1       2.427  18.927   5.517  1.00  0.00    -0.354 N 
ATOM     42  C   UNL     1      -1.573  20.173   4.443  1.00  0.00     0.074 A 
ATOM     43  C   UNL     1      -2.509  19.076   4.551  1.00  0.00     0.031 C 
ATOM     44  C   UNL     1       4.011  17.493   6.177  1.00  0.00     0.029 A 
ATOM     45  C   UNL     1       3.777  18.874   5.767  1.00  0.00     0.049 A 
ATOM     46  H   UNL     1       1.967  19.744   5.215  1.00  0.00     0.167 HD
ATOM     47  C   UNL     1      -1.913  21.429   4.070  1.00  0.00     0.031 A 
ATOM     48  C   UNL     1       4.720  19.832   5.678  1.00  0.00     0.031 A 
ATOM     49  C   UNL     1      -0.984  22.521   3.977  1.00  0.00     0.049 A 
ATOM     50  C   UNL     1       4.321  21.214   5.241  1.00  0.00     0.074 A 
ATOM     51  C   UNL     1      -1.236  23.840   3.643  1.00  0.00     0.029 A 
ATOM     52  N   UNL     1       0.377  22.422   4.223  1.00  0.00    -0.354 N 
ATOM     53  N   UNL     1       3.131  21.665   4.925  1.00  0.00    -0.248 NA
ATOM     54  C   UNL     1       5.392  22.216   5.152  1.00  0.00     0.031 C 
ATOM     55  C   UNL     1      -0.020  24.532   3.653  1.00  0.00     0.029 A 
ATOM     56  C   UNL     1       0.981  23.653   4.034  1.00  0.00     0.049 A 
ATOM     57  H   UNL     1       0.843  21.599   4.493  1.00  0.00     0.167 HD
ATOM     58  C   UNL     1       3.307  23.007   4.611  1.00  0.00     0.074 A 
ATOM     59  C   UNL     1       4.715  23.299   4.793  1.00  0.00     0.031 C 
ATOM     60  C   UNL     1       2.387  23.917   4.207  1.00  0.00     0.031 A 
BRANCH  47  61
ATOM     61  C   UNL     1      -3.360  21.680   3.743  1.00  0.00    -0.014 A 
ATOM     62  C   UNL     1      -4.331  21.716   4.761  1.00  0.00     0.010 A 
ATOM     63  C   UNL     1      -3.752  21.901   2.411  1.00  0.00     0.010 A 
ATOM     64  C   UNL     1      -5.675  21.927   4.447  1.00  0.00     0.020 A 
ATOM     65  C   UNL     1      -5.094  22.137   2.096  1.00  0.00     0.020 A 
ATOM     66  C   UNL     1      -6.049  22.131   3.116  1.00  0.00     0.054 A 
BRANCH  66  67
ATOM     67  S   UNL     1      -7.800  22.417   2.740  1.00  0.00     0.124 S 
ATOM     68  O   UNL     1      -8.366  21.081   2.911  1.00  0.00    -0.237 OA
ATOM     69  O   UNL     1      -8.189  23.397   3.751  1.00  0.00    -0.237 OA
ATOM     70  O   UNL     1      -7.783  22.916   1.368  1.00  0.00    -0.744 OA
ENDBRANCH  66  67
ENDBRANCH  47  61
BRANCH  48  71
ATOM     71  C   UNL     1       6.130  19.520   6.034  1.00  0.00    -0.014 A 
ATOM     72  C   UNL     1       6.674  19.994   7.241  1.00  0.00     0.010 A 
ATOM     73  C   UNL     1       6.925  18.728   5.187  1.00  0.00     0.010 A 
ATOM     74  C   UNL     1       7.992  19.687   7.592  1.00  0.00     0.020 A 
ATOM     75  C   UNL     1       8.237  18.402   5.545  1.00  0.00     0.020 A 
ATOM     76  C   UNL     1       8.764  18.889   6.743  1.00  0.00     0.054 A 
BRANCH  76  77
ATOM     77  S   UNL     1      10.449  18.449   7.252  1.00  0.00     0.124 S 
ATOM     78  O   UNL     1      11.167  19.702   7.043  1.00  0.00    -0.237 OA
ATOM     79  O   UNL     1      10.264  18.050   8.645  1.00  0.00    -0.237 OA
ATOM     80  O   UNL     1      10.807  17.361   6.344  1.00  0.00    -0.744 OA
ENDBRANCH  76  77
ENDBRANCH  48  71
BRANCH  60  81
ATOM     81  C   UNL     1       2.872  25.314   3.937  1.00  0.00    -0.014 A 
ATOM     82  C   UNL     1       3.588  25.612   2.765  1.00  0.00     0.010 A 
ATOM     83  C   UNL     1       2.551  26.350   4.832  1.00  0.00     0.010 A 
ATOM     84  C   UNL     1       3.996  26.922   2.503  1.00  0.00     0.020 A 
ATOM     85  C   UNL     1       2.939  27.665   4.562  1.00  0.00     0.020 A 
ATOM     86  C   UNL     1       3.669  27.940   3.404  1.00  0.00     0.054 A 
BRANCH  86  87
ATOM     87  S   UNL     1       4.165  29.641   3.015  1.00  0.00     0.124 S 
ATOM     88  O   UNL     1       5.598  29.611   3.298  1.00  0.00    -0.237 OA
ATOM     89  O   UNL     1       3.806  29.767   1.605  1.00  0.00    -0.237 OA
ATOM     90  O   UNL     1       3.366  30.453   3.930  1.00  0.00    -0.744 OA
ENDBRANCH  86  87
ENDBRANCH  60  81
ENDBRANCH  34  35
ENDBRANCH  26  29
ENDBRANCH  24  25
ENDBRANCH   1  24
TORSDOF 15
