REMARK SMILES Cc1nn(C(C)C)cc1-c1cnccc1C(=O)NCCCCNC(=O)c1ccc(-c2c3nc(c(-c4ccc(S(=O)(=O)[O-])cc4)c4ccc([nH]4)c(-c4ccc(S(=O)(=O)[O-])cc4)c4nc(c(-c5ccc(S(=O)(=O)[O-])cc5)c5ccc2[nH]5)C=C4)C=C3)cc1
REMARK SMILES IDX 21 1 20 2 19 3 18 4 16 5 17 6 15 8 10 9 11 10 12 11 14 12
REMARK SMILES IDX 13 13 9 14 1 15 2 16 3 17 4 18 8 19 5 20 6 21 7 22 22 23
REMARK SMILES IDX 23 24 24 25 25 27 26 28 27 29 85 30 28 31 84 32 29 33 30 34
REMARK SMILES IDX 31 35 78 36 32 37 83 38 77 39 79 40 33 41 82 42 76 43 75 44
REMARK SMILES IDX 34 46 64 47 45 48 63 49 46 50 49 51 62 52 80 53 47 54 48 55
REMARK SMILES IDX 61 57 81 58 50 59 35 60 36 61 44 62 37 63 43 64 38 65 39 66
REMARK SMILES IDX 40 67 41 68 42 69 65 70 66 71 74 72 67 73 73 74 68 75 69 76
REMARK SMILES IDX 70 77 71 78 72 79 51 80 52 81 60 82 53 83 59 84 54 85 55 86
REMARK SMILES IDX 56 87 57 88 58 89
REMARK H PARENT 18 7 23 26 79 45 49 56
REMARK Flexibility Score: inf
ROOT
ATOM      1  C   UNL     1       0.588   1.657   4.223  1.00  0.00     0.023 C 
ENDROOT
BRANCH   1   2
ATOM      2  C   UNL     1       1.677   1.244   3.218  1.00  0.00     0.023 C 
BRANCH   2   3
ATOM      3  C   UNL     1       1.842   2.107   1.970  1.00  0.00     0.116 C 
BRANCH   3   4
ATOM      4  N   UNL     1       2.778   3.196   2.035  1.00  0.00    -0.352 N 
ATOM      5  C   UNL     1       3.449   3.802   0.993  1.00  0.00     0.252 C 
ATOM      6  O   UNL     1       4.139   4.787   1.254  1.00  0.00    -0.269 OA
ATOM      7  H   UNL     1       2.963   3.553   2.933  1.00  0.00     0.163 HD
BRANCH   5   8
ATOM      8  C   UNL     1       3.504   3.254  -0.400  1.00  0.00     0.050 A 
ATOM      9  C   UNL     1       2.442   2.846  -1.220  1.00  0.00     0.016 A 
ATOM     10  C   UNL     1       2.765   2.360  -2.492  1.00  0.00     0.120 A 
ATOM     11  N   UNL     1       4.015   2.262  -2.996  1.00  0.00    -0.264 NA
ATOM     12  C   UNL     1       4.807   3.204  -0.932  1.00  0.00     0.034 A 
ATOM     13  C   UNL     1       5.008   2.711  -2.209  1.00  0.00     0.112 A 
BRANCH   9  14
ATOM     14  C   UNL     1       1.036   2.875  -0.893  1.00  0.00     0.025 A 
ATOM     15  C   UNL     1       0.357   0.342  -0.752  1.00  0.00     0.069 C 
ATOM     16  C   UNL     1       0.111   1.806  -0.722  1.00  0.00     0.067 A 
ATOM     17  N   UNL     1      -1.107   2.259  -0.410  1.00  0.00    -0.177 NA
ATOM     18  N   UNL     1      -0.988   3.600  -0.455  1.00  0.00    -0.269 N 
ATOM     19  C   UNL     1       0.285   4.018  -0.743  1.00  0.00     0.118 A 
BRANCH  18  20
ATOM     20  C   UNL     1      -2.104   4.460  -0.079  1.00  0.00     0.101 C 
ATOM     21  C   UNL     1      -3.473   3.774  -0.139  1.00  0.00     0.033 C 
ATOM     22  C   UNL     1      -1.885   4.975   1.329  1.00  0.00     0.033 C 
ENDBRANCH  18  20
ENDBRANCH   9  14
ENDBRANCH   5   8
ENDBRANCH   3   4
ENDBRANCH   2   3
ENDBRANCH   1   2
BRANCH   1  23
ATOM     23  C   UNL     1      -0.733   2.095   3.583  1.00  0.00     0.116 C 
BRANCH  23  24
ATOM     24  N   UNL     1      -1.893   1.828   4.431  1.00  0.00    -0.352 N 
ATOM     25  C   UNL     1      -2.964   2.623   4.784  1.00  0.00     0.251 C 
ATOM     26  H   UNL     1      -1.913   0.923   4.819  1.00  0.00     0.163 HD
ATOM     27  O   UNL     1      -3.989   2.093   5.206  1.00  0.00    -0.269 OA
BRANCH  25  28
ATOM     28  C   UNL     1      -2.898   4.096   4.651  1.00  0.00     0.039 A 
ATOM     29  C   UNL     1      -4.051   4.838   4.349  1.00  0.00     0.014 A 
ATOM     30  C   UNL     1      -1.682   4.751   4.824  1.00  0.00     0.014 A 
ATOM     31  C   UNL     1      -3.965   6.226   4.175  1.00  0.00     0.010 A 
ATOM     32  C   UNL     1      -1.572   6.091   4.507  1.00  0.00     0.010 A 
ATOM     33  C   UNL     1      -2.715   6.850   4.240  1.00  0.00    -0.014 A 
BRANCH  33  34
ATOM     34  C   UNL     1      -2.577   8.311   4.258  1.00  0.00     0.031 A 
ATOM     35  C   UNL     1      -2.441   8.921   5.623  1.00  0.00     0.074 A 
ATOM     36  C   UNL     1      -2.256   9.061   3.183  1.00  0.00     0.049 A 
ATOM     37  N   UNL     1      -3.179   9.829   6.180  1.00  0.00    -0.248 NA
ATOM     38  C   UNL     1      -1.378   8.405   6.508  1.00  0.00     0.031 C 
ATOM     39  C   UNL     1      -1.943   8.604   1.831  1.00  0.00     0.029 A 
ATOM     40  N   UNL     1      -1.985  10.399   3.123  1.00  0.00    -0.354 N 
ATOM     41  C   UNL     1      -2.580  10.100   7.410  1.00  0.00     0.074 A 
ATOM     42  C   UNL     1      -1.597   9.078   7.631  1.00  0.00     0.031 C 
ATOM     43  C   UNL     1      -1.302   9.586   1.160  1.00  0.00     0.029 A 
ATOM     44  C   UNL     1      -1.275  10.777   1.990  1.00  0.00     0.049 A 
ATOM     45  H   UNL     1      -2.266  11.036   3.819  1.00  0.00     0.167 HD
ATOM     46  C   UNL     1      -2.736  11.269   8.088  1.00  0.00     0.031 A 
ATOM     47  C   UNL     1      -0.649  11.959   1.769  1.00  0.00     0.031 A 
ATOM     48  C   UNL     1      -3.842  12.046   7.614  1.00  0.00     0.049 A 
ATOM     49  C   UNL     1      -1.190  12.949   2.728  1.00  0.00     0.074 A 
ATOM     50  C   UNL     1      -5.196  11.825   7.468  1.00  0.00     0.029 A 
ATOM     51  N   UNL     1      -3.556  13.161   6.864  1.00  0.00    -0.354 N 
ATOM     52  N   UNL     1      -2.409  13.406   2.694  1.00  0.00    -0.248 NA
ATOM     53  C   UNL     1      -0.468  13.195   3.966  1.00  0.00     0.031 C 
ATOM     54  C   UNL     1      -5.561  12.528   6.284  1.00  0.00     0.029 A 
ATOM     55  C   UNL     1      -4.411  13.150   5.792  1.00  0.00     0.049 A 
ATOM     56  H   UNL     1      -2.869  13.839   7.060  1.00  0.00     0.167 HD
ATOM     57  C   UNL     1      -2.744  13.632   4.020  1.00  0.00     0.074 A 
ATOM     58  C   UNL     1      -1.474  13.614   4.737  1.00  0.00     0.031 C 
ATOM     59  C   UNL     1      -4.038  13.536   4.447  1.00  0.00     0.031 A 
BRANCH  46  60
ATOM     60  C   UNL     1      -1.644  11.854   8.951  1.00  0.00    -0.014 A 
ATOM     61  C   UNL     1      -1.941  12.919   9.819  1.00  0.00     0.010 A 
ATOM     62  C   UNL     1      -0.279  11.550   8.748  1.00  0.00     0.010 A 
ATOM     63  C   UNL     1      -0.918  13.665  10.423  1.00  0.00     0.020 A 
ATOM     64  C   UNL     1       0.745  12.248   9.387  1.00  0.00     0.020 A 
ATOM     65  C   UNL     1       0.418  13.329  10.192  1.00  0.00     0.054 A 
BRANCH  65  66
ATOM     66  S   UNL     1       1.733  14.363  10.882  1.00  0.00     0.124 S 
ATOM     67  O   UNL     1       1.630  15.562  10.057  1.00  0.00    -0.237 OA
ATOM     68  O   UNL     1       1.318  14.512  12.274  1.00  0.00    -0.237 OA
ATOM     69  O   UNL     1       2.938  13.561  10.681  1.00  0.00    -0.744 OA
ENDBRANCH  65  66
ENDBRANCH  46  60
BRANCH  47  70
ATOM     70  C   UNL     1       0.553  12.232   0.945  1.00  0.00    -0.014 A 
ATOM     71  C   UNL     1       0.887  13.547   0.572  1.00  0.00     0.010 A 
ATOM     72  C   UNL     1       1.521  11.226   0.742  1.00  0.00     0.010 A 
ATOM     73  C   UNL     1       2.163  13.854   0.072  1.00  0.00     0.020 A 
ATOM     74  C   UNL     1       2.790  11.523   0.231  1.00  0.00     0.020 A 
ATOM     75  C   UNL     1       3.114  12.841  -0.078  1.00  0.00     0.054 A 
BRANCH  75  76
ATOM     76  S   UNL     1       4.812  13.278  -0.552  1.00  0.00     0.124 S 
ATOM     77  O   UNL     1       4.658  13.641  -1.958  1.00  0.00    -0.237 OA
ATOM     78  O   UNL     1       5.122  14.379   0.355  1.00  0.00    -0.237 OA
ATOM     79  O   UNL     1       5.564  12.048  -0.308  1.00  0.00    -0.744 OA
ENDBRANCH  75  76
ENDBRANCH  47  70
BRANCH  59  80
ATOM     80  C   UNL     1      -5.140  13.519   3.412  1.00  0.00    -0.014 A 
ATOM     81  C   UNL     1      -5.230  12.548   2.396  1.00  0.00     0.010 A 
ATOM     82  C   UNL     1      -6.207  14.422   3.570  1.00  0.00     0.010 A 
ATOM     83  C   UNL     1      -6.341  12.499   1.544  1.00  0.00     0.020 A 
ATOM     84  C   UNL     1      -7.329  14.365   2.737  1.00  0.00     0.020 A 
ATOM     85  C   UNL     1      -7.387  13.408   1.723  1.00  0.00     0.054 A 
BRANCH  85  86
ATOM     86  S   UNL     1      -8.854  13.287   0.662  1.00  0.00     0.124 S 
ATOM     87  O   UNL     1      -8.359  13.775  -0.621  1.00  0.00    -0.237 OA
ATOM     88  O   UNL     1      -9.177  11.863   0.713  1.00  0.00    -0.237 OA
ATOM     89  O   UNL     1      -9.831  14.157   1.321  1.00  0.00    -0.744 OA
ENDBRANCH  85  86
ENDBRANCH  59  80
ENDBRANCH  33  34
ENDBRANCH  25  28
ENDBRANCH  23  24
ENDBRANCH   1  23
TORSDOF 16
