REMARK SMILES COC(=O)c1c(NC(=O)[C@@H]2C[C@@H]2C(=O)NCCCCNC(=O)c2ccc(-c3c4nc(c(-c5ccc(S(=O)(=O)[O-])cc5)c5ccc([nH]5)c(-c5ccc(S(=O)(=O)[O-])cc5)c5nc(c(-c6ccc(S(=O)(=O)[O-])cc6)c6ccc3[nH]6)C=C5)C=C4)cc2)sc2c1CC[N@@H+](Cc1ccccc1)C2
REMARK SMILES IDX 17 1 16 2 15 3 13 4 14 5 12 7 10 8 11 9 8 10 7 11 9 13 6 14
REMARK SMILES IDX 5 15 85 16 83 17 84 18 86 19 96 20 87 21 88 22 3 24 4 25
REMARK SMILES IDX 2 26 1 27 89 28 90 29 91 30 95 31 92 32 94 33 93 34 18 35
REMARK SMILES IDX 19 36 20 37 21 38 22 40 23 41 24 42 82 43 25 44 81 45 26 46
REMARK SMILES IDX 27 47 28 48 75 49 29 50 80 51 74 52 76 53 30 54 79 55 73 56
REMARK SMILES IDX 72 57 31 59 61 60 42 61 60 62 43 63 46 64 59 65 77 66 44 67
REMARK SMILES IDX 45 68 58 70 78 71 47 72 32 73 33 74 41 75 34 76 40 77 35 78
REMARK SMILES IDX 36 79 37 80 38 81 39 82 62 83 63 84 71 85 64 86 70 87 65 88
REMARK SMILES IDX 66 89 67 90 68 91 69 92 48 93 49 94 57 95 50 96 56 97 51 98
REMARK SMILES IDX 52 99 53 100 54 101 55 102
REMARK H PARENT 15 6 7 12 88 23 20 39 76 58 46 69
REMARK Flexibility Score: inf
ROOT
ATOM      1  C   UNL     1      -5.343  -2.060  -3.593  1.00  0.00     0.023 C 
ENDROOT
BRANCH   1   2
ATOM      2  C   UNL     1      -3.928  -1.548  -3.285  1.00  0.00     0.116 C 
BRANCH   2   3
ATOM      3  N   UNL     1      -3.245  -1.035  -4.458  1.00  0.00    -0.356 N 
ATOM      4  C   UNL     1      -2.171  -0.225  -4.694  1.00  0.00     0.223 C 
ATOM      5  O   UNL     1      -1.907  -0.038  -5.883  1.00  0.00    -0.275 OA
ATOM      6  H   UNL     1      -3.660  -1.350  -5.294  1.00  0.00     0.163 HD
BRANCH   4   7
ATOM      7  C   UNL     1      -1.319   0.492  -3.709  1.00  0.00     0.091 C 
ATOM      8  C   UNL     1      -1.075   0.381  -2.227  1.00  0.00     0.092 C 
ATOM      9  C   UNL     1      -1.960   1.473  -2.763  1.00  0.00     0.028 C 
BRANCH   8  10
ATOM     10  C   UNL     1      -1.570  -0.727  -1.388  1.00  0.00     0.228 C 
ATOM     11  N   UNL     1      -1.172  -2.006  -1.686  1.00  0.00    -0.317 N 
ATOM     12  H   UNL     1      -1.561  -2.743  -1.162  1.00  0.00     0.170 HD
ATOM     13  O   UNL     1      -2.370  -0.498  -0.487  1.00  0.00    -0.274 OA
BRANCH  11  14
ATOM     14  C   UNL     1      -0.265  -2.326  -2.668  1.00  0.00     0.110 A 
ATOM     15  C   UNL     1       1.013  -1.886  -2.955  1.00  0.00     0.098 A 
ATOM     16  C   UNL     1       1.453  -2.463  -4.205  1.00  0.00    -0.006 A 
ATOM     17  S   UNL     1      -0.858  -3.493  -3.745  1.00  0.00    -0.116 S 
ATOM     18  C   UNL     1       0.530  -3.370  -4.697  1.00  0.00     0.065 A 
ATOM     19  C   UNL     1       2.818  -2.359  -4.838  1.00  0.00     0.099 C 
ATOM     20  C   UNL     1       0.804  -4.313  -5.821  1.00  0.00     0.310 C 
ATOM     21  C   UNL     1       3.097  -3.496  -5.864  1.00  0.00     0.267 C 
ATOM     22  N   UNL     1       2.219  -4.681  -5.830  1.00  0.00    -0.326 N 
ATOM     23  H   UNL     1       2.367  -5.168  -6.714  1.00  0.00     0.348 HD
BRANCH  15  24
ATOM     24  C   UNL     1       1.827  -1.042  -2.071  1.00  0.00     0.341 C 
ATOM     25  O   UNL     1       2.717  -0.316  -2.453  1.00  0.00    -0.246 OA
BRANCH  24  26
ATOM     26  O   UNL     1       1.417  -1.133  -0.763  1.00  0.00    -0.465 OA
ATOM     27  C   UNL     1       2.040  -0.223   0.139  1.00  0.00     0.282 C 
ENDBRANCH  24  26
ENDBRANCH  15  24
BRANCH  22  28
ATOM     28  C   UNL     1       2.609  -5.709  -4.849  1.00  0.00     0.299 C 
BRANCH  28  29
ATOM     29  C   UNL     1       2.458  -5.404  -3.365  1.00  0.00     0.006 A 
ATOM     30  C   UNL     1       3.440  -4.711  -2.648  1.00  0.00     0.009 A 
ATOM     31  C   UNL     1       1.312  -5.812  -2.669  1.00  0.00     0.009 A 
ATOM     32  C   UNL     1       3.248  -4.373  -1.304  1.00  0.00     0.001 A 
ATOM     33  C   UNL     1       1.108  -5.472  -1.329  1.00  0.00     0.001 A 
ATOM     34  C   UNL     1       2.072  -4.735  -0.650  1.00  0.00     0.000 A 
ENDBRANCH  28  29
ENDBRANCH  22  28
ENDBRANCH  11  14
ENDBRANCH   8  10
ENDBRANCH   4   7
ENDBRANCH   2   3
ENDBRANCH   1   2
BRANCH   1  35
ATOM     35  C   UNL     1      -5.448  -3.237  -4.582  1.00  0.00     0.023 C 
BRANCH  35  36
ATOM     36  C   UNL     1      -4.942  -4.578  -4.057  1.00  0.00     0.116 C 
BRANCH  36  37
ATOM     37  N   UNL     1      -5.784  -5.142  -3.007  1.00  0.00    -0.352 N 
ATOM     38  C   UNL     1      -5.794  -6.438  -2.529  1.00  0.00     0.251 C 
ATOM     39  H   UNL     1      -6.423  -4.522  -2.587  1.00  0.00     0.163 HD
ATOM     40  O   UNL     1      -6.721  -6.833  -1.830  1.00  0.00    -0.269 OA
BRANCH  38  41
ATOM     41  C   UNL     1      -4.682  -7.348  -2.878  1.00  0.00     0.039 A 
ATOM     42  C   UNL     1      -4.931  -8.672  -3.254  1.00  0.00     0.014 A 
ATOM     43  C   UNL     1      -3.377  -6.865  -2.836  1.00  0.00     0.014 A 
ATOM     44  C   UNL     1      -3.868  -9.481  -3.665  1.00  0.00     0.010 A 
ATOM     45  C   UNL     1      -2.345  -7.636  -3.328  1.00  0.00     0.010 A 
ATOM     46  C   UNL     1      -2.570  -8.954  -3.718  1.00  0.00    -0.014 A 
BRANCH  46  47
ATOM     47  C   UNL     1      -1.460  -9.735  -4.275  1.00  0.00     0.031 A 
ATOM     48  C   UNL     1      -1.629 -10.216  -5.676  1.00  0.00     0.074 A 
ATOM     49  C   UNL     1      -0.248  -9.844  -3.687  1.00  0.00     0.049 A 
ATOM     50  N   UNL     1      -1.687 -11.439  -6.090  1.00  0.00    -0.248 NA
ATOM     51  C   UNL     1      -1.821  -9.219  -6.740  1.00  0.00     0.031 C 
ATOM     52  C   UNL     1       0.226  -9.203  -2.459  1.00  0.00     0.029 A 
ATOM     53  N   UNL     1       0.873 -10.470  -4.150  1.00  0.00    -0.354 N 
ATOM     54  C   UNL     1      -1.755 -11.384  -7.481  1.00  0.00     0.074 A 
ATOM     55  C   UNL     1      -1.961  -9.996  -7.817  1.00  0.00     0.031 C 
ATOM     56  C   UNL     1       1.575  -9.276  -2.406  1.00  0.00     0.029 A 
ATOM     57  C   UNL     1       2.050 -10.099  -3.504  1.00  0.00     0.049 A 
ATOM     58  H   UNL     1       0.851 -11.130  -4.880  1.00  0.00     0.167 HD
ATOM     59  C   UNL     1      -1.462 -12.457  -8.270  1.00  0.00     0.031 A 
ATOM     60  C   UNL     1       3.318 -10.419  -3.874  1.00  0.00     0.031 A 
ATOM     61  C   UNL     1      -1.343 -13.673  -7.510  1.00  0.00     0.049 A 
ATOM     62  C   UNL     1       3.219 -11.624  -4.731  1.00  0.00     0.074 A 
ATOM     63  C   UNL     1      -2.187 -14.402  -6.697  1.00  0.00     0.029 A 
ATOM     64  N   UNL     1      -0.072 -14.118  -7.228  1.00  0.00    -0.354 N 
ATOM     65  N   UNL     1       2.855 -12.791  -4.279  1.00  0.00    -0.248 NA
ATOM     66  C   UNL     1       3.132 -11.464  -6.174  1.00  0.00     0.031 C 
ATOM     67  C   UNL     1      -1.357 -14.868  -5.635  1.00  0.00     0.029 A 
ATOM     68  C   UNL     1      -0.053 -14.443  -5.895  1.00  0.00     0.049 A 
ATOM     69  H   UNL     1       0.679 -14.190  -7.860  1.00  0.00     0.167 HD
ATOM     70  C   UNL     1       2.093 -13.344  -5.295  1.00  0.00     0.074 A 
ATOM     71  C   UNL     1       2.404 -12.543  -6.477  1.00  0.00     0.031 C 
ATOM     72  C   UNL     1       1.076 -14.214  -5.020  1.00  0.00     0.031 A 
BRANCH  59  73
ATOM     73  C   UNL     1      -0.951 -12.368  -9.687  1.00  0.00    -0.014 A 
ATOM     74  C   UNL     1      -0.851 -13.546 -10.457  1.00  0.00     0.010 A 
ATOM     75  C   UNL     1      -0.318 -11.215 -10.192  1.00  0.00     0.010 A 
ATOM     76  C   UNL     1      -0.102 -13.582 -11.641  1.00  0.00     0.020 A 
ATOM     77  C   UNL     1       0.396 -11.230 -11.394  1.00  0.00     0.020 A 
ATOM     78  C   UNL     1       0.530 -12.424 -12.092  1.00  0.00     0.054 A 
BRANCH  78  79
ATOM     79  S   UNL     1       1.595 -12.508 -13.556  1.00  0.00     0.124 S 
ATOM     80  O   UNL     1       2.703 -13.328 -13.073  1.00  0.00    -0.237 OA
ATOM     81  O   UNL     1       0.721 -13.140 -14.541  1.00  0.00    -0.237 OA
ATOM     82  O   UNL     1       1.919 -11.109 -13.824  1.00  0.00    -0.744 OA
ENDBRANCH  78  79
ENDBRANCH  59  73
BRANCH  60  83
ATOM     83  C   UNL     1       4.576  -9.633  -3.740  1.00  0.00    -0.014 A 
ATOM     84  C   UNL     1       5.800 -10.137  -4.225  1.00  0.00     0.010 A 
ATOM     85  C   UNL     1       4.537  -8.271  -3.413  1.00  0.00     0.010 A 
ATOM     86  C   UNL     1       6.879  -9.281  -4.520  1.00  0.00     0.020 A 
ATOM     87  C   UNL     1       5.610  -7.416  -3.688  1.00  0.00     0.020 A 
ATOM     88  C   UNL     1       6.756  -7.912  -4.292  1.00  0.00     0.054 A 
BRANCH  88  89
ATOM     89  S   UNL     1       7.973  -6.738  -4.958  1.00  0.00     0.124 S 
ATOM     90  O   UNL     1       8.972  -6.690  -3.897  1.00  0.00    -0.237 OA
ATOM     91  O   UNL     1       8.396  -7.375  -6.202  1.00  0.00    -0.237 OA
ATOM     92  O   UNL     1       7.192  -5.512  -5.134  1.00  0.00    -0.744 OA
ENDBRANCH  88  89
ENDBRANCH  60  83
BRANCH  72  93
ATOM     93  C   UNL     1       0.966 -14.765  -3.615  1.00  0.00    -0.014 A 
ATOM     94  C   UNL     1       0.799 -13.953  -2.474  1.00  0.00     0.010 A 
ATOM     95  C   UNL     1       0.885 -16.159  -3.457  1.00  0.00     0.010 A 
ATOM     96  C   UNL     1       0.597 -14.521  -1.208  1.00  0.00     0.020 A 
ATOM     97  C   UNL     1       0.663 -16.732  -2.201  1.00  0.00     0.020 A 
ATOM     98  C   UNL     1       0.533 -15.911  -1.080  1.00  0.00     0.054 A 
BRANCH  98  99
ATOM     99  S   UNL     1       0.233 -16.640   0.554  1.00  0.00     0.124 S 
ATOM    100  O   UNL     1       1.479 -16.359   1.261  1.00  0.00    -0.237 OA
ATOM    101  O   UNL     1      -0.939 -15.905   1.029  1.00  0.00    -0.237 OA
ATOM    102  O   UNL     1      -0.009 -18.053   0.266  1.00  0.00    -0.744 OA
ENDBRANCH  98  99
ENDBRANCH  72  93
ENDBRANCH  46  47
ENDBRANCH  38  41
ENDBRANCH  36  37
ENDBRANCH  35  36
ENDBRANCH   1  35
TORSDOF 20
