REMARK SMILES Cc1c(CC(=O)NCCCCNC(=O)c2ccc(-c3c4nc(c(-c5ccc(S(=O)(=O)[O-])cc5)c5ccc([nH]5)c(-c5ccc(S(=O)(=O)[O-])cc5)c5nc(c(-c6ccc(S(=O)(=O)[O-])cc6)c6ccc3[nH]6)C=C5)C=C4)cc2)c2cc(O)ccc2n1C(=O)c1ccc(Cl)cc1
REMARK SMILES IDX 9 1 8 2 7 3 5 4 6 5 4 7 3 8 1 9 2 10 82 11 75 12 81 13 76 14
REMARK SMILES IDX 80 15 77 16 79 17 83 18 84 19 85 20 86 21 91 22 87 23 90 24
REMARK SMILES IDX 88 25 89 26 78 27 10 29 11 30 12 31 13 32 14 34 15 35 16 36
REMARK SMILES IDX 74 37 17 38 73 39 18 40 19 41 20 42 67 43 21 44 72 45 66 46
REMARK SMILES IDX 68 47 22 48 71 49 65 50 64 51 23 53 53 54 34 55 52 56 35 57
REMARK SMILES IDX 38 58 51 59 69 60 36 61 37 62 50 64 70 65 39 66 24 67 25 68
REMARK SMILES IDX 33 69 26 70 32 71 27 72 28 73 29 74 30 75 31 76 54 77 55 78
REMARK SMILES IDX 63 79 56 80 62 81 57 82 58 83 59 84 60 85 61 86 40 87 41 88
REMARK SMILES IDX 49 89 42 90 48 91 43 92 44 93 45 94 46 95 47 96
REMARK H PARENT 7 6 78 28 12 33 68 52 38 63
REMARK Flexibility Score: inf
ROOT
ATOM      1  C   UNL     1       1.129  -1.801   3.506  1.00  0.00     0.023 C 
ENDROOT
BRANCH   1   2
ATOM      2  C   UNL     1       2.410  -1.445   2.752  1.00  0.00     0.116 C 
BRANCH   2   3
ATOM      3  N   UNL     1       3.183  -2.617   2.397  1.00  0.00    -0.356 N 
ATOM      4  C   UNL     1       3.422  -3.133   1.156  1.00  0.00     0.224 C 
ATOM      5  O   UNL     1       4.153  -4.122   1.063  1.00  0.00    -0.275 OA
ATOM      6  H   UNL     1       3.590  -3.105   3.149  1.00  0.00     0.163 HD
BRANCH   4   7
ATOM      7  C   UNL     1       2.863  -2.445  -0.082  1.00  0.00     0.138 C 
BRANCH   7   8
ATOM      8  C   UNL     1       1.361  -2.442  -0.145  1.00  0.00    -0.009 A 
ATOM      9  C   UNL     1       0.884   0.110  -0.318  1.00  0.00     0.065 C 
ATOM     10  C   UNL     1       0.518  -1.341  -0.236  1.00  0.00     0.028 A 
ATOM     11  N   UNL     1      -0.813  -1.780  -0.173  1.00  0.00    -0.280 N 
ATOM     12  C   UNL     1       0.537  -3.602  -0.145  1.00  0.00     0.008 A 
ATOM     13  C   UNL     1      -0.797  -3.184  -0.231  1.00  0.00     0.057 A 
ATOM     14  C   UNL     1       0.830  -4.984  -0.094  1.00  0.00     0.056 A 
ATOM     15  C   UNL     1      -1.825  -4.146  -0.343  1.00  0.00     0.031 A 
ATOM     16  C   UNL     1      -0.204  -5.912  -0.123  1.00  0.00     0.116 A 
ATOM     17  C   UNL     1      -1.517  -5.507  -0.257  1.00  0.00     0.048 A 
BRANCH  11  18
ATOM     18  C   UNL     1      -1.959  -0.934  -0.081  1.00  0.00     0.262 C 
ATOM     19  O   UNL     1      -1.802   0.287  -0.155  1.00  0.00    -0.268 OA
BRANCH  18  20
ATOM     20  C   UNL     1      -3.352  -1.388   0.046  1.00  0.00     0.040 A 
ATOM     21  C   UNL     1      -3.790  -2.111   1.161  1.00  0.00     0.015 A 
ATOM     22  C   UNL     1      -4.226  -1.100  -1.009  1.00  0.00     0.015 A 
ATOM     23  C   UNL     1      -5.086  -2.636   1.168  1.00  0.00     0.021 A 
ATOM     24  C   UNL     1      -5.520  -1.617  -0.991  1.00  0.00     0.021 A 
ATOM     25  C   UNL     1      -5.937  -2.402   0.085  1.00  0.00     0.041 A 
ATOM     26  Cl  UNL     1      -7.505  -3.106   0.053  1.00  0.00    -0.084 Cl
ENDBRANCH  18  20
ENDBRANCH  11  18
BRANCH  16  27
ATOM     27  O   UNL     1       0.120  -7.234  -0.031  1.00  0.00    -0.508 OA
ATOM     28  H   UNL     1       1.016  -7.491   0.059  1.00  0.00     0.293 HD
ENDBRANCH  16  27
ENDBRANCH   7   8
ENDBRANCH   4   7
ENDBRANCH   2   3
ENDBRANCH   1   2
BRANCH   1  29
ATOM     29  C   UNL     1       1.354  -2.313   4.937  1.00  0.00     0.023 C 
BRANCH  29  30
ATOM     30  C   UNL     1       2.283  -1.440   5.783  1.00  0.00     0.116 C 
BRANCH  30  31
ATOM     31  N   UNL     1       1.882  -0.048   5.822  1.00  0.00    -0.352 N 
ATOM     32  C   UNL     1       1.164   0.731   6.682  1.00  0.00     0.251 C 
ATOM     33  H   UNL     1       2.205   0.457   5.041  1.00  0.00     0.163 HD
ATOM     34  O   UNL     1       1.159   1.939   6.425  1.00  0.00    -0.269 OA
BRANCH  32  35
ATOM     35  C   UNL     1       0.362   0.237   7.832  1.00  0.00     0.039 A 
ATOM     36  C   UNL     1       0.258  -1.090   8.250  1.00  0.00     0.014 A 
ATOM     37  C   UNL     1      -0.417   1.212   8.488  1.00  0.00     0.014 A 
ATOM     38  C   UNL     1      -0.671  -1.450   9.220  1.00  0.00     0.010 A 
ATOM     39  C   UNL     1      -1.342   0.858   9.460  1.00  0.00     0.010 A 
ATOM     40  C   UNL     1      -1.508  -0.483   9.780  1.00  0.00    -0.014 A 
BRANCH  40  41
ATOM     41  C   UNL     1      -2.525  -0.923  10.727  1.00  0.00     0.031 A 
ATOM     42  C   UNL     1      -2.009  -1.520  11.992  1.00  0.00     0.074 A 
ATOM     43  C   UNL     1      -3.842  -0.719  10.525  1.00  0.00     0.049 A 
ATOM     44  N   UNL     1      -2.197  -2.711  12.459  1.00  0.00    -0.248 NA
ATOM     45  C   UNL     1      -1.082  -0.704  12.792  1.00  0.00     0.031 C 
ATOM     46  C   UNL     1      -4.492   0.101   9.497  1.00  0.00     0.029 A 
ATOM     47  N   UNL     1      -4.890  -1.133  11.287  1.00  0.00    -0.354 N 
ATOM     48  C   UNL     1      -1.542  -2.757  13.690  1.00  0.00     0.074 A 
ATOM     49  C   UNL     1      -0.779  -1.538  13.787  1.00  0.00     0.031 C 
ATOM     50  C   UNL     1      -5.781   0.320   9.848  1.00  0.00     0.029 A 
ATOM     51  C   UNL     1      -6.086  -0.480  11.021  1.00  0.00     0.049 A 
ATOM     52  H   UNL     1      -4.807  -1.836  11.971  1.00  0.00     0.167 HD
ATOM     53  C   UNL     1      -1.788  -3.722  14.620  1.00  0.00     0.031 A 
ATOM     54  C   UNL     1      -7.227  -0.553  11.752  1.00  0.00     0.031 A 
ATOM     55  C   UNL     1      -2.456  -4.858  14.053  1.00  0.00     0.049 A 
ATOM     56  C   UNL     1      -7.143  -1.792  12.564  1.00  0.00     0.074 A 
ATOM     57  C   UNL     1      -2.110  -5.823  13.130  1.00  0.00     0.029 A 
ATOM     58  N   UNL     1      -3.823  -4.919  14.173  1.00  0.00    -0.354 N 
ATOM     59  N   UNL     1      -7.128  -2.994  12.057  1.00  0.00    -0.248 NA
ATOM     60  C   UNL     1      -6.633  -1.675  13.920  1.00  0.00     0.031 C 
ATOM     61  C   UNL     1      -3.303  -6.065  12.394  1.00  0.00     0.029 A 
ATOM     62  C   UNL     1      -4.321  -5.284  12.949  1.00  0.00     0.049 A 
ATOM     63  H   UNL     1      -4.347  -4.736  14.986  1.00  0.00     0.167 HD
ATOM     64  C   UNL     1      -6.248  -3.708  12.857  1.00  0.00     0.074 A 
ATOM     65  C   UNL     1      -6.037  -2.864  14.033  1.00  0.00     0.031 C 
ATOM     66  C   UNL     1      -5.565  -4.791  12.385  1.00  0.00     0.031 A 
BRANCH  53  67
ATOM     67  C   UNL     1      -1.673  -3.518  16.110  1.00  0.00    -0.014 A 
ATOM     68  C   UNL     1      -1.588  -2.243  16.703  1.00  0.00     0.010 A 
ATOM     69  C   UNL     1      -1.900  -4.608  16.978  1.00  0.00     0.010 A 
ATOM     70  C   UNL     1      -1.706  -2.055  18.082  1.00  0.00     0.020 A 
ATOM     71  C   UNL     1      -2.064  -4.426  18.360  1.00  0.00     0.020 A 
ATOM     72  C   UNL     1      -1.960  -3.147  18.902  1.00  0.00     0.054 A 
BRANCH  72  73
ATOM     73  S   UNL     1      -2.227  -2.843  20.666  1.00  0.00     0.124 S 
ATOM     74  O   UNL     1      -0.897  -2.429  21.104  1.00  0.00    -0.237 OA
ATOM     75  O   UNL     1      -3.241  -1.793  20.651  1.00  0.00    -0.237 OA
ATOM     76  O   UNL     1      -2.678  -4.137  21.173  1.00  0.00    -0.744 OA
ENDBRANCH  72  73
ENDBRANCH  53  67
BRANCH  54  77
ATOM     77  C   UNL     1      -8.115   0.577  12.131  1.00  0.00    -0.014 A 
ATOM     78  C   UNL     1      -7.570   1.868  12.293  1.00  0.00     0.010 A 
ATOM     79  C   UNL     1      -9.408   0.343  12.637  1.00  0.00     0.010 A 
ATOM     80  C   UNL     1      -8.257   2.868  12.992  1.00  0.00     0.020 A 
ATOM     81  C   UNL     1     -10.106   1.344  13.337  1.00  0.00     0.020 A 
ATOM     82  C   UNL     1      -9.509   2.590  13.539  1.00  0.00     0.054 A 
BRANCH  82  83
ATOM     83  S   UNL     1     -10.294   3.857  14.579  1.00  0.00     0.124 S 
ATOM     84  O   UNL     1      -9.392   3.911  15.726  1.00  0.00    -0.237 OA
ATOM     85  O   UNL     1     -10.275   5.033  13.712  1.00  0.00    -0.237 OA
ATOM     86  O   UNL     1     -11.620   3.310  14.852  1.00  0.00    -0.744 OA
ENDBRANCH  82  83
ENDBRANCH  54  77
BRANCH  66  87
ATOM     87  C   UNL     1      -5.935  -5.382  11.039  1.00  0.00    -0.014 A 
ATOM     88  C   UNL     1      -6.181  -6.767  10.994  1.00  0.00     0.010 A 
ATOM     89  C   UNL     1      -5.772  -4.689   9.823  1.00  0.00     0.010 A 
ATOM     90  C   UNL     1      -6.183  -7.458   9.781  1.00  0.00     0.020 A 
ATOM     91  C   UNL     1      -5.799  -5.376   8.597  1.00  0.00     0.020 A 
ATOM     92  C   UNL     1      -5.964  -6.764   8.590  1.00  0.00     0.054 A 
BRANCH  92  93
ATOM     93  S   UNL     1      -5.834  -7.722   7.053  1.00  0.00     0.124 S 
ATOM     94  O   UNL     1      -4.553  -8.405   7.221  1.00  0.00    -0.237 OA
ATOM     95  O   UNL     1      -7.011  -8.585   7.109  1.00  0.00    -0.237 OA
ATOM     96  O   UNL     1      -5.859  -6.710   5.998  1.00  0.00    -0.744 OA
ENDBRANCH  92  93
ENDBRANCH  66  87
ENDBRANCH  40  41
ENDBRANCH  32  35
ENDBRANCH  30  31
ENDBRANCH  29  30
ENDBRANCH   1  29
TORSDOF 18
