REMARK SMILES O=C(N/N=C/c1ccc(C(=O)NCCCCNC(=O)c2ccc(-c3c4nc(c(-c5ccc(S(=O)(=O)[O-])cc5)c5ccc([nH]5)c(-c5ccc(S(=O)(=O)[O-])cc5)c5nc(c(-c6ccc(S(=O)(=O)[O-])cc6)c6ccc3[nH]6)C=C5)C=C4)cc2)cc1)C(=O)Nc1ccc2c(c1)OCO2
REMARK SMILES IDX 14 1 13 2 12 3 10 4 11 5 9 7 6 8 7 9 81 10 8 11 80 12 5 13
REMARK SMILES IDX 4 14 3 15 1 16 2 17 82 19 83 20 84 21 85 23 86 24 90 25
REMARK SMILES IDX 87 26 89 27 88 28 91 29 93 30 92 31 15 32 16 33 17 34 18 35
REMARK SMILES IDX 19 37 20 38 21 39 79 40 22 41 78 42 23 43 24 44 25 45 72 46
REMARK SMILES IDX 26 47 77 48 71 49 73 50 27 51 76 52 70 53 69 54 28 56 58 57
REMARK SMILES IDX 39 58 57 59 40 60 43 61 56 62 74 63 41 64 42 65 55 67 75 68
REMARK SMILES IDX 44 69 29 70 30 71 38 72 31 73 37 74 32 75 33 76 34 77 35 78
REMARK SMILES IDX 36 79 59 80 60 81 68 82 61 83 67 84 62 85 63 86 64 87 65 88
REMARK SMILES IDX 66 89 45 90 46 91 54 92 47 93 53 94 48 95 49 96 50 97 51 98
REMARK SMILES IDX 52 99
REMARK H PARENT 12 6 3 18 84 22 17 36 73 55 43 66
REMARK Flexibility Score: inf
ROOT
ATOM      1  C   UNL     1      11.577  -3.514   0.740  1.00  0.00     0.023 C 
ENDROOT
BRANCH   1   2
ATOM      2  C   UNL     1      11.376  -2.199   1.498  1.00  0.00     0.116 C 
BRANCH   2   3
ATOM      3  N   UNL     1      11.847  -1.085   0.696  1.00  0.00    -0.352 N 
ATOM      4  C   UNL     1      11.175  -0.299  -0.211  1.00  0.00     0.251 C 
ATOM      5  O   UNL     1      11.779   0.598  -0.793  1.00  0.00    -0.269 OA
ATOM      6  H   UNL     1      12.796  -0.855   0.821  1.00  0.00     0.163 HD
BRANCH   4   7
ATOM      7  C   UNL     1       9.707  -0.432  -0.388  1.00  0.00     0.039 A 
ATOM      8  C   UNL     1       6.668  -0.432   0.118  1.00  0.00    -0.005 A 
ATOM      9  C   UNL     1       7.551   0.657  -0.473  1.00  0.00     0.010 A 
ATOM     10  C   UNL     1       7.600  -1.598  -0.049  1.00  0.00     0.010 A 
ATOM     11  C   UNL     1       8.961   0.686  -0.650  1.00  0.00     0.014 A 
ATOM     12  C   UNL     1       8.998  -1.600  -0.290  1.00  0.00     0.014 A 
BRANCH   8  13
ATOM     13  C   UNL     1       4.700  -0.294   0.933  1.00  0.00     0.141 C 
ATOM     14  N   UNL     1       3.525  -1.013   0.848  1.00  0.00    -0.180 NA
BRANCH  14  15
ATOM     15  N   UNL     1       2.410  -0.267   0.977  1.00  0.00    -0.239 N 
ATOM     16  O   UNL     1       0.729   0.921   0.044  1.00  0.00    -0.262 OA
ATOM     17  C   UNL     1       1.857   0.442  -0.084  1.00  0.00     0.329 C 
ATOM     18  H   UNL     1       1.970  -0.222   1.857  1.00  0.00     0.194 HD
BRANCH  17  19
ATOM     19  C   UNL     1       2.571   0.603  -1.464  1.00  0.00     0.315 C 
ATOM     20  O   UNL     1       1.895   0.496  -2.488  1.00  0.00    -0.263 OA
ATOM     21  N   UNL     1       3.884   1.059  -1.581  1.00  0.00    -0.318 N 
ATOM     22  H   UNL     1       4.071   1.823  -2.174  1.00  0.00     0.170 HD
BRANCH  21  23
ATOM     23  C   UNL     1       4.949   0.467  -0.883  1.00  0.00     0.045 A 
ATOM     24  C   UNL     1       5.593   1.457   0.533  1.00  0.00     0.030 A 
ATOM     25  C   UNL     1       4.961  -1.367  -0.820  1.00  0.00     0.076 A 
ATOM     26  C   UNL     1       6.243   0.581   2.011  1.00  0.00     0.053 A 
ATOM     27  C   UNL     1       5.454  -2.167   0.740  1.00  0.00     0.167 A 
ATOM     28  C   UNL     1       6.100  -1.206   2.095  1.00  0.00     0.165 A 
ATOM     29  O   UNL     1       5.229  -3.417   1.225  1.00  0.00    -0.454 OA
ATOM     30  O   UNL     1       6.152  -2.043   3.163  1.00  0.00    -0.454 OA
ATOM     31  C   UNL     1       5.344  -3.182   2.678  1.00  0.00     0.468 C 
ENDBRANCH  21  23
ENDBRANCH  17  19
ENDBRANCH  14  15
ENDBRANCH   8  13
ENDBRANCH   4   7
ENDBRANCH   2   3
ENDBRANCH   1   2
BRANCH   1  32
ATOM     32  C   UNL     1      13.021  -3.993   0.714  1.00  0.00     0.023 C 
BRANCH  32  33
ATOM     33  C   UNL     1      13.601  -4.258   2.088  1.00  0.00     0.116 C 
BRANCH  33  34
ATOM     34  N   UNL     1      12.836  -5.243   2.842  1.00  0.00    -0.352 N 
ATOM     35  C   UNL     1      13.328  -6.257   3.628  1.00  0.00     0.251 C 
ATOM     36  H   UNL     1      11.855  -5.174   2.782  1.00  0.00     0.163 HD
ATOM     37  O   UNL     1      12.587  -7.116   4.089  1.00  0.00    -0.269 OA
BRANCH  35  38
ATOM     38  C   UNL     1      14.783  -6.296   3.859  1.00  0.00     0.039 A 
ATOM     39  C   UNL     1      15.491  -7.452   3.535  1.00  0.00     0.014 A 
ATOM     40  C   UNL     1      15.446  -5.133   4.263  1.00  0.00     0.014 A 
ATOM     41  C   UNL     1      16.884  -7.419   3.553  1.00  0.00     0.010 A 
ATOM     42  C   UNL     1      16.829  -5.075   4.178  1.00  0.00     0.010 A 
ATOM     43  C   UNL     1      17.562  -6.218   3.829  1.00  0.00    -0.014 A 
BRANCH  43  44
ATOM     44  C   UNL     1      19.041  -6.135   3.757  1.00  0.00     0.031 A 
ATOM     45  C   UNL     1      19.829  -5.779   4.987  1.00  0.00     0.074 A 
ATOM     46  C   UNL     1      19.665  -6.317   2.575  1.00  0.00     0.049 A 
ATOM     47  N   UNL     1      21.118  -5.607   5.116  1.00  0.00    -0.248 NA
ATOM     48  C   UNL     1      19.067  -5.563   6.229  1.00  0.00     0.031 C 
ATOM     49  C   UNL     1      19.004  -6.626   1.304  1.00  0.00     0.029 A 
ATOM     50  N   UNL     1      20.997  -6.264   2.249  1.00  0.00    -0.354 N 
ATOM     51  C   UNL     1      21.319  -5.249   6.444  1.00  0.00     0.074 A 
ATOM     52  C   UNL     1      20.016  -5.170   7.065  1.00  0.00     0.031 C 
ATOM     53  C   UNL     1      19.934  -6.769   0.347  1.00  0.00     0.029 A 
ATOM     54  C   UNL     1      21.251  -6.508   0.920  1.00  0.00     0.049 A 
ATOM     55  H   UNL     1      21.705  -6.070   2.906  1.00  0.00     0.167 HD
ATOM     56  C   UNL     1      22.485  -5.027   7.093  1.00  0.00     0.031 A 
ATOM     57  C   UNL     1      22.412  -6.508   0.234  1.00  0.00     0.031 A 
ATOM     58  C   UNL     1      23.778  -5.108   6.466  1.00  0.00     0.049 A 
ATOM     59  C   UNL     1      23.692  -6.223   0.971  1.00  0.00     0.074 A 
ATOM     60  C   UNL     1      25.023  -4.954   7.048  1.00  0.00     0.029 A 
ATOM     61  N   UNL     1      23.992  -5.351   5.118  1.00  0.00    -0.354 N 
ATOM     62  N   UNL     1      23.869  -5.965   2.245  1.00  0.00    -0.248 NA
ATOM     63  C   UNL     1      24.930  -6.236   0.181  1.00  0.00     0.031 C 
ATOM     64  C   UNL     1      25.986  -5.027   6.038  1.00  0.00     0.029 A 
ATOM     65  C   UNL     1      25.348  -5.312   4.841  1.00  0.00     0.049 A 
ATOM     66  H   UNL     1      23.285  -5.526   4.455  1.00  0.00     0.167 HD
ATOM     67  C   UNL     1      25.242  -5.814   2.414  1.00  0.00     0.074 A 
ATOM     68  C   UNL     1      25.848  -6.027   1.116  1.00  0.00     0.031 C 
ATOM     69  C   UNL     1      25.937  -5.525   3.542  1.00  0.00     0.031 A 
BRANCH  56  70
ATOM     70  C   UNL     1      22.415  -4.658   8.552  1.00  0.00    -0.014 A 
ATOM     71  C   UNL     1      21.974  -5.579   9.521  1.00  0.00     0.010 A 
ATOM     72  C   UNL     1      22.839  -3.382   8.967  1.00  0.00     0.010 A 
ATOM     73  C   UNL     1      21.921  -5.217  10.869  1.00  0.00     0.020 A 
ATOM     74  C   UNL     1      22.821  -3.029  10.319  1.00  0.00     0.020 A 
ATOM     75  C   UNL     1      22.346  -3.944  11.260  1.00  0.00     0.054 A 
BRANCH  75  76
ATOM     76  S   UNL     1      22.293  -3.516  13.021  1.00  0.00     0.124 S 
ATOM     77  O   UNL     1      20.856  -3.438  13.269  1.00  0.00    -0.237 OA
ATOM     78  O   UNL     1      22.977  -4.646  13.643  1.00  0.00    -0.237 OA
ATOM     79  O   UNL     1      23.006  -2.243  13.091  1.00  0.00    -0.744 OA
ENDBRANCH  75  76
ENDBRANCH  56  70
BRANCH  57  80
ATOM     80  C   UNL     1      22.413  -6.785  -1.230  1.00  0.00    -0.014 A 
ATOM     81  C   UNL     1      23.000  -7.956  -1.741  1.00  0.00     0.010 A 
ATOM     82  C   UNL     1      21.815  -5.877  -2.124  1.00  0.00     0.010 A 
ATOM     83  C   UNL     1      23.006  -8.204  -3.117  1.00  0.00     0.020 A 
ATOM     84  C   UNL     1      21.788  -6.138  -3.496  1.00  0.00     0.020 A 
ATOM     85  C   UNL     1      22.394  -7.296  -3.986  1.00  0.00     0.054 A 
BRANCH  85  86
ATOM     86  S   UNL     1      22.370  -7.666  -5.761  1.00  0.00     0.124 S 
ATOM     87  O   UNL     1      23.773  -7.503  -6.126  1.00  0.00    -0.237 OA
ATOM     88  O   UNL     1      21.863  -9.035  -5.788  1.00  0.00    -0.237 OA
ATOM     89  O   UNL     1      21.460  -6.661  -6.308  1.00  0.00    -0.744 OA
ENDBRANCH  85  86
ENDBRANCH  57  80
BRANCH  69  90
ATOM     90  C   UNL     1      27.439  -5.456   3.439  1.00  0.00    -0.014 A 
ATOM     91  C   UNL     1      28.080  -4.407   2.758  1.00  0.00     0.010 A 
ATOM     92  C   UNL     1      28.221  -6.421   4.101  1.00  0.00     0.010 A 
ATOM     93  C   UNL     1      29.475  -4.338   2.720  1.00  0.00     0.020 A 
ATOM     94  C   UNL     1      29.615  -6.336   4.096  1.00  0.00     0.020 A 
ATOM     95  C   UNL     1      30.233  -5.300   3.395  1.00  0.00     0.054 A 
BRANCH  95  96
ATOM     96  S   UNL     1      32.041  -5.150   3.381  1.00  0.00     0.124 S 
ATOM     97  O   UNL     1      32.361  -5.462   1.990  1.00  0.00    -0.237 OA
ATOM     98  O   UNL     1      32.247  -3.760   3.777  1.00  0.00    -0.237 OA
ATOM     99  O   UNL     1      32.480  -6.144   4.358  1.00  0.00    -0.744 OA
ENDBRANCH  95  96
ENDBRANCH  69  90
ENDBRANCH  43  44
ENDBRANCH  35  38
ENDBRANCH  33  34
ENDBRANCH  32  33
ENDBRANCH   1  32
TORSDOF 18
