REMARK SMILES Cc1ccc(-c2cc(Cl)cc3c2O[C@H](C(F)(F)F)C(C(=O)NCCCCNC(=O)c2ccc(-c4c5nc(c(-c6ccc(S(=O)(=O)[O-])cc6)c6ccc([nH]6)c(-c6ccc(S(=O)(=O)[O-])cc6)c6nc(c(-c7ccc(S(=O)(=O)[O-])cc7)c7ccc4[nH]7)C=C6)C=C5)cc2)=C3)cc1F
REMARK SMILES IDX 25 1 24 2 23 3 22 4 20 5 21 6 19 8 6 9 7 10 12 11 8 12 11 13
REMARK SMILES IDX 13 14 9 15 10 16 90 17 14 18 5 19 1 20 2 21 3 22 92 23 4 24
REMARK SMILES IDX 91 25 93 26 15 27 16 28 17 29 18 30 26 31 27 32 28 33 29 35
REMARK SMILES IDX 30 36 31 37 89 38 32 39 88 40 33 41 34 42 35 43 82 44 36 45
REMARK SMILES IDX 87 46 81 47 83 48 37 49 86 50 80 51 79 52 38 54 68 55 49 56
REMARK SMILES IDX 67 57 50 58 53 59 66 60 84 61 51 62 52 63 65 65 85 66 54 67
REMARK SMILES IDX 39 68 40 69 48 70 41 71 47 72 42 73 43 74 44 75 45 76 46 77
REMARK SMILES IDX 69 78 70 79 78 80 71 81 77 82 72 83 73 84 74 85 75 86 76 87
REMARK SMILES IDX 55 88 56 89 64 90 57 91 63 92 58 93 59 94 60 95 61 96 62 97
REMARK H PARENT 22 7 27 34 83 53 53 64
REMARK Flexibility Score: inf
ROOT
ATOM      1  C   UNL     1      -1.689  -4.084   8.185  1.00  0.00     0.023 C 
ENDROOT
BRANCH   1   2
ATOM      2  C   UNL     1      -1.635  -3.665   6.713  1.00  0.00     0.023 C 
BRANCH   2   3
ATOM      3  C   UNL     1      -1.514  -4.827   5.729  1.00  0.00     0.116 C 
BRANCH   3   4
ATOM      4  N   UNL     1      -2.810  -5.366   5.349  1.00  0.00    -0.352 N 
ATOM      5  C   UNL     1      -3.672  -5.232   4.312  1.00  0.00     0.251 C 
ATOM      6  O   UNL     1      -4.700  -5.912   4.385  1.00  0.00    -0.270 OA
ATOM      7  H   UNL     1      -3.152  -5.995   6.024  1.00  0.00     0.163 HD
BRANCH   5   8
ATOM      8  C   UNL     1      -3.466  -4.345   3.129  1.00  0.00     0.067 C 
ATOM      9  C   UNL     1      -3.088  -1.715  -0.141  1.00  0.00     0.026 A 
ATOM     10  C   UNL     1      -4.029  -1.787  -1.178  1.00  0.00     0.033 A 
ATOM     11  C   UNL     1      -3.272  -2.548   0.980  1.00  0.00     0.135 A 
ATOM     12  C   UNL     1      -5.111  -2.667  -1.089  1.00  0.00     0.042 A 
ATOM     13  C   UNL     1      -4.351  -3.436   1.068  1.00  0.00     0.019 A 
ATOM     14  O   UNL     1      -2.386  -2.415   2.019  1.00  0.00    -0.475 OA
ATOM     15  Cl  UNL     1      -6.255  -2.734  -2.374  1.00  0.00    -0.084 Cl
ATOM     16  C   UNL     1      -5.277  -3.490   0.026  1.00  0.00     0.032 A 
ATOM     17  C   UNL     1      -4.496  -4.262   2.264  1.00  0.00     0.025 C 
ATOM     18  C   UNL     1      -2.200  -3.590   2.850  1.00  0.00     0.314 C 
BRANCH   9  19
ATOM     19  C   UNL     1      -1.933  -0.808  -0.226  1.00  0.00    -0.012 A 
ATOM     20  C   UNL     1       1.509   1.806  -0.078  1.00  0.00     0.047 C 
ATOM     21  C   UNL     1       0.306   0.919  -0.173  1.00  0.00    -0.015 A 
ATOM     22  C   UNL     1      -0.992   1.441  -0.150  1.00  0.00     0.007 A 
ATOM     23  C   UNL     1       0.468  -0.465  -0.250  1.00  0.00     0.126 A 
ATOM     24  C   UNL     1      -2.099   0.585  -0.180  1.00  0.00     0.009 A 
ATOM     25  C   UNL     1      -0.628  -1.321  -0.282  1.00  0.00     0.048 A 
ATOM     26  F   UNL     1       1.701  -0.990  -0.272  1.00  0.00    -0.207 F 
ENDBRANCH   9  19
BRANCH  18  27
ATOM     27  C   UNL     1      -1.091  -4.474   2.250  1.00  0.00     0.429 C 
ATOM     28  F   UNL     1       0.106  -3.839   2.312  1.00  0.00    -0.167 F 
ATOM     29  F   UNL     1      -0.943  -5.645   2.911  1.00  0.00    -0.167 F 
ATOM     30  F   UNL     1      -1.314  -4.780   0.951  1.00  0.00    -0.167 F 
ENDBRANCH  18  27
ENDBRANCH   5   8
ENDBRANCH   3   4
ENDBRANCH   2   3
ENDBRANCH   1   2
BRANCH   1  31
ATOM     31  C   UNL     1      -0.507  -4.919   8.675  1.00  0.00     0.116 C 
BRANCH  31  32
ATOM     32  N   UNL     1       0.800  -4.319   8.438  1.00  0.00    -0.352 N 
ATOM     33  C   UNL     1       1.983  -4.598   9.092  1.00  0.00     0.251 C 
ATOM     34  H   UNL     1       0.844  -3.635   7.730  1.00  0.00     0.163 HD
ATOM     35  O   UNL     1       3.002  -3.961   8.846  1.00  0.00    -0.269 OA
BRANCH  33  36
ATOM     36  C   UNL     1       1.977  -5.637  10.143  1.00  0.00     0.039 A 
ATOM     37  C   UNL     1       1.444  -6.897   9.875  1.00  0.00     0.014 A 
ATOM     38  C   UNL     1       2.393  -5.302  11.435  1.00  0.00     0.014 A 
ATOM     39  C   UNL     1       1.140  -7.745  10.932  1.00  0.00     0.010 A 
ATOM     40  C   UNL     1       2.163  -6.194  12.486  1.00  0.00     0.010 A 
ATOM     41  C   UNL     1       1.468  -7.391  12.254  1.00  0.00    -0.014 A 
BRANCH  41  42
ATOM     42  C   UNL     1       1.015  -8.271  13.364  1.00  0.00     0.031 A 
ATOM     43  C   UNL     1      -0.038  -7.801  14.335  1.00  0.00     0.074 A 
ATOM     44  C   UNL     1       1.458  -9.542  13.416  1.00  0.00     0.049 A 
ATOM     45  N   UNL     1      -0.644  -8.478  15.278  1.00  0.00    -0.248 NA
ATOM     46  C   UNL     1      -0.471  -6.397  14.238  1.00  0.00     0.031 C 
ATOM     47  C   UNL     1       2.451 -10.119  12.507  1.00  0.00     0.029 A 
ATOM     48  N   UNL     1       1.088 -10.592  14.219  1.00  0.00    -0.354 N 
ATOM     49  C   UNL     1      -1.520  -7.586  15.887  1.00  0.00     0.074 A 
ATOM     50  C   UNL     1      -1.345  -6.309  15.232  1.00  0.00     0.031 C 
ATOM     51  C   UNL     1       2.537 -11.437  12.737  1.00  0.00     0.029 A 
ATOM     52  C   UNL     1       1.654 -11.789  13.846  1.00  0.00     0.049 A 
ATOM     53  H   UNL     1       0.477 -10.498  14.985  1.00  0.00     0.167 HD
ATOM     54  C   UNL     1      -2.402  -7.812  16.890  1.00  0.00     0.031 A 
ATOM     55  C   UNL     1       1.471 -13.036  14.322  1.00  0.00     0.031 A 
ATOM     56  C   UNL     1      -2.577  -9.084  17.541  1.00  0.00     0.049 A 
ATOM     57  C   UNL     1       0.503 -13.261  15.446  1.00  0.00     0.074 A 
ATOM     58  C   UNL     1      -3.411  -9.399  18.600  1.00  0.00     0.029 A 
ATOM     59  N   UNL     1      -1.925 -10.254  17.183  1.00  0.00    -0.354 N 
ATOM     60  N   UNL     1      -0.276 -12.391  16.043  1.00  0.00    -0.248 NA
ATOM     61  C   UNL     1       0.388 -14.631  15.963  1.00  0.00     0.031 C 
ATOM     62  C   UNL     1      -3.239 -10.753  18.904  1.00  0.00     0.029 A 
ATOM     63  C   UNL     1      -2.340 -11.293  17.999  1.00  0.00     0.049 A 
ATOM     64  H   UNL     1      -1.266 -10.335  16.456  1.00  0.00     0.167 HD
ATOM     65  C   UNL     1      -0.983 -13.110  16.999  1.00  0.00     0.074 A 
ATOM     66  C   UNL     1      -0.551 -14.489  16.890  1.00  0.00     0.031 C 
ATOM     67  C   UNL     1      -1.903 -12.662  17.886  1.00  0.00     0.031 A 
BRANCH  54  68
ATOM     68  C   UNL     1      -3.248  -6.658  17.358  1.00  0.00    -0.014 A 
ATOM     69  C   UNL     1      -3.020  -6.087  18.624  1.00  0.00     0.010 A 
ATOM     70  C   UNL     1      -4.320  -6.187  16.579  1.00  0.00     0.010 A 
ATOM     71  C   UNL     1      -3.854  -5.076  19.108  1.00  0.00     0.020 A 
ATOM     72  C   UNL     1      -5.142  -5.158  17.050  1.00  0.00     0.020 A 
ATOM     73  C   UNL     1      -4.914  -4.621  18.319  1.00  0.00     0.054 A 
BRANCH  73  74
ATOM     74  S   UNL     1      -5.977  -3.292  18.949  1.00  0.00     0.124 S 
ATOM     75  O   UNL     1      -6.889  -4.017  19.828  1.00  0.00    -0.237 OA
ATOM     76  O   UNL     1      -5.026  -2.406  19.617  1.00  0.00    -0.237 OA
ATOM     77  O   UNL     1      -6.579  -2.739  17.738  1.00  0.00    -0.744 OA
ENDBRANCH  73  74
ENDBRANCH  54  68
BRANCH  55  78
ATOM     78  C   UNL     1       2.192 -14.164  13.673  1.00  0.00    -0.014 A 
ATOM     79  C   UNL     1       3.588 -14.285  13.799  1.00  0.00     0.010 A 
ATOM     80  C   UNL     1       1.499 -15.053  12.833  1.00  0.00     0.010 A 
ATOM     81  C   UNL     1       4.287 -15.231  13.047  1.00  0.00     0.020 A 
ATOM     82  C   UNL     1       2.193 -16.020  12.099  1.00  0.00     0.020 A 
ATOM     83  C   UNL     1       3.586 -16.079  12.186  1.00  0.00     0.054 A 
BRANCH  83  84
ATOM     84  S   UNL     1       4.518 -17.252  11.163  1.00  0.00     0.124 S 
ATOM     85  O   UNL     1       4.989 -16.392  10.081  1.00  0.00    -0.237 OA
ATOM     86  O   UNL     1       5.549 -17.732  12.080  1.00  0.00    -0.237 OA
ATOM     87  O   UNL     1       3.515 -18.244  10.784  1.00  0.00    -0.744 OA
ENDBRANCH  83  84
ENDBRANCH  55  78
BRANCH  67  88
ATOM     88  C   UNL     1      -2.530 -13.662  18.819  1.00  0.00    -0.014 A 
ATOM     89  C   UNL     1      -3.882 -14.014  18.654  1.00  0.00     0.010 A 
ATOM     90  C   UNL     1      -1.818 -14.164  19.923  1.00  0.00     0.010 A 
ATOM     91  C   UNL     1      -4.520 -14.834  19.587  1.00  0.00     0.020 A 
ATOM     92  C   UNL     1      -2.448 -15.002  20.847  1.00  0.00     0.020 A 
ATOM     93  C   UNL     1      -3.801 -15.314  20.684  1.00  0.00     0.054 A 
BRANCH  93  94
ATOM     94  S   UNL     1      -4.645 -16.367  21.897  1.00  0.00     0.124 S 
ATOM     95  O   UNL     1      -5.337 -15.385  22.726  1.00  0.00    -0.237 OA
ATOM     96  O   UNL     1      -5.504 -17.203  21.061  1.00  0.00    -0.237 OA
ATOM     97  O   UNL     1      -3.548 -17.077  22.552  1.00  0.00    -0.744 OA
ENDBRANCH  93  94
ENDBRANCH  67  88
ENDBRANCH  41  42
ENDBRANCH  33  36
ENDBRANCH  31  32
ENDBRANCH   1  31
TORSDOF 16
