REMARK SMILES C[C@@H]1CCC[C@H](C)[N@H+]1Cc1cc2c(cc1Cl)C=C(C(=O)NCCCCNC(=O)c1ccc(-c3c4nc(c(-c5ccc(S(=O)(=O)[O-])cc5)c5ccc([nH]5)c(-c5ccc(S(=O)(=O)[O-])cc5)c5nc(c(-c6ccc(S(=O)(=O)[O-])cc6)c6ccc3[nH]6)C=C5)C=C4)cc1)[C@@H](C(F)(F)F)O2
REMARK SMILES IDX 24 1 23 2 22 3 21 4 19 5 20 6 18 8 10 9 11 10 15 11 12 12
REMARK SMILES IDX 14 13 16 14 13 15 94 16 17 17 89 18 9 19 8 20 7 21 6 22 5 23
REMARK SMILES IDX 4 24 2 25 3 27 1 28 90 29 91 30 92 31 93 32 25 33 26 34
REMARK SMILES IDX 27 35 28 37 29 38 30 39 88 40 31 41 87 42 32 43 33 44 34 45
REMARK SMILES IDX 81 46 35 47 86 48 80 49 82 50 36 51 85 52 79 53 78 54 37 56
REMARK SMILES IDX 67 57 48 58 66 59 49 60 52 61 65 62 83 63 50 64 51 65 64 67
REMARK SMILES IDX 84 68 53 69 38 70 39 71 47 72 40 73 46 74 41 75 42 76 43 77
REMARK SMILES IDX 44 78 45 79 68 80 69 81 77 82 70 83 76 84 71 85 72 86 73 87
REMARK SMILES IDX 74 88 75 89 54 90 55 91 63 92 56 93 62 94 57 95 58 96 59 97
REMARK SMILES IDX 60 98 61 99
REMARK H PARENT 21 7 8 26 26 36 82 55 52 66
REMARK Flexibility Score: inf
ROOT
ATOM      1  C   UNL     1      -9.426  -2.206   1.935  1.00  0.00     0.023 C 
ENDROOT
BRANCH   1   2
ATOM      2  C   UNL     1      -8.339  -1.317   1.331  1.00  0.00     0.023 C 
BRANCH   2   3
ATOM      3  C   UNL     1      -8.407   0.142   1.773  1.00  0.00     0.116 C 
BRANCH   3   4
ATOM      4  N   UNL     1      -7.664   0.374   2.998  1.00  0.00    -0.352 N 
ATOM      5  C   UNL     1      -6.569   1.081   3.363  1.00  0.00     0.251 C 
ATOM      6  O   UNL     1      -6.306   1.069   4.570  1.00  0.00    -0.270 OA
ATOM      7  H   UNL     1      -8.058  -0.108   3.761  1.00  0.00     0.163 HD
BRANCH   5   8
ATOM      8  C   UNL     1      -5.673   1.818   2.427  1.00  0.00     0.067 C 
ATOM      9  C   UNL     1      -1.398   3.720   0.581  1.00  0.00     0.029 A 
ATOM     10  C   UNL     1      -2.458   2.976   0.038  1.00  0.00     0.058 A 
ATOM     11  C   UNL     1      -1.597   4.336   1.828  1.00  0.00     0.050 A 
ATOM     12  C   UNL     1      -3.573   2.673   0.810  1.00  0.00     0.128 A 
ATOM     13  C   UNL     1      -2.711   4.010   2.611  1.00  0.00     0.033 A 
ATOM     14  Cl  UNL     1      -0.480   5.478   2.488  1.00  0.00    -0.084 Cl
ATOM     15  C   UNL     1      -3.667   3.119   2.126  1.00  0.00     0.019 A 
ATOM     16  O   UNL     1      -4.490   1.828   0.250  1.00  0.00    -0.475 OA
ATOM     17  C   UNL     1      -4.679   2.528   2.995  1.00  0.00     0.025 C 
ATOM     18  C   UNL     1      -5.774   1.774   0.930  1.00  0.00     0.314 C 
BRANCH   9  19
ATOM     19  C   UNL     1      -0.067   3.696  -0.144  1.00  0.00     0.301 C 
BRANCH  19  20
ATOM     20  N   UNL     1       0.833   2.559   0.175  1.00  0.00    -0.327 N 
ATOM     21  C   UNL     1       1.456   0.375  -0.827  1.00  0.00     0.075 C 
ATOM     22  C   UNL     1       0.335   1.225  -0.208  1.00  0.00     0.181 C 
ATOM     23  C   UNL     1      -0.353   0.442   0.926  1.00  0.00     0.065 C 
ATOM     24  C   UNL     1       0.431   0.457   2.230  1.00  0.00     0.012 C 
ATOM     25  C   UNL     1       1.500   2.655   1.483  1.00  0.00     0.181 C 
ATOM     26  H   UNL     1       1.607   2.675  -0.479  1.00  0.00     0.348 HD
ATOM     27  C   UNL     1       0.807   1.879   2.616  1.00  0.00     0.065 C 
ATOM     28  C   UNL     1       2.978   2.254   1.375  1.00  0.00     0.075 C 
ENDBRANCH  19  20
ENDBRANCH   9  19
BRANCH  18  29
ATOM     29  C   UNL     1      -6.705   2.880   0.391  1.00  0.00     0.429 C 
ATOM     30  F   UNL     1      -7.051   2.626  -0.895  1.00  0.00    -0.167 F 
ATOM     31  F   UNL     1      -7.861   2.966   1.093  1.00  0.00    -0.167 F 
ATOM     32  F   UNL     1      -6.138   4.107   0.422  1.00  0.00    -0.167 F 
ENDBRANCH  18  29
ENDBRANCH   5   8
ENDBRANCH   3   4
ENDBRANCH   2   3
ENDBRANCH   1   2
BRANCH   1  33
ATOM     33  C   UNL     1     -10.859  -1.745   1.685  1.00  0.00     0.116 C 
BRANCH  33  34
ATOM     34  N   UNL     1     -11.183  -1.513   0.282  1.00  0.00    -0.352 N 
ATOM     35  C   UNL     1     -12.424  -1.598  -0.314  1.00  0.00     0.251 C 
ATOM     36  H   UNL     1     -10.432  -1.269  -0.306  1.00  0.00     0.163 HD
ATOM     37  O   UNL     1     -12.556  -1.442  -1.523  1.00  0.00    -0.269 OA
BRANCH  35  38
ATOM     38  C   UNL     1     -13.579  -1.946   0.538  1.00  0.00     0.039 A 
ATOM     39  C   UNL     1     -13.822  -1.214   1.701  1.00  0.00     0.014 A 
ATOM     40  C   UNL     1     -14.314  -3.097   0.250  1.00  0.00     0.014 A 
ATOM     41  C   UNL     1     -14.660  -1.746   2.671  1.00  0.00     0.010 A 
ATOM     42  C   UNL     1     -15.225  -3.581   1.192  1.00  0.00     0.010 A 
ATOM     43  C   UNL     1     -15.353  -2.947   2.438  1.00  0.00    -0.014 A 
BRANCH  43  44
ATOM     44  C   UNL     1     -16.170  -3.534   3.533  1.00  0.00     0.031 A 
ATOM     45  C   UNL     1     -15.790  -4.851   4.160  1.00  0.00     0.074 A 
ATOM     46  C   UNL     1     -17.207  -2.828   4.024  1.00  0.00     0.049 A 
ATOM     47  N   UNL     1     -16.354  -5.473   5.164  1.00  0.00    -0.248 NA
ATOM     48  C   UNL     1     -14.632  -5.564   3.595  1.00  0.00     0.031 C 
ATOM     49  C   UNL     1     -17.651  -1.528   3.516  1.00  0.00     0.029 A 
ATOM     50  N   UNL     1     -18.044  -3.076   5.082  1.00  0.00    -0.354 N 
ATOM     51  C   UNL     1     -15.637  -6.652   5.338  1.00  0.00     0.074 A 
ATOM     52  C   UNL     1     -14.611  -6.675   4.320  1.00  0.00     0.031 C 
ATOM     53  C   UNL     1     -18.626  -1.058   4.307  1.00  0.00     0.029 A 
ATOM     54  C   UNL     1     -18.925  -2.051   5.335  1.00  0.00     0.049 A 
ATOM     55  H   UNL     1     -18.017  -3.907   5.609  1.00  0.00     0.167 HD
ATOM     56  C   UNL     1     -15.812  -7.620   6.269  1.00  0.00     0.031 A 
ATOM     57  C   UNL     1     -19.871  -1.916   6.285  1.00  0.00     0.031 A 
ATOM     58  C   UNL     1     -16.823  -7.582   7.293  1.00  0.00     0.049 A 
ATOM     59  C   UNL     1     -20.060  -3.012   7.292  1.00  0.00     0.074 A 
ATOM     60  C   UNL     1     -17.076  -8.518   8.281  1.00  0.00     0.029 A 
ATOM     61  N   UNL     1     -17.737  -6.555   7.473  1.00  0.00    -0.354 N 
ATOM     62  N   UNL     1     -19.384  -4.128   7.423  1.00  0.00    -0.248 NA
ATOM     63  C   UNL     1     -21.136  -2.836   8.276  1.00  0.00     0.031 C 
ATOM     64  C   UNL     1     -18.173  -8.082   9.027  1.00  0.00     0.029 A 
ATOM     65  C   UNL     1     -18.564  -6.842   8.546  1.00  0.00     0.049 A 
ATOM     66  H   UNL     1     -17.789  -5.741   6.921  1.00  0.00     0.167 HD
ATOM     67  C   UNL     1     -19.948  -4.785   8.510  1.00  0.00     0.074 A 
ATOM     68  C   UNL     1     -21.006  -3.933   9.013  1.00  0.00     0.031 C 
ATOM     69  C   UNL     1     -19.618  -5.990   9.036  1.00  0.00     0.031 A 
BRANCH  56  70
ATOM     70  C   UNL     1     -14.898  -8.818   6.236  1.00  0.00    -0.014 A 
ATOM     71  C   UNL     1     -15.414 -10.079   5.885  1.00  0.00     0.010 A 
ATOM     72  C   UNL     1     -13.562  -8.721   6.664  1.00  0.00     0.010 A 
ATOM     73  C   UNL     1     -14.621 -11.226   5.986  1.00  0.00     0.020 A 
ATOM     74  C   UNL     1     -12.757  -9.863   6.742  1.00  0.00     0.020 A 
ATOM     75  C   UNL     1     -13.300 -11.111   6.423  1.00  0.00     0.054 A 
BRANCH  75  76
ATOM     76  S   UNL     1     -12.287 -12.610   6.563  1.00  0.00     0.124 S 
ATOM     77  O   UNL     1     -12.768 -13.193   7.811  1.00  0.00    -0.237 OA
ATOM     78  O   UNL     1     -12.632 -13.345   5.348  1.00  0.00    -0.237 OA
ATOM     79  O   UNL     1     -10.920 -12.094   6.598  1.00  0.00    -0.744 OA
ENDBRANCH  75  76
ENDBRANCH  56  70
BRANCH  57  80
ATOM     80  C   UNL     1     -20.681  -0.668   6.320  1.00  0.00    -0.014 A 
ATOM     81  C   UNL     1     -21.588  -0.383   5.282  1.00  0.00     0.010 A 
ATOM     82  C   UNL     1     -20.471   0.288   7.328  1.00  0.00     0.010 A 
ATOM     83  C   UNL     1     -22.221   0.860   5.215  1.00  0.00     0.020 A 
ATOM     84  C   UNL     1     -21.126   1.523   7.280  1.00  0.00     0.020 A 
ATOM     85  C   UNL     1     -21.971   1.812   6.205  1.00  0.00     0.054 A 
BRANCH  85  86
ATOM     86  S   UNL     1     -22.751   3.443   6.064  1.00  0.00     0.124 S 
ATOM     87  O   UNL     1     -21.897   4.097   5.077  1.00  0.00    -0.237 OA
ATOM     88  O   UNL     1     -24.101   3.117   5.612  1.00  0.00    -0.237 OA
ATOM     89  O   UNL     1     -22.665   3.979   7.420  1.00  0.00    -0.744 OA
ENDBRANCH  85  86
ENDBRANCH  57  80
BRANCH  69  90
ATOM     90  C   UNL     1     -20.400  -6.480  10.225  1.00  0.00    -0.014 A 
ATOM     91  C   UNL     1     -19.774  -6.569  11.481  1.00  0.00     0.010 A 
ATOM     92  C   UNL     1     -21.711  -6.964  10.074  1.00  0.00     0.010 A 
ATOM     93  C   UNL     1     -20.434  -7.160  12.561  1.00  0.00     0.020 A 
ATOM     94  C   UNL     1     -22.384  -7.533  11.159  1.00  0.00     0.020 A 
ATOM     95  C   UNL     1     -21.732  -7.649  12.390  1.00  0.00     0.054 A 
BRANCH  95  96
ATOM     96  S   UNL     1     -22.567  -8.433  13.796  1.00  0.00     0.124 S 
ATOM     97  O   UNL     1     -21.975  -9.767  13.799  1.00  0.00    -0.237 OA
ATOM     98  O   UNL     1     -22.191  -7.574  14.916  1.00  0.00    -0.237 OA
ATOM     99  O   UNL     1     -23.980  -8.376  13.427  1.00  0.00    -0.744 OA
ENDBRANCH  95  96
ENDBRANCH  69  90
ENDBRANCH  43  44
ENDBRANCH  35  38
ENDBRANCH  33  34
ENDBRANCH   1  33
TORSDOF 17
