REMARK SMILES O=C(NCCCCNC(=O)[C@]1(NC(=O)C2CCN(C(=O)C3CC3)CC2)CCCc2ccccc21)c1ccc(-c2c3nc(c(-c4ccc(S(=O)(=O)[O-])cc4)c4ccc([nH]4)c(-c4ccc(S(=O)(=O)[O-])cc4)c4nc(c(-c5ccc(S(=O)(=O)[O-])cc5)c5ccc2[nH]5)C=C4)C=C3)cc1
REMARK SMILES IDX 5 1 4 2 3 3 1 4 2 5 35 7 36 8 94 9 37 10 93 11 38 12 39 13
REMARK SMILES IDX 40 14 87 15 41 16 92 17 86 18 88 19 42 20 91 21 85 22 84 23
REMARK SMILES IDX 43 25 73 26 54 27 72 28 55 29 58 30 71 31 89 32 56 33 57 34
REMARK SMILES IDX 70 36 90 37 59 38 44 39 45 40 53 41 46 42 52 43 47 44 48 45
REMARK SMILES IDX 49 46 50 47 51 48 74 49 75 50 83 51 76 52 82 53 77 54 78 55
REMARK SMILES IDX 79 56 80 57 81 58 60 59 61 60 69 61 62 62 68 63 63 64 64 65
REMARK SMILES IDX 65 66 66 67 67 68 6 69 7 70 8 71 9 72 10 74 11 75 26 76
REMARK SMILES IDX 34 77 27 78 29 79 33 80 28 81 30 82 32 83 31 84 12 85 13 86
REMARK SMILES IDX 14 88 15 89 16 90 25 91 17 92 24 93 18 94 19 95 20 96 21 97
REMARK SMILES IDX 22 98 23 99
REMARK H PARENT 3 6 88 24 58 35 8 73 12 87
REMARK Flexibility Score: inf
ROOT
ATOM      1  C   UNL     1       4.853  -2.381  -1.115  1.00  0.00     0.023 C 
ENDROOT
BRANCH   1   2
ATOM      2  C   UNL     1       4.430  -1.070  -0.472  1.00  0.00     0.116 C 
BRANCH   2   3
ATOM      3  N   UNL     1       3.017  -0.753  -0.642  1.00  0.00    -0.352 N 
ATOM      4  O   UNL     1       1.050   0.217  -0.080  1.00  0.00    -0.269 OA
ATOM      5  C   UNL     1       2.247   0.088   0.131  1.00  0.00     0.251 C 
ATOM      6  H   UNL     1       2.560  -1.192  -1.396  1.00  0.00     0.163 HD
BRANCH   5   7
ATOM      7  C   UNL     1       2.902   0.778   1.258  1.00  0.00     0.039 A 
ATOM      8  C   UNL     1       4.083   1.490   1.043  1.00  0.00     0.014 A 
ATOM      9  C   UNL     1       2.397   0.599   2.547  1.00  0.00     0.014 A 
ATOM     10  C   UNL     1       4.851   1.871   2.132  1.00  0.00     0.010 A 
ATOM     11  C   UNL     1       3.128   1.069   3.639  1.00  0.00     0.010 A 
ATOM     12  C   UNL     1       4.383   1.665   3.441  1.00  0.00    -0.014 A 
BRANCH  12  13
ATOM     13  C   UNL     1       5.222   2.112   4.579  1.00  0.00     0.031 A 
ATOM     14  C   UNL     1       5.809   1.125   5.550  1.00  0.00     0.074 A 
ATOM     15  C   UNL     1       5.497   3.426   4.689  1.00  0.00     0.049 A 
ATOM     16  N   UNL     1       6.600   1.350   6.568  1.00  0.00    -0.248 NA
ATOM     17  C   UNL     1       5.460  -0.293   5.365  1.00  0.00     0.031 C 
ATOM     18  C   UNL     1       4.984   4.471   3.797  1.00  0.00     0.029 A 
ATOM     19  N   UNL     1       6.303   4.103   5.565  1.00  0.00    -0.354 N 
ATOM     20  C   UNL     1       6.813   0.114   7.168  1.00  0.00     0.074 A 
ATOM     21  C   UNL     1       6.063  -0.859   6.403  1.00  0.00     0.031 C 
ATOM     22  C   UNL     1       5.546   5.642   4.125  1.00  0.00     0.029 A 
ATOM     23  C   UNL     1       6.401   5.445   5.288  1.00  0.00     0.049 A 
ATOM     24  H   UNL     1       6.766   3.671   6.318  1.00  0.00     0.167 HD
ATOM     25  C   UNL     1       7.562  -0.179   8.259  1.00  0.00     0.031 A 
ATOM     26  C   UNL     1       7.098   6.416   5.906  1.00  0.00     0.031 A 
ATOM     27  C   UNL     1       8.321   0.794   9.001  1.00  0.00     0.049 A 
ATOM     28  C   UNL     1       7.926   6.062   7.104  1.00  0.00     0.074 A 
ATOM     29  C   UNL     1       9.136   0.594  10.103  1.00  0.00     0.029 A 
ATOM     30  N   UNL     1       8.362   2.151   8.716  1.00  0.00    -0.354 N 
ATOM     31  N   UNL     1       8.116   4.886   7.652  1.00  0.00    -0.248 NA
ATOM     32  C   UNL     1       8.625   7.167   7.771  1.00  0.00     0.031 C 
ATOM     33  C   UNL     1       9.639   1.837  10.507  1.00  0.00     0.029 A 
ATOM     34  C   UNL     1       9.172   2.804   9.631  1.00  0.00     0.049 A 
ATOM     35  H   UNL     1       7.885   2.586   7.973  1.00  0.00     0.167 HD
ATOM     36  C   UNL     1       8.964   5.107   8.728  1.00  0.00     0.074 A 
ATOM     37  C   UNL     1       9.266   6.526   8.738  1.00  0.00     0.031 C 
ATOM     38  C   UNL     1       9.446   4.218   9.630  1.00  0.00     0.031 A 
BRANCH  25  39
ATOM     39  C   UNL     1       7.564  -1.605   8.741  1.00  0.00    -0.014 A 
ATOM     40  C   UNL     1       8.268  -2.612   8.057  1.00  0.00     0.010 A 
ATOM     41  C   UNL     1       6.873  -1.936   9.922  1.00  0.00     0.010 A 
ATOM     42  C   UNL     1       8.247  -3.931   8.522  1.00  0.00     0.020 A 
ATOM     43  C   UNL     1       6.868  -3.249  10.402  1.00  0.00     0.020 A 
ATOM     44  C   UNL     1       7.539  -4.243   9.688  1.00  0.00     0.054 A 
BRANCH  44  45
ATOM     45  S   UNL     1       7.532  -5.959  10.277  1.00  0.00     0.124 S 
ATOM     46  O   UNL     1       6.574  -6.583   9.368  1.00  0.00    -0.237 OA
ATOM     47  O   UNL     1       8.923  -6.369  10.101  1.00  0.00    -0.237 OA
ATOM     48  O   UNL     1       7.091  -5.846  11.666  1.00  0.00    -0.744 OA
ENDBRANCH  44  45
ENDBRANCH  25  39
BRANCH  26  49
ATOM     49  C   UNL     1       7.031   7.807   5.388  1.00  0.00    -0.014 A 
ATOM     50  C   UNL     1       8.130   8.370   4.718  1.00  0.00     0.010 A 
ATOM     51  C   UNL     1       5.844   8.552   5.513  1.00  0.00     0.010 A 
ATOM     52  C   UNL     1       8.043   9.658   4.182  1.00  0.00     0.020 A 
ATOM     53  C   UNL     1       5.746   9.829   4.955  1.00  0.00     0.020 A 
ATOM     54  C   UNL     1       6.850  10.377   4.300  1.00  0.00     0.054 A 
BRANCH  54  55
ATOM     55  S   UNL     1       6.728  12.014   3.528  1.00  0.00     0.124 S 
ATOM     56  O   UNL     1       7.418  12.858   4.498  1.00  0.00    -0.237 OA
ATOM     57  O   UNL     1       7.416  11.819   2.254  1.00  0.00    -0.237 OA
ATOM     58  O   UNL     1       5.287  12.230   3.420  1.00  0.00    -0.744 OA
ENDBRANCH  54  55
ENDBRANCH  26  49
BRANCH  38  59
ATOM     59  C   UNL     1      10.362   4.761  10.690  1.00  0.00    -0.014 A 
ATOM     60  C   UNL     1       9.856   5.511  11.767  1.00  0.00     0.010 A 
ATOM     61  C   UNL     1      11.742   4.507  10.613  1.00  0.00     0.010 A 
ATOM     62  C   UNL     1      10.723   6.032  12.729  1.00  0.00     0.020 A 
ATOM     63  C   UNL     1      12.609   5.008  11.586  1.00  0.00     0.020 A 
ATOM     64  C   UNL     1      12.095   5.783  12.629  1.00  0.00     0.054 A 
BRANCH  64  65
ATOM     65  S   UNL     1      13.204   6.452  13.899  1.00  0.00     0.124 S 
ATOM     66  O   UNL     1      13.333   7.846  13.483  1.00  0.00    -0.237 OA
ATOM     67  O   UNL     1      12.454   6.231  15.133  1.00  0.00    -0.237 OA
ATOM     68  O   UNL     1      14.414   5.645  13.759  1.00  0.00    -0.744 OA
ENDBRANCH  64  65
ENDBRANCH  38  59
ENDBRANCH  12  13
ENDBRANCH   5   7
ENDBRANCH   2   3
ENDBRANCH   1   2
BRANCH   1  69
ATOM     69  C   UNL     1       4.506  -2.491  -2.596  1.00  0.00     0.023 C 
BRANCH  69  70
ATOM     70  C   UNL     1       5.234  -1.504  -3.516  1.00  0.00     0.116 C 
BRANCH  70  71
ATOM     71  N   UNL     1       6.558  -1.982  -3.850  1.00  0.00    -0.354 N 
ATOM     72  C   UNL     1       6.927  -3.138  -4.471  1.00  0.00     0.250 C 
ATOM     73  H   UNL     1       7.299  -1.387  -3.591  1.00  0.00     0.163 HD
ATOM     74  O   UNL     1       7.913  -3.675  -3.941  1.00  0.00    -0.272 OA
BRANCH  72  75
ATOM     75  C   UNL     1       6.282  -3.730  -5.811  1.00  0.00     0.145 C 
ATOM     76  C   UNL     1       5.003  -3.046  -6.366  1.00  0.00     0.044 C 
ATOM     77  C   UNL     1       6.013  -5.234  -5.535  1.00  0.00    -0.010 A 
ATOM     78  C   UNL     1       3.675  -3.498  -5.764  1.00  0.00     0.008 C 
ATOM     79  C   UNL     1       4.724  -5.780  -5.430  1.00  0.00    -0.042 A 
ATOM     80  C   UNL     1       7.120  -6.097  -5.348  1.00  0.00     0.007 A 
ATOM     81  C   UNL     1       3.486  -5.003  -5.774  1.00  0.00     0.036 C 
ATOM     82  C   UNL     1       4.575  -7.136  -5.080  1.00  0.00     0.004 A 
ATOM     83  C   UNL     1       6.960  -7.438  -5.016  1.00  0.00     0.000 A 
ATOM     84  C   UNL     1       5.683  -7.954  -4.863  1.00  0.00     0.000 A 
BRANCH  75  85
ATOM     85  N   UNL     1       7.231  -3.738  -6.985  1.00  0.00    -0.338 N 
ATOM     86  C   UNL     1       8.371  -3.138  -7.386  1.00  0.00     0.224 C 
ATOM     87  H   UNL     1       6.924  -4.377  -7.668  1.00  0.00     0.164 HD
ATOM     88  O   UNL     1       8.628  -3.237  -8.592  1.00  0.00    -0.275 OA
BRANCH  86  89
ATOM     89  C   UNL     1       9.348  -2.454  -6.446  1.00  0.00     0.082 C 
ATOM     90  C   UNL     1       9.240  -0.929  -6.527  1.00  0.00     0.035 C 
ATOM     91  C   UNL     1      10.780  -2.967  -6.702  1.00  0.00     0.035 C 
ATOM     92  C   UNL     1      10.012  -0.342  -7.709  1.00  0.00     0.120 C 
ATOM     93  C   UNL     1      11.450  -2.289  -7.893  1.00  0.00     0.120 C 
ATOM     94  N   UNL     1      11.387  -0.844  -7.726  1.00  0.00    -0.342 N 
ATOM     95  C   UNL     1      12.423   0.060  -7.488  1.00  0.00     0.225 C 
ATOM     96  O   UNL     1      12.182   1.256  -7.321  1.00  0.00    -0.275 OA
BRANCH  95  97
ATOM     97  C   UNL     1      13.874  -0.303  -7.422  1.00  0.00     0.079 C 
ATOM     98  C   UNL     1      14.482  -1.581  -6.922  1.00  0.00     0.014 C 
ATOM     99  C   UNL     1      14.559  -1.231  -8.388  1.00  0.00     0.014 C 
ENDBRANCH  95  97
ENDBRANCH  86  89
ENDBRANCH  75  85
ENDBRANCH  72  75
ENDBRANCH  70  71
ENDBRANCH  69  70
ENDBRANCH   1  69
TORSDOF 17
