REMARK SMILES Cc1c(C(=O)NCCCCNC(=O)c2ccc(-c3c4nc(c(-c5ccc(S(=O)(=O)[O-])cc5)c5ccc([nH]5)c(-c5ccc(S(=O)(=O)[O-])cc5)c5nc(c(-c6ccc(S(=O)(=O)[O-])cc6)c6ccc3[nH]6)C=C5)C=C4)cc2)sc2nc3n(c(=O)c12)CC/C3=C\c1ccc(OC(F)F)cc1
REMARK SMILES IDX 8 1 7 2 6 3 4 4 5 5 3 7 1 8 2 9 81 10 74 11 75 12 79 13
REMARK SMILES IDX 76 14 78 15 80 16 77 17 82 18 84 19 83 20 85 21 86 22 87 23
REMARK SMILES IDX 95 24 88 25 94 26 89 27 90 28 91 29 92 30 93 31 9 32 10 33
REMARK SMILES IDX 11 34 12 35 13 37 14 38 15 39 73 40 16 41 72 42 17 43 18 44
REMARK SMILES IDX 19 45 66 46 20 47 71 48 65 49 67 50 21 51 70 52 64 53 63 54
REMARK SMILES IDX 22 56 52 57 33 58 51 59 34 60 37 61 50 62 68 63 35 64 36 65
REMARK SMILES IDX 49 67 69 68 38 69 23 70 24 71 32 72 25 73 31 74 26 75 27 76
REMARK SMILES IDX 28 77 29 78 30 79 53 80 54 81 62 82 55 83 61 84 56 85 57 86
REMARK SMILES IDX 58 87 59 88 60 89 39 90 40 91 48 92 41 93 47 94 42 95 43 96
REMARK SMILES IDX 44 97 45 98 46 99
REMARK H PARENT 6 6 11 36 67 55 37 66
REMARK Flexibility Score: inf
ROOT
ATOM      1  C   UNL     1       0.179   2.160  -1.572  1.00  0.00     0.023 C 
ENDROOT
BRANCH   1   2
ATOM      2  C   UNL     1       1.088   2.385  -0.350  1.00  0.00     0.116 C 
BRANCH   2   3
ATOM      3  N   UNL     1       0.314   2.559   0.868  1.00  0.00    -0.351 N 
ATOM      4  C   UNL     1      -0.087   1.731   1.897  1.00  0.00     0.261 C 
ATOM      5  O   UNL     1      -0.709   2.329   2.784  1.00  0.00    -0.268 OA
ATOM      6  H   UNL     1       0.003   3.485   0.988  1.00  0.00     0.163 HD
BRANCH   4   7
ATOM      7  C   UNL     1       0.190   0.287   1.975  1.00  0.00     0.098 A 
ATOM      8  C   UNL     1       0.384  -0.689  -0.431  1.00  0.00     0.047 C 
ATOM      9  C   UNL     1       0.462  -0.718   1.052  1.00  0.00    -0.012 A 
ATOM     10  C   UNL     1       0.769  -1.958   1.702  1.00  0.00     0.081 A 
ATOM     11  S   UNL     1       0.011  -0.441   3.567  1.00  0.00    -0.110 S 
ATOM     12  C   UNL     1       0.384  -2.010   3.019  1.00  0.00     0.132 A 
ATOM     13  C   UNL     1       1.243  -3.170   1.066  1.00  0.00     0.262 A 
ATOM     14  N   UNL     1       0.273  -3.142   3.791  1.00  0.00    -0.219 NA
ATOM     15  N   UNL     1       0.984  -4.280   1.832  1.00  0.00    -0.292 N 
ATOM     16  O   UNL     1       1.787  -3.210  -0.017  1.00  0.00    -0.269 OA
ATOM     17  C   UNL     1       0.541  -4.233   3.147  1.00  0.00     0.140 A 
ATOM     18  C   UNL     1       1.210  -5.588   1.307  1.00  0.00     0.132 C 
ATOM     19  C   UNL     1       0.476  -5.658   3.584  1.00  0.00    -0.002 C 
ATOM     20  C   UNL     1       0.878  -6.538   2.424  1.00  0.00     0.061 C 
ATOM     21  C   UNL     1       0.131  -6.099   4.805  1.00  0.00     0.015 C 
BRANCH  21  22
ATOM     22  C   UNL     1       0.195  -7.544   5.072  1.00  0.00    -0.025 A 
ATOM     23  C   UNL     1      -0.961  -8.326   5.107  1.00  0.00     0.012 A 
ATOM     24  C   UNL     1       1.444  -8.180   5.092  1.00  0.00     0.012 A 
ATOM     25  C   UNL     1      -0.858  -9.723   5.098  1.00  0.00     0.047 A 
ATOM     26  C   UNL     1       1.543  -9.573   5.049  1.00  0.00     0.047 A 
ATOM     27  C   UNL     1       0.390 -10.354   5.035  1.00  0.00     0.126 A 
BRANCH  27  28
ATOM     28  O   UNL     1       0.346 -11.718   4.954  1.00  0.00    -0.435 OA
BRANCH  28  29
ATOM     29  C   UNL     1       1.562 -12.414   4.704  1.00  0.00     0.542 C 
ATOM     30  F   UNL     1       2.124 -11.975   3.552  1.00  0.00    -0.167 F 
ATOM     31  F   UNL     1       2.438 -12.202   5.715  1.00  0.00    -0.167 F 
ENDBRANCH  28  29
ENDBRANCH  27  28
ENDBRANCH  21  22
ENDBRANCH   4   7
ENDBRANCH   2   3
ENDBRANCH   1   2
BRANCH   1  32
ATOM     32  C   UNL     1      -0.123   3.362  -2.466  1.00  0.00     0.023 C 
BRANCH  32  33
ATOM     33  C   UNL     1       1.044   3.800  -3.338  1.00  0.00     0.116 C 
BRANCH  33  34
ATOM     34  N   UNL     1       1.435   2.799  -4.334  1.00  0.00    -0.352 N 
ATOM     35  C   UNL     1       2.561   2.829  -5.138  1.00  0.00     0.251 C 
ATOM     36  H   UNL     1       0.836   2.026  -4.443  1.00  0.00     0.163 HD
ATOM     37  O   UNL     1       2.624   2.189  -6.180  1.00  0.00    -0.269 OA
BRANCH  35  38
ATOM     38  C   UNL     1       3.693   3.655  -4.687  1.00  0.00     0.039 A 
ATOM     39  C   UNL     1       4.273   4.615  -5.519  1.00  0.00     0.014 A 
ATOM     40  C   UNL     1       4.074   3.521  -3.354  1.00  0.00     0.014 A 
ATOM     41  C   UNL     1       5.178   5.519  -4.964  1.00  0.00     0.010 A 
ATOM     42  C   UNL     1       4.864   4.490  -2.785  1.00  0.00     0.010 A 
ATOM     43  C   UNL     1       5.446   5.473  -3.586  1.00  0.00    -0.014 A 
BRANCH  43  44
ATOM     44  C   UNL     1       6.207   6.543  -2.936  1.00  0.00     0.031 A 
ATOM     45  C   UNL     1       5.668   7.920  -3.154  1.00  0.00     0.074 A 
ATOM     46  C   UNL     1       7.153   6.291  -2.002  1.00  0.00     0.049 A 
ATOM     47  N   UNL     1       6.244   8.919  -3.738  1.00  0.00    -0.248 NA
ATOM     48  C   UNL     1       4.266   8.184  -2.779  1.00  0.00     0.031 C 
ATOM     49  C   UNL     1       7.549   4.981  -1.462  1.00  0.00     0.029 A 
ATOM     50  N   UNL     1       7.864   7.155  -1.227  1.00  0.00    -0.354 N 
ATOM     51  C   UNL     1       5.365   9.995  -3.619  1.00  0.00     0.074 A 
ATOM     52  C   UNL     1       4.107   9.447  -3.182  1.00  0.00     0.031 C 
ATOM     53  C   UNL     1       8.206   5.151  -0.294  1.00  0.00     0.029 A 
ATOM     54  C   UNL     1       8.449   6.567  -0.107  1.00  0.00     0.049 A 
ATOM     55  H   UNL     1       7.956   8.112  -1.439  1.00  0.00     0.167 HD
ATOM     56  C   UNL     1       5.800  11.287  -3.643  1.00  0.00     0.031 A 
ATOM     57  C   UNL     1       9.075   7.200   0.915  1.00  0.00     0.031 A 
ATOM     58  C   UNL     1       7.165  11.377  -4.083  1.00  0.00     0.049 A 
ATOM     59  C   UNL     1       9.476   8.530   0.411  1.00  0.00     0.074 A 
ATOM     60  C   UNL     1       7.840  11.175  -5.265  1.00  0.00     0.029 A 
ATOM     61  N   UNL     1       8.094  11.344  -3.073  1.00  0.00    -0.354 N 
ATOM     62  N   UNL     1      10.339   8.703  -0.551  1.00  0.00    -0.248 NA
ATOM     63  C   UNL     1       8.646   9.684   0.719  1.00  0.00     0.031 C 
ATOM     64  C   UNL     1       9.122  10.678  -4.888  1.00  0.00     0.029 A 
ATOM     65  C   UNL     1       9.201  10.653  -3.493  1.00  0.00     0.049 A 
ATOM     66  H   UNL     1       7.983  11.752  -2.184  1.00  0.00     0.167 HD
ATOM     67  C   UNL     1       9.872   9.805  -1.244  1.00  0.00     0.074 A 
ATOM     68  C   UNL     1       8.940  10.456  -0.331  1.00  0.00     0.031 C 
ATOM     69  C   UNL     1      10.066   9.917  -2.591  1.00  0.00     0.031 A 
BRANCH  56  70
ATOM     70  C   UNL     1       5.156  12.407  -2.857  1.00  0.00    -0.014 A 
ATOM     71  C   UNL     1       5.597  13.734  -3.049  1.00  0.00     0.010 A 
ATOM     72  C   UNL     1       4.330  12.167  -1.740  1.00  0.00     0.010 A 
ATOM     73  C   UNL     1       5.243  14.758  -2.155  1.00  0.00     0.020 A 
ATOM     74  C   UNL     1       3.940  13.185  -0.866  1.00  0.00     0.020 A 
ATOM     75  C   UNL     1       4.417  14.473  -1.067  1.00  0.00     0.054 A 
BRANCH  75  76
ATOM     76  S   UNL     1       4.013  15.785   0.115  1.00  0.00     0.124 S 
ATOM     77  O   UNL     1       5.320  16.094   0.686  1.00  0.00    -0.237 OA
ATOM     78  O   UNL     1       3.438  16.813  -0.750  1.00  0.00    -0.237 OA
ATOM     79  O   UNL     1       3.066  15.145   1.026  1.00  0.00    -0.744 OA
ENDBRANCH  75  76
ENDBRANCH  56  70
BRANCH  57  80
ATOM     80  C   UNL     1       9.118   6.851   2.357  1.00  0.00    -0.014 A 
ATOM     81  C   UNL     1      10.044   7.473   3.216  1.00  0.00     0.010 A 
ATOM     82  C   UNL     1       8.047   6.147   2.944  1.00  0.00     0.010 A 
ATOM     83  C   UNL     1       9.856   7.470   4.608  1.00  0.00     0.020 A 
ATOM     84  C   UNL     1       7.856   6.135   4.333  1.00  0.00     0.020 A 
ATOM     85  C   UNL     1       8.744   6.826   5.156  1.00  0.00     0.054 A 
BRANCH  85  86
ATOM     86  S   UNL     1       8.396   7.012   6.931  1.00  0.00     0.124 S 
ATOM     87  O   UNL     1       9.496   6.274   7.544  1.00  0.00    -0.237 OA
ATOM     88  O   UNL     1       8.432   8.461   7.108  1.00  0.00    -0.237 OA
ATOM     89  O   UNL     1       7.076   6.404   7.089  1.00  0.00    -0.744 OA
ENDBRANCH  85  86
ENDBRANCH  57  80
BRANCH  69  90
ATOM     90  C   UNL     1      11.151   9.075  -3.220  1.00  0.00    -0.014 A 
ATOM     91  C   UNL     1      11.134   7.668  -3.285  1.00  0.00     0.010 A 
ATOM     92  C   UNL     1      12.184   9.764  -3.878  1.00  0.00     0.010 A 
ATOM     93  C   UNL     1      12.141   6.973  -3.976  1.00  0.00     0.020 A 
ATOM     94  C   UNL     1      13.176   9.081  -4.582  1.00  0.00     0.020 A 
ATOM     95  C   UNL     1      13.155   7.687  -4.623  1.00  0.00     0.054 A 
BRANCH  95  96
ATOM     96  S   UNL     1      14.434   6.792  -5.549  1.00  0.00     0.124 S 
ATOM     97  O   UNL     1      15.151   6.079  -4.496  1.00  0.00    -0.237 OA
ATOM     98  O   UNL     1      13.651   5.955  -6.456  1.00  0.00    -0.237 OA
ATOM     99  O   UNL     1      15.197   7.854  -6.205  1.00  0.00    -0.744 OA
ENDBRANCH  95  96
ENDBRANCH  69  90
ENDBRANCH  43  44
ENDBRANCH  35  38
ENDBRANCH  33  34
ENDBRANCH  32  33
ENDBRANCH   1  32
TORSDOF 17
