REMARK SMILES O=C(NCCCCNC(=O)c1ccccc1S[C@@H]1CC(=O)N(C2=[NH+]CCS2)C1=O)c1ccc(-c2c3nc(c(-c4ccc(S(=O)(=O)[O-])cc4)c4ccc([nH]4)c(-c4ccc(S(=O)(=O)[O-])cc4)c4nc(c(-c5ccc(S(=O)(=O)[O-])cc5)c5ccc2[nH]5)C=C4)C=C3)cc1
REMARK SMILES IDX 5 1 4 2 3 3 1 4 2 5 30 7 31 8 89 9 32 10 88 11 33 12 34 13
REMARK SMILES IDX 35 14 82 15 36 16 87 17 81 18 83 19 37 20 86 21 80 22 79 23
REMARK SMILES IDX 38 25 68 26 49 27 67 28 50 29 53 30 66 31 84 32 51 33 52 34
REMARK SMILES IDX 65 36 85 37 54 38 39 39 40 40 48 41 41 42 47 43 42 44 43 45
REMARK SMILES IDX 44 46 45 47 46 48 69 49 70 50 78 51 71 52 77 53 72 54 73 55
REMARK SMILES IDX 74 56 75 57 76 58 55 59 56 60 64 61 57 62 63 63 58 64 59 65
REMARK SMILES IDX 60 66 61 67 62 68 6 69 7 70 8 71 9 72 10 74 11 75 12 76
REMARK SMILES IDX 16 77 13 78 15 79 14 80 17 81 18 82 19 83 28 84 20 85 22 86
REMARK SMILES IDX 29 87 21 88 23 89 24 90 27 91 25 92 26 94
REMARK H PARENT 3 6 83 24 53 35 8 73 24 93
REMARK Flexibility Score: inf
ROOT
ATOM      1  C   UNL     1       3.986  -2.906   0.138  1.00  0.00     0.023 C 
ENDROOT
BRANCH   1   2
ATOM      2  C   UNL     1       3.880  -1.524  -0.507  1.00  0.00     0.116 C 
BRANCH   2   3
ATOM      3  N   UNL     1       2.534  -0.972  -0.459  1.00  0.00    -0.352 N 
ATOM      4  O   UNL     1       0.820   0.332   0.159  1.00  0.00    -0.269 OA
ATOM      5  C   UNL     1       2.031   0.120   0.205  1.00  0.00     0.251 C 
ATOM      6  H   UNL     1       1.872  -1.466  -0.994  1.00  0.00     0.163 HD
BRANCH   5   7
ATOM      7  C   UNL     1       2.895   1.025   1.007  1.00  0.00     0.039 A 
ATOM      8  C   UNL     1       4.134   1.486   0.555  1.00  0.00     0.014 A 
ATOM      9  C   UNL     1       2.408   1.476   2.240  1.00  0.00     0.014 A 
ATOM     10  C   UNL     1       4.935   2.278   1.386  1.00  0.00     0.010 A 
ATOM     11  C   UNL     1       3.183   2.319   3.045  1.00  0.00     0.010 A 
ATOM     12  C   UNL     1       4.474   2.696   2.644  1.00  0.00    -0.014 A 
BRANCH  12  13
ATOM     13  C   UNL     1       5.337   3.522   3.534  1.00  0.00     0.031 A 
ATOM     14  C   UNL     1       5.850   2.967   4.840  1.00  0.00     0.074 A 
ATOM     15  C   UNL     1       5.663   4.781   3.179  1.00  0.00     0.049 A 
ATOM     16  N   UNL     1       6.616   3.539   5.737  1.00  0.00    -0.248 NA
ATOM     17  C   UNL     1       5.441   1.597   5.189  1.00  0.00     0.031 C 
ATOM     18  C   UNL     1       5.226   5.455   1.955  1.00  0.00     0.029 A 
ATOM     19  N   UNL     1       6.444   5.717   3.812  1.00  0.00    -0.354 N 
ATOM     20  C   UNL     1       6.762   2.611   6.763  1.00  0.00     0.074 A 
ATOM     21  C   UNL     1       5.985   1.448   6.390  1.00  0.00     0.031 C 
ATOM     22  C   UNL     1       5.770   6.682   1.912  1.00  0.00     0.029 A 
ATOM     23  C   UNL     1       6.563   6.897   3.119  1.00  0.00     0.049 A 
ATOM     24  H   UNL     1       6.878   5.557   4.682  1.00  0.00     0.167 HD
ATOM     25  C   UNL     1       7.482   2.711   7.908  1.00  0.00     0.031 A 
ATOM     26  C   UNL     1       7.231   8.029   3.415  1.00  0.00     0.031 A 
ATOM     27  C   UNL     1       8.270   3.856   8.282  1.00  0.00     0.049 A 
ATOM     28  C   UNL     1       8.025   8.114   4.689  1.00  0.00     0.074 A 
ATOM     29  C   UNL     1       9.068   4.024   9.402  1.00  0.00     0.029 A 
ATOM     30  N   UNL     1       8.361   5.029   7.550  1.00  0.00    -0.354 N 
ATOM     31  N   UNL     1       8.186   7.207   5.622  1.00  0.00    -0.248 NA
ATOM     32  C   UNL     1       8.739   9.374   4.941  1.00  0.00     0.031 C 
ATOM     33  C   UNL     1       9.612   5.313   9.365  1.00  0.00     0.029 A 
ATOM     34  C   UNL     1       9.189   5.930   8.200  1.00  0.00     0.049 A 
ATOM     35  H   UNL     1       7.905   5.198   6.694  1.00  0.00     0.167 HD
ATOM     36  C   UNL     1       9.041   7.778   6.559  1.00  0.00     0.074 A 
ATOM     37  C   UNL     1       9.371   9.103   6.075  1.00  0.00     0.031 C 
ATOM     38  C   UNL     1       9.514   7.246   7.713  1.00  0.00     0.031 A 
BRANCH  25  39
ATOM     39  C   UNL     1       7.437   1.543   8.858  1.00  0.00    -0.014 A 
ATOM     40  C   UNL     1       8.117   0.346   8.573  1.00  0.00     0.010 A 
ATOM     41  C   UNL     1       6.736   1.660  10.073  1.00  0.00     0.010 A 
ATOM     42  C   UNL     1       8.061  -0.729   9.464  1.00  0.00     0.020 A 
ATOM     43  C   UNL     1       6.697   0.595  10.978  1.00  0.00     0.020 A 
ATOM     44  C   UNL     1       7.344  -0.601  10.658  1.00  0.00     0.054 A 
BRANCH  44  45
ATOM     45  S   UNL     1       7.294  -2.007  11.804  1.00  0.00     0.124 S 
ATOM     46  O   UNL     1       6.327  -2.889  11.153  1.00  0.00    -0.237 OA
ATOM     47  O   UNL     1       8.676  -2.480  11.797  1.00  0.00    -0.237 OA
ATOM     48  O   UNL     1       6.848  -1.413  13.062  1.00  0.00    -0.744 OA
ENDBRANCH  44  45
ENDBRANCH  25  39
BRANCH  26  49
ATOM     49  C   UNL     1       7.198   9.175   2.467  1.00  0.00    -0.014 A 
ATOM     50  C   UNL     1       8.329   9.488   1.693  1.00  0.00     0.010 A 
ATOM     51  C   UNL     1       6.031   9.946   2.323  1.00  0.00     0.010 A 
ATOM     52  C   UNL     1       8.298  10.562   0.799  1.00  0.00     0.020 A 
ATOM     53  C   UNL     1       5.989  11.006   1.413  1.00  0.00     0.020 A 
ATOM     54  C   UNL     1       7.127  11.313   0.664  1.00  0.00     0.054 A 
BRANCH  54  55
ATOM     55  S   UNL     1       7.087  12.664  -0.547  1.00  0.00     0.124 S 
ATOM     56  O   UNL     1       7.812  13.720   0.153  1.00  0.00    -0.237 OA
ATOM     57  O   UNL     1       7.771  12.081  -1.698  1.00  0.00    -0.237 OA
ATOM     58  O   UNL     1       5.658  12.905  -0.739  1.00  0.00    -0.744 OA
ENDBRANCH  54  55
ENDBRANCH  26  49
BRANCH  38  59
ATOM     59  C   UNL     1      10.475   8.082   8.515  1.00  0.00    -0.014 A 
ATOM     60  C   UNL     1      10.035   9.190   9.259  1.00  0.00     0.010 A 
ATOM     61  C   UNL     1      11.838   7.733   8.545  1.00  0.00     0.010 A 
ATOM     62  C   UNL     1      10.947   9.958   9.990  1.00  0.00     0.020 A 
ATOM     63  C   UNL     1      12.749   8.485   9.292  1.00  0.00     0.020 A 
ATOM     64  C   UNL     1      12.300   9.604   9.996  1.00  0.00     0.054 A 
BRANCH  64  65
ATOM     65  S   UNL     1      13.465  10.597  10.971  1.00  0.00     0.124 S 
ATOM     66  O   UNL     1      13.670  11.756  10.108  1.00  0.00    -0.237 OA
ATOM     67  O   UNL     1      12.722  10.854  12.202  1.00  0.00    -0.237 OA
ATOM     68  O   UNL     1      14.623   9.719  11.123  1.00  0.00    -0.744 OA
ENDBRANCH  64  65
ENDBRANCH  38  59
ENDBRANCH  12  13
ENDBRANCH   5   7
ENDBRANCH   2   3
ENDBRANCH   1   2
BRANCH   1  69
ATOM     69  C   UNL     1       3.436  -4.073  -0.693  1.00  0.00     0.023 C 
BRANCH  69  70
ATOM     70  C   UNL     1       4.148  -4.333  -2.022  1.00  0.00     0.116 C 
BRANCH  70  71
ATOM     71  N   UNL     1       5.538  -4.731  -1.870  1.00  0.00    -0.352 N 
ATOM     72  C   UNL     1       6.375  -5.249  -2.821  1.00  0.00     0.252 C 
ATOM     73  H   UNL     1       5.925  -4.614  -0.972  1.00  0.00     0.163 HD
ATOM     74  O   UNL     1       7.529  -5.591  -2.584  1.00  0.00    -0.269 OA
BRANCH  72  75
ATOM     75  C   UNL     1       5.918  -5.421  -4.193  1.00  0.00     0.053 A 
ATOM     76  C   UNL     1       5.785  -6.766  -4.589  1.00  0.00     0.015 A 
ATOM     77  C   UNL     1       5.676  -4.361  -5.076  1.00  0.00     0.021 A 
ATOM     78  C   UNL     1       5.316  -7.081  -5.856  1.00  0.00     0.001 A 
ATOM     79  C   UNL     1       5.167  -4.713  -6.342  1.00  0.00     0.016 A 
ATOM     80  C   UNL     1       4.985  -6.051  -6.726  1.00  0.00     0.001 A 
BRANCH  77  81
ATOM     81  S   UNL     1       5.780  -2.592  -4.782  1.00  0.00    -0.109 SA
BRANCH  81  82
ATOM     82  C   UNL     1       7.375  -2.172  -3.978  1.00  0.00     0.178 C 
ATOM     83  C   UNL     1       8.639  -2.832  -4.464  1.00  0.00     0.156 C 
ATOM     84  C   UNL     1       7.399  -2.332  -2.481  1.00  0.00     0.331 C 
ATOM     85  C   UNL     1       9.447  -2.927  -3.198  1.00  0.00     0.319 C 
ATOM     86  N   UNL     1       8.584  -2.933  -2.126  1.00  0.00    -0.123 N 
ATOM     87  O   UNL     1       6.578  -1.800  -1.742  1.00  0.00    -0.245 OA
ATOM     88  O   UNL     1      10.668  -2.845  -3.197  1.00  0.00    -0.246 OA
BRANCH  86  89
ATOM     89  C   UNL     1       8.715  -3.682  -0.963  1.00  0.00     0.321 C 
ATOM     90  N   UNL     1       7.747  -3.850  -0.117  1.00  0.00    -0.267 N 
ATOM     91  S   UNL     1      10.193  -4.561  -0.655  1.00  0.00    -0.034 SA
ATOM     92  C   UNL     1       8.073  -4.954   0.808  1.00  0.00     0.246 C 
ATOM     93  H   UNL     1       6.917  -3.321  -0.094  1.00  0.00     0.305 HD
ATOM     94  C   UNL     1       9.573  -5.123   0.935  1.00  0.00     0.128 C 
ENDBRANCH  86  89
ENDBRANCH  81  82
ENDBRANCH  77  81
ENDBRANCH  72  75
ENDBRANCH  70  71
ENDBRANCH  69  70
ENDBRANCH   1  69
TORSDOF 17
