REMARK SMILES Cc1ccc(C(=O)NC2(CC(=O)NCCCCNC(=O)c3ccc(-c4c5nc(c(-c6ccc(S(=O)(=O)[O-])cc6)c6ccc([nH]6)c(-c6ccc(S(=O)(=O)[O-])cc6)c6nc(c(-c7ccc(S(=O)(=O)[O-])cc7)c7ccc4[nH]7)C=C6)C=C5)cc3)CCC2)cc1
REMARK SMILES IDX 15 1 14 2 13 3 11 4 12 5 10 7 9 8 81 9 83 10 82 11 8 12 6 13
REMARK SMILES IDX 7 14 5 16 1 17 2 18 3 19 85 20 4 21 84 22 16 23 17 24 18 25
REMARK SMILES IDX 19 26 20 28 21 29 22 30 80 31 23 32 79 33 24 34 25 35 26 36
REMARK SMILES IDX 73 37 27 38 78 39 72 40 74 41 28 42 77 43 71 44 70 45 29 47
REMARK SMILES IDX 59 48 40 49 58 50 41 51 44 52 57 53 75 54 42 55 43 56 56 58
REMARK SMILES IDX 76 59 45 60 30 61 31 62 39 63 32 64 38 65 33 66 34 67 35 68
REMARK SMILES IDX 36 69 37 70 60 71 61 72 69 73 62 74 68 75 63 76 64 77 65 78
REMARK SMILES IDX 66 79 67 80 46 81 47 82 55 83 48 84 54 85 49 86 50 87 51 88
REMARK SMILES IDX 52 89 53 90
REMARK H PARENT 13 6 8 15 18 27 74 46 44 57
REMARK Flexibility Score: inf
ROOT
ATOM      1  C   UNL     1      -0.811   1.384   3.147  1.00  0.00     0.023 C 
ENDROOT
BRANCH   1   2
ATOM      2  C   UNL     1      -0.009   1.691   1.881  1.00  0.00     0.116 C 
BRANCH   2   3
ATOM      3  N   UNL     1      -0.330   0.624   0.580  1.00  0.00    -0.356 N 
ATOM      4  C   UNL     1      -1.212   0.652  -1.175  1.00  0.00     0.222 C 
ATOM      5  O   UNL     1      -1.090  -0.104  -2.189  1.00  0.00    -0.275 OA
ATOM      6  H   UNL     1       0.038  -0.270   0.768  1.00  0.00     0.163 HD
BRANCH   4   7
ATOM      7  C   UNL     1      -2.566   1.894  -1.654  1.00  0.00     0.128 C 
BRANCH   7   8
ATOM      8  C   UNL     1      -3.671   2.572  -0.585  1.00  0.00     0.049 C 
ATOM      9  C   UNL     1      -4.399   3.891  -1.029  1.00  0.00     0.029 C 
ATOM     10  C   UNL     1      -3.595   3.420   0.879  1.00  0.00     0.029 C 
ATOM     11  C   UNL     1      -3.617   4.691   0.059  1.00  0.00     0.005 C 
BRANCH   8  12
ATOM     12  N   UNL     1      -4.468   1.440  -0.145  1.00  0.00    -0.346 N 
ATOM     13  C   UNL     1      -3.787   0.545   0.632  1.00  0.00     0.251 C 
ATOM     14  O   UNL     1      -4.329  -0.399   1.186  1.00  0.00    -0.269 OA
ATOM     15  H   UNL     1      -5.416   1.326  -0.386  1.00  0.00     0.164 HD
BRANCH  13  16
ATOM     16  C   UNL     1      -2.289   0.714   0.546  1.00  0.00     0.039 A 
ATOM     17  C   UNL     1       2.466   0.056  -1.053  1.00  0.00     0.044 C 
ATOM     18  C   UNL     1       0.981   0.288  -0.984  1.00  0.00    -0.051 A 
ATOM     19  C   UNL     1      -0.008  -1.150  -0.529  1.00  0.00     0.004 A 
ATOM     20  C   UNL     1       0.371   1.967  -0.762  1.00  0.00     0.004 A 
ATOM     21  C   UNL     1      -1.619  -0.939   0.221  1.00  0.00     0.014 A 
ATOM     22  C   UNL     1      -1.259   2.223   0.043  1.00  0.00     0.014 A 
ENDBRANCH  13  16
ENDBRANCH   8  12
ENDBRANCH   7   8
ENDBRANCH   4   7
ENDBRANCH   2   3
ENDBRANCH   1   2
BRANCH   1  23
ATOM     23  C   UNL     1      -0.418   0.092   3.840  1.00  0.00     0.023 C 
BRANCH  23  24
ATOM     24  C   UNL     1       1.076  -0.048   3.992  1.00  0.00     0.116 C 
BRANCH  24  25
ATOM     25  N   UNL     1       1.693   0.945   4.855  1.00  0.00    -0.352 N 
ATOM     26  C   UNL     1       2.924   0.688   5.450  1.00  0.00     0.251 C 
ATOM     27  H   UNL     1       1.239   1.802   5.019  1.00  0.00     0.163 HD
ATOM     28  O   UNL     1       3.083   0.364   6.616  1.00  0.00    -0.269 OA
BRANCH  26  29
ATOM     29  C   UNL     1       4.060   0.779   4.511  1.00  0.00     0.039 A 
ATOM     30  C   UNL     1       5.085   1.709   4.688  1.00  0.00     0.014 A 
ATOM     31  C   UNL     1       3.921   0.082   3.319  1.00  0.00     0.014 A 
ATOM     32  C   UNL     1       5.828   2.094   3.579  1.00  0.00     0.010 A 
ATOM     33  C   UNL     1       4.467   0.617   2.202  1.00  0.00     0.010 A 
ATOM     34  C   UNL     1       5.410   1.628   2.339  1.00  0.00    -0.014 A 
BRANCH  34  35
ATOM     35  C   UNL     1       6.033   1.889   1.068  1.00  0.00     0.031 A 
ATOM     36  C   UNL     1       7.086   0.907   0.736  1.00  0.00     0.074 A 
ATOM     37  C   UNL     1       5.363   2.752   0.268  1.00  0.00     0.049 A 
ATOM     38  N   UNL     1       7.987   1.089  -0.146  1.00  0.00    -0.248 NA
ATOM     39  C   UNL     1       7.256  -0.389   1.424  1.00  0.00     0.031 C 
ATOM     40  C   UNL     1       5.435   3.004  -1.165  1.00  0.00     0.029 A 
ATOM     41  N   UNL     1       4.538   3.785   0.726  1.00  0.00    -0.354 N 
ATOM     42  C   UNL     1       8.541  -0.147  -0.421  1.00  0.00     0.074 A 
ATOM     43  C   UNL     1       8.183  -0.998   0.676  1.00  0.00     0.031 C 
ATOM     44  C   UNL     1       5.026   4.269  -1.405  1.00  0.00     0.029 A 
ATOM     45  C   UNL     1       4.757   4.890  -0.113  1.00  0.00     0.049 A 
ATOM     46  H   UNL     1       3.921   3.745   1.492  1.00  0.00     0.167 HD
ATOM     47  C   UNL     1       9.069  -0.329  -1.659  1.00  0.00     0.031 A 
ATOM     48  C   UNL     1       5.453   5.947   0.409  1.00  0.00     0.031 A 
ATOM     49  C   UNL     1       8.922   0.916  -2.407  1.00  0.00     0.049 A 
ATOM     50  C   UNL     1       6.860   5.978  -0.157  1.00  0.00     0.074 A 
ATOM     51  C   UNL     1       7.940   1.365  -3.273  1.00  0.00     0.029 A 
ATOM     52  N   UNL     1       9.571   2.037  -1.919  1.00  0.00    -0.354 N 
ATOM     53  N   UNL     1       7.513   4.925  -0.579  1.00  0.00    -0.248 NA
ATOM     54  C   UNL     1       7.565   7.225  -0.432  1.00  0.00     0.031 C 
ATOM     55  C   UNL     1       7.968   2.790  -3.241  1.00  0.00     0.029 A 
ATOM     56  C   UNL     1       8.949   3.192  -2.349  1.00  0.00     0.049 A 
ATOM     57  H   UNL     1      10.369   2.014  -1.344  1.00  0.00     0.167 HD
ATOM     58  C   UNL     1       8.639   5.326  -1.254  1.00  0.00     0.074 A 
ATOM     59  C   UNL     1       8.626   6.774  -1.122  1.00  0.00     0.031 C 
ATOM     60  C   UNL     1       9.481   4.478  -1.921  1.00  0.00     0.031 A 
BRANCH  47  61
ATOM     61  C   UNL     1       9.486  -1.619  -2.309  1.00  0.00    -0.014 A 
ATOM     62  C   UNL     1       9.591  -1.618  -3.716  1.00  0.00     0.010 A 
ATOM     63  C   UNL     1       9.810  -2.822  -1.654  1.00  0.00     0.010 A 
ATOM     64  C   UNL     1       9.996  -2.738  -4.441  1.00  0.00     0.020 A 
ATOM     65  C   UNL     1      10.216  -3.965  -2.376  1.00  0.00     0.020 A 
ATOM     66  C   UNL     1      10.314  -3.909  -3.767  1.00  0.00     0.054 A 
BRANCH  66  67
ATOM     67  S   UNL     1      10.883  -5.318  -4.753  1.00  0.00     0.124 S 
ATOM     68  O   UNL     1       9.745  -5.562  -5.637  1.00  0.00    -0.237 OA
ATOM     69  O   UNL     1      12.077  -4.784  -5.403  1.00  0.00    -0.237 OA
ATOM     70  O   UNL     1      11.129  -6.361  -3.760  1.00  0.00    -0.744 OA
ENDBRANCH  66  67
ENDBRANCH  47  61
BRANCH  48  71
ATOM     71  C   UNL     1       5.016   6.234   1.821  1.00  0.00    -0.014 A 
ATOM     72  C   UNL     1       3.670   6.652   1.981  1.00  0.00     0.010 A 
ATOM     73  C   UNL     1       5.656   5.630   2.917  1.00  0.00     0.010 A 
ATOM     74  C   UNL     1       2.924   6.268   3.101  1.00  0.00     0.020 A 
ATOM     75  C   UNL     1       4.914   5.279   4.061  1.00  0.00     0.020 A 
ATOM     76  C   UNL     1       3.540   5.528   4.108  1.00  0.00     0.054 A 
BRANCH  76  77
ATOM     77  S   UNL     1       2.485   4.763   5.377  1.00  0.00     0.124 S 
ATOM     78  O   UNL     1       1.845   5.925   5.985  1.00  0.00    -0.237 OA
ATOM     79  O   UNL     1       1.610   3.900   4.575  1.00  0.00    -0.237 OA
ATOM     80  O   UNL     1       3.433   4.051   6.225  1.00  0.00    -0.744 OA
ENDBRANCH  76  77
ENDBRANCH  48  71
BRANCH  60  81
ATOM     81  C   UNL     1      10.918   4.791  -2.288  1.00  0.00    -0.014 A 
ATOM     82  C   UNL     1      11.592   5.945  -1.877  1.00  0.00     0.010 A 
ATOM     83  C   UNL     1      11.696   3.819  -2.972  1.00  0.00     0.010 A 
ATOM     84  C   UNL     1      12.929   6.166  -2.212  1.00  0.00     0.020 A 
ATOM     85  C   UNL     1      13.056   3.982  -3.225  1.00  0.00     0.020 A 
ATOM     86  C   UNL     1      13.652   5.182  -2.881  1.00  0.00     0.054 A 
BRANCH  86  87
ATOM     87  S   UNL     1      15.379   5.499  -3.277  1.00  0.00     0.124 S 
ATOM     88  O   UNL     1      15.259   6.481  -4.352  1.00  0.00    -0.237 OA
ATOM     89  O   UNL     1      15.902   6.013  -2.013  1.00  0.00    -0.237 OA
ATOM     90  O   UNL     1      15.893   4.192  -3.675  1.00  0.00    -0.744 OA
ENDBRANCH  86  87
ENDBRANCH  60  81
ENDBRANCH  34  35
ENDBRANCH  26  29
ENDBRANCH  24  25
ENDBRANCH  23  24
ENDBRANCH   1  23
TORSDOF 17
