REMARK SMILES COc1ccc(CCN2C(=O)CC[C@@H](C(=O)NCCCCNC(=O)c3ccc(-c4c5nc(c(-c6ccc(S(=O)(=O)[O-])cc6)c6ccc([nH]6)c(-c6ccc(S(=O)(=O)[O-])cc6)c6nc(c(-c7ccc(S(=O)(=O)[O-])cc7)c7ccc4[nH]7)C=C6)C=C5)cc3)[C@@H]2c2ccc(Cl)cc2)cc1OC
REMARK SMILES IDX 19 1 18 2 17 3 15 4 16 5 14 7 9 8 10 9 85 10 11 11 12 12
REMARK SMILES IDX 13 13 8 14 7 15 6 16 3 17 4 18 94 19 5 20 93 21 2 22 1 23
REMARK SMILES IDX 95 24 96 25 86 26 87 27 92 28 88 29 91 30 89 31 90 32 20 33
REMARK SMILES IDX 21 34 22 35 23 36 24 38 25 39 26 40 84 41 27 42 83 43 28 44
REMARK SMILES IDX 29 45 30 46 77 47 31 48 82 49 76 50 78 51 32 52 81 53 75 54
REMARK SMILES IDX 74 55 33 57 63 58 44 59 62 60 45 61 48 62 61 63 79 64 46 65
REMARK SMILES IDX 47 66 60 68 80 69 49 70 34 71 35 72 43 73 36 74 42 75 37 76
REMARK SMILES IDX 38 77 39 78 40 79 41 80 64 81 65 82 73 83 66 84 72 85 67 86
REMARK SMILES IDX 68 87 69 88 70 89 71 90 50 91 51 92 59 93 52 94 58 95 53 96
REMARK SMILES IDX 54 97 55 98 56 99 57 100
REMARK H PARENT 17 6 22 37 78 56 48 67
REMARK Flexibility Score: inf
ROOT
ATOM      1  C   UNL     1       0.746   2.410   3.231  1.00  0.00     0.023 C 
ENDROOT
BRANCH   1   2
ATOM      2  C   UNL     1      -0.065   3.332   4.135  1.00  0.00     0.116 C 
BRANCH   2   3
ATOM      3  N   UNL     1      -1.437   2.849   4.249  1.00  0.00    -0.356 N 
ATOM      4  C   UNL     1      -2.226   2.284   5.187  1.00  0.00     0.225 C 
ATOM      5  O   UNL     1      -3.292   1.822   4.750  1.00  0.00    -0.275 OA
ATOM      6  H   UNL     1      -1.926   2.971   3.403  1.00  0.00     0.163 HD
BRANCH   4   7
ATOM      7  C   UNL     1      -2.000   2.228   6.703  1.00  0.00     0.106 C 
ATOM      8  N   UNL     1       0.455   2.090   7.113  1.00  0.00    -0.335 N 
ATOM      9  C   UNL     1       0.540   3.450   7.433  1.00  0.00     0.223 C 
ATOM     10  C   UNL     1      -0.823   1.397   7.214  1.00  0.00     0.128 C 
ATOM     11  O   UNL     1       1.618   3.999   7.666  1.00  0.00    -0.275 OA
ATOM     12  C   UNL     1      -0.728   4.302   7.352  1.00  0.00     0.101 C 
ATOM     13  C   UNL     1      -2.058   3.583   7.375  1.00  0.00     0.026 C 
BRANCH   8  14
ATOM     14  C   UNL     1       1.720   1.320   7.006  1.00  0.00     0.125 C 
BRANCH  14  15
ATOM     15  C   UNL     1       1.714  -0.203   6.662  1.00  0.00     0.057 C 
BRANCH  15  16
ATOM     16  C   UNL     1       1.531  -0.578   5.201  1.00  0.00    -0.042 A 
ATOM     17  C   UNL     1       1.140  -0.744   2.409  1.00  0.00     0.160 A 
ATOM     18  C   UNL     1       0.074  -0.975   3.283  1.00  0.00     0.051 A 
ATOM     19  C   UNL     1       2.438  -0.617   2.922  1.00  0.00     0.160 A 
ATOM     20  C   UNL     1       0.279  -0.921   4.670  1.00  0.00     0.008 A 
ATOM     21  C   UNL     1       2.620  -0.524   4.314  1.00  0.00     0.054 A 
BRANCH  17  22
ATOM     22  O   UNL     1       0.917  -0.337   1.121  1.00  0.00    -0.493 OA
ATOM     23  C   UNL     1       0.079  -1.148   0.316  1.00  0.00     0.278 C 
ENDBRANCH  17  22
BRANCH  19  24
ATOM     24  O   UNL     1       3.597  -0.474   2.204  1.00  0.00    -0.493 OA
ATOM     25  C   UNL     1       3.533  -0.656   0.794  1.00  0.00     0.278 C 
ENDBRANCH  19  24
ENDBRANCH  15  16
ENDBRANCH  14  15
ENDBRANCH   8  14
BRANCH  10  26
ATOM     26  C   UNL     1      -1.044   0.842   8.637  1.00  0.00    -0.025 A 
ATOM     27  C   UNL     1      -0.375   1.350   9.769  1.00  0.00     0.007 A 
ATOM     28  C   UNL     1      -1.911  -0.249   8.824  1.00  0.00     0.007 A 
ATOM     29  C   UNL     1      -0.531   0.765  11.029  1.00  0.00     0.021 A 
ATOM     30  C   UNL     1      -2.072  -0.832  10.088  1.00  0.00     0.021 A 
ATOM     31  C   UNL     1      -1.372  -0.330  11.182  1.00  0.00     0.041 A 
ATOM     32  Cl  UNL     1      -1.536  -1.073  12.725  1.00  0.00    -0.084 Cl
ENDBRANCH  10  26
ENDBRANCH   4   7
ENDBRANCH   2   3
ENDBRANCH   1   2
BRANCH   1  33
ATOM     33  C   UNL     1       1.789   3.082   2.342  1.00  0.00     0.023 C 
BRANCH  33  34
ATOM     34  C   UNL     1       2.896   3.775   3.129  1.00  0.00     0.116 C 
BRANCH  34  35
ATOM     35  N   UNL     1       3.938   2.890   3.637  1.00  0.00    -0.352 N 
ATOM     36  C   UNL     1       5.088   2.325   3.113  1.00  0.00     0.251 C 
ATOM     37  H   UNL     1       3.788   2.634   4.575  1.00  0.00     0.163 HD
ATOM     38  O   UNL     1       5.770   1.634   3.850  1.00  0.00    -0.269 OA
BRANCH  36  39
ATOM     39  C   UNL     1       5.488   2.485   1.683  1.00  0.00     0.039 A 
ATOM     40  C   UNL     1       6.283   1.498   1.079  1.00  0.00     0.014 A 
ATOM     41  C   UNL     1       5.104   3.570   0.914  1.00  0.00     0.014 A 
ATOM     42  C   UNL     1       6.587   1.561  -0.293  1.00  0.00     0.010 A 
ATOM     43  C   UNL     1       5.266   3.555  -0.465  1.00  0.00     0.010 A 
ATOM     44  C   UNL     1       6.027   2.565  -1.094  1.00  0.00    -0.014 A 
BRANCH  44  45
ATOM     45  C   UNL     1       6.218   2.667  -2.570  1.00  0.00     0.031 A 
ATOM     46  C   UNL     1       6.669   3.981  -3.172  1.00  0.00     0.074 A 
ATOM     47  C   UNL     1       5.846   1.655  -3.382  1.00  0.00     0.049 A 
ATOM     48  N   UNL     1       6.641   4.377  -4.420  1.00  0.00    -0.248 NA
ATOM     49  C   UNL     1       7.146   5.013  -2.233  1.00  0.00     0.031 C 
ATOM     50  C   UNL     1       5.339   0.351  -2.949  1.00  0.00     0.029 A 
ATOM     51  N   UNL     1       5.817   1.578  -4.753  1.00  0.00    -0.354 N 
ATOM     52  C   UNL     1       7.026   5.714  -4.399  1.00  0.00     0.074 A 
ATOM     53  C   UNL     1       7.209   6.080  -3.013  1.00  0.00     0.031 C 
ATOM     54  C   UNL     1       5.085  -0.406  -4.029  1.00  0.00     0.029 A 
ATOM     55  C   UNL     1       5.353   0.374  -5.231  1.00  0.00     0.049 A 
ATOM     56  H   UNL     1       6.101   2.316  -5.340  1.00  0.00     0.167 HD
ATOM     57  C   UNL     1       7.247   6.557  -5.437  1.00  0.00     0.031 A 
ATOM     58  C   UNL     1       5.156  -0.053  -6.494  1.00  0.00     0.031 A 
ATOM     59  C   UNL     1       7.150   6.163  -6.816  1.00  0.00     0.049 A 
ATOM     60  C   UNL     1       5.465   0.875  -7.636  1.00  0.00     0.074 A 
ATOM     61  C   UNL     1       7.451   6.902  -7.946  1.00  0.00     0.029 A 
ATOM     62  N   UNL     1       6.746   4.910  -7.250  1.00  0.00    -0.354 N 
ATOM     63  N   UNL     1       5.875   2.121  -7.597  1.00  0.00    -0.248 NA
ATOM     64  C   UNL     1       5.298   0.336  -8.992  1.00  0.00     0.031 C 
ATOM     65  C   UNL     1       7.195   6.105  -9.067  1.00  0.00     0.029 A 
ATOM     66  C   UNL     1       6.784   4.855  -8.632  1.00  0.00     0.049 A 
ATOM     67  H   UNL     1       6.473   4.169  -6.662  1.00  0.00     0.167 HD
ATOM     68  C   UNL     1       6.048   2.503  -8.923  1.00  0.00     0.074 A 
ATOM     69  C   UNL     1       5.709   1.354  -9.737  1.00  0.00     0.031 C 
ATOM     70  C   UNL     1       6.454   3.697  -9.422  1.00  0.00     0.031 A 
BRANCH  57  71
ATOM     71  C   UNL     1       7.646   7.976  -5.116  1.00  0.00    -0.014 A 
ATOM     72  C   UNL     1       8.881   8.265  -4.505  1.00  0.00     0.010 A 
ATOM     73  C   UNL     1       6.787   9.040  -5.449  1.00  0.00     0.010 A 
ATOM     74  C   UNL     1       9.221   9.580  -4.175  1.00  0.00     0.020 A 
ATOM     75  C   UNL     1       7.140  10.361  -5.155  1.00  0.00     0.020 A 
ATOM     76  C   UNL     1       8.345  10.620  -4.499  1.00  0.00     0.054 A 
BRANCH  76  77
ATOM     77  S   UNL     1       8.821  12.317  -4.073  1.00  0.00     0.124 S 
ATOM     78  O   UNL     1       8.629  12.329  -2.625  1.00  0.00    -0.237 OA
ATOM     79  O   UNL     1      10.210  12.383  -4.522  1.00  0.00    -0.237 OA
ATOM     80  O   UNL     1       7.884  13.141  -4.833  1.00  0.00    -0.744 OA
ENDBRANCH  76  77
ENDBRANCH  57  71
BRANCH  58  81
ATOM     81  C   UNL     1       4.681  -1.443  -6.744  1.00  0.00    -0.014 A 
ATOM     82  C   UNL     1       5.562  -2.405  -7.270  1.00  0.00     0.010 A 
ATOM     83  C   UNL     1       3.360  -1.819  -6.442  1.00  0.00     0.010 A 
ATOM     84  C   UNL     1       5.127  -3.712  -7.508  1.00  0.00     0.020 A 
ATOM     85  C   UNL     1       2.929  -3.133  -6.652  1.00  0.00     0.020 A 
ATOM     86  C   UNL     1       3.813  -4.069  -7.195  1.00  0.00     0.054 A 
BRANCH  86  87
ATOM     87  S   UNL     1       3.287  -5.785  -7.463  1.00  0.00     0.124 S 
ATOM     88  O   UNL     1       3.177  -5.845  -8.917  1.00  0.00    -0.237 OA
ATOM     89  O   UNL     1       4.387  -6.547  -6.878  1.00  0.00    -0.237 OA
ATOM     90  O   UNL     1       2.023  -5.871  -6.735  1.00  0.00    -0.744 OA
ENDBRANCH  86  87
ENDBRANCH  58  81
BRANCH  70  91
ATOM     91  C   UNL     1       6.602   3.809 -10.915  1.00  0.00    -0.014 A 
ATOM     92  C   UNL     1       5.479   3.872 -11.757  1.00  0.00     0.010 A 
ATOM     93  C   UNL     1       7.889   3.919 -11.473  1.00  0.00     0.010 A 
ATOM     94  C   UNL     1       5.643   4.012 -13.138  1.00  0.00     0.020 A 
ATOM     95  C   UNL     1       8.055   4.088 -12.849  1.00  0.00     0.020 A 
ATOM     96  C   UNL     1       6.930   4.120 -13.674  1.00  0.00     0.054 A 
BRANCH  96  97
ATOM     97  S   UNL     1       7.112   4.351 -15.463  1.00  0.00     0.124 S 
ATOM     98  O   UNL     1       6.795   3.020 -15.975  1.00  0.00    -0.237 OA
ATOM     99  O   UNL     1       6.125   5.388 -15.755  1.00  0.00    -0.237 OA
ATOM    100  O   UNL     1       8.505   4.763 -15.620  1.00  0.00    -0.744 OA
ENDBRANCH  96  97
ENDBRANCH  70  91
ENDBRANCH  44  45
ENDBRANCH  36  39
ENDBRANCH  34  35
ENDBRANCH  33  34
ENDBRANCH   1  33
TORSDOF 20
