REMARK SMILES O=C(/C=C/C(=O)Nc1ccc2[nH]ncc2c1)NCCCCNC(=O)c1ccc(-c2c3nc(c(-c4ccc(S(=O)(=O)[O-])cc4)c4ccc([nH]4)c(-c4ccc(S(=O)(=O)[O-])cc4)c4nc(c(-c5ccc(S(=O)(=O)[O-])cc5)c5ccc2[nH]5)C=C4)C=C3)cc1
REMARK SMILES IDX 20 1 19 2 18 3 17 4 1 5 2 6 3 8 4 9 5 10 6 11 7 12 8 14 9 15
REMARK SMILES IDX 16 16 10 17 15 18 11 19 14 20 12 21 13 22 21 24 22 25 23 26
REMARK SMILES IDX 24 28 25 29 26 30 84 31 27 32 83 33 28 34 29 35 30 36 77 37
REMARK SMILES IDX 31 38 82 39 76 40 78 41 32 42 81 43 75 44 74 45 33 47 63 48
REMARK SMILES IDX 44 49 62 50 45 51 48 52 61 53 79 54 46 55 47 56 60 58 80 59
REMARK SMILES IDX 49 60 34 61 35 62 43 63 36 64 42 65 37 66 38 67 39 68 40 69
REMARK SMILES IDX 41 70 64 71 65 72 73 73 66 74 72 75 67 76 68 77 69 78 70 79
REMARK SMILES IDX 71 80 50 81 51 82 59 83 52 84 58 85 53 86 54 87 55 88 56 89
REMARK SMILES IDX 57 90
REMARK H PARENT 17 7 7 13 12 23 22 27 78 46 48 57
REMARK Flexibility Score: inf
ROOT
ATOM      1  C   UNL     1       3.921  -3.288   2.252  1.00  0.00     0.023 C 
ENDROOT
BRANCH   1   2
ATOM      2  C   UNL     1       2.448  -2.924   2.046  1.00  0.00     0.023 C 
BRANCH   2   3
ATOM      3  C   UNL     1       2.168  -1.422   2.043  1.00  0.00     0.116 C 
BRANCH   3   4
ATOM      4  N   UNL     1       2.901  -0.758   0.985  1.00  0.00    -0.353 N 
ATOM      5  O   UNL     1       1.116  -0.625  -0.450  1.00  0.00    -0.270 OA
ATOM      6  C   UNL     1       2.307  -0.463  -0.208  1.00  0.00     0.244 C 
ATOM      7  H   UNL     1       3.845  -0.515   1.129  1.00  0.00     0.163 HD
BRANCH   6   8
ATOM      8  C   UNL     1       3.203   0.030  -1.272  1.00  0.00     0.077 C 
ATOM      9  C   UNL     1       4.256   0.841  -1.086  1.00  0.00     0.077 C 
BRANCH   9  10
ATOM     10  C   UNL     1       4.976   1.425  -2.247  1.00  0.00     0.248 C 
ATOM     11  O   UNL     1       6.203   1.363  -2.277  1.00  0.00    -0.270 OA
ATOM     12  N   UNL     1       4.274   1.973  -3.291  1.00  0.00    -0.322 N 
ATOM     13  H   UNL     1       4.802   2.174  -4.098  1.00  0.00     0.170 HD
BRANCH  12  14
ATOM     14  C   UNL     1       2.905   2.286  -3.369  1.00  0.00     0.042 A 
ATOM     15  C   UNL     1       2.183   2.740  -2.259  1.00  0.00     0.028 A 
ATOM     16  C   UNL     1       2.253   2.027  -4.582  1.00  0.00     0.038 A 
ATOM     17  C   UNL     1       0.786   2.786  -2.265  1.00  0.00     0.030 A 
ATOM     18  C   UNL     1       0.847   2.034  -4.594  1.00  0.00     0.022 A 
ATOM     19  C   UNL     1       0.154   2.382  -3.441  1.00  0.00     0.065 A 
ATOM     20  C   UNL     1      -0.165   1.712  -5.526  1.00  0.00     0.143 A 
ATOM     21  N   UNL     1      -1.169   2.204  -3.744  1.00  0.00    -0.278 N 
ATOM     22  N   UNL     1      -1.395   1.827  -5.016  1.00  0.00    -0.183 NA
ATOM     23  H   UNL     1      -1.892   2.340  -3.090  1.00  0.00     0.190 HD
ENDBRANCH  12  14
ENDBRANCH   9  10
ENDBRANCH   6   8
ENDBRANCH   3   4
ENDBRANCH   2   3
ENDBRANCH   1   2
BRANCH   1  24
ATOM     24  C   UNL     1       4.556  -2.713   3.513  1.00  0.00     0.116 C 
BRANCH  24  25
ATOM     25  N   UNL     1       3.930  -3.206   4.728  1.00  0.00    -0.352 N 
ATOM     26  C   UNL     1       4.520  -3.748   5.844  1.00  0.00     0.251 C 
ATOM     27  H   UNL     1       2.948  -3.144   4.755  1.00  0.00     0.163 HD
ATOM     28  O   UNL     1       3.824  -4.268   6.713  1.00  0.00    -0.269 OA
BRANCH  26  29
ATOM     29  C   UNL     1       5.992  -3.728   5.982  1.00  0.00     0.039 A 
ATOM     30  C   UNL     1       6.648  -4.893   6.389  1.00  0.00     0.014 A 
ATOM     31  C   UNL     1       6.726  -2.572   5.699  1.00  0.00     0.014 A 
ATOM     32  C   UNL     1       8.043  -4.916   6.449  1.00  0.00     0.010 A 
ATOM     33  C   UNL     1       8.118  -2.621   5.684  1.00  0.00     0.010 A 
ATOM     34  C   UNL     1       8.793  -3.792   6.061  1.00  0.00    -0.014 A 
BRANCH  34  35
ATOM     35  C   UNL     1      10.279  -3.829   6.033  1.00  0.00     0.031 A 
ATOM     36  C   UNL     1      11.079  -2.917   6.923  1.00  0.00     0.074 A 
ATOM     37  C   UNL     1      10.910  -4.644   5.164  1.00  0.00     0.049 A 
ATOM     38  N   UNL     1      12.377  -2.770   7.000  1.00  0.00    -0.248 NA
ATOM     39  C   UNL     1      10.322  -2.037   7.829  1.00  0.00     0.031 C 
ATOM     40  C   UNL     1      10.251  -5.549   4.219  1.00  0.00     0.029 A 
ATOM     41  N   UNL     1      12.249  -4.839   4.928  1.00  0.00    -0.354 N 
ATOM     42  C   UNL     1      12.592  -1.779   7.951  1.00  0.00     0.074 A 
ATOM     43  C   UNL     1      11.289  -1.319   8.381  1.00  0.00     0.031 C 
ATOM     44  C   UNL     1      11.185  -6.220   3.526  1.00  0.00     0.029 A 
ATOM     45  C   UNL     1      12.508  -5.762   3.941  1.00  0.00     0.049 A 
ATOM     46  H   UNL     1      12.957  -4.363   5.419  1.00  0.00     0.167 HD
ATOM     47  C   UNL     1      13.765  -1.308   8.438  1.00  0.00     0.031 A 
ATOM     48  C   UNL     1      13.675  -6.186   3.418  1.00  0.00     0.031 A 
ATOM     49  C   UNL     1      15.060  -1.766   8.007  1.00  0.00     0.049 A 
ATOM     50  C   UNL     1      14.965  -5.630   3.957  1.00  0.00     0.074 A 
ATOM     51  C   UNL     1      16.306  -1.383   8.472  1.00  0.00     0.029 A 
ATOM     52  N   UNL     1      15.278  -2.704   7.009  1.00  0.00    -0.354 N 
ATOM     53  N   UNL     1      15.147  -4.739   4.902  1.00  0.00    -0.248 NA
ATOM     54  C   UNL     1      16.208  -6.146   3.367  1.00  0.00     0.031 C 
ATOM     55  C   UNL     1      17.277  -2.043   7.714  1.00  0.00     0.029 A 
ATOM     56  C   UNL     1      16.638  -2.892   6.825  1.00  0.00     0.049 A 
ATOM     57  H   UNL     1      14.570  -3.168   6.505  1.00  0.00     0.167 HD
ATOM     58  C   UNL     1      16.525  -4.609   5.040  1.00  0.00     0.074 A 
ATOM     59  C   UNL     1      17.128  -5.525   4.093  1.00  0.00     0.031 C 
ATOM     60  C   UNL     1      17.227  -3.805   5.877  1.00  0.00     0.031 A 
BRANCH  47  61
ATOM     61  C   UNL     1      13.699  -0.231   9.492  1.00  0.00    -0.014 A 
ATOM     62  C   UNL     1      13.206  -0.505  10.782  1.00  0.00     0.010 A 
ATOM     63  C   UNL     1      14.172   1.062   9.204  1.00  0.00     0.010 A 
ATOM     64  C   UNL     1      13.144   0.504  11.746  1.00  0.00     0.020 A 
ATOM     65  C   UNL     1      14.142   2.066  10.176  1.00  0.00     0.020 A 
ATOM     66  C   UNL     1      13.610   1.785  11.436  1.00  0.00     0.054 A 
BRANCH  66  67
ATOM     67  S   UNL     1      13.532   3.070  12.714  1.00  0.00     0.124 S 
ATOM     68  O   UNL     1      12.096   3.328  12.793  1.00  0.00    -0.237 OA
ATOM     69  O   UNL     1      14.114   2.401  13.874  1.00  0.00    -0.237 OA
ATOM     70  O   UNL     1      14.330   4.160  12.160  1.00  0.00    -0.744 OA
ENDBRANCH  66  67
ENDBRANCH  47  61
BRANCH  48  71
ATOM     71  C   UNL     1      13.674  -7.198   2.324  1.00  0.00    -0.014 A 
ATOM     72  C   UNL     1      14.145  -8.503   2.552  1.00  0.00     0.010 A 
ATOM     73  C   UNL     1      13.186  -6.862   1.047  1.00  0.00     0.010 A 
ATOM     74  C   UNL     1      14.144  -9.447   1.520  1.00  0.00     0.020 A 
ATOM     75  C   UNL     1      13.154  -7.811   0.023  1.00  0.00     0.020 A 
ATOM     76  C   UNL     1      13.644  -9.096   0.263  1.00  0.00     0.054 A 
BRANCH  76  77
ATOM     77  S   UNL     1      13.603 -10.354  -1.044  1.00  0.00     0.124 S 
ATOM     78  O   UNL     1      15.017 -10.491  -1.379  1.00  0.00    -0.237 OA
ATOM     79  O   UNL     1      12.999 -11.496  -0.362  1.00  0.00    -0.237 OA
ATOM     80  O   UNL     1      12.770  -9.745  -2.079  1.00  0.00    -0.744 OA
ENDBRANCH  76  77
ENDBRANCH  48  71
BRANCH  60  81
ATOM     81  C   UNL     1      18.730  -3.902   5.837  1.00  0.00    -0.014 A 
ATOM     82  C   UNL     1      19.468  -3.418   4.742  1.00  0.00     0.010 A 
ATOM     83  C   UNL     1      19.418  -4.436   6.943  1.00  0.00     0.010 A 
ATOM     84  C   UNL     1      20.864  -3.497   4.740  1.00  0.00     0.020 A 
ATOM     85  C   UNL     1      20.814  -4.488   6.958  1.00  0.00     0.020 A 
ATOM     86  C   UNL     1      21.528  -4.030   5.849  1.00  0.00     0.054 A 
BRANCH  86  87
ATOM     87  S   UNL     1      23.341  -4.080   5.840  1.00  0.00     0.124 S 
ATOM     88  O   UNL     1      23.612  -5.136   4.869  1.00  0.00    -0.237 OA
ATOM     89  O   UNL     1      23.695  -2.728   5.414  1.00  0.00    -0.237 OA
ATOM     90  O   UNL     1      23.687  -4.401   7.223  1.00  0.00    -0.744 OA
ENDBRANCH  86  87
ENDBRANCH  60  81
ENDBRANCH  34  35
ENDBRANCH  26  29
ENDBRANCH  24  25
ENDBRANCH   1  24
TORSDOF 16
