REMARK SMILES C[N@@H+]1CCO[C@H](c2noc(-c3ccccc3C(=O)NCCCCNC(=O)c3ccc(-c4c5nc(c(-c6ccc(S(=O)(=O)[O-])cc6)c6ccc([nH]6)c(-c6ccc(S(=O)(=O)[O-])cc6)c6nc(c(-c7ccc(S(=O)(=O)[O-])cc7)c7ccc4[nH]7)C=C6)C=C5)cc3)n2)C1
REMARK SMILES IDX 22 1 21 2 20 3 19 4 17 5 18 6 16 8 11 9 12 10 13 11 15 12
REMARK SMILES IDX 14 13 10 14 7 15 8 16 87 17 9 18 6 19 1 20 2 21 3 22 88 23
REMARK SMILES IDX 4 25 5 26 23 27 24 28 25 29 26 31 27 32 28 33 86 34 29 35
REMARK SMILES IDX 85 36 30 37 31 38 32 39 79 40 33 41 84 42 78 43 80 44 34 45
REMARK SMILES IDX 83 46 77 47 76 48 35 50 65 51 46 52 64 53 47 54 50 55 63 56
REMARK SMILES IDX 81 57 48 58 49 59 62 61 82 62 51 63 36 64 37 65 45 66 38 67
REMARK SMILES IDX 44 68 39 69 40 70 41 71 42 72 43 73 66 74 67 75 75 76 68 77
REMARK SMILES IDX 74 78 69 79 70 80 71 81 72 82 73 83 52 84 53 85 61 86 54 87
REMARK SMILES IDX 60 88 55 89 56 90 57 91 58 92 59 93
REMARK H PARENT 19 7 2 24 24 30 80 49 50 60
REMARK Flexibility Score: inf
ROOT
ATOM      1  C   UNL     1      -2.272  -1.033  -2.868  1.00  0.00     0.023 C 
ENDROOT
BRANCH   1   2
ATOM      2  C   UNL     1      -2.627  -1.283  -4.355  1.00  0.00     0.023 C 
BRANCH   2   3
ATOM      3  C   UNL     1      -2.715  -2.744  -4.832  1.00  0.00     0.116 C 
BRANCH   3   4
ATOM      4  N   UNL     1      -3.182  -3.647  -3.796  1.00  0.00    -0.352 N 
ATOM      5  C   UNL     1      -3.093  -4.997  -3.622  1.00  0.00     0.252 C 
ATOM      6  O   UNL     1      -3.564  -5.483  -2.592  1.00  0.00    -0.269 OA
ATOM      7  H   UNL     1      -3.663  -3.191  -3.068  1.00  0.00     0.163 HD
BRANCH   5   8
ATOM      8  C   UNL     1      -2.622  -5.929  -4.668  1.00  0.00     0.052 A 
ATOM      9  C   UNL     1      -1.321  -6.004  -5.193  1.00  0.00     0.053 A 
ATOM     10  C   UNL     1      -1.034  -7.043  -6.104  1.00  0.00     0.015 A 
ATOM     11  C   UNL     1      -2.000  -7.989  -6.464  1.00  0.00     0.001 A 
ATOM     12  C   UNL     1      -3.587  -6.891  -5.037  1.00  0.00     0.014 A 
ATOM     13  C   UNL     1      -3.279  -7.913  -5.930  1.00  0.00     0.001 A 
BRANCH   9  14
ATOM     14  C   UNL     1      -0.265  -5.067  -4.838  1.00  0.00     0.258 A 
ATOM     15  C   UNL     1       0.861  -3.436  -4.135  1.00  0.00     0.206 A 
ATOM     16  N   UNL     1       1.311  -3.598  -5.388  1.00  0.00    -0.059 NA
ATOM     17  N   UNL     1      -0.062  -4.383  -3.739  1.00  0.00    -0.189 NA
ATOM     18  O   UNL     1       0.568  -4.686  -5.857  1.00  0.00    -0.334 OA
BRANCH  15  19
ATOM     19  C   UNL     1       1.165  -2.196  -3.311  1.00  0.00     0.245 C 
ATOM     20  C   UNL     1       0.029  -1.844   1.074  1.00  0.00     0.332 C 
ATOM     21  N   UNL     1       0.289  -1.346  -0.251  1.00  0.00    -0.333 N 
ATOM     22  C   UNL     1      -0.622   0.093  -0.906  1.00  0.00     0.290 C 
ATOM     23  C   UNL     1       1.002  -2.550  -1.405  1.00  0.00     0.303 C 
ATOM     24  H   UNL     1       1.080  -0.736  -0.045  1.00  0.00     0.348 HD
ATOM     25  C   UNL     1      -0.413   0.619  -2.793  1.00  0.00     0.222 C 
ATOM     26  O   UNL     1       0.250  -0.696  -3.948  1.00  0.00    -0.358 OA
ENDBRANCH  15  19
ENDBRANCH   9  14
ENDBRANCH   5   8
ENDBRANCH   3   4
ENDBRANCH   2   3
ENDBRANCH   1   2
BRANCH   1  27
ATOM     27  C   UNL     1      -0.789  -1.524  -2.294  1.00  0.00     0.116 C 
BRANCH  27  28
ATOM     28  N   UNL     1       0.967  -0.575  -2.116  1.00  0.00    -0.352 N 
ATOM     29  C   UNL     1       2.096  -0.045  -1.374  1.00  0.00     0.251 C 
ATOM     30  H   UNL     1       1.183  -0.336  -3.046  1.00  0.00     0.163 HD
ATOM     31  O   UNL     1       3.225  -0.318  -1.780  1.00  0.00    -0.269 OA
BRANCH  29  32
ATOM     32  C   UNL     1       1.999   1.147  -0.471  1.00  0.00     0.039 A 
ATOM     33  C   UNL     1       2.103   2.431  -1.020  1.00  0.00     0.014 A 
ATOM     34  C   UNL     1       1.747   1.025   0.890  1.00  0.00     0.014 A 
ATOM     35  C   UNL     1       1.780   3.563  -0.249  1.00  0.00     0.010 A 
ATOM     36  C   UNL     1       1.285   2.133   1.608  1.00  0.00     0.010 A 
ATOM     37  C   UNL     1       1.261   3.424   1.048  1.00  0.00    -0.014 A 
BRANCH  37  38
ATOM     38  C   UNL     1       0.671   4.562   1.838  1.00  0.00     0.031 A 
ATOM     39  C   UNL     1       0.981   4.686   3.315  1.00  0.00     0.074 A 
ATOM     40  C   UNL     1      -0.267   5.390   1.323  1.00  0.00     0.049 A 
ATOM     41  N   UNL     1       0.292   5.271   4.263  1.00  0.00    -0.248 NA
ATOM     42  C   UNL     1       2.173   3.974   3.797  1.00  0.00     0.031 C 
ATOM     43  C   UNL     1      -0.755   5.400  -0.058  1.00  0.00     0.029 A 
ATOM     44  N   UNL     1      -1.008   6.382   1.930  1.00  0.00    -0.354 N 
ATOM     45  C   UNL     1       0.862   4.842   5.459  1.00  0.00     0.074 A 
ATOM     46  C   UNL     1       1.973   3.983   5.107  1.00  0.00     0.031 C 
ATOM     47  C   UNL     1      -1.676   6.367  -0.201  1.00  0.00     0.029 A 
ATOM     48  C   UNL     1      -1.901   7.008   1.090  1.00  0.00     0.049 A 
ATOM     49  H   UNL     1      -0.908   6.621   2.880  1.00  0.00     0.167 HD
ATOM     50  C   UNL     1       0.480   5.119   6.731  1.00  0.00     0.031 A 
ATOM     51  C   UNL     1      -2.813   7.973   1.322  1.00  0.00     0.031 A 
ATOM     52  C   UNL     1      -0.491   6.123   7.078  1.00  0.00     0.049 A 
ATOM     53  C   UNL     1      -2.996   8.510   2.712  1.00  0.00     0.074 A 
ATOM     54  C   UNL     1      -0.857   6.575   8.334  1.00  0.00     0.029 A 
ATOM     55  N   UNL     1      -1.194   6.884   6.159  1.00  0.00    -0.354 N 
ATOM     56  N   UNL     1      -2.486   8.062   3.833  1.00  0.00    -0.248 NA
ATOM     57  C   UNL     1      -3.866   9.685   2.870  1.00  0.00     0.031 C 
ATOM     58  C   UNL     1      -1.761   7.633   8.173  1.00  0.00     0.029 A 
ATOM     59  C   UNL     1      -1.947   7.841   6.816  1.00  0.00     0.049 A 
ATOM     60  H   UNL     1      -1.164   6.762   5.183  1.00  0.00     0.167 HD
ATOM     61  C   UNL     1      -2.961   8.908   4.828  1.00  0.00     0.074 A 
ATOM     62  C   UNL     1      -3.788   9.903   4.177  1.00  0.00     0.031 C 
ATOM     63  C   UNL     1      -2.734   8.853   6.162  1.00  0.00     0.031 A 
BRANCH  50  64
ATOM     64  C   UNL     1       1.098   4.301   7.835  1.00  0.00    -0.014 A 
ATOM     65  C   UNL     1       2.449   4.435   8.200  1.00  0.00     0.010 A 
ATOM     66  C   UNL     1       0.300   3.357   8.510  1.00  0.00     0.010 A 
ATOM     67  C   UNL     1       3.012   3.578   9.151  1.00  0.00     0.020 A 
ATOM     68  C   UNL     1       0.851   2.522   9.486  1.00  0.00     0.020 A 
ATOM     69  C   UNL     1       2.214   2.614   9.773  1.00  0.00     0.054 A 
BRANCH  69  70
ATOM     70  S   UNL     1       2.957   1.479  10.978  1.00  0.00     0.124 S 
ATOM     71  O   UNL     1       3.372   0.369  10.124  1.00  0.00    -0.237 OA
ATOM     72  O   UNL     1       4.046   2.267  11.551  1.00  0.00    -0.237 OA
ATOM     73  O   UNL     1       1.856   1.189  11.893  1.00  0.00    -0.744 OA
ENDBRANCH  69  70
ENDBRANCH  50  64
BRANCH  51  74
ATOM     74  C   UNL     1      -3.594   8.530   0.185  1.00  0.00    -0.014 A 
ATOM     75  C   UNL     1      -3.178   9.728  -0.423  1.00  0.00     0.010 A 
ATOM     76  C   UNL     1      -4.709   7.848  -0.332  1.00  0.00     0.010 A 
ATOM     77  C   UNL     1      -3.859  10.232  -1.534  1.00  0.00     0.020 A 
ATOM     78  C   UNL     1      -5.383   8.341  -1.454  1.00  0.00     0.020 A 
ATOM     79  C   UNL     1      -4.954   9.532  -2.047  1.00  0.00     0.054 A 
BRANCH  79  80
ATOM     80  S   UNL     1      -5.759  10.149  -3.553  1.00  0.00     0.124 S 
ATOM     81  O   UNL     1      -6.598  11.222  -3.032  1.00  0.00    -0.237 OA
ATOM     82  O   UNL     1      -4.624  10.573  -4.371  1.00  0.00    -0.237 OA
ATOM     83  O   UNL     1      -6.474   8.978  -4.058  1.00  0.00    -0.744 OA
ENDBRANCH  79  80
ENDBRANCH  51  74
BRANCH  63  84
ATOM     84  C   UNL     1      -3.330   9.933   7.017  1.00  0.00    -0.014 A 
ATOM     85  C   UNL     1      -4.672   9.876   7.428  1.00  0.00     0.010 A 
ATOM     86  C   UNL     1      -2.510  10.979   7.476  1.00  0.00     0.010 A 
ATOM     87  C   UNL     1      -5.189  10.856   8.281  1.00  0.00     0.020 A 
ATOM     88  C   UNL     1      -3.021  11.955   8.336  1.00  0.00     0.020 A 
ATOM     89  C   UNL     1      -4.360  11.890   8.728  1.00  0.00     0.054 A 
BRANCH  89  90
ATOM     90  S   UNL     1      -5.028  13.116   9.888  1.00  0.00     0.124 S 
ATOM     91  O   UNL     1      -5.760  14.010   8.995  1.00  0.00    -0.237 OA
ATOM     92  O   UNL     1      -5.852  12.305  10.780  1.00  0.00    -0.237 OA
ATOM     93  O   UNL     1      -3.834  13.691  10.505  1.00  0.00    -0.744 OA
ENDBRANCH  89  90
ENDBRANCH  63  84
ENDBRANCH  37  38
ENDBRANCH  29  32
ENDBRANCH  27  28
ENDBRANCH   1  27
TORSDOF 16
