REMARK SMILES O=C(NCCCCNC(=O)[C@@H](Cc1ccncc1)c1ccc(Cl)cc1)c1ccc(-c2c3nc(c(-c4ccc(S(=O)(=O)[O-])cc4)c4ccc([nH]4)c(-c4ccc(S(=O)(=O)[O-])cc4)c4nc(c(-c5ccc(S(=O)(=O)[O-])cc5)c5ccc2[nH]5)C=C4)C=C3)cc1
REMARK SMILES IDX 5 1 4 2 3 3 1 4 2 5 26 7 27 8 85 9 28 10 84 11 29 12 30 13
REMARK SMILES IDX 31 14 78 15 32 16 83 17 77 18 79 19 33 20 82 21 76 22 75 23
REMARK SMILES IDX 34 25 64 26 45 27 63 28 46 29 49 30 62 31 80 32 47 33 48 34
REMARK SMILES IDX 61 36 81 37 50 38 35 39 36 40 44 41 37 42 43 43 38 44 39 45
REMARK SMILES IDX 40 46 41 47 42 48 65 49 66 50 74 51 67 52 73 53 68 54 69 55
REMARK SMILES IDX 70 56 71 57 72 58 51 59 52 60 60 61 53 62 59 63 54 64 55 65
REMARK SMILES IDX 56 66 57 67 58 68 6 69 7 70 8 71 9 72 10 74 11 75 12 76
REMARK SMILES IDX 13 77 14 78 18 79 15 80 17 81 16 82 19 83 20 84 25 85 21 86
REMARK SMILES IDX 24 87 22 88 23 89
REMARK H PARENT 3 6 79 24 49 35 8 73
REMARK Flexibility Score: inf
ROOT
ATOM      1  C   UNL     1       5.579  -0.587  -2.146  1.00  0.00     0.023 C 
ENDROOT
BRANCH   1   2
ATOM      2  C   UNL     1       4.866  -0.062  -0.907  1.00  0.00     0.116 C 
BRANCH   2   3
ATOM      3  N   UNL     1       3.410   0.017  -1.011  1.00  0.00    -0.352 N 
ATOM      4  O   UNL     1       1.274  -0.168  -0.254  1.00  0.00    -0.269 OA
ATOM      5  C   UNL     1       2.476  -0.271  -0.035  1.00  0.00     0.251 C 
ATOM      6  H   UNL     1       3.053   0.309  -1.880  1.00  0.00     0.163 HD
BRANCH   5   7
ATOM      7  C   UNL     1       2.966  -0.765   1.266  1.00  0.00     0.039 A 
ATOM      8  C   UNL     1       3.979  -0.067   1.918  1.00  0.00     0.014 A 
ATOM      9  C   UNL     1       2.548  -2.017   1.725  1.00  0.00     0.014 A 
ATOM     10  C   UNL     1       4.739  -0.730   2.868  1.00  0.00     0.010 A 
ATOM     11  C   UNL     1       3.238  -2.626   2.778  1.00  0.00     0.010 A 
ATOM     12  C   UNL     1       4.385  -2.019   3.311  1.00  0.00    -0.014 A 
BRANCH  12  13
ATOM     13  C   UNL     1       5.250  -2.682   4.323  1.00  0.00     0.031 A 
ATOM     14  C   UNL     1       5.961  -3.982   4.034  1.00  0.00     0.074 A 
ATOM     15  C   UNL     1       5.480  -2.034   5.483  1.00  0.00     0.049 A 
ATOM     16  N   UNL     1       6.800  -4.642   4.794  1.00  0.00    -0.248 NA
ATOM     17  C   UNL     1       5.695  -4.633   2.741  1.00  0.00     0.031 C 
ATOM     18  C   UNL     1       4.846  -0.773   5.882  1.00  0.00     0.029 A 
ATOM     19  N   UNL     1       6.349  -2.304   6.508  1.00  0.00    -0.354 N 
ATOM     20  C   UNL     1       7.127  -5.799   4.096  1.00  0.00     0.074 A 
ATOM     21  C   UNL     1       6.394  -5.757   2.849  1.00  0.00     0.031 C 
ATOM     22  C   UNL     1       5.423  -0.325   7.004  1.00  0.00     0.029 A 
ATOM     23  C   UNL     1       6.401  -1.307   7.454  1.00  0.00     0.049 A 
ATOM     24  H   UNL     1       6.883  -3.129   6.561  1.00  0.00     0.167 HD
ATOM     25  C   UNL     1       7.958  -6.806   4.462  1.00  0.00     0.031 A 
ATOM     26  C   UNL     1       7.145  -1.191   8.568  1.00  0.00     0.031 A 
ATOM     27  C   UNL     1       8.707  -6.832   5.693  1.00  0.00     0.049 A 
ATOM     28  C   UNL     1       8.094  -2.293   8.924  1.00  0.00     0.074 A 
ATOM     29  C   UNL     1       9.561  -7.815   6.164  1.00  0.00     0.029 A 
ATOM     30  N   UNL     1       8.708  -5.819   6.639  1.00  0.00    -0.354 N 
ATOM     31  N   UNL     1       8.347  -3.400   8.267  1.00  0.00    -0.248 NA
ATOM     32  C   UNL     1       8.843  -2.140  10.176  1.00  0.00     0.031 C 
ATOM     33  C   UNL     1      10.059  -7.406   7.407  1.00  0.00     0.029 A 
ATOM     34  C   UNL     1       9.546  -6.152   7.691  1.00  0.00     0.049 A 
ATOM     35  H   UNL     1       8.188  -4.985   6.574  1.00  0.00     0.167 HD
ATOM     36  C   UNL     1       9.270  -4.089   9.041  1.00  0.00     0.074 A 
ATOM     37  C   UNL     1       9.566  -3.252  10.187  1.00  0.00     0.031 C 
ATOM     38  C   UNL     1       9.808  -5.315   8.832  1.00  0.00     0.031 A 
BRANCH  25  39
ATOM     39  C   UNL     1       8.088  -7.984   3.532  1.00  0.00    -0.014 A 
ATOM     40  C   UNL     1       8.850  -7.904   2.354  1.00  0.00     0.010 A 
ATOM     41  C   UNL     1       7.488  -9.211   3.876  1.00  0.00     0.010 A 
ATOM     42  C   UNL     1       8.988  -9.021   1.522  1.00  0.00     0.020 A 
ATOM     43  C   UNL     1       7.640 -10.335   3.058  1.00  0.00     0.020 A 
ATOM     44  C   UNL     1       8.379 -10.228   1.878  1.00  0.00     0.054 A 
BRANCH  44  45
ATOM     45  S   UNL     1       8.601 -11.672   0.800  1.00  0.00     0.124 S 
ATOM     46  O   UNL     1       7.681 -11.373  -0.295  1.00  0.00    -0.237 OA
ATOM     47  O   UNL     1      10.020 -11.609   0.462  1.00  0.00    -0.237 OA
ATOM     48  O   UNL     1       8.216 -12.798   1.647  1.00  0.00    -0.744 OA
ENDBRANCH  44  45
ENDBRANCH  25  39
BRANCH  26  49
ATOM     49  C   UNL     1       6.982   0.006   9.433  1.00  0.00    -0.014 A 
ATOM     50  C   UNL     1       7.983   0.989   9.496  1.00  0.00     0.010 A 
ATOM     51  C   UNL     1       5.787   0.192  10.153  1.00  0.00     0.010 A 
ATOM     52  C   UNL     1       7.792   2.140  10.267  1.00  0.00     0.020 A 
ATOM     53  C   UNL     1       5.582   1.353  10.900  1.00  0.00     0.020 A 
ATOM     54  C   UNL     1       6.590   2.316  10.960  1.00  0.00     0.054 A 
BRANCH  54  55
ATOM     55  S   UNL     1       6.313   3.851  11.886  1.00  0.00     0.124 S 
ATOM     56  O   UNL     1       6.963   3.557  13.158  1.00  0.00    -0.237 OA
ATOM     57  O   UNL     1       6.973   4.854  11.054  1.00  0.00    -0.237 OA
ATOM     58  O   UNL     1       4.856   3.956  11.932  1.00  0.00    -0.744 OA
ENDBRANCH  54  55
ENDBRANCH  26  49
BRANCH  38  59
ATOM     59  C   UNL     1      10.759  -5.816   9.881  1.00  0.00    -0.014 A 
ATOM     60  C   UNL     1      10.278  -6.279  11.119  1.00  0.00     0.010 A 
ATOM     61  C   UNL     1      12.141  -5.818   9.631  1.00  0.00     0.010 A 
ATOM     62  C   UNL     1      11.170  -6.693  12.110  1.00  0.00     0.020 A 
ATOM     63  C   UNL     1      13.035  -6.250  10.613  1.00  0.00     0.020 A 
ATOM     64  C   UNL     1      12.544  -6.665  11.854  1.00  0.00     0.054 A 
BRANCH  64  65
ATOM     65  S   UNL     1      13.690  -7.206  13.152  1.00  0.00     0.124 S 
ATOM     66  O   UNL     1      13.750  -6.027  14.011  1.00  0.00    -0.237 OA
ATOM     67  O   UNL     1      13.010  -8.366  13.723  1.00  0.00    -0.237 OA
ATOM     68  O   UNL     1      14.918  -7.510  12.421  1.00  0.00    -0.744 OA
ENDBRANCH  64  65
ENDBRANCH  38  59
ENDBRANCH  12  13
ENDBRANCH   5   7
ENDBRANCH   2   3
ENDBRANCH   1   2
BRANCH   1  69
ATOM     69  C   UNL     1       5.223   0.126  -3.437  1.00  0.00     0.023 C 
BRANCH  69  70
ATOM     70  C   UNL     1       5.495   1.624  -3.449  1.00  0.00     0.116 C 
BRANCH  70  71
ATOM     71  N   UNL     1       6.749   1.944  -4.084  1.00  0.00    -0.356 N 
ATOM     72  C   UNL     1       7.024   2.735  -5.150  1.00  0.00     0.227 C 
ATOM     73  H   UNL     1       7.537   1.518  -3.675  1.00  0.00     0.163 HD
ATOM     74  O   UNL     1       8.223   2.882  -5.425  1.00  0.00    -0.274 OA
BRANCH  72  75
ATOM     75  C   UNL     1       5.960   3.429  -6.016  1.00  0.00     0.113 C 
BRANCH  75  76
ATOM     76  C   UNL     1       5.093   2.524  -6.931  1.00  0.00     0.054 C 
BRANCH  76  77
ATOM     77  C   UNL     1       3.900   1.746  -6.440  1.00  0.00    -0.044 A 
ATOM     78  C   UNL     1       2.704   2.374  -6.087  1.00  0.00     0.024 A 
ATOM     79  C   UNL     1       3.929   0.346  -6.416  1.00  0.00     0.024 A 
ATOM     80  C   UNL     1       1.640   1.600  -5.645  1.00  0.00     0.111 A 
ATOM     81  C   UNL     1       2.808  -0.346  -5.978  1.00  0.00     0.111 A 
ATOM     82  N   UNL     1       1.672   0.254  -5.572  1.00  0.00    -0.265 NA
ENDBRANCH  76  77
ENDBRANCH  75  76
BRANCH  75  83
ATOM     83  C   UNL     1       5.385   4.723  -5.434  1.00  0.00    -0.035 A 
ATOM     84  C   UNL     1       5.932   5.951  -5.862  1.00  0.00     0.006 A 
ATOM     85  C   UNL     1       4.357   4.779  -4.485  1.00  0.00     0.006 A 
ATOM     86  C   UNL     1       5.448   7.176  -5.390  1.00  0.00     0.021 A 
ATOM     87  C   UNL     1       3.868   6.003  -4.009  1.00  0.00     0.021 A 
ATOM     88  C   UNL     1       4.410   7.196  -4.468  1.00  0.00     0.041 A 
ATOM     89  Cl  UNL     1       3.794   8.697  -3.899  1.00  0.00    -0.084 Cl
ENDBRANCH  75  83
ENDBRANCH  72  75
ENDBRANCH  70  71
ENDBRANCH  69  70
ENDBRANCH   1  69
TORSDOF 17
