REMARK SMILES CCN1C[C@@H](C(=O)NCCCCNC(=O)c2ccc(-c3c4nc(c(-c5ccc(S(=O)(=O)[O-])cc5)c5ccc([nH]5)c(-c5ccc(S(=O)(=O)[O-])cc5)c5nc(c(-c6ccc(S(=O)(=O)[O-])cc6)c6ccc3[nH]6)C=C5)C=C4)cc2)CC1=O
REMARK SMILES IDX 11 1 10 2 9 3 8 4 6 5 7 6 5 8 3 9 4 10 77 11 76 12 78 13
REMARK SMILES IDX 2 14 1 15 12 16 13 17 14 18 15 20 16 21 17 22 75 23 18 24
REMARK SMILES IDX 74 25 19 26 20 27 21 28 68 29 22 30 73 31 67 32 69 33 23 34
REMARK SMILES IDX 72 35 66 36 65 37 24 39 54 40 35 41 53 42 36 43 39 44 52 45
REMARK SMILES IDX 70 46 37 47 38 48 51 50 71 51 40 52 25 53 26 54 34 55 27 56
REMARK SMILES IDX 33 57 28 58 29 59 30 60 31 61 32 62 55 63 56 64 64 65 57 66
REMARK SMILES IDX 63 67 58 68 59 69 60 70 61 71 62 72 41 73 42 74 50 75 43 76
REMARK SMILES IDX 49 77 44 78 45 79 46 80 47 81 48 82
REMARK H PARENT 8 7 13 19 69 38 39 49
REMARK Flexibility Score: inf
ROOT
ATOM      1  C   UNL     1      -1.618  -4.232   5.773  1.00  0.00     0.023 C 
ENDROOT
BRANCH   1   2
ATOM      2  C   UNL     1      -1.425  -4.075   4.264  1.00  0.00     0.023 C 
BRANCH   2   3
ATOM      3  C   UNL     1      -0.372  -3.048   3.856  1.00  0.00     0.116 C 
BRANCH   3   4
ATOM      4  N   UNL     1       0.962  -3.441   4.276  1.00  0.00    -0.356 N 
ATOM      5  C   UNL     1       2.079  -3.730   3.561  1.00  0.00     0.225 C 
ATOM      6  O   UNL     1       3.097  -4.033   4.190  1.00  0.00    -0.275 OA
ATOM      7  H   UNL     1       1.076  -3.510   5.251  1.00  0.00     0.163 HD
BRANCH   5   8
ATOM      8  C   UNL     1       2.124  -3.668   2.049  1.00  0.00     0.107 C 
ATOM      9  N   UNL     1       0.949  -2.449   0.416  1.00  0.00    -0.342 N 
ATOM     10  C   UNL     1       1.864  -2.269   1.517  1.00  0.00     0.133 C 
ATOM     11  C   UNL     1       0.532  -3.758   0.261  1.00  0.00     0.223 C 
ATOM     12  C   UNL     1       1.149  -4.603   1.341  1.00  0.00     0.115 C 
ATOM     13  O   UNL     1      -0.231  -4.174  -0.599  1.00  0.00    -0.275 OA
BRANCH   9  14
ATOM     14  C   UNL     1       0.500  -1.383  -0.466  1.00  0.00     0.116 C 
ATOM     15  C   UNL     1       0.929   0.019  -0.073  1.00  0.00     0.027 C 
ENDBRANCH   9  14
ENDBRANCH   5   8
ENDBRANCH   3   4
ENDBRANCH   2   3
ENDBRANCH   1   2
BRANCH   1  16
ATOM     16  C   UNL     1      -1.939  -2.946   6.526  1.00  0.00     0.116 C 
BRANCH  16  17
ATOM     17  N   UNL     1      -3.141  -2.288   6.039  1.00  0.00    -0.352 N 
ATOM     18  C   UNL     1      -4.213  -1.801   6.749  1.00  0.00     0.251 C 
ATOM     19  H   UNL     1      -3.195  -2.175   5.062  1.00  0.00     0.163 HD
ATOM     20  O   UNL     1      -5.209  -1.402   6.154  1.00  0.00    -0.269 OA
BRANCH  18  21
ATOM     21  C   UNL     1      -4.172  -1.791   8.227  1.00  0.00     0.039 A 
ATOM     22  C   UNL     1      -5.284  -2.249   8.937  1.00  0.00     0.014 A 
ATOM     23  C   UNL     1      -3.037  -1.347   8.911  1.00  0.00     0.014 A 
ATOM     24  C   UNL     1      -5.231  -2.327  10.330  1.00  0.00     0.010 A 
ATOM     25  C   UNL     1      -2.956  -1.503  10.292  1.00  0.00     0.010 A 
ATOM     26  C   UNL     1      -4.053  -1.991  11.018  1.00  0.00    -0.014 A 
BRANCH  26  27
ATOM     27  C   UNL     1      -3.950  -2.148  12.492  1.00  0.00     0.031 A 
ATOM     28  C   UNL     1      -3.719  -0.946  13.370  1.00  0.00     0.074 A 
ATOM     29  C   UNL     1      -4.011  -3.380  13.038  1.00  0.00     0.049 A 
ATOM     30  N   UNL     1      -3.565  -0.891  14.668  1.00  0.00    -0.248 NA
ATOM     31  C   UNL     1      -3.625   0.361  12.700  1.00  0.00     0.031 C 
ATOM     32  C   UNL     1      -4.191  -4.629  12.294  1.00  0.00     0.029 A 
ATOM     33  N   UNL     1      -3.926  -3.786  14.347  1.00  0.00    -0.354 N 
ATOM     34  C   UNL     1      -3.343   0.448  14.967  1.00  0.00     0.074 A 
ATOM     35  C   UNL     1      -3.327   1.164  13.711  1.00  0.00     0.031 C 
ATOM     36  C   UNL     1      -4.239  -5.655  13.159  1.00  0.00     0.029 A 
ATOM     37  C   UNL     1      -4.047  -5.146  14.514  1.00  0.00     0.049 A 
ATOM     38  H   UNL     1      -3.791  -3.162  15.096  1.00  0.00     0.167 HD
ATOM     39  C   UNL     1      -3.189   1.034  16.179  1.00  0.00     0.031 A 
ATOM     40  C   UNL     1      -4.004  -5.901  15.629  1.00  0.00     0.031 A 
ATOM     41  C   UNL     1      -3.212   0.319  17.428  1.00  0.00     0.049 A 
ATOM     42  C   UNL     1      -3.812  -5.229  16.961  1.00  0.00     0.074 A 
ATOM     43  C   UNL     1      -3.117   0.829  18.711  1.00  0.00     0.029 A 
ATOM     44  N   UNL     1      -3.336  -1.057  17.552  1.00  0.00    -0.354 N 
ATOM     45  N   UNL     1      -3.670  -3.952  17.228  1.00  0.00    -0.248 NA
ATOM     46  C   UNL     1      -3.787  -6.099  18.145  1.00  0.00     0.031 C 
ATOM     47  C   UNL     1      -3.122  -0.244  19.608  1.00  0.00     0.029 A 
ATOM     48  C   UNL     1      -3.292  -1.416  18.889  1.00  0.00     0.049 A 
ATOM     49  H   UNL     1      -3.440  -1.685  16.802  1.00  0.00     0.167 HD
ATOM     50  C   UNL     1      -3.572  -3.864  18.613  1.00  0.00     0.074 A 
ATOM     51  C   UNL     1      -3.686  -5.214  19.126  1.00  0.00     0.031 C 
ATOM     52  C   UNL     1      -3.405  -2.764  19.388  1.00  0.00     0.031 A 
BRANCH  39  53
ATOM     53  C   UNL     1      -2.975   2.526  16.212  1.00  0.00    -0.014 A 
ATOM     54  C   UNL     1      -4.005   3.417  15.857  1.00  0.00     0.010 A 
ATOM     55  C   UNL     1      -1.743   3.046  16.648  1.00  0.00     0.010 A 
ATOM     56  C   UNL     1      -3.792   4.798  15.899  1.00  0.00     0.020 A 
ATOM     57  C   UNL     1      -1.537   4.427  16.722  1.00  0.00     0.020 A 
ATOM     58  C   UNL     1      -2.559   5.294  16.330  1.00  0.00     0.054 A 
BRANCH  58  59
ATOM     59  S   UNL     1      -2.322   7.091  16.400  1.00  0.00     0.124 S 
ATOM     60  O   UNL     1      -2.262   7.441  14.983  1.00  0.00    -0.237 OA
ATOM     61  O   UNL     1      -3.518   7.543  17.108  1.00  0.00    -0.237 OA
ATOM     62  O   UNL     1      -1.069   7.249  17.134  1.00  0.00    -0.744 OA
ENDBRANCH  58  59
ENDBRANCH  39  53
BRANCH  40  63
ATOM     63  C   UNL     1      -4.163  -7.380  15.535  1.00  0.00    -0.014 A 
ATOM     64  C   UNL     1      -5.315  -8.008  16.041  1.00  0.00     0.010 A 
ATOM     65  C   UNL     1      -3.165  -8.167  14.933  1.00  0.00     0.010 A 
ATOM     66  C   UNL     1      -5.456  -9.398  15.966  1.00  0.00     0.020 A 
ATOM     67  C   UNL     1      -3.316  -9.553  14.828  1.00  0.00     0.020 A 
ATOM     68  C   UNL     1      -4.456 -10.161  15.357  1.00  0.00     0.054 A 
BRANCH  68  69
ATOM     69  S   UNL     1      -4.683 -11.957  15.230  1.00  0.00     0.124 S 
ATOM     70  O   UNL     1      -4.501 -12.384  16.613  1.00  0.00    -0.237 OA
ATOM     71  O   UNL     1      -6.042 -12.065  14.706  1.00  0.00    -0.237 OA
ATOM     72  O   UNL     1      -3.631 -12.369  14.303  1.00  0.00    -0.744 OA
ENDBRANCH  68  69
ENDBRANCH  40  63
BRANCH  52  73
ATOM     73  C   UNL     1      -3.376  -2.965  20.881  1.00  0.00    -0.014 A 
ATOM     74  C   UNL     1      -2.292  -3.595  21.517  1.00  0.00     0.010 A 
ATOM     75  C   UNL     1      -4.435  -2.469  21.665  1.00  0.00     0.010 A 
ATOM     76  C   UNL     1      -2.285  -3.758  22.905  1.00  0.00     0.020 A 
ATOM     77  C   UNL     1      -4.416  -2.601  23.056  1.00  0.00     0.020 A 
ATOM     78  C   UNL     1      -3.348  -3.260  23.666  1.00  0.00     0.054 A 
BRANCH  78  79
ATOM     79  S   UNL     1      -3.296  -3.452  25.468  1.00  0.00     0.124 S 
ATOM     80  O   UNL     1      -3.546  -4.882  25.628  1.00  0.00    -0.237 OA
ATOM     81  O   UNL     1      -1.944  -3.009  25.799  1.00  0.00    -0.237 OA
ATOM     82  O   UNL     1      -4.365  -2.576  25.942  1.00  0.00    -0.744 OA
ENDBRANCH  78  79
ENDBRANCH  52  73
ENDBRANCH  26  27
ENDBRANCH  18  21
ENDBRANCH  16  17
ENDBRANCH   1  16
TORSDOF 15
