REMARK SMILES CC(C)Cc1ccc(-c2cc(Cl)cc3c2O[C@H](C(F)(F)F)C(C(=O)NCCCCNC(=O)c2ccc(-c4c5nc(c(-c6ccc(S(=O)(=O)[O-])cc6)c6ccc([nH]6)c(-c6ccc(S(=O)(=O)[O-])cc6)c6nc(c(-c7ccc(S(=O)(=O)[O-])cc7)c7ccc4[nH]7)C=C6)C=C5)cc2)=C3)cc1
REMARK SMILES IDX 27 1 26 2 25 3 23 4 24 5 22 7 9 8 10 9 15 10 11 11 14 12
REMARK SMILES IDX 16 13 12 14 13 15 93 16 17 17 8 18 5 19 6 20 95 21 7 22
REMARK SMILES IDX 94 23 4 24 2 25 1 26 3 27 18 28 19 29 20 30 21 31 28 32
REMARK SMILES IDX 29 33 30 34 31 35 32 37 33 38 34 39 92 40 35 41 91 42 36 43
REMARK SMILES IDX 37 44 38 45 85 46 39 47 90 48 84 49 86 50 40 51 89 52 83 53
REMARK SMILES IDX 82 54 41 56 71 57 52 58 70 59 53 60 56 61 69 62 87 63 54 64
REMARK SMILES IDX 55 65 68 67 88 68 57 69 42 70 43 71 51 72 44 73 50 74 45 75
REMARK SMILES IDX 46 76 47 77 48 78 49 79 72 80 73 81 81 82 74 83 80 84 75 85
REMARK SMILES IDX 76 86 77 87 78 88 79 89 58 90 59 91 67 92 60 93 66 94 61 95
REMARK SMILES IDX 62 96 63 97 64 98 65 99
REMARK H PARENT 25 6 30 36 86 55 56 66
REMARK Flexibility Score: inf
ROOT
ATOM      1  C   UNL     1      -2.544  12.746   3.602  1.00  0.00     0.023 C 
ENDROOT
BRANCH   1   2
ATOM      2  C   UNL     1      -3.447  11.515   3.451  1.00  0.00     0.116 C 
BRANCH   2   3
ATOM      3  N   UNL     1      -3.349  11.001   2.102  1.00  0.00    -0.352 N 
ATOM      4  C   UNL     1      -3.251   9.722   1.673  1.00  0.00     0.251 C 
ATOM      5  O   UNL     1      -2.693   9.501   0.603  1.00  0.00    -0.270 OA
ATOM      6  H   UNL     1      -3.355  11.682   1.391  1.00  0.00     0.163 HD
BRANCH   4   7
ATOM      7  C   UNL     1      -3.886   8.639   2.486  1.00  0.00     0.067 C 
ATOM      8  C   UNL     1      -2.810   5.514   0.119  1.00  0.00     0.026 A 
ATOM      9  C   UNL     1      -3.156   5.830  -1.220  1.00  0.00     0.033 A 
ATOM     10  C   UNL     1      -3.371   6.322   1.119  1.00  0.00     0.135 A 
ATOM     11  C   UNL     1      -4.101   6.801  -1.541  1.00  0.00     0.042 A 
ATOM     12  C   UNL     1      -4.404   7.232   0.783  1.00  0.00     0.019 A 
ATOM     13  O   UNL     1      -2.922   6.302   2.430  1.00  0.00    -0.475 OA
ATOM     14  Cl  UNL     1      -4.437   7.149  -3.190  1.00  0.00    -0.084 Cl
ATOM     15  C   UNL     1      -4.779   7.467  -0.537  1.00  0.00     0.032 A 
ATOM     16  C   UNL     1      -4.947   8.088   1.863  1.00  0.00     0.025 C 
ATOM     17  C   UNL     1      -2.876   7.649   3.062  1.00  0.00     0.314 C 
BRANCH   8  18
ATOM     18  C   UNL     1      -2.038   4.260   0.290  1.00  0.00    -0.015 A 
ATOM     19  C   UNL     1      -1.194   1.604  -0.304  1.00  0.00    -0.048 A 
ATOM     20  C   UNL     1      -0.501   2.706  -0.814  1.00  0.00     0.004 A 
ATOM     21  C   UNL     1      -2.241   1.845   0.598  1.00  0.00     0.004 A 
ATOM     22  C   UNL     1      -0.898   4.013  -0.497  1.00  0.00     0.009 A 
ATOM     23  C   UNL     1      -2.650   3.154   0.901  1.00  0.00     0.009 A 
BRANCH  19  24
ATOM     24  C   UNL     1      -0.931   0.193  -0.796  1.00  0.00     0.038 C 
BRANCH  24  25
ATOM     25  C   UNL     1       0.546  -0.217  -0.966  1.00  0.00    -0.013 C 
ATOM     26  C   UNL     1       1.322  -0.082   0.344  1.00  0.00     0.008 C 
ATOM     27  C   UNL     1       0.642  -1.660  -1.474  1.00  0.00     0.008 C 
ENDBRANCH  24  25
ENDBRANCH  19  24
ENDBRANCH   8  18
BRANCH  17  28
ATOM     28  C   UNL     1      -3.079   7.554   4.589  1.00  0.00     0.429 C 
ATOM     29  F   UNL     1      -3.639   6.383   4.971  1.00  0.00    -0.167 F 
ATOM     30  F   UNL     1      -1.903   7.677   5.250  1.00  0.00    -0.167 F 
ATOM     31  F   UNL     1      -3.886   8.538   5.069  1.00  0.00    -0.167 F 
ENDBRANCH  17  28
ENDBRANCH   4   7
ENDBRANCH   2   3
ENDBRANCH   1   2
BRANCH   1  32
ATOM     32  C   UNL     1      -2.899  13.931   2.693  1.00  0.00     0.023 C 
BRANCH  32  33
ATOM     33  C   UNL     1      -4.324  14.450   2.845  1.00  0.00     0.116 C 
BRANCH  33  34
ATOM     34  N   UNL     1      -4.550  15.036   4.157  1.00  0.00    -0.352 N 
ATOM     35  C   UNL     1      -4.886  16.329   4.481  1.00  0.00     0.251 C 
ATOM     36  H   UNL     1      -4.449  14.421   4.919  1.00  0.00     0.163 HD
ATOM     37  O   UNL     1      -4.839  16.702   5.650  1.00  0.00    -0.269 OA
BRANCH  35  38
ATOM     38  C   UNL     1      -5.275  17.274   3.412  1.00  0.00     0.039 A 
ATOM     39  C   UNL     1      -4.664  18.529   3.358  1.00  0.00     0.014 A 
ATOM     40  C   UNL     1      -6.220  16.907   2.450  1.00  0.00     0.014 A 
ATOM     41  C   UNL     1      -4.936  19.383   2.286  1.00  0.00     0.010 A 
ATOM     42  C   UNL     1      -6.441  17.733   1.351  1.00  0.00     0.010 A 
ATOM     43  C   UNL     1      -5.788  18.971   1.249  1.00  0.00    -0.014 A 
BRANCH  43  44
ATOM     44  C   UNL     1      -5.975  19.792   0.024  1.00  0.00     0.031 A 
ATOM     45  C   UNL     1      -7.327  20.353  -0.318  1.00  0.00     0.074 A 
ATOM     46  C   UNL     1      -4.943  19.950  -0.830  1.00  0.00     0.049 A 
ATOM     47  N   UNL     1      -7.704  20.994  -1.395  1.00  0.00    -0.248 NA
ATOM     48  C   UNL     1      -8.400  20.148   0.668  1.00  0.00     0.031 C 
ATOM     49  C   UNL     1      -3.588  19.428  -0.630  1.00  0.00     0.029 A 
ATOM     50  N   UNL     1      -4.876  20.582  -2.048  1.00  0.00    -0.354 N 
ATOM     51  C   UNL     1      -9.058  21.255  -1.225  1.00  0.00     0.074 A 
ATOM     52  C   UNL     1      -9.445  20.669   0.041  1.00  0.00     0.031 C 
ATOM     53  C   UNL     1      -2.824  19.773  -1.679  1.00  0.00     0.029 A 
ATOM     54  C   UNL     1      -3.641  20.496  -2.648  1.00  0.00     0.049 A 
ATOM     55  H   UNL     1      -5.640  21.052  -2.454  1.00  0.00     0.167 HD
ATOM     56  C   UNL     1      -9.900  21.932  -2.042  1.00  0.00     0.031 A 
ATOM     57  C   UNL     1      -3.215  20.929  -3.851  1.00  0.00     0.031 A 
ATOM     58  C   UNL     1      -9.511  22.517  -3.298  1.00  0.00     0.049 A 
ATOM     59  C   UNL     1      -4.179  21.643  -4.758  1.00  0.00     0.074 A 
ATOM     60  C   UNL     1     -10.277  23.273  -4.168  1.00  0.00     0.029 A 
ATOM     61  N   UNL     1      -8.252  22.404  -3.870  1.00  0.00    -0.354 N 
ATOM     62  N   UNL     1      -5.439  21.940  -4.548  1.00  0.00    -0.248 NA
ATOM     63  C   UNL     1      -3.664  22.081  -6.063  1.00  0.00     0.031 C 
ATOM     64  C   UNL     1      -9.499  23.570  -5.291  1.00  0.00     0.029 A 
ATOM     65  C   UNL     1      -8.231  23.047  -5.096  1.00  0.00     0.049 A 
ATOM     66  H   UNL     1      -7.487  21.936  -3.464  1.00  0.00     0.167 HD
ATOM     67  C   UNL     1      -5.863  22.614  -5.688  1.00  0.00     0.074 A 
ATOM     68  C   UNL     1      -4.721  22.697  -6.576  1.00  0.00     0.031 C 
ATOM     69  C   UNL     1      -7.089  23.117  -5.973  1.00  0.00     0.031 A 
BRANCH  56  70
ATOM     70  C   UNL     1     -11.335  22.068  -1.607  1.00  0.00    -0.014 A 
ATOM     71  C   UNL     1     -11.691  22.897  -0.527  1.00  0.00     0.010 A 
ATOM     72  C   UNL     1     -12.347  21.393  -2.313  1.00  0.00     0.010 A 
ATOM     73  C   UNL     1     -13.026  23.014  -0.135  1.00  0.00     0.020 A 
ATOM     74  C   UNL     1     -13.688  21.529  -1.941  1.00  0.00     0.020 A 
ATOM     75  C   UNL     1     -14.017  22.326  -0.842  1.00  0.00     0.054 A 
BRANCH  75  76
ATOM     76  S   UNL     1     -15.744  22.511  -0.320  1.00  0.00     0.124 S 
ATOM     77  O   UNL     1     -15.770  21.729   0.914  1.00  0.00    -0.237 OA
ATOM     78  O   UNL     1     -15.875  23.955  -0.151  1.00  0.00    -0.237 OA
ATOM     79  O   UNL     1     -16.505  21.945  -1.431  1.00  0.00    -0.744 OA
ENDBRANCH  75  76
ENDBRANCH  56  70
BRANCH  57  80
ATOM     80  C   UNL     1      -1.807  20.690  -4.270  1.00  0.00    -0.014 A 
ATOM     81  C   UNL     1      -0.897  21.758  -4.350  1.00  0.00     0.010 A 
ATOM     82  C   UNL     1      -1.364  19.390  -4.576  1.00  0.00     0.010 A 
ATOM     83  C   UNL     1       0.427  21.533  -4.739  1.00  0.00     0.020 A 
ATOM     84  C   UNL     1      -0.035  19.157  -4.940  1.00  0.00     0.020 A 
ATOM     85  C   UNL     1       0.850  20.233  -5.029  1.00  0.00     0.054 A 
BRANCH  85  86
ATOM     86  S   UNL     1       2.587  19.957  -5.476  1.00  0.00     0.124 S 
ATOM     87  O   UNL     1       2.637  20.483  -6.837  1.00  0.00    -0.237 OA
ATOM     88  O   UNL     1       3.300  20.739  -4.469  1.00  0.00    -0.237 OA
ATOM     89  O   UNL     1       2.745  18.510  -5.356  1.00  0.00    -0.744 OA
ENDBRANCH  85  86
ENDBRANCH  57  80
BRANCH  69  90
ATOM     90  C   UNL     1      -7.264  23.818  -7.293  1.00  0.00    -0.014 A 
ATOM     91  C   UNL     1      -7.333  23.091  -8.495  1.00  0.00     0.010 A 
ATOM     92  C   UNL     1      -7.441  25.214  -7.324  1.00  0.00     0.010 A 
ATOM     93  C   UNL     1      -7.564  23.750  -9.705  1.00  0.00     0.020 A 
ATOM     94  C   UNL     1      -7.697  25.872  -8.529  1.00  0.00     0.020 A 
ATOM     95  C   UNL     1      -7.749  25.136  -9.714  1.00  0.00     0.054 A 
BRANCH  95  96
ATOM     96  S   UNL     1      -8.118  25.956 -11.290  1.00  0.00     0.124 S 
ATOM     97  O   UNL     1      -6.824  25.915 -11.965  1.00  0.00    -0.237 OA
ATOM     98  O   UNL     1      -9.153  25.099 -11.862  1.00  0.00    -0.237 OA
ATOM     99  O   UNL     1      -8.571  27.287 -10.890  1.00  0.00    -0.744 OA
ENDBRANCH  95  96
ENDBRANCH  69  90
ENDBRANCH  43  44
ENDBRANCH  35  38
ENDBRANCH  33  34
ENDBRANCH  32  33
ENDBRANCH   1  32
TORSDOF 18
