REMARK SMILES CC(C)(C)c1cc2c(cc1Cl)C=C(C(=O)NCCCCNC(=O)c1ccc(-c3c4nc(c(-c5ccc(S(=O)(=O)[O-])cc5)c5ccc([nH]5)c(-c5ccc(S(=O)(=O)[O-])cc5)c5nc(c(-c6ccc(S(=O)(=O)[O-])cc6)c6ccc3[nH]6)C=C5)C=C4)cc1)[C@H](C(F)(F)F)O2
REMARK SMILES IDX 19 1 18 2 17 3 16 4 14 5 15 6 13 8 5 9 6 10 10 11 7 12 9 13
REMARK SMILES IDX 11 14 8 15 89 16 12 17 84 18 2 19 1 20 3 21 4 22 85 23 86 24
REMARK SMILES IDX 87 25 88 26 20 27 21 28 22 29 23 31 24 32 25 33 83 34 26 35
REMARK SMILES IDX 82 36 27 37 28 38 29 39 76 40 30 41 81 42 75 43 77 44 31 45
REMARK SMILES IDX 80 46 74 47 73 48 32 50 62 51 43 52 61 53 44 54 47 55 60 56
REMARK SMILES IDX 78 57 45 58 46 59 59 61 79 62 48 63 33 64 34 65 42 66 35 67
REMARK SMILES IDX 41 68 36 69 37 70 38 71 39 72 40 73 63 74 64 75 72 76 65 77
REMARK SMILES IDX 71 78 66 79 67 80 68 81 69 82 70 83 49 84 50 85 58 86 51 87
REMARK SMILES IDX 57 88 52 89 53 90 54 91 55 92 56 93
REMARK H PARENT 16 7 21 30 77 49 47 60
REMARK Flexibility Score: inf
ROOT
ATOM      1  C   UNL     1       2.800   4.301  11.322  1.00  0.00     0.023 C 
ENDROOT
BRANCH   1   2
ATOM      2  C   UNL     1       2.695   4.140   9.805  1.00  0.00     0.023 C 
BRANCH   2   3
ATOM      3  C   UNL     1       3.813   3.313   9.174  1.00  0.00     0.116 C 
BRANCH   3   4
ATOM      4  N   UNL     1       3.504   1.897   9.194  1.00  0.00    -0.352 N 
ATOM      5  C   UNL     1       3.034   0.975   8.325  1.00  0.00     0.251 C 
ATOM      6  O   UNL     1       2.966  -0.175   8.773  1.00  0.00    -0.270 OA
ATOM      7  H   UNL     1       3.685   1.500  10.077  1.00  0.00     0.163 HD
BRANCH   5   8
ATOM      8  C   UNL     1       2.607   1.238   6.919  1.00  0.00     0.067 C 
ATOM      9  C   UNL     1       0.902   0.698   2.159  1.00  0.00    -0.020 A 
ATOM     10  C   UNL     1       1.498   1.734   2.913  1.00  0.00     0.053 A 
ATOM     11  C   UNL     1       0.794  -0.556   2.809  1.00  0.00     0.045 A 
ATOM     12  C   UNL     1       1.933   1.541   4.224  1.00  0.00     0.128 A 
ATOM     13  C   UNL     1       1.273  -0.750   4.120  1.00  0.00     0.032 A 
ATOM     14  Cl  UNL     1       0.054  -1.954   2.107  1.00  0.00    -0.084 Cl
ATOM     15  C   UNL     1       1.839   0.301   4.833  1.00  0.00     0.019 A 
ATOM     16  O   UNL     1       2.475   2.623   4.857  1.00  0.00    -0.475 OA
ATOM     17  C   UNL     1       2.343   0.136   6.189  1.00  0.00     0.025 C 
ATOM     18  C   UNL     1       2.373   2.597   6.312  1.00  0.00     0.314 C 
BRANCH   9  19
ATOM     19  C   UNL     1       0.386   1.004   0.731  1.00  0.00    -0.012 C 
ATOM     20  C   UNL     1       0.963   0.028  -0.318  1.00  0.00     0.016 C 
ATOM     21  C   UNL     1       0.778   2.421   0.221  1.00  0.00     0.016 C 
ATOM     22  C   UNL     1      -1.157   0.962   0.717  1.00  0.00     0.016 C 
ENDBRANCH   9  19
BRANCH  18  23
ATOM     23  C   UNL     1       1.063   3.268   6.769  1.00  0.00     0.429 C 
ATOM     24  F   UNL     1       0.414   2.564   7.724  1.00  0.00    -0.167 F 
ATOM     25  F   UNL     1       1.319   4.497   7.285  1.00  0.00    -0.167 F 
ATOM     26  F   UNL     1       0.187   3.453   5.752  1.00  0.00    -0.167 F 
ENDBRANCH  18  23
ENDBRANCH   5   8
ENDBRANCH   3   4
ENDBRANCH   2   3
ENDBRANCH   1   2
BRANCH   1  27
ATOM     27  C   UNL     1       4.074   4.975  11.818  1.00  0.00     0.116 C 
BRANCH  27  28
ATOM     28  N   UNL     1       4.350   6.269  11.208  1.00  0.00    -0.352 N 
ATOM     29  C   UNL     1       5.055   7.325  11.752  1.00  0.00     0.251 C 
ATOM     30  H   UNL     1       3.992   6.408  10.302  1.00  0.00     0.163 HD
ATOM     31  O   UNL     1       5.166   8.383  11.154  1.00  0.00    -0.269 OA
BRANCH  29  32
ATOM     32  C   UNL     1       5.618   7.155  13.109  1.00  0.00     0.039 A 
ATOM     33  C   UNL     1       6.391   6.032  13.402  1.00  0.00     0.014 A 
ATOM     34  C   UNL     1       5.253   8.053  14.115  1.00  0.00     0.014 A 
ATOM     35  C   UNL     1       6.625   5.700  14.729  1.00  0.00     0.010 A 
ATOM     36  C   UNL     1       5.575   7.763  15.444  1.00  0.00     0.010 A 
ATOM     37  C   UNL     1       6.206   6.552  15.767  1.00  0.00    -0.014 A 
BRANCH  37  38
ATOM     38  C   UNL     1       6.428   6.128  17.175  1.00  0.00     0.031 A 
ATOM     39  C   UNL     1       5.267   5.830  18.089  1.00  0.00     0.074 A 
ATOM     40  C   UNL     1       7.690   5.907  17.593  1.00  0.00     0.049 A 
ATOM     41  N   UNL     1       5.288   5.370  19.314  1.00  0.00    -0.248 NA
ATOM     42  C   UNL     1       3.911   6.078  17.570  1.00  0.00     0.031 C 
ATOM     43  C   UNL     1       8.891   6.136  16.787  1.00  0.00     0.029 A 
ATOM     44  N   UNL     1       8.171   5.388  18.768  1.00  0.00    -0.354 N 
ATOM     45  C   UNL     1       3.960   5.294  19.719  1.00  0.00     0.074 A 
ATOM     46  C   UNL     1       3.156   5.775  18.618  1.00  0.00     0.031 C 
ATOM     47  C   UNL     1       9.959   5.672  17.451  1.00  0.00     0.029 A 
ATOM     48  C   UNL     1       9.531   5.182  18.757  1.00  0.00     0.049 A 
ATOM     49  H   UNL     1       7.600   5.184  19.543  1.00  0.00     0.167 HD
ATOM     50  C   UNL     1       3.458   4.856  20.898  1.00  0.00     0.031 A 
ATOM     51  C   UNL     1      10.350   4.655  19.688  1.00  0.00     0.031 A 
ATOM     52  C   UNL     1       4.263   4.357  21.984  1.00  0.00     0.049 A 
ATOM     53  C   UNL     1       9.772   4.192  20.991  1.00  0.00     0.074 A 
ATOM     54  C   UNL     1       3.842   3.891  23.218  1.00  0.00     0.029 A 
ATOM     55  N   UNL     1       5.645   4.246  21.965  1.00  0.00    -0.354 N 
ATOM     56  N   UNL     1       8.515   4.163  21.365  1.00  0.00    -0.248 NA
ATOM     57  C   UNL     1      10.718   3.706  22.003  1.00  0.00     0.031 C 
ATOM     58  C   UNL     1       4.973   3.542  23.962  1.00  0.00     0.029 A 
ATOM     59  C   UNL     1       6.094   3.737  23.172  1.00  0.00     0.049 A 
ATOM     60  H   UNL     1       6.221   4.493  21.206  1.00  0.00     0.167 HD
ATOM     61  C   UNL     1       8.520   3.665  22.661  1.00  0.00     0.074 A 
ATOM     62  C   UNL     1       9.900   3.375  22.994  1.00  0.00     0.031 C 
ATOM     63  C   UNL     1       7.473   3.477  23.501  1.00  0.00     0.031 A 
BRANCH  50  64
ATOM     64  C   UNL     1       1.966   4.896  21.098  1.00  0.00    -0.014 A 
ATOM     65  C   UNL     1       1.410   5.816  22.007  1.00  0.00     0.010 A 
ATOM     66  C   UNL     1       1.124   3.958  20.474  1.00  0.00     0.010 A 
ATOM     67  C   UNL     1       0.045   5.785  22.306  1.00  0.00     0.020 A 
ATOM     68  C   UNL     1      -0.246   3.938  20.754  1.00  0.00     0.020 A 
ATOM     69  C   UNL     1      -0.773   4.838  21.684  1.00  0.00     0.054 A 
BRANCH  69  70
ATOM     70  S   UNL     1      -2.542   4.803  22.089  1.00  0.00     0.124 S 
ATOM     71  O   UNL     1      -2.551   4.099  23.367  1.00  0.00    -0.237 OA
ATOM     72  O   UNL     1      -2.888   6.222  22.146  1.00  0.00    -0.237 OA
ATOM     73  O   UNL     1      -3.132   4.075  20.967  1.00  0.00    -0.744 OA
ENDBRANCH  69  70
ENDBRANCH  50  64
BRANCH  51  74
ATOM     74  C   UNL     1      11.800   4.535  19.384  1.00  0.00    -0.014 A 
ATOM     75  C   UNL     1      12.596   5.688  19.257  1.00  0.00     0.010 A 
ATOM     76  C   UNL     1      12.365   3.278  19.109  1.00  0.00     0.010 A 
ATOM     77  C   UNL     1      13.910   5.595  18.795  1.00  0.00     0.020 A 
ATOM     78  C   UNL     1      13.690   3.178  18.674  1.00  0.00     0.020 A 
ATOM     79  C   UNL     1      14.442   4.341  18.487  1.00  0.00     0.054 A 
BRANCH  79  80
ATOM     80  S   UNL     1      16.127   4.243  17.823  1.00  0.00     0.124 S 
ATOM     81  O   UNL     1      15.909   4.557  16.413  1.00  0.00    -0.237 OA
ATOM     82  O   UNL     1      16.838   5.262  18.591  1.00  0.00    -0.237 OA
ATOM     83  O   UNL     1      16.523   2.866  18.104  1.00  0.00    -0.744 OA
ENDBRANCH  79  80
ENDBRANCH  51  74
BRANCH  63  84
ATOM     84  C   UNL     1       7.770   2.957  24.880  1.00  0.00    -0.014 A 
ATOM     85  C   UNL     1       7.395   1.648  25.233  1.00  0.00     0.010 A 
ATOM     86  C   UNL     1       8.337   3.797  25.854  1.00  0.00     0.010 A 
ATOM     87  C   UNL     1       7.565   1.193  26.542  1.00  0.00     0.020 A 
ATOM     88  C   UNL     1       8.530   3.337  27.159  1.00  0.00     0.020 A 
ATOM     89  C   UNL     1       8.125   2.044  27.499  1.00  0.00     0.054 A 
BRANCH  89  90
ATOM     90  S   UNL     1       8.342   1.440  29.196  1.00  0.00     0.124 S 
ATOM     91  O   UNL     1       7.009   1.625  29.760  1.00  0.00    -0.237 OA
ATOM     92  O   UNL     1       8.755   0.053  28.997  1.00  0.00    -0.237 OA
ATOM     93  O   UNL     1       9.378   2.317  29.738  1.00  0.00    -0.744 OA
ENDBRANCH  89  90
ENDBRANCH  63  84
ENDBRANCH  37  38
ENDBRANCH  29  32
ENDBRANCH  27  28
ENDBRANCH   1  27
TORSDOF 16
