REMARK SMILES COc1ccc(-n2c(SCc3cn(-c4ccc(C(=O)NCCCCNC(=O)c5ccc(-c6c7nc(c(-c8ccc(S(=O)(=O)[O-])cc8)c8ccc([nH]8)c(-c8ccc(S(=O)(=O)[O-])cc8)c8nc(c(-c9ccc(S(=O)(=O)[O-])cc9)c9ccc6[nH]9)C=C8)C=C7)cc5)cc4)nn3)nc3ccccc3c2=O)cc1
REMARK SMILES IDX 21 1 20 2 18 3 19 4 17 6 14 7 15 8 89 9 16 10 88 11 13 12
REMARK SMILES IDX 11 13 12 14 91 15 90 16 10 17 9 18 8 19 7 20 99 21 92 22
REMARK SMILES IDX 98 23 100 24 93 25 97 26 94 27 96 28 95 29 6 30 3 31 4 32
REMARK SMILES IDX 102 33 5 34 101 35 2 36 1 37 22 38 23 39 24 40 25 41 26 42
REMARK SMILES IDX 27 44 28 45 29 46 87 47 30 48 86 49 31 50 32 51 33 52 80 53
REMARK SMILES IDX 34 54 85 55 79 56 81 57 35 58 84 59 78 60 77 61 36 63 66 64
REMARK SMILES IDX 47 65 65 66 48 67 51 68 64 69 82 70 49 71 50 72 63 74 83 75
REMARK SMILES IDX 52 76 37 77 38 78 46 79 39 80 45 81 40 82 41 83 42 84 43 85
REMARK SMILES IDX 44 86 67 87 68 88 76 89 69 90 75 91 70 92 71 93 72 94 73 95
REMARK SMILES IDX 74 96 53 97 54 98 62 99 55 100 61 101 56 102 57 103 58 104
REMARK SMILES IDX 59 105 60 106
REMARK H PARENT 20 5 25 43 81 62 51 73
REMARK Flexibility Score: inf
ROOT
ATOM      1  C   UNL     1      -0.093  -9.791   4.891  1.00  0.00     0.116 C 
ENDROOT
BRANCH   1   2
ATOM      2  N   UNL     1      -0.855  -9.823   3.657  1.00  0.00    -0.352 N 
ATOM      3  C   UNL     1      -1.201  -8.861   2.743  1.00  0.00     0.251 C 
ATOM      4  O   UNL     1      -1.927  -9.197   1.808  1.00  0.00    -0.269 OA
ATOM      5  H   UNL     1      -1.194 -10.720   3.429  1.00  0.00     0.163 HD
BRANCH   3   6
ATOM      6  C   UNL     1      -0.681  -7.468   2.783  1.00  0.00     0.039 A 
ATOM      7  C   UNL     1       0.639  -5.027   2.596  1.00  0.00     0.066 A 
ATOM      8  C   UNL     1       0.016  -5.537   1.462  1.00  0.00     0.029 A 
ATOM      9  C   UNL     1       0.485  -5.640   3.843  1.00  0.00     0.029 A 
ATOM     10  C   UNL     1      -0.613  -6.778   1.556  1.00  0.00     0.016 A 
ATOM     11  C   UNL     1      -0.221  -6.832   3.935  1.00  0.00     0.016 A 
BRANCH   7  12
ATOM     12  N   UNL     1       1.538  -3.962   2.472  1.00  0.00    -0.220 N 
ATOM     13  C   UNL     1       3.222  -2.631   2.753  1.00  0.00     0.093 A 
ATOM     14  C   UNL     1       2.675  -3.804   3.207  1.00  0.00     0.141 A 
ATOM     15  N   UNL     1       2.456  -2.149   1.730  1.00  0.00    -0.134 NA
ATOM     16  N   UNL     1       1.458  -3.002   1.528  1.00  0.00    -0.062 NA
BRANCH  13  17
ATOM     17  C   UNL     1       4.446  -1.949   3.192  1.00  0.00     0.138 C 
BRANCH  17  18
ATOM     18  S   UNL     1       4.915  -2.354   4.876  1.00  0.00    -0.081 SA
BRANCH  18  19
ATOM     19  C   UNL     1       3.386  -2.183   5.830  1.00  0.00     0.176 A 
ATOM     20  N   UNL     1       3.087  -0.866   6.103  1.00  0.00    -0.255 N 
ATOM     21  C   UNL     1       3.691  -0.329   7.231  1.00  0.00     0.266 A 
ATOM     22  N   UNL     1       3.230  -3.052   6.786  1.00  0.00    -0.223 NA
ATOM     23  C   UNL     1       4.448  -1.346   8.036  1.00  0.00     0.066 A 
ATOM     24  O   UNL     1       3.683   0.849   7.571  1.00  0.00    -0.268 OA
ATOM     25  C   UNL     1       4.080  -2.700   7.863  1.00  0.00     0.079 A 
ATOM     26  C   UNL     1       5.624  -1.020   8.705  1.00  0.00     0.016 A 
ATOM     27  C   UNL     1       4.805  -3.709   8.492  1.00  0.00     0.029 A 
ATOM     28  C   UNL     1       6.412  -2.051   9.227  1.00  0.00     0.001 A 
ATOM     29  C   UNL     1       5.985  -3.383   9.156  1.00  0.00     0.002 A 
BRANCH  20  30
ATOM     30  C   UNL     1       2.260  -0.147   5.213  1.00  0.00     0.052 A 
ATOM     31  C   UNL     1       0.840   0.734   2.983  1.00  0.00     0.119 A 
ATOM     32  C   UNL     1       0.208  -0.088   3.911  1.00  0.00     0.048 A 
ATOM     33  C   UNL     1       2.127   1.215   3.226  1.00  0.00     0.048 A 
ATOM     34  C   UNL     1       0.931  -0.558   5.011  1.00  0.00     0.030 A 
ATOM     35  C   UNL     1       2.826   0.803   4.363  1.00  0.00     0.030 A 
BRANCH  31  36
ATOM     36  O   UNL     1       0.170   1.099   1.847  1.00  0.00    -0.497 OA
ATOM     37  C   UNL     1       0.655   0.361   0.718  1.00  0.00     0.278 C 
ENDBRANCH  31  36
ENDBRANCH  20  30
ENDBRANCH  18  19
ENDBRANCH  17  18
ENDBRANCH  13  17
ENDBRANCH   7  12
ENDBRANCH   3   6
ENDBRANCH   1   2
BRANCH   1  38
ATOM     38  C   UNL     1      -1.010  -9.544   6.096  1.00  0.00     0.023 C 
BRANCH  38  39
ATOM     39  C   UNL     1      -1.923 -10.722   6.464  1.00  0.00     0.023 C 
BRANCH  39  40
ATOM     40  C   UNL     1      -1.193 -11.953   6.989  1.00  0.00     0.116 C 
BRANCH  40  41
ATOM     41  N   UNL     1      -0.449 -11.685   8.219  1.00  0.00    -0.352 N 
ATOM     42  C   UNL     1       0.541 -12.457   8.805  1.00  0.00     0.251 C 
ATOM     43  H   UNL     1      -0.680 -10.851   8.689  1.00  0.00     0.163 HD
ATOM     44  O   UNL     1       0.788 -12.362   9.993  1.00  0.00    -0.269 OA
BRANCH  42  45
ATOM     45  C   UNL     1       1.303 -13.380   7.942  1.00  0.00     0.039 A 
ATOM     46  C   UNL     1       1.613 -14.680   8.344  1.00  0.00     0.014 A 
ATOM     47  C   UNL     1       1.671 -12.915   6.683  1.00  0.00     0.014 A 
ATOM     48  C   UNL     1       2.219 -15.534   7.423  1.00  0.00     0.010 A 
ATOM     49  C   UNL     1       2.117 -13.796   5.732  1.00  0.00     0.010 A 
ATOM     50  C   UNL     1       2.445 -15.092   6.108  1.00  0.00    -0.014 A 
BRANCH  50  51
ATOM     51  C   UNL     1       2.921 -16.007   5.077  1.00  0.00     0.031 A 
ATOM     52  C   UNL     1       2.125 -17.254   4.941  1.00  0.00     0.074 A 
ATOM     53  C   UNL     1       3.877 -15.694   4.175  1.00  0.00     0.049 A 
ATOM     54  N   UNL     1       2.468 -18.439   5.319  1.00  0.00    -0.248 NA
ATOM     55  C   UNL     1       0.734 -17.157   4.469  1.00  0.00     0.031 C 
ATOM     56  C   UNL     1       4.561 -14.412   3.959  1.00  0.00     0.029 A 
ATOM     57  N   UNL     1       4.374 -16.462   3.171  1.00  0.00    -0.354 N 
ATOM     58  C   UNL     1       1.434 -19.282   4.929  1.00  0.00     0.074 A 
ATOM     59  C   UNL     1       0.326 -18.423   4.589  1.00  0.00     0.031 C 
ATOM     60  C   UNL     1       5.196 -14.429   2.765  1.00  0.00     0.029 A 
ATOM     61  C   UNL     1       5.125 -15.773   2.224  1.00  0.00     0.049 A 
ATOM     62  H   UNL     1       4.215 -17.432   3.117  1.00  0.00     0.167 HD
ATOM     63  C   UNL     1       1.650 -20.606   4.688  1.00  0.00     0.031 A 
ATOM     64  C   UNL     1       5.649 -16.279   1.079  1.00  0.00     0.031 A 
ATOM     65  C   UNL     1       2.938 -21.033   5.174  1.00  0.00     0.049 A 
ATOM     66  C   UNL     1       5.754 -17.746   1.275  1.00  0.00     0.074 A 
ATOM     67  C   UNL     1       3.550 -21.035   6.413  1.00  0.00     0.029 A 
ATOM     68  N   UNL     1       3.956 -21.132   4.253  1.00  0.00    -0.354 N 
ATOM     69  N   UNL     1       6.547 -18.291   2.155  1.00  0.00    -0.248 NA
ATOM     70  C   UNL     1       4.646 -18.577   0.833  1.00  0.00     0.031 C 
ATOM     71  C   UNL     1       4.892 -20.622   6.157  1.00  0.00     0.029 A 
ATOM     72  C   UNL     1       5.047 -20.482   4.776  1.00  0.00     0.049 A 
ATOM     73  H   UNL     1       3.910 -21.585   3.380  1.00  0.00     0.167 HD
ATOM     74  C   UNL     1       5.807 -19.328   2.703  1.00  0.00     0.074 A 
ATOM     75  C   UNL     1       4.683 -19.515   1.785  1.00  0.00     0.031 C 
ATOM     76  C   UNL     1       6.019 -19.752   3.985  1.00  0.00     0.031 A 
BRANCH  63  77
ATOM     77  C   UNL     1       0.866 -21.410   3.683  1.00  0.00    -0.014 A 
ATOM     78  C   UNL     1       1.089 -22.799   3.589  1.00  0.00     0.010 A 
ATOM     79  C   UNL     1       0.105 -20.814   2.656  1.00  0.00     0.010 A 
ATOM     80  C   UNL     1       0.611 -23.540   2.499  1.00  0.00     0.020 A 
ATOM     81  C   UNL     1      -0.412 -21.550   1.589  1.00  0.00     0.020 A 
ATOM     82  C   UNL     1      -0.133 -22.906   1.503  1.00  0.00     0.054 A 
BRANCH  82  83
ATOM     83  S   UNL     1      -0.684 -23.856   0.065  1.00  0.00     0.124 S 
ATOM     84  O   UNL     1       0.582 -24.187  -0.581  1.00  0.00    -0.237 OA
ATOM     85  O   UNL     1      -1.392 -24.972   0.686  1.00  0.00    -0.237 OA
ATOM     86  O   UNL     1      -1.532 -22.914  -0.662  1.00  0.00    -0.744 OA
ENDBRANCH  82  83
ENDBRANCH  63  77
BRANCH  64  87
ATOM     87  C   UNL     1       5.761 -15.639  -0.255  1.00  0.00    -0.014 A 
ATOM     88  C   UNL     1       6.514 -16.243  -1.282  1.00  0.00     0.010 A 
ATOM     89  C   UNL     1       4.875 -14.604  -0.616  1.00  0.00     0.010 A 
ATOM     90  C   UNL     1       6.325 -15.883  -2.628  1.00  0.00     0.020 A 
ATOM     91  C   UNL     1       4.686 -14.236  -1.956  1.00  0.00     0.020 A 
ATOM     92  C   UNL     1       5.391 -14.899  -2.959  1.00  0.00     0.054 A 
BRANCH  92  93
ATOM     93  S   UNL     1       5.000 -14.590  -4.708  1.00  0.00     0.124 S 
ATOM     94  O   UNL     1       6.210 -13.926  -5.185  1.00  0.00    -0.237 OA
ATOM     95  O   UNL     1       4.772 -15.936  -5.226  1.00  0.00    -0.237 OA
ATOM     96  O   UNL     1       3.809 -13.743  -4.650  1.00  0.00    -0.744 OA
ENDBRANCH  92  93
ENDBRANCH  64  87
BRANCH  76  97
ATOM     97  C   UNL     1       7.248 -19.253   4.720  1.00  0.00    -0.014 A 
ATOM     98  C   UNL     1       7.514 -17.894   4.989  1.00  0.00     0.010 A 
ATOM     99  C   UNL     1       8.096 -20.220   5.288  1.00  0.00     0.010 A 
ATOM    100  C   UNL     1       8.613 -17.518   5.780  1.00  0.00     0.020 A 
ATOM    101  C   UNL     1       9.179 -19.854   6.091  1.00  0.00     0.020 A 
ATOM    102  C   UNL     1       9.441 -18.504   6.325  1.00  0.00     0.054 A 
BRANCH 102 103
ATOM    103  S   UNL     1      10.842 -18.022   7.375  1.00  0.00     0.124 S 
ATOM    104  O   UNL     1      11.743 -17.375   6.425  1.00  0.00    -0.237 OA
ATOM    105  O   UNL     1      10.223 -17.137   8.358  1.00  0.00    -0.237 OA
ATOM    106  O   UNL     1      11.326 -19.293   7.916  1.00  0.00    -0.744 OA
ENDBRANCH 102 103
ENDBRANCH  76  97
ENDBRANCH  50  51
ENDBRANCH  42  45
ENDBRANCH  40  41
ENDBRANCH  39  40
ENDBRANCH  38  39
ENDBRANCH   1  38
TORSDOF 20
