REMARK SMILES Cc1ccc(F)cc1NC(=O)c1nn(C)cc1C(=O)NCCCCNC(=O)c1ccc(-c2c3nc(c(-c4ccc(S(=O)(=O)[O-])cc4)c4ccc([nH]4)c(-c4ccc(S(=O)(=O)[O-])cc4)c4nc(c(-c5ccc(S(=O)(=O)[O-])cc5)c5ccc2[nH]5)C=C4)C=C3)cc1
REMARK SMILES IDX 23 1 22 2 21 3 20 4 18 5 19 6 17 8 12 9 13 10 14 11 16 12
REMARK SMILES IDX 15 13 10 14 9 15 11 17 8 18 1 19 2 20 3 21 4 22 7 23 5 24
REMARK SMILES IDX 6 25 24 26 25 27 26 28 27 30 28 31 29 32 87 33 30 34 86 35
REMARK SMILES IDX 31 36 32 37 33 38 80 39 34 40 85 41 79 42 81 43 35 44 84 45
REMARK SMILES IDX 78 46 77 47 36 49 66 50 47 51 65 52 48 53 51 54 64 55 82 56
REMARK SMILES IDX 49 57 50 58 63 60 83 61 52 62 37 63 38 64 46 65 39 66 45 67
REMARK SMILES IDX 40 68 41 69 42 70 43 71 44 72 67 73 68 74 76 75 69 76 75 77
REMARK SMILES IDX 70 78 71 79 72 80 73 81 74 82 53 83 54 84 62 85 55 86 61 87
REMARK SMILES IDX 56 88 57 89 58 90 59 91 60 92
REMARK H PARENT 20 7 9 16 25 29 81 48 51 59
REMARK Flexibility Score: inf
ROOT
ATOM      1  C   UNL     1      -3.736   1.153  -2.870  1.00  0.00     0.023 C 
ENDROOT
BRANCH   1   2
ATOM      2  C   UNL     1      -3.954   0.018  -1.877  1.00  0.00     0.023 C 
BRANCH   2   3
ATOM      3  C   UNL     1      -3.615  -1.384  -2.375  1.00  0.00     0.116 C 
BRANCH   3   4
ATOM      4  N   UNL     1      -2.204  -1.598  -2.648  1.00  0.00    -0.352 N 
ATOM      5  C   UNL     1      -1.274  -2.449  -2.100  1.00  0.00     0.255 C 
ATOM      6  O   UNL     1      -0.128  -2.411  -2.560  1.00  0.00    -0.269 OA
ATOM      7  H   UNL     1      -1.845  -1.024  -3.363  1.00  0.00     0.163 HD
BRANCH   5   8
ATOM      8  C   UNL     1      -1.602  -3.322  -0.986  1.00  0.00     0.090 A 
ATOM      9  C   UNL     1      -0.702  -3.801   0.029  1.00  0.00     0.163 A 
ATOM     10  N   UNL     1      -1.357  -4.534   0.954  1.00  0.00    -0.167 NA
ATOM     11  N   UNL     1      -2.621  -4.554   0.525  1.00  0.00    -0.274 N 
ATOM     12  C   UNL     1      -2.796  -3.951  -0.680  1.00  0.00     0.123 A 
ATOM     13  C   UNL     1      -3.646  -5.143   1.353  1.00  0.00     0.173 C 
BRANCH   9  14
ATOM     14  C   UNL     1       0.748  -3.605   0.151  1.00  0.00     0.277 C 
ATOM     15  N   UNL     1       1.312  -2.349   0.243  1.00  0.00    -0.320 N 
ATOM     16  H   UNL     1       2.295  -2.361   0.197  1.00  0.00     0.170 HD
ATOM     17  O   UNL     1       1.524  -4.567   0.160  1.00  0.00    -0.267 OA
BRANCH  15  18
ATOM     18  C   UNL     1       0.780  -1.054   0.387  1.00  0.00     0.047 A 
ATOM     19  C   UNL     1       3.059   0.002  -0.246  1.00  0.00     0.046 C 
ATOM     20  C   UNL     1       1.590   0.065   0.088  1.00  0.00    -0.027 A 
ATOM     21  C   UNL     1       1.019   1.356   0.111  1.00  0.00     0.008 A 
ATOM     22  C   UNL     1      -0.312   1.546   0.466  1.00  0.00     0.039 A 
ATOM     23  C   UNL     1      -0.528  -0.833   0.830  1.00  0.00     0.065 A 
ATOM     24  C   UNL     1      -1.062   0.450   0.852  1.00  0.00     0.125 A 
ATOM     25  F   UNL     1      -2.330   0.624   1.249  1.00  0.00    -0.207 F 
ENDBRANCH  15  18
ENDBRANCH   9  14
ENDBRANCH   5   8
ENDBRANCH   3   4
ENDBRANCH   2   3
ENDBRANCH   1   2
BRANCH   1  26
ATOM     26  C   UNL     1      -4.382   0.967  -4.237  1.00  0.00     0.116 C 
BRANCH  26  27
ATOM     27  N   UNL     1      -5.824   0.755  -4.186  1.00  0.00    -0.352 N 
ATOM     28  C   UNL     1      -6.797   1.306  -4.991  1.00  0.00     0.251 C 
ATOM     29  H   UNL     1      -6.142   0.140  -3.486  1.00  0.00     0.163 HD
ATOM     30  O   UNL     1      -7.984   1.085  -4.776  1.00  0.00    -0.269 OA
BRANCH  28  31
ATOM     31  C   UNL     1      -6.386   2.203  -6.091  1.00  0.00     0.039 A 
ATOM     32  C   UNL     1      -6.926   3.489  -6.160  1.00  0.00     0.014 A 
ATOM     33  C   UNL     1      -5.399   1.797  -6.991  1.00  0.00     0.014 A 
ATOM     34  C   UNL     1      -6.407   4.405  -7.079  1.00  0.00     0.010 A 
ATOM     35  C   UNL     1      -4.834   2.732  -7.850  1.00  0.00     0.010 A 
ATOM     36  C   UNL     1      -5.323   4.048  -7.896  1.00  0.00    -0.014 A 
BRANCH  36  37
ATOM     37  C   UNL     1      -4.670   5.014  -8.818  1.00  0.00     0.031 A 
ATOM     38  C   UNL     1      -4.664   4.729 -10.296  1.00  0.00     0.074 A 
ATOM     39  C   UNL     1      -3.983   6.065  -8.325  1.00  0.00     0.049 A 
ATOM     40  N   UNL     1      -3.985   5.316 -11.245  1.00  0.00    -0.248 NA
ATOM     41  C   UNL     1      -5.503   3.611 -10.760  1.00  0.00     0.031 C 
ATOM     42  C   UNL     1      -3.883   6.433  -6.909  1.00  0.00     0.029 A 
ATOM     43  N   UNL     1      -3.209   7.005  -8.962  1.00  0.00    -0.354 N 
ATOM     44  C   UNL     1      -4.276   4.611 -12.407  1.00  0.00     0.074 A 
ATOM     45  C   UNL     1      -5.173   3.538 -12.041  1.00  0.00     0.031 C 
ATOM     46  C   UNL     1      -3.098   7.517  -6.788  1.00  0.00     0.029 A 
ATOM     47  C   UNL     1      -2.597   7.894  -8.106  1.00  0.00     0.049 A 
ATOM     48  H   UNL     1      -3.102   7.040  -9.940  1.00  0.00     0.167 HD
ATOM     49  C   UNL     1      -3.841   4.843 -13.667  1.00  0.00     0.031 A 
ATOM     50  C   UNL     1      -1.713   8.882  -8.352  1.00  0.00     0.031 A 
ATOM     51  C   UNL     1      -2.992   5.943 -14.034  1.00  0.00     0.049 A 
ATOM     52  C   UNL     1      -1.265   9.131  -9.769  1.00  0.00     0.074 A 
ATOM     53  C   UNL     1      -2.567   6.310 -15.298  1.00  0.00     0.029 A 
ATOM     54  N   UNL     1      -2.449   6.855 -13.144  1.00  0.00    -0.354 N 
ATOM     55  N   UNL     1      -1.604   8.492 -10.863  1.00  0.00    -0.248 NA
ATOM     56  C   UNL     1      -0.320  10.237  -9.987  1.00  0.00     0.031 C 
ATOM     57  C   UNL     1      -1.730   7.421 -15.169  1.00  0.00     0.029 A 
ATOM     58  C   UNL     1      -1.679   7.776 -13.831  1.00  0.00     0.049 A 
ATOM     59  H   UNL     1      -2.590   6.848 -12.170  1.00  0.00     0.167 HD
ATOM     60  C   UNL     1      -0.948   9.146 -11.901  1.00  0.00     0.074 A 
ATOM     61  C   UNL     1      -0.195  10.230 -11.307  1.00  0.00     0.031 C 
ATOM     62  C   UNL     1      -0.969   8.873 -13.227  1.00  0.00     0.031 A 
BRANCH  49  63
ATOM     63  C   UNL     1      -4.274   3.896 -14.752  1.00  0.00    -0.014 A 
ATOM     64  C   UNL     1      -5.593   3.899 -15.236  1.00  0.00     0.010 A 
ATOM     65  C   UNL     1      -3.322   3.055 -15.357  1.00  0.00     0.010 A 
ATOM     66  C   UNL     1      -5.958   3.064 -16.295  1.00  0.00     0.020 A 
ATOM     67  C   UNL     1      -3.676   2.237 -16.433  1.00  0.00     0.020 A 
ATOM     68  C   UNL     1      -4.995   2.242 -16.890  1.00  0.00     0.054 A 
BRANCH  68  69
ATOM     69  S   UNL     1      -5.482   1.220 -18.307  1.00  0.00     0.124 S 
ATOM     70  O   UNL     1      -6.283   0.180 -17.667  1.00  0.00    -0.237 OA
ATOM     71  O   UNL     1      -6.226   2.162 -19.140  1.00  0.00    -0.237 OA
ATOM     72  O   UNL     1      -4.209   0.770 -18.865  1.00  0.00    -0.744 OA
ENDBRANCH  68  69
ENDBRANCH  49  63
BRANCH  50  73
ATOM     73  C   UNL     1      -1.171   9.708  -7.237  1.00  0.00    -0.014 A 
ATOM     74  C   UNL     1      -1.512  11.068  -7.123  1.00  0.00     0.010 A 
ATOM     75  C   UNL     1      -0.277   9.150  -6.305  1.00  0.00     0.010 A 
ATOM     76  C   UNL     1      -0.936  11.864  -6.128  1.00  0.00     0.020 A 
ATOM     77  C   UNL     1       0.278   9.935  -5.290  1.00  0.00     0.020 A 
ATOM     78  C   UNL     1      -0.038  11.293  -5.222  1.00  0.00     0.054 A 
BRANCH  78  79
ATOM     79  S   UNL     1       0.697  12.341  -3.935  1.00  0.00     0.124 S 
ATOM     80  O   UNL     1       1.694  13.092  -4.691  1.00  0.00    -0.237 OA
ATOM     81  O   UNL     1      -0.450  13.111  -3.459  1.00  0.00    -0.237 OA
ATOM     82  O   UNL     1       1.232  11.377  -2.976  1.00  0.00    -0.744 OA
ENDBRANCH  78  79
ENDBRANCH  50  73
BRANCH  62  83
ATOM     83  C   UNL     1      -0.222   9.795 -14.151  1.00  0.00    -0.014 A 
ATOM     84  C   UNL     1       1.179   9.748 -14.255  1.00  0.00     0.010 A 
ATOM     85  C   UNL     1      -0.949  10.642 -15.008  1.00  0.00     0.010 A 
ATOM     86  C   UNL     1       1.840  10.540 -15.198  1.00  0.00     0.020 A 
ATOM     87  C   UNL     1      -0.294  11.415 -15.968  1.00  0.00     0.020 A 
ATOM     88  C   UNL     1       1.099  11.362 -16.053  1.00  0.00     0.054 A 
BRANCH  88  89
ATOM     89  S   UNL     1       1.973  12.311 -17.329  1.00  0.00     0.124 S 
ATOM     90  O   UNL     1       2.593  13.375 -16.545  1.00  0.00    -0.237 OA
ATOM     91  O   UNL     1       2.893  11.324 -17.888  1.00  0.00    -0.237 OA
ATOM     92  O   UNL     1       0.907  12.741 -18.232  1.00  0.00    -0.744 OA
ENDBRANCH  88  89
ENDBRANCH  62  83
ENDBRANCH  36  37
ENDBRANCH  28  31
ENDBRANCH  26  27
ENDBRANCH   1  26
TORSDOF 16
