REMARK SMILES Cc1cccc(CC(=O)N2CCC3(CCC(=O)N([C@H](C)C(=O)NCCCCNC(=O)c4ccc(-c5c6nc(c(-c7ccc(S(=O)(=O)[O-])cc7)c7ccc([nH]7)c(-c7ccc(S(=O)(=O)[O-])cc7)c7nc(c(-c8ccc(S(=O)(=O)[O-])cc8)c8ccc5[nH]8)C=C7)C=C6)cc4)C3)CC2)c1
REMARK SMILES IDX 25 1 24 2 23 3 21 4 22 5 19 7 20 8 18 9 8 10 9 11 10 12
REMARK SMILES IDX 11 13 93 14 12 15 92 16 13 17 14 18 91 19 15 20 16 21 17 22
REMARK SMILES IDX 7 23 6 24 1 25 2 26 3 27 94 28 4 29 5 30 26 31 27 32 28 33
REMARK SMILES IDX 29 34 30 36 31 37 32 38 90 39 33 40 89 41 34 42 35 43 36 44
REMARK SMILES IDX 83 45 37 46 88 47 82 48 84 49 38 50 87 51 81 52 80 53 39 55
REMARK SMILES IDX 69 56 50 57 68 58 51 59 54 60 67 61 85 62 52 63 53 64 66 66
REMARK SMILES IDX 86 67 55 68 40 69 41 70 49 71 42 72 48 73 43 74 44 75 45 76
REMARK SMILES IDX 46 77 47 78 70 79 71 80 79 81 72 82 78 83 73 84 74 85 75 86
REMARK SMILES IDX 76 87 77 88 56 89 57 90 65 91 58 92 64 93 59 94 60 95 61 96
REMARK SMILES IDX 62 97 63 98
REMARK H PARENT 23 6 28 35 84 54 54 65
REMARK Flexibility Score: inf
ROOT
ATOM      1  C   UNL     1      -2.172   3.950  -8.508  1.00  0.00     0.023 C 
ENDROOT
BRANCH   1   2
ATOM      2  C   UNL     1      -1.381   5.254  -8.600  1.00  0.00     0.116 C 
BRANCH   2   3
ATOM      3  N   UNL     1      -1.708   6.228  -7.567  1.00  0.00    -0.354 N 
ATOM      4  C   UNL     1      -0.885   6.995  -6.788  1.00  0.00     0.242 C 
ATOM      5  O   UNL     1      -1.397   7.934  -6.165  1.00  0.00    -0.273 OA
ATOM      6  H   UNL     1      -2.671   6.354  -7.404  1.00  0.00     0.163 HD
BRANCH   4   7
ATOM      7  C   UNL     1       0.621   6.671  -6.600  1.00  0.00     0.171 C 
ATOM      8  C   UNL     1       0.841   5.234  -6.122  1.00  0.00     0.042 C 
BRANCH   7   9
ATOM      9  N   UNL     1       1.596   7.056  -7.638  1.00  0.00    -0.330 N 
ATOM     10  C   UNL     1       7.878   5.266  -6.983  1.00  0.00     0.226 C 
ATOM     11  O   UNL     1       8.092   4.068  -6.759  1.00  0.00    -0.275 OA
ATOM     12  N   UNL     1       6.750   5.664  -7.688  1.00  0.00    -0.342 N 
ATOM     13  C   UNL     1       5.632   4.736  -7.852  1.00  0.00     0.120 C 
ATOM     14  C   UNL     1       6.567   6.921  -8.398  1.00  0.00     0.120 C 
ATOM     15  C   UNL     1       4.321   5.398  -7.396  1.00  0.00     0.030 C 
ATOM     16  C   UNL     1       5.359   7.653  -7.840  1.00  0.00     0.030 C 
ATOM     17  C   UNL     1       4.071   6.807  -8.010  1.00  0.00    -0.008 C 
ATOM     18  C   UNL     1       3.723   6.745  -9.519  1.00  0.00     0.019 C 
ATOM     19  C   UNL     1       2.922   7.516  -7.255  1.00  0.00     0.127 C 
ATOM     20  C   UNL     1       2.317   6.256  -9.795  1.00  0.00     0.101 C 
ATOM     21  C   UNL     1       1.293   7.003  -8.983  1.00  0.00     0.223 C 
ATOM     22  O   UNL     1       0.237   7.385  -9.470  1.00  0.00    -0.275 OA
BRANCH  10  23
ATOM     23  C   UNL     1       8.751   6.297  -6.266  1.00  0.00     0.135 C 
BRANCH  23  24
ATOM     24  C   UNL     1       9.333   7.442  -7.053  1.00  0.00    -0.038 A 
ATOM     25  C   UNL     1       8.867  11.225  -7.257  1.00  0.00     0.044 C 
ATOM     26  C   UNL     1       9.362   9.836  -7.534  1.00  0.00    -0.051 A 
ATOM     27  C   UNL     1      10.185   9.588  -8.637  1.00  0.00     0.003 A 
ATOM     28  C   UNL     1       8.963   8.761  -6.731  1.00  0.00     0.007 A 
ATOM     29  C   UNL     1      10.602   8.288  -8.932  1.00  0.00     0.001 A 
ATOM     30  C   UNL     1      10.180   7.216  -8.144  1.00  0.00     0.004 A 
ENDBRANCH  23  24
ENDBRANCH  10  23
ENDBRANCH   7   9
ENDBRANCH   4   7
ENDBRANCH   2   3
ENDBRANCH   1   2
BRANCH   1  31
ATOM     31  C   UNL     1      -3.693   4.085  -8.592  1.00  0.00     0.023 C 
BRANCH  31  32
ATOM     32  C   UNL     1      -4.219   4.764  -9.848  1.00  0.00     0.116 C 
BRANCH  32  33
ATOM     33  N   UNL     1      -4.402   3.904 -11.006  1.00  0.00    -0.352 N 
ATOM     34  C   UNL     1      -5.294   4.262 -12.019  1.00  0.00     0.251 C 
ATOM     35  H   UNL     1      -3.894   3.064 -11.077  1.00  0.00     0.163 HD
ATOM     36  O   UNL     1      -6.254   3.593 -12.355  1.00  0.00    -0.269 OA
BRANCH  34  37
ATOM     37  C   UNL     1      -4.979   5.548 -12.687  1.00  0.00     0.039 A 
ATOM     38  C   UNL     1      -4.380   5.553 -13.949  1.00  0.00     0.014 A 
ATOM     39  C   UNL     1      -5.091   6.721 -11.944  1.00  0.00     0.014 A 
ATOM     40  C   UNL     1      -3.756   6.718 -14.404  1.00  0.00     0.010 A 
ATOM     41  C   UNL     1      -4.393   7.837 -12.350  1.00  0.00     0.010 A 
ATOM     42  C   UNL     1      -3.701   7.833 -13.568  1.00  0.00    -0.014 A 
BRANCH  42  43
ATOM     43  C   UNL     1      -2.915   9.036 -13.823  1.00  0.00     0.031 A 
ATOM     44  C   UNL     1      -3.588  10.313 -14.152  1.00  0.00     0.074 A 
ATOM     45  C   UNL     1      -1.593   9.033 -13.554  1.00  0.00     0.049 A 
ATOM     46  N   UNL     1      -2.992  11.357 -14.623  1.00  0.00    -0.248 NA
ATOM     47  C   UNL     1      -5.029  10.493 -14.012  1.00  0.00     0.031 C 
ATOM     48  C   UNL     1      -0.736  10.189 -13.306  1.00  0.00     0.029 A 
ATOM     49  N   UNL     1      -0.707   7.963 -13.655  1.00  0.00    -0.354 N 
ATOM     50  C   UNL     1      -3.875  12.410 -14.536  1.00  0.00     0.074 A 
ATOM     51  C   UNL     1      -5.153  11.801 -14.250  1.00  0.00     0.031 C 
ATOM     52  C   UNL     1       0.542   9.835 -13.506  1.00  0.00     0.029 A 
ATOM     53  C   UNL     1       0.531   8.493 -14.061  1.00  0.00     0.049 A 
ATOM     54  H   UNL     1      -0.910   7.016 -13.477  1.00  0.00     0.167 HD
ATOM     55  C   UNL     1      -3.401  13.690 -14.562  1.00  0.00     0.031 A 
ATOM     56  C   UNL     1       1.075   8.157 -15.270  1.00  0.00     0.031 A 
ATOM     57  C   UNL     1      -1.965  13.732 -14.847  1.00  0.00     0.049 A 
ATOM     58  C   UNL     1       1.272   9.326 -16.211  1.00  0.00     0.074 A 
ATOM     59  C   UNL     1      -0.845  13.956 -14.064  1.00  0.00     0.029 A 
ATOM     60  N   UNL     1      -1.500  13.245 -16.064  1.00  0.00    -0.354 N 
ATOM     61  N   UNL     1       0.726  10.501 -16.056  1.00  0.00    -0.248 NA
ATOM     62  C   UNL     1       2.088   9.254 -17.419  1.00  0.00     0.031 C 
ATOM     63  C   UNL     1       0.298  13.543 -14.800  1.00  0.00     0.029 A 
ATOM     64  C   UNL     1      -0.127  13.091 -16.037  1.00  0.00     0.049 A 
ATOM     65  H   UNL     1      -2.071  13.038 -16.838  1.00  0.00     0.167 HD
ATOM     66  C   UNL     1       1.066  11.318 -17.105  1.00  0.00     0.074 A 
ATOM     67  C   UNL     1       1.947  10.496 -17.916  1.00  0.00     0.031 C 
ATOM     68  C   UNL     1       0.576  12.591 -17.215  1.00  0.00     0.031 A 
BRANCH  55  69
ATOM     69  C   UNL     1      -4.184  14.886 -14.048  1.00  0.00    -0.014 A 
ATOM     70  C   UNL     1      -3.495  16.031 -13.593  1.00  0.00     0.010 A 
ATOM     71  C   UNL     1      -5.585  14.927 -13.919  1.00  0.00     0.010 A 
ATOM     72  C   UNL     1      -4.152  17.096 -12.954  1.00  0.00     0.020 A 
ATOM     73  C   UNL     1      -6.254  15.966 -13.254  1.00  0.00     0.020 A 
ATOM     74  C   UNL     1      -5.529  17.042 -12.760  1.00  0.00     0.054 A 
BRANCH  74  75
ATOM     75  S   UNL     1      -6.357  18.377 -11.859  1.00  0.00     0.124 S 
ATOM     76  O   UNL     1      -5.661  18.371 -10.575  1.00  0.00    -0.237 OA
ATOM     77  O   UNL     1      -6.102  19.536 -12.709  1.00  0.00    -0.237 OA
ATOM     78  O   UNL     1      -7.753  17.945 -11.803  1.00  0.00    -0.744 OA
ENDBRANCH  74  75
ENDBRANCH  55  69
BRANCH  56  79
ATOM     79  C   UNL     1       0.767   6.755 -15.682  1.00  0.00    -0.014 A 
ATOM     80  C   UNL     1       1.333   5.718 -14.907  1.00  0.00     0.010 A 
ATOM     81  C   UNL     1      -0.369   6.477 -16.462  1.00  0.00     0.010 A 
ATOM     82  C   UNL     1       0.664   4.502 -14.753  1.00  0.00     0.020 A 
ATOM     83  C   UNL     1      -1.031   5.247 -16.323  1.00  0.00     0.020 A 
ATOM     84  C   UNL     1      -0.553   4.306 -15.405  1.00  0.00     0.054 A 
BRANCH  84  85
ATOM     85  S   UNL     1      -1.584   2.904 -14.876  1.00  0.00     0.124 S 
ATOM     86  O   UNL     1      -0.688   1.767 -15.066  1.00  0.00    -0.237 OA
ATOM     87  O   UNL     1      -1.878   3.243 -13.481  1.00  0.00    -0.237 OA
ATOM     88  O   UNL     1      -2.728   2.959 -15.781  1.00  0.00    -0.744 OA
ENDBRANCH  84  85
ENDBRANCH  56  79
BRANCH  68  89
ATOM     89  C   UNL     1       0.733  13.534 -18.395  1.00  0.00    -0.014 A 
ATOM     90  C   UNL     1       1.159  13.157 -19.677  1.00  0.00     0.010 A 
ATOM     91  C   UNL     1       0.330  14.886 -18.240  1.00  0.00     0.010 A 
ATOM     92  C   UNL     1       1.232  14.084 -20.730  1.00  0.00     0.020 A 
ATOM     93  C   UNL     1       0.354  15.808 -19.292  1.00  0.00     0.020 A 
ATOM     94  C   UNL     1       0.830  15.405 -20.531  1.00  0.00     0.054 A 
BRANCH  94  95
ATOM     95  S   UNL     1       0.861  16.569 -21.917  1.00  0.00     0.124 S 
ATOM     96  O   UNL     1       2.244  17.038 -21.887  1.00  0.00    -0.237 OA
ATOM     97  O   UNL     1       0.511  15.727 -23.059  1.00  0.00    -0.237 OA
ATOM     98  O   UNL     1      -0.146  17.562 -21.554  1.00  0.00    -0.744 OA
ENDBRANCH  94  95
ENDBRANCH  68  89
ENDBRANCH  42  43
ENDBRANCH  34  37
ENDBRANCH  32  33
ENDBRANCH  31  32
ENDBRANCH   1  31
TORSDOF 17
