REMARK SMILES C[C@]12C(=O)N(c3ccc(C(=O)NCCCCNC(=O)c4ccc(-c5c6nc(c(-c7ccc(S(=O)(=O)[O-])cc7)c7ccc([nH]7)c(-c7ccc(S(=O)(=O)[O-])cc7)c7nc(c(-c8ccc(S(=O)(=O)[O-])cc8)c8ccc5[nH]8)C=C7)C=C6)cc4)cc3)C(=O)[C@H]1[C@H]1c3ccccc3[C@@H]2c2ccccc21
REMARK SMILES IDX 15 1 14 2 13 3 12 4 10 5 11 6 9 8 6 9 7 10 81 11 8 12 80 13
REMARK SMILES IDX 5 14 1 15 2 16 3 17 84 18 92 19 4 20 82 21 85 22 91 23 93 24
REMARK SMILES IDX 83 25 86 26 98 27 90 28 94 29 87 30 97 31 89 32 95 33 88 34
REMARK SMILES IDX 96 35 16 36 17 37 18 38 19 40 20 41 21 42 79 43 22 44 78 45
REMARK SMILES IDX 23 46 24 47 25 48 72 49 26 50 77 51 71 52 73 53 27 54 76 55
REMARK SMILES IDX 70 56 69 57 28 59 58 60 39 61 57 62 40 63 43 64 56 65 74 66
REMARK SMILES IDX 41 67 42 68 55 70 75 71 44 72 29 73 30 74 38 75 31 76 37 77
REMARK SMILES IDX 32 78 33 79 34 80 35 81 36 82 59 83 60 84 68 85 61 86 67 87
REMARK SMILES IDX 62 88 63 89 64 90 65 91 66 92 45 93 46 94 54 95 47 96 53 97
REMARK SMILES IDX 48 98 49 99 50 100 51 101 52 102
REMARK H PARENT 12 7 17 39 73 58 43 69
REMARK Flexibility Score: inf
ROOT
ATOM      1  C   UNL     1      -9.340  -5.385   3.309  1.00  0.00     0.023 C 
ENDROOT
BRANCH   1   2
ATOM      2  C   UNL     1      -8.131  -4.463   3.216  1.00  0.00     0.023 C 
BRANCH   2   3
ATOM      3  C   UNL     1      -6.777  -5.127   3.424  1.00  0.00     0.116 C 
BRANCH   3   4
ATOM      4  N   UNL     1      -6.436  -6.091   2.396  1.00  0.00    -0.352 N 
ATOM      5  C   UNL     1      -5.433  -6.071   1.461  1.00  0.00     0.251 C 
ATOM      6  O   UNL     1      -5.353  -6.973   0.631  1.00  0.00    -0.269 OA
ATOM      7  H   UNL     1      -7.017  -6.886   2.363  1.00  0.00     0.163 HD
BRANCH   5   8
ATOM      8  C   UNL     1      -4.466  -4.950   1.405  1.00  0.00     0.039 A 
ATOM      9  C   UNL     1      -2.631  -2.799   1.178  1.00  0.00     0.052 A 
ATOM     10  C   UNL     1      -3.249  -3.364   0.046  1.00  0.00     0.027 A 
ATOM     11  C   UNL     1      -2.956  -3.345   2.430  1.00  0.00     0.027 A 
ATOM     12  C   UNL     1      -4.154  -4.426   0.154  1.00  0.00     0.016 A 
ATOM     13  C   UNL     1      -3.826  -4.439   2.536  1.00  0.00     0.016 A 
BRANCH   9  14
ATOM     14  N   UNL     1      -1.533  -1.888   1.051  1.00  0.00    -0.250 N 
ATOM     15  C   UNL     1       1.054  -0.227  -0.089  1.00  0.00     0.024 C 
ATOM     16  C   UNL     1       0.650  -1.671   0.269  1.00  0.00     0.071 C 
ATOM     17  C   UNL     1      -0.797  -1.827  -0.121  1.00  0.00     0.241 C 
ATOM     18  C   UNL     1       0.641  -1.904   1.808  1.00  0.00     0.107 C 
ATOM     19  C   UNL     1       1.524  -2.776  -0.402  1.00  0.00     0.066 C 
ATOM     20  O   UNL     1      -1.168  -1.846  -1.278  1.00  0.00    -0.273 OA
ATOM     21  C   UNL     1      -0.760  -1.438   2.139  1.00  0.00     0.238 C 
ATOM     22  C   UNL     1       1.888  -2.769   2.232  1.00  0.00     0.063 C 
ATOM     23  C   UNL     1       1.188  -4.127   0.262  1.00  0.00    -0.036 A 
ATOM     24  C   UNL     1       2.953  -2.450   0.017  1.00  0.00    -0.036 A 
ATOM     25  O   UNL     1      -1.117  -0.893   3.170  1.00  0.00    -0.274 OA
ATOM     26  C   UNL     1       1.491  -4.181   1.662  1.00  0.00    -0.036 A 
ATOM     27  C   UNL     1       3.135  -2.390   1.427  1.00  0.00    -0.036 A 
ATOM     28  C   UNL     1       0.470  -5.154  -0.333  1.00  0.00     0.005 A 
ATOM     29  C   UNL     1       4.015  -2.283  -0.861  1.00  0.00     0.005 A 
ATOM     30  C   UNL     1       1.086  -5.255   2.446  1.00  0.00     0.004 A 
ATOM     31  C   UNL     1       4.405  -2.176   1.946  1.00  0.00     0.004 A 
ATOM     32  C   UNL     1       0.058  -6.228   0.461  1.00  0.00     0.000 A 
ATOM     33  C   UNL     1       5.283  -2.062  -0.330  1.00  0.00     0.000 A 
ATOM     34  C   UNL     1       0.365  -6.280   1.832  1.00  0.00     0.000 A 
ATOM     35  C   UNL     1       5.476  -2.010   1.059  1.00  0.00     0.000 A 
ENDBRANCH   9  14
ENDBRANCH   5   8
ENDBRANCH   3   4
ENDBRANCH   2   3
ENDBRANCH   1   2
BRANCH   1  36
ATOM     36  C   UNL     1      -9.359  -6.342   4.495  1.00  0.00     0.116 C 
BRANCH  36  37
ATOM     37  N   UNL     1      -9.179  -5.697   5.791  1.00  0.00    -0.352 N 
ATOM     38  C   UNL     1      -9.908  -5.842   6.950  1.00  0.00     0.251 C 
ATOM     39  H   UNL     1      -8.427  -5.065   5.844  1.00  0.00     0.163 HD
ATOM     40  O   UNL     1      -9.623  -5.180   7.944  1.00  0.00    -0.269 OA
BRANCH  38  41
ATOM     41  C   UNL     1     -11.072  -6.751   6.965  1.00  0.00     0.039 A 
ATOM     42  C   UNL     1     -10.971  -8.040   6.441  1.00  0.00     0.014 A 
ATOM     43  C   UNL     1     -12.301  -6.267   7.420  1.00  0.00     0.014 A 
ATOM     44  C   UNL     1     -12.131  -8.753   6.165  1.00  0.00     0.010 A 
ATOM     45  C   UNL     1     -13.456  -7.032   7.232  1.00  0.00     0.010 A 
ATOM     46  C   UNL     1     -13.389  -8.249   6.537  1.00  0.00    -0.014 A 
BRANCH  46  47
ATOM     47  C   UNL     1     -14.616  -8.998   6.155  1.00  0.00     0.031 A 
ATOM     48  C   UNL     1     -15.619  -8.400   5.200  1.00  0.00     0.074 A 
ATOM     49  C   UNL     1     -14.784 -10.257   6.606  1.00  0.00     0.049 A 
ATOM     50  N   UNL     1     -16.718  -8.932   4.729  1.00  0.00    -0.248 NA
ATOM     51  C   UNL     1     -15.362  -7.035   4.710  1.00  0.00     0.031 C 
ATOM     52  C   UNL     1     -13.867 -10.953   7.511  1.00  0.00     0.029 A 
ATOM     53  N   UNL     1     -15.755 -11.188   6.335  1.00  0.00    -0.354 N 
ATOM     54  C   UNL     1     -17.290  -7.966   3.907  1.00  0.00     0.074 A 
ATOM     55  C   UNL     1     -16.433  -6.803   3.962  1.00  0.00     0.031 C 
ATOM     56  C   UNL     1     -14.278 -12.220   7.663  1.00  0.00     0.029 A 
ATOM     57  C   UNL     1     -15.526 -12.408   6.928  1.00  0.00     0.049 A 
ATOM     58  H   UNL     1     -16.540 -11.001   5.772  1.00  0.00     0.167 HD
ATOM     59  C   UNL     1     -18.419  -8.048   3.164  1.00  0.00     0.031 A 
ATOM     60  C   UNL     1     -16.236 -13.552   6.895  1.00  0.00     0.031 A 
ATOM     61  C   UNL     1     -19.255  -9.218   3.091  1.00  0.00     0.049 A 
ATOM     62  C   UNL     1     -17.502 -13.606   6.092  1.00  0.00     0.074 A 
ATOM     63  C   UNL     1     -20.413  -9.396   2.354  1.00  0.00     0.029 A 
ATOM     64  N   UNL     1     -19.022 -10.408   3.763  1.00  0.00    -0.354 N 
ATOM     65  N   UNL     1     -18.031 -12.675   5.335  1.00  0.00    -0.248 NA
ATOM     66  C   UNL     1     -18.271 -14.857   6.139  1.00  0.00     0.031 C 
ATOM     67  C   UNL     1     -20.911 -10.672   2.623  1.00  0.00     0.029 A 
ATOM     68  C   UNL     1     -20.028 -11.315   3.475  1.00  0.00     0.049 A 
ATOM     69  H   UNL     1     -18.256 -10.582   4.356  1.00  0.00     0.167 HD
ATOM     70  C   UNL     1     -19.193 -13.229   4.812  1.00  0.00     0.074 A 
ATOM     71  C   UNL     1     -19.278 -14.583   5.319  1.00  0.00     0.031 C 
ATOM     72  C   UNL     1     -20.108 -12.659   3.991  1.00  0.00     0.031 A 
BRANCH  59  73
ATOM     73  C   UNL     1     -18.838  -6.847   2.356  1.00  0.00    -0.014 A 
ATOM     74  C   UNL     1     -20.002  -6.140   2.712  1.00  0.00     0.010 A 
ATOM     75  C   UNL     1     -18.163  -6.499   1.173  1.00  0.00     0.010 A 
ATOM     76  C   UNL     1     -20.503  -5.131   1.885  1.00  0.00     0.020 A 
ATOM     77  C   UNL     1     -18.647  -5.473   0.355  1.00  0.00     0.020 A 
ATOM     78  C   UNL     1     -19.828  -4.812   0.705  1.00  0.00     0.054 A 
BRANCH  78  79
ATOM     79  S   UNL     1     -20.508  -3.521  -0.374  1.00  0.00     0.124 S 
ATOM     80  O   UNL     1     -21.613  -4.216  -1.027  1.00  0.00    -0.237 OA
ATOM     81  O   UNL     1     -20.891  -2.479   0.576  1.00  0.00    -0.237 OA
ATOM     82  O   UNL     1     -19.384  -3.175  -1.242  1.00  0.00    -0.744 OA
ENDBRANCH  78  79
ENDBRANCH  59  73
BRANCH  60  83
ATOM     83  C   UNL     1     -15.735 -14.733   7.650  1.00  0.00    -0.014 A 
ATOM     84  C   UNL     1     -15.698 -14.711   9.057  1.00  0.00     0.010 A 
ATOM     85  C   UNL     1     -15.202 -15.840   6.969  1.00  0.00     0.010 A 
ATOM     86  C   UNL     1     -15.080 -15.742   9.767  1.00  0.00     0.020 A 
ATOM     87  C   UNL     1     -14.610 -16.890   7.679  1.00  0.00     0.020 A 
ATOM     88  C   UNL     1     -14.524 -16.817   9.072  1.00  0.00     0.054 A 
BRANCH  88  89
ATOM     89  S   UNL     1     -13.675 -18.118  10.008  1.00  0.00     0.124 S 
ATOM     90  O   UNL     1     -12.382 -17.495  10.277  1.00  0.00    -0.237 OA
ATOM     91  O   UNL     1     -14.542 -18.295  11.171  1.00  0.00    -0.237 OA
ATOM     92  O   UNL     1     -13.648 -19.244   9.079  1.00  0.00    -0.744 OA
ENDBRANCH  88  89
ENDBRANCH  60  83
BRANCH  72  93
ATOM     93  C   UNL     1     -21.299 -13.481   3.578  1.00  0.00    -0.014 A 
ATOM     94  C   UNL     1     -21.431 -13.897   2.241  1.00  0.00     0.010 A 
ATOM     95  C   UNL     1     -22.348 -13.726   4.481  1.00  0.00     0.010 A 
ATOM     96  C   UNL     1     -22.605 -14.514   1.804  1.00  0.00     0.020 A 
ATOM     97  C   UNL     1     -23.514 -14.367   4.053  1.00  0.00     0.020 A 
ATOM     98  C   UNL     1     -23.645 -14.733   2.711  1.00  0.00     0.054 A 
BRANCH  98  99
ATOM     99  S   UNL     1     -25.176 -15.506   2.120  1.00  0.00     0.124 S 
ATOM    100  O   UNL     1     -25.846 -14.392   1.456  1.00  0.00    -0.237 OA
ATOM    101  O   UNL     1     -24.685 -16.562   1.237  1.00  0.00    -0.237 OA
ATOM    102  O   UNL     1     -25.815 -15.979   3.346  1.00  0.00    -0.744 OA
ENDBRANCH  98  99
ENDBRANCH  72  93
ENDBRANCH  46  47
ENDBRANCH  38  41
ENDBRANCH  36  37
ENDBRANCH   1  36
TORSDOF 15
