REMARK SMILES Cc1cc(C(=O)NCCCCNC(=O)c2ccc(-c3c4nc(c(-c5ccc(S(=O)(=O)[O-])cc5)c5ccc([nH]5)c(-c5ccc(S(=O)(=O)[O-])cc5)c5nc(c(-c6ccc(S(=O)(=O)[O-])cc6)c6ccc3[nH]6)C=C5)C=C4)cc2)c2c(C)nn(CC(C)C)c2n1
REMARK SMILES IDX 10 1 9 2 8 3 7 4 5 5 6 6 4 8 1 9 2 10 3 11 85 12 84 13 75 14
REMARK SMILES IDX 79 15 76 16 78 17 77 18 80 19 81 20 82 21 83 22 11 23 12 24
REMARK SMILES IDX 13 25 14 27 15 28 16 29 74 30 17 31 73 32 18 33 19 34 20 35
REMARK SMILES IDX 67 36 21 37 72 38 66 39 68 40 22 41 71 42 65 43 64 44 23 46
REMARK SMILES IDX 53 47 34 48 52 49 35 50 38 51 51 52 69 53 36 54 37 55 50 57
REMARK SMILES IDX 70 58 39 59 24 60 25 61 33 62 26 63 32 64 27 65 28 66 29 67
REMARK SMILES IDX 30 68 31 69 54 70 55 71 63 72 56 73 62 74 57 75 58 76 59 77
REMARK SMILES IDX 60 78 61 79 40 80 41 81 49 82 42 83 48 84 43 85 44 86 45 87
REMARK SMILES IDX 46 88 47 89
REMARK H PARENT 7 7 12 26 68 45 38 56
REMARK Flexibility Score: inf
ROOT
ATOM      1  C   UNL     1      -4.452  -0.274   2.956  1.00  0.00     0.023 C 
ENDROOT
BRANCH   1   2
ATOM      2  C   UNL     1      -3.220  -0.188   2.041  1.00  0.00     0.023 C 
BRANCH   2   3
ATOM      3  C   UNL     1      -3.478   0.470   0.675  1.00  0.00     0.116 C 
BRANCH   3   4
ATOM      4  N   UNL     1      -3.580   1.910   0.827  1.00  0.00    -0.352 N 
ATOM      5  C   UNL     1      -2.656   2.925   0.916  1.00  0.00     0.252 C 
ATOM      6  O   UNL     1      -3.071   3.991   1.364  1.00  0.00    -0.269 OA
ATOM      7  H   UNL     1      -4.511   2.229   0.877  1.00  0.00     0.163 HD
BRANCH   5   8
ATOM      8  C   UNL     1      -1.234   2.801   0.496  1.00  0.00     0.054 A 
ATOM      9  C   UNL     1       1.334   0.086  -0.223  1.00  0.00     0.067 C 
ATOM     10  C   UNL     1       0.704   1.439  -0.074  1.00  0.00     0.041 A 
ATOM     11  C   UNL     1      -0.576   1.559   0.444  1.00  0.00     0.038 A 
ATOM     12  N   UNL     1       1.433   2.485  -0.467  1.00  0.00    -0.234 NA
ATOM     13  C   UNL     1       0.862   3.676  -0.223  1.00  0.00     0.159 A 
ATOM     14  C   UNL     1      -0.437   3.940   0.202  1.00  0.00     0.055 A 
ATOM     15  N   UNL     1       1.517   4.869  -0.277  1.00  0.00    -0.247 N 
ATOM     16  C   UNL     1      -0.492   5.377   0.170  1.00  0.00     0.070 A 
ATOM     17  N   UNL     1       0.715   5.926  -0.073  1.00  0.00    -0.176 NA
ATOM     18  C   UNL     1      -1.616   6.328   0.391  1.00  0.00     0.069 C 
BRANCH  15  19
ATOM     19  C   UNL     1       2.934   5.048  -0.528  1.00  0.00     0.149 C 
BRANCH  19  20
ATOM     20  C   UNL     1       3.875   4.659   0.640  1.00  0.00     0.004 C 
ATOM     21  C   UNL     1       3.883   3.165   0.979  1.00  0.00     0.009 C 
ATOM     22  C   UNL     1       5.307   5.073   0.291  1.00  0.00     0.009 C 
ENDBRANCH  19  20
ENDBRANCH  15  19
ENDBRANCH   5   8
ENDBRANCH   3   4
ENDBRANCH   2   3
ENDBRANCH   1   2
BRANCH   1  23
ATOM     23  C   UNL     1      -5.530  -1.221   2.453  1.00  0.00     0.116 C 
BRANCH  23  24
ATOM     24  N   UNL     1      -5.038  -2.591   2.286  1.00  0.00    -0.352 N 
ATOM     25  C   UNL     1      -5.659  -3.658   1.657  1.00  0.00     0.251 C 
ATOM     26  H   UNL     1      -4.151  -2.778   2.672  1.00  0.00     0.163 HD
ATOM     27  O   UNL     1      -5.335  -4.807   1.893  1.00  0.00    -0.269 OA
BRANCH  25  28
ATOM     28  C   UNL     1      -6.693  -3.347   0.657  1.00  0.00     0.039 A 
ATOM     29  C   UNL     1      -7.874  -4.081   0.529  1.00  0.00     0.014 A 
ATOM     30  C   UNL     1      -6.432  -2.253  -0.161  1.00  0.00     0.014 A 
ATOM     31  C   UNL     1      -8.793  -3.679  -0.436  1.00  0.00     0.010 A 
ATOM     32  C   UNL     1      -7.431  -1.714  -0.909  1.00  0.00     0.010 A 
ATOM     33  C   UNL     1      -8.540  -2.502  -1.154  1.00  0.00    -0.014 A 
BRANCH  33  34
ATOM     34  C   UNL     1      -9.370  -2.052  -2.248  1.00  0.00     0.031 A 
ATOM     35  C   UNL     1     -10.720  -1.590  -1.872  1.00  0.00     0.074 A 
ATOM     36  C   UNL     1      -8.839  -1.847  -3.473  1.00  0.00     0.049 A 
ATOM     37  N   UNL     1     -11.828  -2.216  -2.072  1.00  0.00    -0.248 NA
ATOM     38  C   UNL     1     -10.856  -0.371  -1.061  1.00  0.00     0.031 C 
ATOM     39  C   UNL     1      -7.441  -1.940  -3.922  1.00  0.00     0.029 A 
ATOM     40  N   UNL     1      -9.468  -1.388  -4.576  1.00  0.00    -0.354 N 
ATOM     41  C   UNL     1     -12.831  -1.387  -1.590  1.00  0.00     0.074 A 
ATOM     42  C   UNL     1     -12.171  -0.357  -0.825  1.00  0.00     0.031 C 
ATOM     43  C   UNL     1      -7.311  -1.329  -5.123  1.00  0.00     0.029 A 
ATOM     44  C   UNL     1      -8.632  -0.965  -5.599  1.00  0.00     0.049 A 
ATOM     45  H   UNL     1     -10.449  -1.355  -4.649  1.00  0.00     0.167 HD
ATOM     46  C   UNL     1     -14.114  -1.488  -2.031  1.00  0.00     0.031 A 
ATOM     47  C   UNL     1      -9.030  -0.330  -6.731  1.00  0.00     0.031 A 
ATOM     48  C   UNL     1     -14.301  -2.642  -2.874  1.00  0.00     0.049 A 
ATOM     49  C   UNL     1     -10.471  -0.668  -6.904  1.00  0.00     0.074 A 
ATOM     50  C   UNL     1     -14.192  -4.004  -2.675  1.00  0.00     0.029 A 
ATOM     51  N   UNL     1     -14.182  -2.446  -4.234  1.00  0.00    -0.354 N 
ATOM     52  N   UNL     1     -10.891  -1.888  -7.112  1.00  0.00    -0.248 NA
ATOM     53  C   UNL     1     -11.463   0.238  -6.338  1.00  0.00     0.031 C 
ATOM     54  C   UNL     1     -13.518  -4.487  -3.836  1.00  0.00     0.029 A 
ATOM     55  C   UNL     1     -13.332  -3.414  -4.712  1.00  0.00     0.049 A 
ATOM     56  H   UNL     1     -14.624  -1.743  -4.763  1.00  0.00     0.167 HD
ATOM     57  C   UNL     1     -12.030  -2.019  -6.328  1.00  0.00     0.074 A 
ATOM     58  C   UNL     1     -12.382  -0.651  -5.942  1.00  0.00     0.031 C 
ATOM     59  C   UNL     1     -12.416  -3.229  -5.821  1.00  0.00     0.031 A 
BRANCH  46  60
ATOM     60  C   UNL     1     -15.103  -0.363  -1.994  1.00  0.00    -0.014 A 
ATOM     61  C   UNL     1     -16.470  -0.641  -2.182  1.00  0.00     0.010 A 
ATOM     62  C   UNL     1     -14.700   0.987  -2.030  1.00  0.00     0.010 A 
ATOM     63  C   UNL     1     -17.385   0.388  -2.437  1.00  0.00     0.020 A 
ATOM     64  C   UNL     1     -15.610   2.022  -2.244  1.00  0.00     0.020 A 
ATOM     65  C   UNL     1     -16.944   1.713  -2.475  1.00  0.00     0.054 A 
BRANCH  65  66
ATOM     66  S   UNL     1     -18.110   3.016  -2.942  1.00  0.00     0.124 S 
ATOM     67  O   UNL     1     -18.595   2.544  -4.236  1.00  0.00    -0.237 OA
ATOM     68  O   UNL     1     -19.074   2.970  -1.847  1.00  0.00    -0.237 OA
ATOM     69  O   UNL     1     -17.280   4.218  -2.990  1.00  0.00    -0.744 OA
ENDBRANCH  65  66
ENDBRANCH  46  60
BRANCH  47  70
ATOM     70  C   UNL     1      -8.366   0.819  -7.405  1.00  0.00    -0.014 A 
ATOM     71  C   UNL     1      -8.836   1.299  -8.643  1.00  0.00     0.010 A 
ATOM     72  C   UNL     1      -7.453   1.630  -6.699  1.00  0.00     0.010 A 
ATOM     73  C   UNL     1      -8.476   2.577  -9.111  1.00  0.00     0.020 A 
ATOM     74  C   UNL     1      -7.085   2.901  -7.160  1.00  0.00     0.020 A 
ATOM     75  C   UNL     1      -7.629   3.384  -8.348  1.00  0.00     0.054 A 
BRANCH  75  76
ATOM     76  S   UNL     1      -7.328   5.102  -8.862  1.00  0.00     0.124 S 
ATOM     77  O   UNL     1      -6.735   4.937 -10.186  1.00  0.00    -0.237 OA
ATOM     78  O   UNL     1      -8.672   5.672  -8.837  1.00  0.00    -0.237 OA
ATOM     79  O   UNL     1      -6.420   5.615  -7.837  1.00  0.00    -0.744 OA
ENDBRANCH  75  76
ENDBRANCH  47  70
BRANCH  59  80
ATOM     80  C   UNL     1     -11.675  -4.469  -6.280  1.00  0.00    -0.014 A 
ATOM     81  C   UNL     1     -10.328  -4.736  -5.957  1.00  0.00     0.010 A 
ATOM     82  C   UNL     1     -12.425  -5.483  -6.896  1.00  0.00     0.010 A 
ATOM     83  C   UNL     1      -9.747  -5.980  -6.258  1.00  0.00     0.020 A 
ATOM     84  C   UNL     1     -11.857  -6.727  -7.187  1.00  0.00     0.020 A 
ATOM     85  C   UNL     1     -10.521  -6.971  -6.869  1.00  0.00     0.054 A 
BRANCH  85  86
ATOM     86  S   UNL     1      -9.780  -8.589  -7.230  1.00  0.00     0.124 S 
ATOM     87  O   UNL     1      -8.654  -8.243  -8.094  1.00  0.00    -0.237 OA
ATOM     88  O   UNL     1      -9.423  -9.082  -5.901  1.00  0.00    -0.237 OA
ATOM     89  O   UNL     1     -10.857  -9.327  -7.889  1.00  0.00    -0.744 OA
ENDBRANCH  85  86
ENDBRANCH  59  80
ENDBRANCH  33  34
ENDBRANCH  25  28
ENDBRANCH  23  24
ENDBRANCH   1  23
TORSDOF 16
