REMARK SMILES Cc1cccc2sc(NC(=O)/C=C/C(=O)NCCCCNC(=O)c3ccc(-c4c5nc(c(-c6ccc(S(=O)(=O)[O-])cc6)c6ccc([nH]6)c(-c6ccc(S(=O)(=O)[O-])cc6)c6nc(c(-c7ccc(S(=O)(=O)[O-])cc7)c7ccc4[nH]7)C=C6)C=C5)cc3)nc12
REMARK SMILES IDX 19 1 18 2 17 3 16 4 14 5 15 6 13 8 12 9 10 10 9 11 11 13
REMARK SMILES IDX 8 14 1 15 2 16 3 17 85 18 4 19 6 20 84 21 5 22 7 23 20 24
REMARK SMILES IDX 21 25 22 26 23 28 24 29 25 30 83 31 26 32 82 33 27 34 28 35
REMARK SMILES IDX 29 36 76 37 30 38 81 39 75 40 77 41 31 42 80 43 74 44 73 45
REMARK SMILES IDX 32 47 62 48 43 49 61 50 44 51 47 52 60 53 78 54 45 55 46 56
REMARK SMILES IDX 59 58 79 59 48 60 33 61 34 62 42 63 35 64 41 65 36 66 37 67
REMARK SMILES IDX 38 68 39 69 40 70 63 71 64 72 72 73 65 74 71 75 66 76 67 77
REMARK SMILES IDX 68 78 69 79 70 80 49 81 50 82 58 83 51 84 57 85 52 86 53 87
REMARK SMILES IDX 54 88 55 89 56 90
REMARK H PARENT 16 7 9 12 21 27 77 46 47 57
REMARK Flexibility Score: inf
ROOT
ATOM      1  C   UNL     1      -7.961   2.934   1.757  1.00  0.00     0.023 C 
ENDROOT
BRANCH   1   2
ATOM      2  C   UNL     1      -7.410   1.556   1.376  1.00  0.00     0.023 C 
BRANCH   2   3
ATOM      3  C   UNL     1      -6.887   1.446  -0.053  1.00  0.00     0.116 C 
BRANCH   3   4
ATOM      4  N   UNL     1      -5.673   2.216  -0.240  1.00  0.00    -0.353 N 
ATOM      5  C   UNL     1      -4.449   1.797  -0.651  1.00  0.00     0.244 C 
ATOM      6  O   UNL     1      -3.571   2.606  -0.931  1.00  0.00    -0.270 OA
ATOM      7  H   UNL     1      -5.746   3.178  -0.041  1.00  0.00     0.163 HD
BRANCH   5   8
ATOM      8  C   UNL     1      -4.172   0.355  -0.782  1.00  0.00     0.077 C 
ATOM      9  C   UNL     1      -4.290  -0.452   0.282  1.00  0.00     0.077 C 
BRANCH   9  10
ATOM     10  C   UNL     1      -3.778  -1.828   0.203  1.00  0.00     0.250 C 
ATOM     11  N   UNL     1      -2.444  -2.092   0.254  1.00  0.00    -0.298 N 
ATOM     12  H   UNL     1      -2.223  -3.044   0.133  1.00  0.00     0.172 HD
ATOM     13  O   UNL     1      -4.588  -2.746   0.076  1.00  0.00    -0.270 OA
BRANCH  11  14
ATOM     14  C   UNL     1      -1.347  -1.290   0.441  1.00  0.00     0.190 A 
ATOM     15  C   UNL     1       2.844  -2.075  -0.247  1.00  0.00     0.047 C 
ATOM     16  C   UNL     1       2.160  -0.764   0.009  1.00  0.00    -0.024 A 
ATOM     17  C   UNL     1       2.891   0.439  -0.051  1.00  0.00     0.006 A 
ATOM     18  C   UNL     1       0.772  -0.687   0.278  1.00  0.00     0.087 A 
ATOM     19  C   UNL     1       2.288   1.671   0.194  1.00  0.00     0.002 A 
ATOM     20  C   UNL     1       0.209   0.553   0.575  1.00  0.00     0.057 A 
ATOM     21  N   UNL     1      -0.132  -1.746   0.248  1.00  0.00    -0.220 NA
ATOM     22  C   UNL     1       0.940   1.747   0.537  1.00  0.00     0.021 A 
ATOM     23  S   UNL     1      -1.437   0.319   0.977  1.00  0.00    -0.097 S 
ENDBRANCH  11  14
ENDBRANCH   9  10
ENDBRANCH   5   8
ENDBRANCH   3   4
ENDBRANCH   2   3
ENDBRANCH   1   2
BRANCH   1  24
ATOM     24  C   UNL     1      -8.975   3.526   0.782  1.00  0.00     0.116 C 
BRANCH  24  25
ATOM     25  N   UNL     1     -10.067   2.620   0.461  1.00  0.00    -0.352 N 
ATOM     26  C   UNL     1     -11.358   2.936   0.115  1.00  0.00     0.251 C 
ATOM     27  H   UNL     1      -9.854   1.659   0.495  1.00  0.00     0.163 HD
ATOM     28  O   UNL     1     -12.190   2.051  -0.059  1.00  0.00    -0.269 OA
BRANCH  26  29
ATOM     29  C   UNL     1     -11.740   4.357   0.006  1.00  0.00     0.039 A 
ATOM     30  C   UNL     1     -12.827   4.817   0.752  1.00  0.00     0.014 A 
ATOM     31  C   UNL     1     -10.991   5.235  -0.781  1.00  0.00     0.014 A 
ATOM     32  C   UNL     1     -13.123   6.180   0.763  1.00  0.00     0.010 A 
ATOM     33  C   UNL     1     -11.250   6.601  -0.721  1.00  0.00     0.010 A 
ATOM     34  C   UNL     1     -12.314   7.085   0.056  1.00  0.00    -0.014 A 
BRANCH  34  35
ATOM     35  C   UNL     1     -12.561   8.546   0.122  1.00  0.00     0.031 A 
ATOM     36  C   UNL     1     -12.988   9.293  -1.110  1.00  0.00     0.074 A 
ATOM     37  C   UNL     1     -12.333   9.207   1.275  1.00  0.00     0.049 A 
ATOM     38  N   UNL     1     -13.191  10.575  -1.266  1.00  0.00    -0.248 NA
ATOM     39  C   UNL     1     -13.187   8.498  -2.333  1.00  0.00     0.031 C 
ATOM     40  C   UNL     1     -11.872   8.598   2.525  1.00  0.00     0.029 A 
ATOM     41  N   UNL     1     -12.451  10.539   1.579  1.00  0.00    -0.354 N 
ATOM     42  C   UNL     1     -13.521  10.744  -2.606  1.00  0.00     0.074 A 
ATOM     43  C   UNL     1     -13.447   9.440  -3.228  1.00  0.00     0.031 C 
ATOM     44  C   UNL     1     -11.769   9.550   3.466  1.00  0.00     0.029 A 
ATOM     45  C   UNL     1     -12.122  10.839   2.880  1.00  0.00     0.049 A 
ATOM     46  H   UNL     1     -12.743  11.217   0.928  1.00  0.00     0.167 HD
ATOM     47  C   UNL     1     -13.871  11.879  -3.255  1.00  0.00     0.031 A 
ATOM     48  C   UNL     1     -12.106  12.020   3.528  1.00  0.00     0.031 A 
ATOM     49  C   UNL     1     -13.959  13.170  -2.628  1.00  0.00     0.049 A 
ATOM     50  C   UNL     1     -12.514  13.265   2.790  1.00  0.00     0.074 A 
ATOM     51  C   UNL     1     -14.358  14.372  -3.185  1.00  0.00     0.029 A 
ATOM     52  N   UNL     1     -13.648  13.426  -1.301  1.00  0.00    -0.354 N 
ATOM     53  N   UNL     1     -12.883  13.395   1.538  1.00  0.00    -0.248 NA
ATOM     54  C   UNL     1     -12.518  14.520   3.555  1.00  0.00     0.031 C 
ATOM     55  C   UNL     1     -14.252  15.364  -2.204  1.00  0.00     0.029 A 
ATOM     56  C   UNL     1     -13.833  14.770  -1.024  1.00  0.00     0.049 A 
ATOM     57  H   UNL     1     -13.340  12.753  -0.653  1.00  0.00     0.167 HD
ATOM     58  C   UNL     1     -13.190  14.740   1.373  1.00  0.00     0.074 A 
ATOM     59  C   UNL     1     -12.973  15.381   2.654  1.00  0.00     0.031 C 
ATOM     60  C   UNL     1     -13.617  15.387   0.260  1.00  0.00     0.031 A 
BRANCH  47  61
ATOM     61  C   UNL     1     -14.182  11.768  -4.723  1.00  0.00    -0.014 A 
ATOM     62  C   UNL     1     -15.354  11.129  -5.169  1.00  0.00     0.010 A 
ATOM     63  C   UNL     1     -13.306  12.329  -5.670  1.00  0.00     0.010 A 
ATOM     64  C   UNL     1     -15.620  11.011  -6.535  1.00  0.00     0.020 A 
ATOM     65  C   UNL     1     -13.583  12.238  -7.037  1.00  0.00     0.020 A 
ATOM     66  C   UNL     1     -14.729  11.562  -7.461  1.00  0.00     0.054 A 
BRANCH  66  67
ATOM     67  S   UNL     1     -15.104  11.406  -9.229  1.00  0.00     0.124 S 
ATOM     68  O   UNL     1     -14.770  10.006  -9.484  1.00  0.00    -0.237 OA
ATOM     69  O   UNL     1     -16.526  11.732  -9.287  1.00  0.00    -0.237 OA
ATOM     70  O   UNL     1     -14.218  12.382  -9.858  1.00  0.00    -0.744 OA
ENDBRANCH  66  67
ENDBRANCH  47  61
BRANCH  48  71
ATOM     71  C   UNL     1     -11.714  12.074   4.962  1.00  0.00    -0.014 A 
ATOM     72  C   UNL     1     -12.684  12.296   5.956  1.00  0.00     0.010 A 
ATOM     73  C   UNL     1     -10.373  11.885   5.344  1.00  0.00     0.010 A 
ATOM     74  C   UNL     1     -12.318  12.342   7.304  1.00  0.00     0.020 A 
ATOM     75  C   UNL     1     -10.008  11.907   6.693  1.00  0.00     0.020 A 
ATOM     76  C   UNL     1     -10.982  12.147   7.665  1.00  0.00     0.054 A 
BRANCH  76  77
ATOM     77  S   UNL     1     -10.538  12.156   9.424  1.00  0.00     0.124 S 
ATOM     78  O   UNL     1     -10.568  13.581   9.737  1.00  0.00    -0.237 OA
ATOM     79  O   UNL     1     -11.601  11.353  10.024  1.00  0.00    -0.237 OA
ATOM     80  O   UNL     1      -9.214  11.536   9.444  1.00  0.00    -0.744 OA
ENDBRANCH  76  77
ENDBRANCH  48  71
BRANCH  60  81
ATOM     81  C   UNL     1     -13.915  16.855   0.384  1.00  0.00    -0.014 A 
ATOM     82  C   UNL     1     -12.880  17.803   0.464  1.00  0.00     0.010 A 
ATOM     83  C   UNL     1     -15.251  17.295   0.349  1.00  0.00     0.010 A 
ATOM     84  C   UNL     1     -13.178  19.167   0.531  1.00  0.00     0.020 A 
ATOM     85  C   UNL     1     -15.552  18.658   0.393  1.00  0.00     0.020 A 
ATOM     86  C   UNL     1     -14.512  19.585   0.494  1.00  0.00     0.054 A 
BRANCH  86  87
ATOM     87  S   UNL     1     -14.873  21.363   0.524  1.00  0.00     0.124 S 
ATOM     88  O   UNL     1     -14.652  21.694   1.929  1.00  0.00    -0.237 OA
ATOM     89  O   UNL     1     -13.891  21.907  -0.411  1.00  0.00    -0.237 OA
ATOM     90  O   UNL     1     -16.261  21.442   0.076  1.00  0.00    -0.744 OA
ENDBRANCH  86  87
ENDBRANCH  60  81
ENDBRANCH  34  35
ENDBRANCH  26  29
ENDBRANCH  24  25
ENDBRANCH   1  24
TORSDOF 16
