REMARK SMILES O=C(NCCCCNC(=O)c1nccnc1C(=O)Nc1ccc2c(c1)OCO2)c1ccc(-c2c3nc(c(-c4ccc(S(=O)(=O)[O-])cc4)c4ccc([nH]4)c(-c4ccc(S(=O)(=O)[O-])cc4)c4nc(c(-c5ccc(S(=O)(=O)[O-])cc5)c5ccc2[nH]5)C=C4)C=C3)cc1
REMARK SMILES IDX 5 1 4 2 3 3 1 4 2 5 29 7 30 8 88 9 31 10 87 11 32 12 33 13
REMARK SMILES IDX 34 14 81 15 35 16 86 17 80 18 82 19 36 20 85 21 79 22 78 23
REMARK SMILES IDX 37 25 67 26 48 27 66 28 49 29 52 30 65 31 83 32 50 33 51 34
REMARK SMILES IDX 64 36 84 37 53 38 38 39 39 40 47 41 40 42 46 43 41 44 42 45
REMARK SMILES IDX 43 46 44 47 45 48 68 49 69 50 77 51 70 52 76 53 71 54 72 55
REMARK SMILES IDX 73 56 74 57 75 58 54 59 55 60 63 61 56 62 62 63 57 64 58 65
REMARK SMILES IDX 59 66 60 67 61 68 6 69 7 70 8 71 9 72 10 74 11 75 12 76
REMARK SMILES IDX 16 77 13 78 15 79 14 80 17 81 18 82 19 83 20 85 21 86 25 87
REMARK SMILES IDX 22 88 24 89 23 90 26 91 28 92 27 93
REMARK H PARENT 3 6 82 24 52 35 8 73 19 84
REMARK Flexibility Score: inf
ROOT
ATOM      1  C   UNL     1       4.013   0.197  -3.082  1.00  0.00     0.023 C 
ENDROOT
BRANCH   1   2
ATOM      2  C   UNL     1       4.055   0.494  -1.585  1.00  0.00     0.116 C 
BRANCH   2   3
ATOM      3  N   UNL     1       2.735   0.704  -1.019  1.00  0.00    -0.352 N 
ATOM      4  O   UNL     1       1.008   0.330   0.374  1.00  0.00    -0.269 OA
ATOM      5  C   UNL     1       2.207   0.195   0.148  1.00  0.00     0.251 C 
ATOM      6  H   UNL     1       2.137   1.289  -1.537  1.00  0.00     0.163 HD
BRANCH   5   7
ATOM      7  C   UNL     1       3.066  -0.527   1.123  1.00  0.00     0.039 A 
ATOM      8  C   UNL     1       4.331  -0.048   1.471  1.00  0.00     0.014 A 
ATOM      9  C   UNL     1       2.565  -1.674   1.754  1.00  0.00     0.014 A 
ATOM     10  C   UNL     1       5.122  -0.755   2.378  1.00  0.00     0.010 A 
ATOM     11  C   UNL     1       3.340  -2.354   2.705  1.00  0.00     0.010 A 
ATOM     12  C   UNL     1       4.631  -1.907   3.017  1.00  0.00    -0.014 A 
BRANCH  12  13
ATOM     13  C   UNL     1       5.456  -2.561   4.069  1.00  0.00     0.031 A 
ATOM     14  C   UNL     1       6.075  -3.916   3.858  1.00  0.00     0.074 A 
ATOM     15  C   UNL     1       5.679  -1.897   5.220  1.00  0.00     0.049 A 
ATOM     16  N   UNL     1       6.895  -4.573   4.641  1.00  0.00    -0.248 NA
ATOM     17  C   UNL     1       5.730  -4.627   2.619  1.00  0.00     0.031 C 
ATOM     18  C   UNL     1       5.107  -0.592   5.564  1.00  0.00     0.029 A 
ATOM     19  N   UNL     1       6.461  -2.212   6.303  1.00  0.00    -0.354 N 
ATOM     20  C   UNL     1       7.168  -5.771   3.992  1.00  0.00     0.074 A 
ATOM     21  C   UNL     1       6.399  -5.764   2.764  1.00  0.00     0.031 C 
ATOM     22  C   UNL     1       5.590  -0.200   6.753  1.00  0.00     0.029 A 
ATOM     23  C   UNL     1       6.479  -1.236   7.271  1.00  0.00     0.049 A 
ATOM     24  H   UNL     1       6.961  -3.057   6.380  1.00  0.00     0.167 HD
ATOM     25  C   UNL     1       7.989  -6.779   4.377  1.00  0.00     0.031 A 
ATOM     26  C   UNL     1       7.138  -1.172   8.443  1.00  0.00     0.031 A 
ATOM     27  C   UNL     1       8.744  -6.797   5.604  1.00  0.00     0.049 A 
ATOM     28  C   UNL     1       8.050  -2.296   8.839  1.00  0.00     0.074 A 
ATOM     29  C   UNL     1       9.607  -7.775   6.072  1.00  0.00     0.029 A 
ATOM     30  N   UNL     1       8.729  -5.792   6.559  1.00  0.00    -0.354 N 
ATOM     31  N   UNL     1       8.320  -3.402   8.190  1.00  0.00    -0.248 NA
ATOM     32  C   UNL     1       8.754  -2.156  10.121  1.00  0.00     0.031 C 
ATOM     33  C   UNL     1      10.089  -7.375   7.324  1.00  0.00     0.029 A 
ATOM     34  C   UNL     1       9.559  -6.130   7.617  1.00  0.00     0.049 A 
ATOM     35  H   UNL     1       8.206  -4.961   6.496  1.00  0.00     0.167 HD
ATOM     36  C   UNL     1       9.229  -4.091   8.984  1.00  0.00     0.074 A 
ATOM     37  C   UNL     1       9.485  -3.263  10.145  1.00  0.00     0.031 C 
ATOM     38  C   UNL     1       9.794  -5.305   8.774  1.00  0.00     0.031 A 
BRANCH  25  39
ATOM     39  C   UNL     1       8.115  -7.963   3.454  1.00  0.00    -0.014 A 
ATOM     40  C   UNL     1       8.866  -7.872   2.269  1.00  0.00     0.010 A 
ATOM     41  C   UNL     1       7.527  -9.193   3.801  1.00  0.00     0.010 A 
ATOM     42  C   UNL     1       9.002  -8.982   1.431  1.00  0.00     0.020 A 
ATOM     43  C   UNL     1       7.678 -10.311   2.974  1.00  0.00     0.020 A 
ATOM     44  C   UNL     1       8.402 -10.194   1.786  1.00  0.00     0.054 A 
BRANCH  44  45
ATOM     45  S   UNL     1       8.614 -11.627   0.693  1.00  0.00     0.124 S 
ATOM     46  O   UNL     1       7.691 -11.312  -0.395  1.00  0.00    -0.237 OA
ATOM     47  O   UNL     1      10.032 -11.564   0.349  1.00  0.00    -0.237 OA
ATOM     48  O   UNL     1       8.229 -12.761   1.529  1.00  0.00    -0.744 OA
ENDBRANCH  44  45
ENDBRANCH  25  39
BRANCH  26  49
ATOM     49  C   UNL     1       6.955   0.011   9.325  1.00  0.00    -0.014 A 
ATOM     50  C   UNL     1       7.976   0.967   9.464  1.00  0.00     0.010 A 
ATOM     51  C   UNL     1       5.742   0.195  10.012  1.00  0.00     0.010 A 
ATOM     52  C   UNL     1       7.791   2.080  10.288  1.00  0.00     0.020 A 
ATOM     53  C   UNL     1       5.545   1.319  10.817  1.00  0.00     0.020 A 
ATOM     54  C   UNL     1       6.577   2.249  10.960  1.00  0.00     0.054 A 
BRANCH  54  55
ATOM     55  S   UNL     1       6.327   3.731  11.976  1.00  0.00     0.124 S 
ATOM     56  O   UNL     1       7.000   3.363  13.217  1.00  0.00    -0.237 OA
ATOM     57  O   UNL     1       6.978   4.775  11.188  1.00  0.00    -0.237 OA
ATOM     58  O   UNL     1       4.872   3.842  12.058  1.00  0.00    -0.744 OA
ENDBRANCH  54  55
ENDBRANCH  26  49
BRANCH  38  59
ATOM     59  C   UNL     1      10.748  -5.802   9.824  1.00  0.00    -0.014 A 
ATOM     60  C   UNL     1      10.277  -6.272  11.063  1.00  0.00     0.010 A 
ATOM     61  C   UNL     1      12.131  -5.809   9.567  1.00  0.00     0.010 A 
ATOM     62  C   UNL     1      11.176  -6.700  12.044  1.00  0.00     0.020 A 
ATOM     63  C   UNL     1      13.031  -6.256  10.538  1.00  0.00     0.020 A 
ATOM     64  C   UNL     1      12.548  -6.680  11.778  1.00  0.00     0.054 A 
BRANCH  64  65
ATOM     65  S   UNL     1      13.699  -7.251  13.059  1.00  0.00     0.124 S 
ATOM     66  O   UNL     1      13.769  -6.091  13.942  1.00  0.00    -0.237 OA
ATOM     67  O   UNL     1      13.019  -8.421  13.610  1.00  0.00    -0.237 OA
ATOM     68  O   UNL     1      14.923  -7.545  12.315  1.00  0.00    -0.744 OA
ENDBRANCH  64  65
ENDBRANCH  38  59
ENDBRANCH  12  13
ENDBRANCH   5   7
ENDBRANCH   2   3
ENDBRANCH   1   2
BRANCH   1  69
ATOM     69  C   UNL     1       3.765   1.358  -4.055  1.00  0.00     0.023 C 
BRANCH  69  70
ATOM     70  C   UNL     1       4.110   2.779  -3.611  1.00  0.00     0.116 C 
BRANCH  70  71
ATOM     71  N   UNL     1       5.530   3.094  -3.517  1.00  0.00    -0.351 N 
ATOM     72  C   UNL     1       6.366   3.670  -4.462  1.00  0.00     0.272 C 
ATOM     73  H   UNL     1       5.956   2.866  -2.659  1.00  0.00     0.163 HD
ATOM     74  O   UNL     1       7.415   4.207  -4.120  1.00  0.00    -0.267 OA
BRANCH  72  75
ATOM     75  C   UNL     1       5.957   3.731  -5.877  1.00  0.00     0.159 A 
ATOM     76  N   UNL     1       4.830   4.513  -6.037  1.00  0.00    -0.247 NA
ATOM     77  C   UNL     1       6.652   3.192  -6.957  1.00  0.00     0.159 A 
ATOM     78  C   UNL     1       4.418   4.750  -7.293  1.00  0.00     0.132 A 
ATOM     79  N   UNL     1       6.147   3.413  -8.225  1.00  0.00    -0.247 NA
ATOM     80  C   UNL     1       5.061   4.200  -8.371  1.00  0.00     0.132 A 
BRANCH  77  81
ATOM     81  C   UNL     1       8.000   2.500  -7.060  1.00  0.00     0.276 C 
ATOM     82  O   UNL     1       8.453   2.294  -8.196  1.00  0.00    -0.267 OA
ATOM     83  N   UNL     1       8.889   2.248  -6.047  1.00  0.00    -0.320 N 
ATOM     84  H   UNL     1       9.822   2.437  -6.299  1.00  0.00     0.170 HD
BRANCH  83  85
ATOM     85  C   UNL     1       8.763   1.786  -4.740  1.00  0.00     0.045 A 
ATOM     86  C   UNL     1       7.772   0.876  -4.344  1.00  0.00     0.030 A 
ATOM     87  C   UNL     1       9.706   2.264  -3.818  1.00  0.00     0.076 A 
ATOM     88  C   UNL     1       7.666   0.513  -2.995  1.00  0.00     0.053 A 
ATOM     89  C   UNL     1       9.508   1.966  -2.491  1.00  0.00     0.167 A 
ATOM     90  C   UNL     1       8.502   1.127  -2.088  1.00  0.00     0.165 A 
ATOM     91  O   UNL     1      10.206   2.481  -1.445  1.00  0.00    -0.454 OA
ATOM     92  O   UNL     1       8.428   1.019  -0.735  1.00  0.00    -0.454 OA
ATOM     93  C   UNL     1       9.413   2.000  -0.340  1.00  0.00     0.468 C 
ENDBRANCH  83  85
ENDBRANCH  77  81
ENDBRANCH  72  75
ENDBRANCH  70  71
ENDBRANCH  69  70
ENDBRANCH   1  69
TORSDOF 16
