REMARK SMILES C[N@@H+](C[C@H]1CCC[N@H+]1C)C[C@]([NH3+])(C(=O)NCCCCNC(=O)c1ccc(-c2c3nc(c(-c4ccc(S(=O)(=O)[O-])cc4)c4ccc([nH]4)c(-c4ccc(S(=O)(=O)[O-])cc4)c4nc(c(-c5ccc(S(=O)(=O)[O-])cc5)c5ccc2[nH]5)C=C4)C=C3)cc1)c1ccccc1
REMARK SMILES IDX 17 1 16 2 15 3 13 4 14 5 11 7 10 8 2 9 1 10 3 12 4 13 5 14
REMARK SMILES IDX 8 15 6 16 7 17 9 18 83 20 84 21 88 22 85 23 87 24 86 25
REMARK SMILES IDX 12 26 18 30 19 31 20 32 21 33 22 35 23 36 24 37 82 38 25 39
REMARK SMILES IDX 81 40 26 41 27 42 28 43 75 44 29 45 80 46 74 47 76 48 30 49
REMARK SMILES IDX 79 50 73 51 72 52 31 54 61 55 42 56 60 57 43 58 46 59 59 60
REMARK SMILES IDX 77 61 44 62 45 63 58 65 78 66 47 67 32 68 33 69 41 70 34 71
REMARK SMILES IDX 40 72 35 73 36 74 37 75 38 76 39 77 62 78 63 79 71 80 64 81
REMARK SMILES IDX 70 82 65 83 66 84 67 85 68 86 69 87 48 88 49 89 57 90 50 91
REMARK SMILES IDX 56 92 51 93 52 94 53 95 54 96 55 97
REMARK H PARENT 15 6 2 11 8 19 12 27 12 28 12 29 20 34 76 53 46 64
REMARK Flexibility Score: inf
ROOT
ATOM      1  C   UNL     1       4.126  -2.004   3.230  1.00  0.00     0.023 C 
ENDROOT
BRANCH   1   2
ATOM      2  C   UNL     1       3.494  -2.996   2.251  1.00  0.00     0.116 C 
BRANCH   2   3
ATOM      3  N   UNL     1       2.515  -3.895   2.852  1.00  0.00    -0.350 N 
ATOM      4  C   UNL     1       1.137  -3.946   2.808  1.00  0.00     0.292 C 
ATOM      5  O   UNL     1       0.624  -4.952   3.305  1.00  0.00    -0.267 OA
ATOM      6  H   UNL     1       2.919  -4.607   3.399  1.00  0.00     0.163 HD
BRANCH   4   7
ATOM      7  C   UNL     1       0.291  -2.750   2.205  1.00  0.00     0.248 C 
BRANCH   7   8
ATOM      8  C   UNL     1       0.430  -2.765   0.638  1.00  0.00     0.347 C 
BRANCH   8   9
ATOM      9  N   UNL     1      -0.177  -1.715  -0.188  1.00  0.00    -0.326 N 
ATOM     10  C   UNL     1      -1.536  -1.934  -0.632  1.00  0.00     0.333 C 
ATOM     11  H   UNL     1       0.379  -1.935  -1.015  1.00  0.00     0.348 HD
BRANCH   9  12
ATOM     12  C   UNL     1       0.314  -0.339  -0.149  1.00  0.00     0.327 C 
BRANCH  12  13
ATOM     13  C   UNL     1      -0.441   0.817   0.627  1.00  0.00     0.239 C 
ATOM     14  C   UNL     1       0.164   1.284   1.961  1.00  0.00     0.077 C 
ATOM     15  N   UNL     1      -0.281   2.154   0.006  1.00  0.00    -0.330 N 
ATOM     16  C   UNL     1       1.451   1.990   1.563  1.00  0.00     0.068 C 
ATOM     17  C   UNL     1       1.115   2.557   0.187  1.00  0.00     0.262 C 
ATOM     18  C   UNL     1      -0.822   2.342  -1.316  1.00  0.00     0.333 C 
ATOM     19  H   UNL     1      -0.895   2.804   0.497  1.00  0.00     0.348 HD
ENDBRANCH  12  13
ENDBRANCH   9  12
ENDBRANCH   8   9
ENDBRANCH   7   8
BRANCH   7  20
ATOM     20  C   UNL     1      -1.224  -2.807   2.537  1.00  0.00     0.028 A 
ATOM     21  C   UNL     1      -1.923  -1.655   2.961  1.00  0.00     0.011 A 
ATOM     22  C   UNL     1      -1.995  -3.941   2.226  1.00  0.00     0.011 A 
ATOM     23  C   UNL     1      -3.318  -1.608   2.992  1.00  0.00     0.001 A 
ATOM     24  C   UNL     1      -3.393  -3.900   2.271  1.00  0.00     0.001 A 
ATOM     25  C   UNL     1      -4.054  -2.728   2.631  1.00  0.00     0.000 A 
ENDBRANCH   7  20
BRANCH   7  26
ATOM     26  N   UNL     1       0.878  -1.535   2.796  1.00  0.00    -0.336 N 
ATOM     27  H   UNL     1       0.768  -1.562   3.809  1.00  0.00     0.345 HD
ATOM     28  H   UNL     1       0.403  -0.713   2.424  1.00  0.00     0.345 HD
ATOM     29  H   UNL     1       1.870  -1.489   2.563  1.00  0.00     0.345 HD
ENDBRANCH   7  26
ENDBRANCH   4   7
ENDBRANCH   2   3
ENDBRANCH   1   2
BRANCH   1  30
ATOM     30  C   UNL     1       5.002  -2.626   4.314  1.00  0.00     0.023 C 
BRANCH  30  31
ATOM     31  C   UNL     1       6.085  -3.565   3.802  1.00  0.00     0.116 C 
BRANCH  31  32
ATOM     32  N   UNL     1       6.968  -2.943   2.829  1.00  0.00    -0.352 N 
ATOM     33  C   UNL     1       8.309  -3.168   2.623  1.00  0.00     0.251 C 
ATOM     34  H   UNL     1       6.552  -2.273   2.241  1.00  0.00     0.163 HD
ATOM     35  O   UNL     1       8.931  -2.466   1.837  1.00  0.00    -0.269 OA
BRANCH  33  36
ATOM     36  C   UNL     1       8.995  -4.234   3.386  1.00  0.00     0.039 A 
ATOM     37  C   UNL     1      10.227  -3.945   3.972  1.00  0.00     0.014 A 
ATOM     38  C   UNL     1       8.417  -5.497   3.546  1.00  0.00     0.014 A 
ATOM     39  C   UNL     1      10.852  -4.907   4.766  1.00  0.00     0.010 A 
ATOM     40  C   UNL     1       9.001  -6.423   4.406  1.00  0.00     0.010 A 
ATOM     41  C   UNL     1      10.227  -6.140   5.021  1.00  0.00    -0.014 A 
BRANCH  41  42
ATOM     42  C   UNL     1      10.853  -7.121   5.944  1.00  0.00     0.031 A 
ATOM     43  C   UNL     1      11.306  -8.466   5.445  1.00  0.00     0.074 A 
ATOM     44  C   UNL     1      11.001  -6.795   7.244  1.00  0.00     0.049 A 
ATOM     45  N   UNL     1      11.923  -9.418   6.097  1.00  0.00    -0.248 NA
ATOM     46  C   UNL     1      11.012  -8.797   4.041  1.00  0.00     0.031 C 
ATOM     47  C   UNL     1      10.539  -5.549   7.862  1.00  0.00     0.029 A 
ATOM     48  N   UNL     1      11.592  -7.476   8.277  1.00  0.00    -0.354 N 
ATOM     49  C   UNL     1      12.099 -10.452   5.184  1.00  0.00     0.074 A 
ATOM     50  C   UNL     1      11.461 -10.041   3.954  1.00  0.00     0.031 C 
ATOM     51  C   UNL     1      10.903  -5.536   9.154  1.00  0.00     0.029 A 
ATOM     52  C   UNL     1      11.591  -6.784   9.466  1.00  0.00     0.049 A 
ATOM     53  H   UNL     1      11.980  -8.376   8.178  1.00  0.00     0.167 HD
ATOM     54  C   UNL     1      12.758 -11.624   5.345  1.00  0.00     0.031 A 
ATOM     55  C   UNL     1      12.093  -7.112  10.672  1.00  0.00     0.031 A 
ATOM     56  C   UNL     1      13.386 -12.032   6.575  1.00  0.00     0.049 A 
ATOM     57  C   UNL     1      12.821  -8.419  10.824  1.00  0.00     0.074 A 
ATOM     58  C   UNL     1      14.109 -13.185   6.831  1.00  0.00     0.029 A 
ATOM     59  N   UNL     1      13.366 -11.304   7.755  1.00  0.00    -0.354 N 
ATOM     60  N   UNL     1      13.042  -9.350   9.925  1.00  0.00    -0.248 NA
ATOM     61  C   UNL     1      13.387  -8.710  12.147  1.00  0.00     0.031 C 
ATOM     62  C   UNL     1      14.481 -13.177   8.180  1.00  0.00     0.029 A 
ATOM     63  C   UNL     1      14.046 -11.990   8.748  1.00  0.00     0.049 A 
ATOM     64  H   UNL     1      12.933 -10.427   7.870  1.00  0.00     0.167 HD
ATOM     65  C   UNL     1      13.787 -10.330  10.572  1.00  0.00     0.074 A 
ATOM     66  C   UNL     1      14.009  -9.858  11.924  1.00  0.00     0.031 C 
ATOM     67  C   UNL     1      14.242 -11.515  10.094  1.00  0.00     0.031 A 
BRANCH  54  68
ATOM     68  C   UNL     1      12.845 -12.544   4.154  1.00  0.00    -0.014 A 
ATOM     69  C   UNL     1      13.626 -12.201   3.034  1.00  0.00     0.010 A 
ATOM     70  C   UNL     1      12.189 -13.788   4.173  1.00  0.00     0.010 A 
ATOM     71  C   UNL     1      13.722 -13.068   1.943  1.00  0.00     0.020 A 
ATOM     72  C   UNL     1      12.306 -14.672   3.095  1.00  0.00     0.020 A 
ATOM     73  C   UNL     1      13.063 -14.300   1.982  1.00  0.00     0.054 A 
BRANCH  73  74
ATOM     74  S   UNL     1      13.242 -15.422   0.568  1.00  0.00     0.124 S 
ATOM     75  O   UNL     1      12.464 -14.736  -0.462  1.00  0.00    -0.237 OA
ATOM     76  O   UNL     1      14.687 -15.439   0.355  1.00  0.00    -0.237 OA
ATOM     77  O   UNL     1      12.670 -16.678   1.046  1.00  0.00    -0.744 OA
ENDBRANCH  73  74
ENDBRANCH  54  68
BRANCH  55  78
ATOM     78  C   UNL     1      11.929  -6.185  11.826  1.00  0.00    -0.014 A 
ATOM     79  C   UNL     1      13.036  -5.526  12.389  1.00  0.00     0.010 A 
ATOM     80  C   UNL     1      10.651  -5.958  12.370  1.00  0.00     0.010 A 
ATOM     81  C   UNL     1      12.873  -4.684  13.494  1.00  0.00     0.020 A 
ATOM     82  C   UNL     1      10.479  -5.091  13.452  1.00  0.00     0.020 A 
ATOM     83  C   UNL     1      11.595  -4.472  14.018  1.00  0.00     0.054 A 
BRANCH  83  84
ATOM     84  S   UNL     1      11.400  -3.348  15.429  1.00  0.00     0.124 S 
ATOM     85  O   UNL     1      11.949  -4.139  16.525  1.00  0.00    -0.237 OA
ATOM     86  O   UNL     1      12.193  -2.191  15.022  1.00  0.00    -0.237 OA
ATOM     87  O   UNL     1       9.958  -3.116  15.483  1.00  0.00    -0.744 OA
ENDBRANCH  83  84
ENDBRANCH  55  78
BRANCH  67  88
ATOM     88  C   UNL     1      15.039 -12.373  11.043  1.00  0.00    -0.014 A 
ATOM     89  C   UNL     1      14.435 -12.987  12.155  1.00  0.00     0.010 A 
ATOM     90  C   UNL     1      16.413 -12.570  10.816  1.00  0.00     0.010 A 
ATOM     91  C   UNL     1      15.202 -13.730  13.056  1.00  0.00     0.020 A 
ATOM     92  C   UNL     1      17.177 -13.342  11.694  1.00  0.00     0.020 A 
ATOM     93  C   UNL     1      16.570 -13.896  12.823  1.00  0.00     0.054 A 
BRANCH  93  94
ATOM     94  S   UNL     1      17.545 -14.860  14.009  1.00  0.00     0.124 S 
ATOM     95  O   UNL     1      17.634 -13.945  15.144  1.00  0.00    -0.237 OA
ATOM     96  O   UNL     1      16.715 -16.044  14.220  1.00  0.00    -0.237 OA
ATOM     97  O   UNL     1      18.802 -15.106  13.307  1.00  0.00    -0.744 OA
ENDBRANCH  93  94
ENDBRANCH  67  88
ENDBRANCH  41  42
ENDBRANCH  33  36
ENDBRANCH  31  32
ENDBRANCH  30  31
ENDBRANCH   1  30
TORSDOF 20
