REMARK SMILES CCS(=O)(=O)/N=c1/[nH]c(C)c(C(=O)NCCCCNC(=O)c2ccc(-c3c4nc(c(-c5ccc(S(=O)(=O)[O-])cc5)c5ccc([nH]5)c(-c5ccc(S(=O)(=O)[O-])cc5)c5nc(c(-c6ccc(S(=O)(=O)[O-])cc6)c6ccc3[nH]6)C=C5)C=C4)cc2)s1
REMARK SMILES IDX 17 1 16 2 15 3 14 4 12 5 13 6 11 8 6 9 7 10 8 11 82 12 9 13
REMARK SMILES IDX 10 15 3 16 4 17 5 18 2 19 1 20 18 21 19 22 20 23 21 25 22 26
REMARK SMILES IDX 23 27 81 28 24 29 80 30 25 31 26 32 27 33 74 34 28 35 79 36
REMARK SMILES IDX 73 37 75 38 29 39 78 40 72 41 71 42 30 44 60 45 41 46 59 47
REMARK SMILES IDX 42 48 45 49 58 50 76 51 43 52 44 53 57 55 77 56 46 57 31 58
REMARK SMILES IDX 32 59 40 60 33 61 39 62 34 63 35 64 36 65 37 66 38 67 61 68
REMARK SMILES IDX 62 69 70 70 63 71 69 72 64 73 65 74 66 75 67 76 68 77 47 78
REMARK SMILES IDX 48 79 56 80 49 81 55 82 50 83 51 84 52 85 53 86 54 87
REMARK H PARENT 14 7 8 14 19 24 75 43 45 54
REMARK Flexibility Score: inf
ROOT
ATOM      1  C   UNL     1       8.722   7.481  -3.915  1.00  0.00     0.023 C 
ENDROOT
BRANCH   1   2
ATOM      2  C   UNL     1       8.054   6.141  -4.183  1.00  0.00     0.023 C 
BRANCH   2   3
ATOM      3  C   UNL     1       7.261   5.519  -3.045  1.00  0.00     0.116 C 
BRANCH   3   4
ATOM      4  N   UNL     1       6.038   6.175  -2.663  1.00  0.00    -0.351 N 
ATOM      5  C   UNL     1       4.866   5.639  -2.201  1.00  0.00     0.263 C 
ATOM      6  O   UNL     1       4.009   6.435  -1.810  1.00  0.00    -0.268 OA
ATOM      7  H   UNL     1       6.045   7.156  -2.746  1.00  0.00     0.163 HD
BRANCH   5   8
ATOM      8  C   UNL     1       4.575   4.160  -2.233  1.00  0.00     0.114 A 
ATOM      9  N   UNL     1       2.399   0.997  -2.485  1.00  0.00    -0.135 NA
ATOM     10  C   UNL     1       3.180   2.015  -2.419  1.00  0.00     0.199 A 
ATOM     11  N   UNL     1       4.527   1.874  -2.249  1.00  0.00    -0.333 N 
ATOM     12  S   UNL     1       2.841   3.743  -2.446  1.00  0.00    -0.091 S 
ATOM     13  C   UNL     1       5.290   3.018  -2.086  1.00  0.00     0.037 A 
ATOM     14  H   UNL     1       4.945   0.983  -2.244  1.00  0.00     0.169 HD
ATOM     15  C   UNL     1       6.722   2.792  -1.720  1.00  0.00     0.066 C 
BRANCH   9  16
ATOM     16  S   UNL     1       0.792   1.050  -2.556  1.00  0.00     0.255 S 
ATOM     17  O   UNL     1       0.325  -0.253  -3.003  1.00  0.00    -0.205 OA
ATOM     18  O   UNL     1       0.314   2.236  -3.226  1.00  0.00    -0.205 OA
BRANCH  16  19
ATOM     19  C   UNL     1       0.376   1.178  -0.821  1.00  0.00     0.159 C 
ATOM     20  C   UNL     1       0.911   0.016  -0.003  1.00  0.00     0.023 C 
ENDBRANCH  16  19
ENDBRANCH   9  16
ENDBRANCH   5   8
ENDBRANCH   3   4
ENDBRANCH   2   3
ENDBRANCH   1   2
BRANCH   1  21
ATOM     21  C   UNL     1       9.530   7.593  -2.627  1.00  0.00     0.116 C 
BRANCH  21  22
ATOM     22  N   UNL     1      10.608   6.618  -2.511  1.00  0.00    -0.352 N 
ATOM     23  C   UNL     1      11.961   6.820  -2.339  1.00  0.00     0.251 C 
ATOM     24  H   UNL     1      10.328   5.676  -2.562  1.00  0.00     0.163 HD
ATOM     25  O   UNL     1      12.730   5.863  -2.341  1.00  0.00    -0.269 OA
BRANCH  23  26
ATOM     26  C   UNL     1      12.483   8.196  -2.199  1.00  0.00     0.039 A 
ATOM     27  C   UNL     1      13.552   8.604  -3.000  1.00  0.00     0.014 A 
ATOM     28  C   UNL     1      11.871   9.101  -1.329  1.00  0.00     0.014 A 
ATOM     29  C   UNL     1      13.934   9.948  -3.006  1.00  0.00     0.010 A 
ATOM     30  C   UNL     1      12.185  10.453  -1.413  1.00  0.00     0.010 A 
ATOM     31  C   UNL     1      13.216  10.895  -2.256  1.00  0.00    -0.014 A 
BRANCH  31  32
ATOM     32  C   UNL     1      13.518  12.348  -2.346  1.00  0.00     0.031 A 
ATOM     33  C   UNL     1      13.943  13.109  -1.119  1.00  0.00     0.074 A 
ATOM     34  C   UNL     1      13.340  12.999  -3.515  1.00  0.00     0.049 A 
ATOM     35  N   UNL     1      14.194  14.387  -0.987  1.00  0.00    -0.248 NA
ATOM     36  C   UNL     1      14.078  12.341   0.130  1.00  0.00     0.031 C 
ATOM     37  C   UNL     1      12.882  12.389  -4.767  1.00  0.00     0.029 A 
ATOM     38  N   UNL     1      13.518  14.322  -3.841  1.00  0.00    -0.354 N 
ATOM     39  C   UNL     1      14.498  14.575   0.356  1.00  0.00     0.074 A 
ATOM     40  C   UNL     1      14.341  13.295   1.010  1.00  0.00     0.031 C 
ATOM     41  C   UNL     1      12.852  13.325  -5.729  1.00  0.00     0.029 A 
ATOM     42  C   UNL     1      13.239  14.611  -5.157  1.00  0.00     0.049 A 
ATOM     43  H   UNL     1      13.818  14.999  -3.193  1.00  0.00     0.167 HD
ATOM     44  C   UNL     1      14.897  15.705   0.987  1.00  0.00     0.031 A 
ATOM     45  C   UNL     1      13.281  15.779  -5.829  1.00  0.00     0.031 A 
ATOM     46  C   UNL     1      15.061  16.976   0.333  1.00  0.00     0.049 A 
ATOM     47  C   UNL     1      13.709  17.025  -5.102  1.00  0.00     0.074 A 
ATOM     48  C   UNL     1      15.517  18.166   0.872  1.00  0.00     0.029 A 
ATOM     49  N   UNL     1      14.771  17.225  -1.000  1.00  0.00    -0.354 N 
ATOM     50  N   UNL     1      14.069  17.166  -3.848  1.00  0.00    -0.248 NA
ATOM     51  C   UNL     1      13.747  18.269  -5.883  1.00  0.00     0.031 C 
ATOM     52  C   UNL     1      15.442  19.150  -0.119  1.00  0.00     0.029 A 
ATOM     53  C   UNL     1      15.008  18.557  -1.294  1.00  0.00     0.049 A 
ATOM     54  H   UNL     1      14.445  16.554  -1.642  1.00  0.00     0.167 HD
ATOM     55  C   UNL     1      14.400  18.508  -3.697  1.00  0.00     0.074 A 
ATOM     56  C   UNL     1      14.218  19.131  -4.992  1.00  0.00     0.031 C 
ATOM     57  C   UNL     1      14.818  19.165  -2.587  1.00  0.00     0.031 A 
BRANCH  44  58
ATOM     58  C   UNL     1      15.179  15.616   2.465  1.00  0.00    -0.014 A 
ATOM     59  C   UNL     1      16.278  14.886   2.954  1.00  0.00     0.010 A 
ATOM     60  C   UNL     1      14.357  16.304   3.377  1.00  0.00     0.010 A 
ATOM     61  C   UNL     1      16.523  14.808   4.327  1.00  0.00     0.020 A 
ATOM     62  C   UNL     1      14.618  16.256   4.749  1.00  0.00     0.020 A 
ATOM     63  C   UNL     1      15.691  15.494   5.216  1.00  0.00     0.054 A 
BRANCH  63  64
ATOM     64  S   UNL     1      16.049  15.394   6.991  1.00  0.00     0.124 S 
ATOM     65  O   UNL     1      15.679  14.014   7.295  1.00  0.00    -0.237 OA
ATOM     66  O   UNL     1      17.479  15.686   7.044  1.00  0.00    -0.237 OA
ATOM     67  O   UNL     1      15.184  16.414   7.579  1.00  0.00    -0.744 OA
ENDBRANCH  63  64
ENDBRANCH  44  58
BRANCH  45  68
ATOM     68  C   UNL     1      12.919  15.824  -7.274  1.00  0.00    -0.014 A 
ATOM     69  C   UNL     1      13.899  16.080  -8.250  1.00  0.00     0.010 A 
ATOM     70  C   UNL     1      11.591  15.606  -7.683  1.00  0.00     0.010 A 
ATOM     71  C   UNL     1      13.554  16.137  -9.604  1.00  0.00     0.020 A 
ATOM     72  C   UNL     1      11.248  15.630  -9.039  1.00  0.00     0.020 A 
ATOM     73  C   UNL     1      12.231  15.908  -9.990  1.00  0.00     0.054 A 
BRANCH  73  74
ATOM     74  S   UNL     1      11.818  15.937 -11.757  1.00  0.00     0.124 S 
ATOM     75  O   UNL     1      11.920  17.358 -12.070  1.00  0.00    -0.237 OA
ATOM     76  O   UNL     1      12.854  15.084 -12.335  1.00  0.00    -0.237 OA
ATOM     77  O   UNL     1      10.467  15.380 -11.801  1.00  0.00    -0.744 OA
ENDBRANCH  73  74
ENDBRANCH  45  68
BRANCH  57  78
ATOM     78  C   UNL     1      15.138  20.631  -2.725  1.00  0.00    -0.014 A 
ATOM     79  C   UNL     1      14.124  21.585  -2.921  1.00  0.00     0.010 A 
ATOM     80  C   UNL     1      16.471  21.064  -2.598  1.00  0.00     0.010 A 
ATOM     81  C   UNL     1      14.441  22.943  -3.021  1.00  0.00     0.020 A 
ATOM     82  C   UNL     1      16.788  22.423  -2.664  1.00  0.00     0.020 A 
ATOM     83  C   UNL     1      15.772  23.353  -2.889  1.00  0.00     0.054 A 
BRANCH  83  84
ATOM     84  S   UNL     1      16.150  25.125  -2.975  1.00  0.00     0.124 S 
ATOM     85  O   UNL     1      15.948  25.410  -4.393  1.00  0.00    -0.237 OA
ATOM     86  O   UNL     1      15.163  25.706  -2.070  1.00  0.00    -0.237 OA
ATOM     87  O   UNL     1      17.534  25.207  -2.515  1.00  0.00    -0.744 OA
ENDBRANCH  83  84
ENDBRANCH  57  78
ENDBRANCH  31  32
ENDBRANCH  23  26
ENDBRANCH  21  22
ENDBRANCH   1  21
TORSDOF 16
