REMARK SMILES COc1ccc(C(=O)NCCCCNC(=O)c2ccc(-c3c4nc(c(-c5ccc(S(=O)(=O)[O-])cc5)c5ccc([nH]5)c(-c5ccc(S(=O)(=O)[O-])cc5)c5nc(c(-c6ccc(S(=O)(=O)[O-])cc6)c6ccc3[nH]6)C=C5)C=C4)cc2)cc1NC(=O)c1ccccc1[N+](=O)[O-]
REMARK SMILES IDX 11 1 10 2 9 3 7 4 8 5 6 7 3 8 4 9 78 10 5 11 77 12 2 13 1 14
REMARK SMILES IDX 79 15 80 16 81 18 82 19 83 20 87 21 84 22 86 23 85 24 88 25
REMARK SMILES IDX 89 26 90 27 12 28 13 29 14 30 15 31 16 33 17 34 18 35 76 36
REMARK SMILES IDX 19 37 75 38 20 39 21 40 22 41 69 42 23 43 74 44 68 45 70 46
REMARK SMILES IDX 24 47 73 48 67 49 66 50 25 52 55 53 36 54 54 55 37 56 40 57
REMARK SMILES IDX 53 58 71 59 38 60 39 61 52 63 72 64 41 65 26 66 27 67 35 68
REMARK SMILES IDX 28 69 34 70 29 71 30 72 31 73 32 74 33 75 56 76 57 77 65 78
REMARK SMILES IDX 58 79 64 80 59 81 60 82 61 83 62 84 63 85 42 86 43 87 51 88
REMARK SMILES IDX 44 89 50 90 45 91 46 92 47 93 48 94 49 95
REMARK H PARENT 9 6 79 17 14 32 70 51 40 62
REMARK Flexibility Score: inf
ROOT
ATOM      1  C   UNL     1       5.402   3.367   5.730  1.00  0.00     0.023 C 
ENDROOT
BRANCH   1   2
ATOM      2  C   UNL     1       4.231   2.470   6.138  1.00  0.00     0.116 C 
BRANCH   2   3
ATOM      3  N   UNL     1       3.029   3.249   6.342  1.00  0.00    -0.352 N 
ATOM      4  C   UNL     1       1.871   3.395   5.626  1.00  0.00     0.251 C 
ATOM      5  O   UNL     1       0.990   4.088   6.141  1.00  0.00    -0.269 OA
ATOM      6  H   UNL     1       3.048   3.787   7.166  1.00  0.00     0.163 HD
BRANCH   4   7
ATOM      7  C   UNL     1       1.597   2.772   4.295  1.00  0.00     0.042 A 
ATOM      8  C   UNL     1       0.825   1.817   1.769  1.00  0.00     0.142 A 
ATOM      9  C   UNL     1      -0.148   2.230   2.669  1.00  0.00     0.049 A 
ATOM     10  C   UNL     1       2.184   1.842   2.123  1.00  0.00     0.084 A 
ATOM     11  C   UNL     1       0.238   2.676   3.933  1.00  0.00     0.018 A 
ATOM     12  C   UNL     1       2.568   2.372   3.364  1.00  0.00     0.044 A 
BRANCH   8  13
ATOM     13  O   UNL     1       0.418   1.452   0.509  1.00  0.00    -0.495 OA
ATOM     14  C   UNL     1       0.348   0.032   0.361  1.00  0.00     0.278 C 
ENDBRANCH   8  13
BRANCH  10  15
ATOM     15  N   UNL     1       3.090   1.346   1.173  1.00  0.00    -0.319 N 
ATOM     16  C   UNL     1       4.303   0.717   1.269  1.00  0.00     0.262 C 
ATOM     17  H   UNL     1       2.791   1.477   0.244  1.00  0.00     0.170 HD
ATOM     18  O   UNL     1       4.938   0.482   0.240  1.00  0.00    -0.269 OA
BRANCH  16  19
ATOM     19  C   UNL     1       4.881   0.256   2.547  1.00  0.00     0.117 A 
ATOM     20  C   UNL     1       6.236   0.565   2.746  1.00  0.00     0.021 A 
ATOM     21  C   UNL     1       4.234  -0.536   3.503  1.00  0.00     0.282 A 
ATOM     22  C   UNL     1       6.904   0.132   3.893  1.00  0.00     0.001 A 
ATOM     23  C   UNL     1       4.889  -0.936   4.681  1.00  0.00     0.086 A 
ATOM     24  C   UNL     1       6.226  -0.592   4.873  1.00  0.00     0.007 A 
BRANCH  21  25
ATOM     25  N   UNL     1       2.887  -1.032   3.295  1.00  0.00     0.063 N 
ATOM     26  O   UNL     1       2.093  -0.909   4.238  1.00  0.00    -0.258 OA
ATOM     27  O   UNL     1       2.632  -1.572   2.212  1.00  0.00    -0.258 OA
ENDBRANCH  21  25
ENDBRANCH  16  19
ENDBRANCH  10  15
ENDBRANCH   4   7
ENDBRANCH   2   3
ENDBRANCH   1   2
BRANCH   1  28
ATOM     28  C   UNL     1       6.304   3.789   6.899  1.00  0.00     0.023 C 
BRANCH  28  29
ATOM     29  C   UNL     1       7.092   2.656   7.558  1.00  0.00     0.116 C 
BRANCH  29  30
ATOM     30  N   UNL     1       7.975   1.956   6.638  1.00  0.00    -0.352 N 
ATOM     31  C   UNL     1       9.104   1.218   6.903  1.00  0.00     0.251 C 
ATOM     32  H   UNL     1       7.728   2.021   5.687  1.00  0.00     0.163 HD
ATOM     33  O   UNL     1       9.725   0.702   5.978  1.00  0.00    -0.269 OA
BRANCH  31  34
ATOM     34  C   UNL     1       9.605   1.113   8.289  1.00  0.00     0.039 A 
ATOM     35  C   UNL     1      10.953   1.398   8.525  1.00  0.00     0.014 A 
ATOM     36  C   UNL     1       8.753   0.809   9.352  1.00  0.00     0.014 A 
ATOM     37  C   UNL     1      11.421   1.484   9.836  1.00  0.00     0.010 A 
ATOM     38  C   UNL     1       9.205   0.958  10.661  1.00  0.00     0.010 A 
ATOM     39  C   UNL     1      10.536   1.322  10.913  1.00  0.00    -0.014 A 
BRANCH  39  40
ATOM     40  C   UNL     1      10.974   1.595  12.304  1.00  0.00     0.031 A 
ATOM     41  C   UNL     1      11.018   0.492  13.321  1.00  0.00     0.074 A 
ATOM     42  C   UNL     1      11.257   2.864  12.662  1.00  0.00     0.049 A 
ATOM     43  N   UNL     1      11.342   0.554  14.587  1.00  0.00    -0.248 NA
ATOM     44  C   UNL     1      10.622  -0.849  12.864  1.00  0.00     0.031 C 
ATOM     45  C   UNL     1      11.181   4.030  11.777  1.00  0.00     0.029 A 
ATOM     46  N   UNL     1      11.656   3.388  13.865  1.00  0.00    -0.354 N 
ATOM     47  C   UNL     1      11.177  -0.734  15.082  1.00  0.00     0.074 A 
ATOM     48  C   UNL     1      10.677  -1.544  13.991  1.00  0.00     0.031 C 
ATOM     49  C   UNL     1      11.545   5.127  12.460  1.00  0.00     0.029 A 
ATOM     50  C   UNL     1      11.851   4.749  13.836  1.00  0.00     0.049 A 
ATOM     51  H   UNL     1      11.790   2.842  14.673  1.00  0.00     0.167 HD
ATOM     52  C   UNL     1      11.435  -1.203  16.326  1.00  0.00     0.031 A 
ATOM     53  C   UNL     1      12.234   5.600  14.807  1.00  0.00     0.031 A 
ATOM     54  C   UNL     1      11.931  -0.391  17.405  1.00  0.00     0.049 A 
ATOM     55  C   UNL     1      12.548   5.052  16.171  1.00  0.00     0.074 A 
ATOM     56  C   UNL     1      12.270  -0.776  18.690  1.00  0.00     0.029 A 
ATOM     57  N   UNL     1      12.160   0.975  17.324  1.00  0.00    -0.354 N 
ATOM     58  N   UNL     1      12.458   3.816  16.599  1.00  0.00    -0.248 NA
ATOM     59  C   UNL     1      13.034   6.008  17.174  1.00  0.00     0.031 C 
ATOM     60  C   UNL     1      12.669   0.364  19.397  1.00  0.00     0.029 A 
ATOM     61  C   UNL     1      12.624   1.452  18.538  1.00  0.00     0.049 A 
ATOM     62  H   UNL     1      12.013   1.525  16.521  1.00  0.00     0.167 HD
ATOM     63  C   UNL     1      12.894   3.841  17.919  1.00  0.00     0.074 A 
ATOM     64  C   UNL     1      13.264   5.212  18.210  1.00  0.00     0.031 C 
ATOM     65  C   UNL     1      12.981   2.822  18.809  1.00  0.00     0.031 A 
BRANCH  52  66
ATOM     66  C   UNL     1      11.173  -2.665  16.576  1.00  0.00    -0.014 A 
ATOM     67  C   UNL     1      11.980  -3.655  15.986  1.00  0.00     0.010 A 
ATOM     68  C   UNL     1      10.108  -3.057  17.407  1.00  0.00     0.010 A 
ATOM     69  C   UNL     1      11.691  -5.009  16.172  1.00  0.00     0.020 A 
ATOM     70  C   UNL     1       9.832  -4.411  17.618  1.00  0.00     0.020 A 
ATOM     71  C   UNL     1      10.610  -5.378  16.979  1.00  0.00     0.054 A 
BRANCH  71  72
ATOM     72  S   UNL     1      10.245  -7.142  17.191  1.00  0.00     0.124 S 
ATOM     73  O   UNL     1       9.616  -7.472  15.914  1.00  0.00    -0.237 OA
ATOM     74  O   UNL     1      11.567  -7.723  17.407  1.00  0.00    -0.237 OA
ATOM     75  O   UNL     1       9.356  -7.174  18.350  1.00  0.00    -0.744 OA
ENDBRANCH  71  72
ENDBRANCH  52  66
BRANCH  53  76
ATOM     76  C   UNL     1      12.371   7.051  14.506  1.00  0.00    -0.014 A 
ATOM     77  C   UNL     1      13.643   7.638  14.385  1.00  0.00     0.010 A 
ATOM     78  C   UNL     1      11.228   7.845  14.300  1.00  0.00     0.010 A 
ATOM     79  C   UNL     1      13.770   8.995  14.073  1.00  0.00     0.020 A 
ATOM     80  C   UNL     1      11.351   9.196  13.964  1.00  0.00     0.020 A 
ATOM     81  C   UNL     1      12.622   9.765  13.861  1.00  0.00     0.054 A 
BRANCH  81  82
ATOM     82  S   UNL     1      12.811  11.506  13.384  1.00  0.00     0.124 S 
ATOM     83  O   UNL     1      13.171  12.130  14.653  1.00  0.00    -0.237 OA
ATOM     84  O   UNL     1      13.872  11.448  12.382  1.00  0.00    -0.237 OA
ATOM     85  O   UNL     1      11.492  11.860  12.863  1.00  0.00    -0.744 OA
ENDBRANCH  81  82
ENDBRANCH  53  76
BRANCH  65  86
ATOM     86  C   UNL     1      13.519   3.148  20.175  1.00  0.00    -0.014 A 
ATOM     87  C   UNL     1      12.742   3.853  21.111  1.00  0.00     0.010 A 
ATOM     88  C   UNL     1      14.802   2.703  20.540  1.00  0.00     0.010 A 
ATOM     89  C   UNL     1      13.253   4.134  22.381  1.00  0.00     0.020 A 
ATOM     90  C   UNL     1      15.306   2.962  21.816  1.00  0.00     0.020 A 
ATOM     91  C   UNL     1      14.534   3.689  22.724  1.00  0.00     0.054 A 
BRANCH  91  92
ATOM     92  S   UNL     1      15.161   4.030  24.391  1.00  0.00     0.124 S 
ATOM     93  O   UNL     1      15.526   5.441  24.295  1.00  0.00    -0.237 OA
ATOM     94  O   UNL     1      14.007   3.736  25.237  1.00  0.00    -0.237 OA
ATOM     95  O   UNL     1      16.282   3.104  24.534  1.00  0.00    -0.744 OA
ENDBRANCH  91  92
ENDBRANCH  65  86
ENDBRANCH  39  40
ENDBRANCH  31  34
ENDBRANCH  29  30
ENDBRANCH  28  29
ENDBRANCH   1  28
TORSDOF 18
