REMARK SMILES CC[C@@](O)(C(=O)NCCCCNC(=O)c1ccc(-c2c3nc(c(-c4ccc(S(=O)(=O)[O-])cc4)c4ccc([nH]4)c(-c4ccc(S(=O)(=O)[O-])cc4)c4nc(c(-c5ccc(S(=O)(=O)[O-])cc5)c5ccc2[nH]5)C=C4)C=C3)cc1)[C@@H]1CCOc2ccccc21
REMARK SMILES IDX 10 1 9 2 8 3 7 4 5 5 6 6 3 8 2 9 1 10 4 11 75 13 76 14 84 15
REMARK SMILES IDX 77 16 79 17 83 18 78 19 80 20 82 21 81 22 11 23 12 24 13 25
REMARK SMILES IDX 14 27 15 28 16 29 74 30 17 31 73 32 18 33 19 34 20 35 67 36
REMARK SMILES IDX 21 37 72 38 66 39 68 40 22 41 71 42 65 43 64 44 23 46 53 47
REMARK SMILES IDX 34 48 52 49 35 50 38 51 51 52 69 53 36 54 37 55 50 57 70 58
REMARK SMILES IDX 39 59 24 60 25 61 33 62 26 63 32 64 27 65 28 66 29 67 30 68
REMARK SMILES IDX 31 69 54 70 55 71 63 72 56 73 62 74 57 75 58 76 59 77 60 78
REMARK SMILES IDX 61 79 40 80 41 81 49 82 42 83 48 84 43 85 44 86 45 87 46 88
REMARK SMILES IDX 47 89
REMARK H PARENT 7 7 4 12 12 26 68 45 38 56
REMARK Flexibility Score: inf
ROOT
ATOM      1  C   UNL     1       5.426  -0.827   7.741  1.00  0.00     0.023 C 
ENDROOT
BRANCH   1   2
ATOM      2  C   UNL     1       5.184  -2.029   6.831  1.00  0.00     0.023 C 
BRANCH   2   3
ATOM      3  C   UNL     1       3.724  -2.235   6.392  1.00  0.00     0.116 C 
BRANCH   3   4
ATOM      4  N   UNL     1       3.269  -1.109   5.607  1.00  0.00    -0.354 N 
ATOM      5  C   UNL     1       3.308  -0.883   4.259  1.00  0.00     0.252 C 
ATOM      6  O   UNL     1       3.307   0.315   3.979  1.00  0.00    -0.272 OA
ATOM      7  H   UNL     1       2.861  -0.383   6.132  1.00  0.00     0.163 HD
BRANCH   5   8
ATOM      8  C   UNL     1       3.403  -2.055   3.200  1.00  0.00     0.149 C 
BRANCH   8   9
ATOM      9  C   UNL     1       4.801  -2.726   3.339  1.00  0.00     0.043 C 
ATOM     10  C   UNL     1       4.848  -4.255   3.257  1.00  0.00     0.007 C 
ENDBRANCH   8   9
BRANCH   8  11
ATOM     11  O   UNL     1       2.402  -3.011   3.651  1.00  0.00    -0.379 OA
ATOM     12  H   UNL     1       2.588  -3.266   4.568  1.00  0.00     0.212 HD
ENDBRANCH   8  11
BRANCH   8  13
ATOM     13  C   UNL     1       3.012  -1.694   1.675  1.00  0.00     0.068 C 
ATOM     14  C   UNL     1       3.654  -2.695   0.668  1.00  0.00     0.053 C 
ATOM     15  C   UNL     1       3.156  -0.277   1.131  1.00  0.00     0.001 A 
ATOM     16  C   UNL     1       3.791  -2.119  -0.726  1.00  0.00     0.230 C 
ATOM     17  C   UNL     1       4.023   0.017   0.071  1.00  0.00     0.122 A 
ATOM     18  C   UNL     1       2.333   0.767   1.581  1.00  0.00     0.008 A 
ATOM     19  O   UNL     1       4.638  -0.967  -0.660  1.00  0.00    -0.493 OA
ATOM     20  C   UNL     1       4.239   1.328  -0.359  1.00  0.00     0.047 A 
ATOM     21  C   UNL     1       2.522   2.082   1.142  1.00  0.00     0.001 A 
ATOM     22  C   UNL     1       3.500   2.367   0.196  1.00  0.00     0.004 A 
ENDBRANCH   8  13
ENDBRANCH   5   8
ENDBRANCH   3   4
ENDBRANCH   2   3
ENDBRANCH   1   2
BRANCH   1  23
ATOM     23  C   UNL     1       4.644  -0.856   9.039  1.00  0.00     0.116 C 
BRANCH  23  24
ATOM     24  N   UNL     1       4.850  -2.087   9.784  1.00  0.00    -0.352 N 
ATOM     25  C   UNL     1       5.033  -2.252  11.134  1.00  0.00     0.251 C 
ATOM     26  H   UNL     1       4.859  -2.913   9.248  1.00  0.00     0.163 HD
ATOM     27  O   UNL     1       5.343  -3.345  11.587  1.00  0.00    -0.269 OA
BRANCH  25  28
ATOM     28  C   UNL     1       4.874  -1.083  12.020  1.00  0.00     0.039 A 
ATOM     29  C   UNL     1       5.833  -0.846  13.006  1.00  0.00     0.014 A 
ATOM     30  C   UNL     1       3.793  -0.212  11.854  1.00  0.00     0.014 A 
ATOM     31  C   UNL     1       5.723   0.289  13.807  1.00  0.00     0.010 A 
ATOM     32  C   UNL     1       3.739   0.964  12.587  1.00  0.00     0.010 A 
ATOM     33  C   UNL     1       4.685   1.210  13.591  1.00  0.00    -0.014 A 
BRANCH  33  34
ATOM     34  C   UNL     1       4.530   2.407  14.449  1.00  0.00     0.031 A 
ATOM     35  C   UNL     1       3.310   2.538  15.321  1.00  0.00     0.074 A 
ATOM     36  C   UNL     1       5.451   3.387  14.407  1.00  0.00     0.049 A 
ATOM     37  N   UNL     1       2.972   3.512  16.125  1.00  0.00    -0.248 NA
ATOM     38  C   UNL     1       2.323   1.446  15.254  1.00  0.00     0.031 C 
ATOM     39  C   UNL     1       6.651   3.390  13.567  1.00  0.00     0.029 A 
ATOM     40  N   UNL     1       5.523   4.572  15.093  1.00  0.00    -0.354 N 
ATOM     41  C   UNL     1       1.726   3.163  16.634  1.00  0.00     0.074 A 
ATOM     42  C   UNL     1       1.342   1.920  16.005  1.00  0.00     0.031 C 
ATOM     43  C   UNL     1       7.361   4.502  13.820  1.00  0.00     0.029 A 
ATOM     44  C   UNL     1       6.652   5.304  14.812  1.00  0.00     0.049 A 
ATOM     45  H   UNL     1       4.831   4.870  15.727  1.00  0.00     0.167 HD
ATOM     46  C   UNL     1       0.978   3.806  17.562  1.00  0.00     0.031 A 
ATOM     47  C   UNL     1       7.071   6.483  15.309  1.00  0.00     0.031 A 
ATOM     48  C   UNL     1       1.380   5.029  18.201  1.00  0.00     0.049 A 
ATOM     49  C   UNL     1       6.237   7.169  16.356  1.00  0.00     0.074 A 
ATOM     50  C   UNL     1       0.733   5.732  19.201  1.00  0.00     0.029 A 
ATOM     51  N   UNL     1       2.539   5.730  17.902  1.00  0.00    -0.354 N 
ATOM     52  N   UNL     1       5.093   6.792  16.878  1.00  0.00    -0.248 NA
ATOM     53  C   UNL     1       6.762   8.430  16.896  1.00  0.00     0.031 C 
ATOM     54  C   UNL     1       1.480   6.883  19.475  1.00  0.00     0.029 A 
ATOM     55  C   UNL     1       2.620   6.867  18.686  1.00  0.00     0.049 A 
ATOM     56  H   UNL     1       3.206   5.458  17.230  1.00  0.00     0.167 HD
ATOM     57  C   UNL     1       4.780   7.749  17.836  1.00  0.00     0.074 A 
ATOM     58  C   UNL     1       5.859   8.718  17.823  1.00  0.00     0.031 C 
ATOM     59  C   UNL     1       3.704   7.816  18.659  1.00  0.00     0.031 A 
BRANCH  46  60
ATOM     60  C   UNL     1      -0.351   3.194  17.921  1.00  0.00    -0.014 A 
ATOM     61  C   UNL     1      -0.431   1.968  18.608  1.00  0.00     0.010 A 
ATOM     62  C   UNL     1      -1.540   3.852  17.558  1.00  0.00     0.010 A 
ATOM     63  C   UNL     1      -1.672   1.381  18.868  1.00  0.00     0.020 A 
ATOM     64  C   UNL     1      -2.785   3.284  17.846  1.00  0.00     0.020 A 
ATOM     65  C   UNL     1      -2.842   2.039  18.477  1.00  0.00     0.054 A 
BRANCH  65  66
ATOM     66  S   UNL     1      -4.440   1.252  18.817  1.00  0.00     0.124 S 
ATOM     67  O   UNL     1      -4.475   0.196  17.808  1.00  0.00    -0.237 OA
ATOM     68  O   UNL     1      -4.287   0.797  20.196  1.00  0.00    -0.237 OA
ATOM     69  O   UNL     1      -5.405   2.331  18.623  1.00  0.00    -0.744 OA
ENDBRANCH  65  66
ENDBRANCH  46  60
BRANCH  47  70
ATOM     70  C   UNL     1       8.371   7.053  14.865  1.00  0.00    -0.014 A 
ATOM     71  C   UNL     1       9.479   7.044  15.731  1.00  0.00     0.010 A 
ATOM     72  C   UNL     1       8.521   7.575  13.568  1.00  0.00     0.010 A 
ATOM     73  C   UNL     1      10.710   7.560  15.314  1.00  0.00     0.020 A 
ATOM     74  C   UNL     1       9.757   8.069  13.138  1.00  0.00     0.020 A 
ATOM     75  C   UNL     1      10.842   8.066  14.018  1.00  0.00     0.054 A 
BRANCH  75  76
ATOM     76  S   UNL     1      12.465   8.671  13.479  1.00  0.00     0.124 S 
ATOM     77  O   UNL     1      12.578   9.930  14.209  1.00  0.00    -0.237 OA
ATOM     78  O   UNL     1      13.361   7.603  13.916  1.00  0.00    -0.237 OA
ATOM     79  O   UNL     1      12.319   8.797  12.031  1.00  0.00    -0.744 OA
ENDBRANCH  75  76
ENDBRANCH  47  70
BRANCH  59  80
ATOM     80  C   UNL     1       3.664   8.947  19.651  1.00  0.00    -0.014 A 
ATOM     81  C   UNL     1       3.422  10.271  19.247  1.00  0.00     0.010 A 
ATOM     82  C   UNL     1       3.830   8.666  21.020  1.00  0.00     0.010 A 
ATOM     83  C   UNL     1       3.386  11.301  20.191  1.00  0.00     0.020 A 
ATOM     84  C   UNL     1       3.766   9.687  21.969  1.00  0.00     0.020 A 
ATOM     85  C   UNL     1       3.562  11.002  21.546  1.00  0.00     0.054 A 
BRANCH  85  86
ATOM     86  S   UNL     1       3.483  12.350  22.757  1.00  0.00     0.124 S 
ATOM     87  O   UNL     1       4.771  13.010  22.560  1.00  0.00    -0.237 OA
ATOM     88  O   UNL     1       2.314  13.108  22.319  1.00  0.00    -0.237 OA
ATOM     89  O   UNL     1       3.326  11.658  24.035  1.00  0.00    -0.744 OA
ENDBRANCH  85  86
ENDBRANCH  59  80
ENDBRANCH  33  34
ENDBRANCH  25  28
ENDBRANCH  23  24
ENDBRANCH   1  23
TORSDOF 17
