REMARK SMILES COc1cc2c(CC(=O)NCCCCNC(=O)c3ccc(-c4c5nc(c(-c6ccc(S(=O)(=O)[O-])cc6)c6ccc([nH]6)c(-c6ccc(S(=O)(=O)[O-])cc6)c6nc(c(-c7ccc(S(=O)(=O)[O-])cc7)c7ccc4[nH]7)C=C6)C=C5)cc3)c(C)n(C(=O)c3ccc(Cl)cc3)c2cc1Cl
REMARK SMILES IDX 12 1 11 2 10 3 8 4 9 5 7 7 6 8 3 9 4 10 92 11 5 12 91 13
REMARK SMILES IDX 93 14 90 15 78 16 80 17 79 18 2 19 1 20 81 21 82 22 83 23
REMARK SMILES IDX 84 24 89 25 85 26 88 27 86 28 87 29 13 30 14 31 15 32 16 33
REMARK SMILES IDX 17 35 18 36 19 37 77 38 20 39 76 40 21 41 22 42 23 43 70 44
REMARK SMILES IDX 24 45 75 46 69 47 71 48 25 49 74 50 68 51 67 52 26 54 56 55
REMARK SMILES IDX 37 56 55 57 38 58 41 59 54 60 72 61 39 62 40 63 53 65 73 66
REMARK SMILES IDX 42 67 27 68 28 69 36 70 29 71 35 72 30 73 31 74 32 75 33 76
REMARK SMILES IDX 34 77 57 78 58 79 66 80 59 81 65 82 60 83 61 84 62 85 63 86
REMARK SMILES IDX 64 87 43 88 44 89 52 90 45 91 51 92 46 93 47 94 48 95 49 96
REMARK SMILES IDX 50 97
REMARK H PARENT 10 6 15 34 71 53 41 64
REMARK Flexibility Score: inf
ROOT
ATOM      1  C   UNL     1       0.820  -0.818   7.681  1.00  0.00     0.023 C 
ENDROOT
BRANCH   1   2
ATOM      2  C   UNL     1      -0.560  -1.467   7.723  1.00  0.00     0.116 C 
BRANCH   2   3
ATOM      3  N   UNL     1      -1.481  -0.862   6.784  1.00  0.00    -0.356 N 
ATOM      4  C   UNL     1      -2.059  -1.429   5.684  1.00  0.00     0.224 C 
ATOM      5  O   UNL     1      -2.861  -0.760   5.029  1.00  0.00    -0.275 OA
ATOM      6  H   UNL     1      -1.720   0.077   6.960  1.00  0.00     0.163 HD
BRANCH   4   7
ATOM      7  C   UNL     1      -1.766  -2.880   5.333  1.00  0.00     0.138 C 
BRANCH   7   8
ATOM      8  C   UNL     1      -0.337  -3.134   4.940  1.00  0.00    -0.009 A 
ATOM      9  C   UNL     1       0.941  -1.012   2.009  1.00  0.00     0.138 A 
ATOM     10  C   UNL     1       0.045  -1.437   3.003  1.00  0.00     0.058 A 
ATOM     11  C   UNL     1       2.179  -1.642   1.909  1.00  0.00     0.085 A 
ATOM     12  C   UNL     1       0.380  -2.469   3.908  1.00  0.00     0.008 A 
ATOM     13  C   UNL     1       2.523  -2.679   2.791  1.00  0.00     0.051 A 
ATOM     14  Cl  UNL     1       3.419  -1.198   0.787  1.00  0.00    -0.080 Cl
ATOM     15  C   UNL     1       1.647  -3.049   3.831  1.00  0.00     0.058 A 
ATOM     16  C   UNL     1       0.513  -4.099   5.472  1.00  0.00     0.028 A 
ATOM     17  N   UNL     1       1.794  -3.909   4.931  1.00  0.00    -0.280 N 
ATOM     18  C   UNL     1       0.182  -5.136   6.500  1.00  0.00     0.065 C 
BRANCH   9  19
ATOM     19  O   UNL     1       0.456   0.040   1.280  1.00  0.00    -0.495 OA
ATOM     20  C   UNL     1       0.799   0.102  -0.096  1.00  0.00     0.278 C 
ENDBRANCH   9  19
BRANCH  17  21
ATOM     21  C   UNL     1       3.009  -4.477   5.415  1.00  0.00     0.262 C 
ATOM     22  O   UNL     1       2.968  -5.219   6.398  1.00  0.00    -0.268 OA
BRANCH  21  23
ATOM     23  C   UNL     1       4.339  -4.270   4.816  1.00  0.00     0.040 A 
ATOM     24  C   UNL     1       4.966  -3.018   4.848  1.00  0.00     0.015 A 
ATOM     25  C   UNL     1       4.931  -5.352   4.156  1.00  0.00     0.015 A 
ATOM     26  C   UNL     1       6.158  -2.832   4.139  1.00  0.00     0.021 A 
ATOM     27  C   UNL     1       6.124  -5.162   3.459  1.00  0.00     0.021 A 
ATOM     28  C   UNL     1       6.723  -3.900   3.438  1.00  0.00     0.041 A 
ATOM     29  Cl  UNL     1       8.155  -3.667   2.515  1.00  0.00    -0.084 Cl
ENDBRANCH  21  23
ENDBRANCH  17  21
ENDBRANCH   7   8
ENDBRANCH   4   7
ENDBRANCH   2   3
ENDBRANCH   1   2
BRANCH   1  30
ATOM     30  C   UNL     1       0.873   0.599   8.269  1.00  0.00     0.023 C 
BRANCH  30  31
ATOM     31  C   UNL     1       0.221   0.743   9.647  1.00  0.00     0.116 C 
BRANCH  31  32
ATOM     32  N   UNL     1       0.717  -0.208  10.622  1.00  0.00    -0.352 N 
ATOM     33  C   UNL     1       1.721  -0.199  11.549  1.00  0.00     0.251 C 
ATOM     34  H   UNL     1       0.215  -1.055  10.616  1.00  0.00     0.163 HD
ATOM     35  O   UNL     1       1.765  -1.175  12.303  1.00  0.00    -0.269 OA
BRANCH  33  36
ATOM     36  C   UNL     1       2.760   0.860  11.678  1.00  0.00     0.039 A 
ATOM     37  C   UNL     1       2.875   1.980  10.856  1.00  0.00     0.014 A 
ATOM     38  C   UNL     1       3.741   0.650  12.666  1.00  0.00     0.014 A 
ATOM     39  C   UNL     1       3.980   2.816  10.951  1.00  0.00     0.010 A 
ATOM     40  C   UNL     1       4.844   1.492  12.775  1.00  0.00     0.010 A 
ATOM     41  C   UNL     1       4.988   2.544  11.875  1.00  0.00    -0.014 A 
BRANCH  41  42
ATOM     42  C   UNL     1       6.175   3.390  11.822  1.00  0.00     0.031 A 
ATOM     43  C   UNL     1       5.976   4.843  12.088  1.00  0.00     0.074 A 
ATOM     44  C   UNL     1       7.408   2.902  11.587  1.00  0.00     0.049 A 
ATOM     45  N   UNL     1       6.217   5.851  11.312  1.00  0.00    -0.248 NA
ATOM     46  C   UNL     1       5.366   5.206  13.375  1.00  0.00     0.031 C 
ATOM     47  C   UNL     1       7.846   1.502  11.592  1.00  0.00     0.029 A 
ATOM     48  N   UNL     1       8.566   3.591  11.393  1.00  0.00    -0.354 N 
ATOM     49  C   UNL     1       5.938   6.992  12.063  1.00  0.00     0.074 A 
ATOM     50  C   UNL     1       5.322   6.534  13.284  1.00  0.00     0.031 C 
ATOM     51  C   UNL     1       9.195   1.462  11.653  1.00  0.00     0.029 A 
ATOM     52  C   UNL     1       9.706   2.815  11.518  1.00  0.00     0.049 A 
ATOM     53  H   UNL     1       8.591   4.553  11.184  1.00  0.00     0.167 HD
ATOM     54  C   UNL     1       6.366   8.239  11.716  1.00  0.00     0.031 A 
ATOM     55  C   UNL     1      10.980   3.265  11.590  1.00  0.00     0.031 A 
ATOM     56  C   UNL     1       6.752   8.326  10.337  1.00  0.00     0.049 A 
ATOM     57  C   UNL     1      11.013   4.622  10.997  1.00  0.00     0.074 A 
ATOM     58  C   UNL     1       6.093   8.224   9.130  1.00  0.00     0.029 A 
ATOM     59  N   UNL     1       8.091   8.247  10.048  1.00  0.00    -0.354 N 
ATOM     60  N   UNL     1      10.780   4.875   9.739  1.00  0.00    -0.248 NA
ATOM     61  C   UNL     1      10.974   5.775  11.882  1.00  0.00     0.031 C 
ATOM     62  C   UNL     1       7.038   7.646   8.235  1.00  0.00     0.029 A 
ATOM     63  C   UNL     1       8.229   7.449   8.940  1.00  0.00     0.049 A 
ATOM     64  H   UNL     1       8.821   8.683  10.545  1.00  0.00     0.167 HD
ATOM     65  C   UNL     1      10.182   6.126   9.730  1.00  0.00     0.074 A 
ATOM     66  C   UNL     1      10.451   6.680  11.053  1.00  0.00     0.031 C 
ATOM     67  C   UNL     1       9.302   6.487   8.751  1.00  0.00     0.031 A 
BRANCH  54  68
ATOM     68  C   UNL     1       6.700   9.316  12.719  1.00  0.00    -0.014 A 
ATOM     69  C   UNL     1       6.958   9.028  14.075  1.00  0.00     0.010 A 
ATOM     70  C   UNL     1       7.008  10.620  12.276  1.00  0.00     0.010 A 
ATOM     71  C   UNL     1       7.466   9.985  14.956  1.00  0.00     0.020 A 
ATOM     72  C   UNL     1       7.563  11.577  13.142  1.00  0.00     0.020 A 
ATOM     73  C   UNL     1       7.782  11.252  14.480  1.00  0.00     0.054 A 
BRANCH  73  74
ATOM     74  S   UNL     1       8.577  12.413  15.620  1.00  0.00     0.124 S 
ATOM     75  O   UNL     1       7.474  12.764  16.509  1.00  0.00    -0.237 OA
ATOM     76  O   UNL     1       9.631  11.596  16.215  1.00  0.00    -0.237 OA
ATOM     77  O   UNL     1       9.043  13.486  14.745  1.00  0.00    -0.744 OA
ENDBRANCH  73  74
ENDBRANCH  54  68
BRANCH  55  78
ATOM     78  C   UNL     1      11.998   2.801  12.563  1.00  0.00    -0.014 A 
ATOM     79  C   UNL     1      11.586   2.307  13.819  1.00  0.00     0.010 A 
ATOM     80  C   UNL     1      13.353   3.134  12.393  1.00  0.00     0.010 A 
ATOM     81  C   UNL     1      12.475   2.221  14.892  1.00  0.00     0.020 A 
ATOM     82  C   UNL     1      14.252   3.051  13.469  1.00  0.00     0.020 A 
ATOM     83  C   UNL     1      13.796   2.630  14.720  1.00  0.00     0.054 A 
BRANCH  83  84
ATOM     84  S   UNL     1      14.869   2.689  16.182  1.00  0.00     0.124 S 
ATOM     85  O   UNL     1      14.247   3.749  16.971  1.00  0.00    -0.237 OA
ATOM     86  O   UNL     1      14.732   1.340  16.726  1.00  0.00    -0.237 OA
ATOM     87  O   UNL     1      16.185   3.006  15.634  1.00  0.00    -0.744 OA
ENDBRANCH  83  84
ENDBRANCH  55  78
BRANCH  67  88
ATOM     88  C   UNL     1       9.219   5.643   7.496  1.00  0.00    -0.014 A 
ATOM     89  C   UNL     1       9.338   6.294   6.254  1.00  0.00     0.010 A 
ATOM     90  C   UNL     1       8.829   4.288   7.505  1.00  0.00     0.010 A 
ATOM     91  C   UNL     1       9.035   5.632   5.061  1.00  0.00     0.020 A 
ATOM     92  C   UNL     1       8.546   3.611   6.309  1.00  0.00     0.020 A 
ATOM     93  C   UNL     1       8.623   4.298   5.096  1.00  0.00     0.054 A 
BRANCH  93  94
ATOM     94  S   UNL     1       8.150   3.499   3.537  1.00  0.00     0.124 S 
ATOM     95  O   UNL     1       6.898   4.178   3.210  1.00  0.00    -0.237 OA
ATOM     96  O   UNL     1       9.275   3.812   2.659  1.00  0.00    -0.237 OA
ATOM     97  O   UNL     1       8.012   2.087   3.888  1.00  0.00    -0.744 OA
ENDBRANCH  93  94
ENDBRANCH  67  88
ENDBRANCH  41  42
ENDBRANCH  33  36
ENDBRANCH  31  32
ENDBRANCH  30  31
ENDBRANCH   1  30
TORSDOF 18
