REMARK SMILES C#CC[N@@H+](CC(=O)NCCCCNC(=O)c1ccc(-c2c3nc(c(-c4ccc(S(=O)(=O)[O-])cc4)c4ccc([nH]4)c(-c4ccc(S(=O)(=O)[O-])cc4)c4nc(c(-c5ccc(S(=O)(=O)[O-])cc5)c5ccc2[nH]5)C=C4)C=C3)cc1)CC(=O)Nc1c(Cl)cccc1Cl
REMARK SMILES IDX 10 1 9 2 8 3 6 4 7 5 5 7 4 8 3 10 2 11 1 12 76 13 77 14
REMARK SMILES IDX 78 15 79 16 80 18 81 19 86 20 82 21 83 22 85 23 87 24 84 25
REMARK SMILES IDX 11 26 12 27 13 28 14 29 15 31 16 32 17 33 75 34 18 35 74 36
REMARK SMILES IDX 19 37 20 38 21 39 68 40 22 41 73 42 67 43 69 44 23 45 72 46
REMARK SMILES IDX 66 47 65 48 24 50 54 51 35 52 53 53 36 54 39 55 52 56 70 57
REMARK SMILES IDX 37 58 38 59 51 61 71 62 40 63 25 64 26 65 34 66 27 67 33 68
REMARK SMILES IDX 28 69 29 70 30 71 31 72 32 73 55 74 56 75 64 76 57 77 63 78
REMARK SMILES IDX 58 79 59 80 60 81 61 82 62 83 41 84 42 85 50 86 43 87 49 88
REMARK SMILES IDX 44 89 45 90 46 91 47 92 48 93
REMARK H PARENT 8 6 4 9 79 17 13 30 69 49 39 60
REMARK Flexibility Score: inf
ROOT
ATOM      1  C   UNL     1      -1.823   0.213  -2.992  1.00  0.00     0.023 C 
ENDROOT
BRANCH   1   2
ATOM      2  C   UNL     1      -3.167   0.865  -2.619  1.00  0.00     0.116 C 
BRANCH   2   3
ATOM      3  N   UNL     1      -4.093  -0.083  -2.041  1.00  0.00    -0.351 N 
ATOM      4  C   UNL     1      -4.517  -0.292  -0.766  1.00  0.00     0.275 C 
ATOM      5  O   UNL     1      -5.277  -1.254  -0.643  1.00  0.00    -0.269 OA
ATOM      6  H   UNL     1      -4.493  -0.697  -2.697  1.00  0.00     0.163 HD
BRANCH   4   7
ATOM      7  C   UNL     1      -4.048   0.593   0.443  1.00  0.00     0.364 C 
BRANCH   7   8
ATOM      8  N   UNL     1      -2.808   0.132   1.156  1.00  0.00    -0.309 N 
ATOM      9  H   UNL     1      -2.450   0.778   1.859  1.00  0.00     0.349 HD
BRANCH   8  10
ATOM     10  C   UNL     1      -1.834  -0.000   0.100  1.00  0.00     0.354 C 
BRANCH  10  11
ATOM     11  C   UNL     1      -0.314  -0.000   0.100  1.00  0.00    -0.047 C 
ATOM     12  C   UNL     1       0.990  -0.000   0.100  1.00  0.00     0.010 C 
ENDBRANCH  10  11
ENDBRANCH   8  10
BRANCH   8  13
ATOM     13  C   UNL     1      -3.075  -1.073   1.994  1.00  0.00     0.365 C 
BRANCH  13  14
ATOM     14  C   UNL     1      -3.654  -2.321   1.312  1.00  0.00     0.279 C 
ATOM     15  O   UNL     1      -2.933  -2.970   0.540  1.00  0.00    -0.268 OA
ATOM     16  N   UNL     1      -4.884  -2.857   1.601  1.00  0.00    -0.319 N 
ATOM     17  H   UNL     1      -5.004  -3.729   1.161  1.00  0.00     0.170 HD
BRANCH  16  18
ATOM     18  C   UNL     1      -6.034  -2.500   2.361  1.00  0.00     0.079 A 
ATOM     19  C   UNL     1      -6.825  -3.556   2.855  1.00  0.00     0.066 A 
ATOM     20  C   UNL     1      -6.514  -1.212   2.651  1.00  0.00     0.066 A 
ATOM     21  Cl  UNL     1      -6.544  -5.196   2.372  1.00  0.00    -0.082 Cl
ATOM     22  C   UNL     1      -7.870  -3.328   3.764  1.00  0.00     0.023 A 
ATOM     23  C   UNL     1      -7.396  -0.984   3.719  1.00  0.00     0.023 A 
ATOM     24  Cl  UNL     1      -7.040  -0.174   1.327  1.00  0.00    -0.082 Cl
ATOM     25  C   UNL     1      -8.105  -2.048   4.253  1.00  0.00     0.003 A 
ENDBRANCH  16  18
ENDBRANCH  13  14
ENDBRANCH   8  13
ENDBRANCH   7   8
ENDBRANCH   4   7
ENDBRANCH   2   3
ENDBRANCH   1   2
BRANCH   1  26
ATOM     26  C   UNL     1      -1.899  -0.864  -4.056  1.00  0.00     0.023 C 
BRANCH  26  27
ATOM     27  C   UNL     1      -2.538  -0.357  -5.319  1.00  0.00     0.116 C 
BRANCH  27  28
ATOM     28  N   UNL     1      -1.981   0.930  -5.741  1.00  0.00    -0.352 N 
ATOM     29  C   UNL     1      -1.867   1.390  -7.024  1.00  0.00     0.251 C 
ATOM     30  H   UNL     1      -1.656   1.525  -5.028  1.00  0.00     0.163 HD
ATOM     31  O   UNL     1      -1.311   2.445  -7.295  1.00  0.00    -0.269 OA
BRANCH  29  32
ATOM     32  C   UNL     1      -2.432   0.512  -8.049  1.00  0.00     0.039 A 
ATOM     33  C   UNL     1      -1.561  -0.169  -8.898  1.00  0.00     0.014 A 
ATOM     34  C   UNL     1      -3.780   0.165  -7.923  1.00  0.00     0.014 A 
ATOM     35  C   UNL     1      -2.052  -1.245  -9.626  1.00  0.00     0.010 A 
ATOM     36  C   UNL     1      -4.228  -0.975  -8.555  1.00  0.00     0.010 A 
ATOM     37  C   UNL     1      -3.378  -1.665  -9.437  1.00  0.00    -0.014 A 
BRANCH  37  38
ATOM     38  C   UNL     1      -3.973  -2.750 -10.240  1.00  0.00     0.031 A 
ATOM     39  C   UNL     1      -5.125  -2.390 -11.136  1.00  0.00     0.074 A 
ATOM     40  C   UNL     1      -3.556  -4.021 -10.101  1.00  0.00     0.049 A 
ATOM     41  N   UNL     1      -5.954  -3.171 -11.769  1.00  0.00    -0.248 NA
ATOM     42  C   UNL     1      -5.418  -0.951 -11.284  1.00  0.00     0.031 C 
ATOM     43  C   UNL     1      -2.461  -4.476  -9.240  1.00  0.00     0.029 A 
ATOM     44  N   UNL     1      -4.020  -5.170 -10.684  1.00  0.00    -0.354 N 
ATOM     45  C   UNL     1      -6.893  -2.322 -12.342  1.00  0.00     0.074 A 
ATOM     46  C   UNL     1      -6.572  -0.977 -11.928  1.00  0.00     0.031 C 
ATOM     47  C   UNL     1      -2.321  -5.807  -9.376  1.00  0.00     0.029 A 
ATOM     48  C   UNL     1      -3.342  -6.301 -10.294  1.00  0.00     0.049 A 
ATOM     49  H   UNL     1      -4.769  -5.186 -11.322  1.00  0.00     0.167 HD
ATOM     50  C   UNL     1      -7.914  -2.635 -13.169  1.00  0.00     0.031 A 
ATOM     51  C   UNL     1      -3.538  -7.587 -10.641  1.00  0.00     0.031 A 
ATOM     52  C   UNL     1      -8.174  -3.971 -13.620  1.00  0.00     0.049 A 
ATOM     53  C   UNL     1      -4.659  -7.909 -11.595  1.00  0.00     0.074 A 
ATOM     54  C   UNL     1      -9.146  -4.411 -14.497  1.00  0.00     0.029 A 
ATOM     55  N   UNL     1      -7.427  -5.080 -13.247  1.00  0.00    -0.354 N 
ATOM     56  N   UNL     1      -5.531  -7.095 -12.144  1.00  0.00    -0.248 NA
ATOM     57  C   UNL     1      -4.817  -9.316 -11.985  1.00  0.00     0.031 C 
ATOM     58  C   UNL     1      -8.999  -5.794 -14.640  1.00  0.00     0.029 A 
ATOM     59  C   UNL     1      -7.909  -6.205 -13.885  1.00  0.00     0.049 A 
ATOM     60  H   UNL     1      -6.668  -5.066 -12.621  1.00  0.00     0.167 HD
ATOM     61  C   UNL     1      -6.316  -7.886 -12.975  1.00  0.00     0.074 A 
ATOM     62  C   UNL     1      -5.815  -9.241 -12.856  1.00  0.00     0.031 C 
ATOM     63  C   UNL     1      -7.356  -7.529 -13.767  1.00  0.00     0.031 A 
BRANCH  50  64
ATOM     64  C   UNL     1      -8.791  -1.509 -13.639  1.00  0.00    -0.014 A 
ATOM     65  C   UNL     1      -8.299  -0.526 -14.517  1.00  0.00     0.010 A 
ATOM     66  C   UNL     1     -10.122  -1.425 -13.193  1.00  0.00     0.010 A 
ATOM     67  C   UNL     1      -9.104   0.549 -14.899  1.00  0.00     0.020 A 
ATOM     68  C   UNL     1     -10.941  -0.368 -13.599  1.00  0.00     0.020 A 
ATOM     69  C   UNL     1     -10.419   0.623 -14.434  1.00  0.00     0.054 A 
BRANCH  69  70
ATOM     70  S   UNL     1     -11.449   2.020 -14.960  1.00  0.00     0.124 S 
ATOM     71  O   UNL     1     -10.920   3.108 -14.141  1.00  0.00    -0.237 OA
ATOM     72  O   UNL     1     -11.159   2.112 -16.388  1.00  0.00    -0.237 OA
ATOM     73  O   UNL     1     -12.806   1.593 -14.628  1.00  0.00    -0.744 OA
ENDBRANCH  69  70
ENDBRANCH  50  64
BRANCH  51  74
ATOM     74  C   UNL     1      -2.642  -8.654 -10.120  1.00  0.00    -0.014 A 
ATOM     75  C   UNL     1      -1.721  -9.283 -10.977  1.00  0.00     0.010 A 
ATOM     76  C   UNL     1      -2.698  -9.048  -8.771  1.00  0.00     0.010 A 
ATOM     77  C   UNL     1      -0.895 -10.307 -10.504  1.00  0.00     0.020 A 
ATOM     78  C   UNL     1      -1.856 -10.056  -8.288  1.00  0.00     0.020 A 
ATOM     79  C   UNL     1      -0.970 -10.690  -9.162  1.00  0.00     0.054 A 
BRANCH  79  80
ATOM     80  S   UNL     1       0.130 -12.004  -8.565  1.00  0.00     0.124 S 
ATOM     81  O   UNL     1      -0.494 -13.198  -9.124  1.00  0.00    -0.237 OA
ATOM     82  O   UNL     1       1.416 -11.629  -9.147  1.00  0.00    -0.237 OA
ATOM     83  O   UNL     1       0.053 -11.878  -7.111  1.00  0.00    -0.744 OA
ENDBRANCH  79  80
ENDBRANCH  51  74
BRANCH  63  84
ATOM     84  C   UNL     1      -7.977  -8.595 -14.623  1.00  0.00    -0.014 A 
ATOM     85  C   UNL     1      -8.863  -9.539 -14.079  1.00  0.00     0.010 A 
ATOM     86  C   UNL     1      -7.757  -8.568 -16.013  1.00  0.00     0.010 A 
ATOM     87  C   UNL     1      -9.518 -10.445 -14.915  1.00  0.00     0.020 A 
ATOM     88  C   UNL     1      -8.427  -9.458 -16.852  1.00  0.00     0.020 A 
ATOM     89  C   UNL     1      -9.301 -10.394 -16.296  1.00  0.00     0.054 A 
BRANCH  89  90
ATOM     90  S   UNL     1     -10.235 -11.519 -17.368  1.00  0.00     0.124 S 
ATOM     91  O   UNL     1      -9.551 -12.790 -17.144  1.00  0.00    -0.237 OA
ATOM     92  O   UNL     1     -11.589 -11.429 -16.826  1.00  0.00    -0.237 OA
ATOM     93  O   UNL     1     -10.066 -10.947 -18.702  1.00  0.00    -0.744 OA
ENDBRANCH  89  90
ENDBRANCH  63  84
ENDBRANCH  37  38
ENDBRANCH  29  32
ENDBRANCH  27  28
ENDBRANCH  26  27
ENDBRANCH   1  26
TORSDOF 20
