REMARK SMILES C[NH+]1CCC(NC(=O)N[C@@H]2C=C[C@H](C(=O)NCCCCNC(=O)c3ccc(-c4c5nc(c(-c6ccc(S(=O)(=O)[O-])cc6)c6ccc([nH]6)c(-c6ccc(S(=O)(=O)[O-])cc6)c6nc(c(-c7ccc(S(=O)(=O)[O-])cc7)c7ccc4[nH]7)C=C6)C=C5)cc3)C2)CC1
REMARK SMILES IDX 19 1 18 2 17 3 16 4 14 5 15 6 13 8 10 9 11 10 84 11 12 12
REMARK SMILES IDX 9 13 6 14 7 15 8 17 5 19 1 20 2 21 3 22 86 23 4 25 85 26
REMARK SMILES IDX 20 27 21 28 22 29 23 31 24 32 25 33 83 34 26 35 82 36 27 37
REMARK SMILES IDX 28 38 29 39 76 40 30 41 81 42 75 43 77 44 31 45 80 46 74 47
REMARK SMILES IDX 73 48 32 50 62 51 43 52 61 53 44 54 47 55 60 56 78 57 45 58
REMARK SMILES IDX 46 59 59 61 79 62 48 63 33 64 34 65 42 66 35 67 41 68 36 69
REMARK SMILES IDX 37 70 38 71 39 72 40 73 63 74 64 75 72 76 65 77 71 78 66 79
REMARK SMILES IDX 67 80 68 81 69 82 70 83 49 84 50 85 58 86 51 87 57 88 52 89
REMARK SMILES IDX 53 90 54 91 55 92 56 93
REMARK H PARENT 16 7 6 16 9 18 2 24 21 30 77 49 47 60
REMARK Flexibility Score: inf
ROOT
ATOM      1  C   UNL     1      -3.834   3.048  -0.508  1.00  0.00     0.023 C 
ENDROOT
BRANCH   1   2
ATOM      2  C   UNL     1      -2.562   2.421   0.074  1.00  0.00     0.023 C 
BRANCH   2   3
ATOM      3  C   UNL     1      -2.298   0.994  -0.401  1.00  0.00     0.116 C 
BRANCH   3   4
ATOM      4  N   UNL     1      -2.098   0.947  -1.836  1.00  0.00    -0.356 N 
ATOM      5  C   UNL     1      -0.925   0.951  -2.534  1.00  0.00     0.227 C 
ATOM      6  O   UNL     1      -0.967   0.964  -3.764  1.00  0.00    -0.274 OA
ATOM      7  H   UNL     1      -2.918   0.906  -2.380  1.00  0.00     0.163 HD
BRANCH   5   8
ATOM      8  C   UNL     1       0.379   0.870  -1.752  1.00  0.00     0.103 C 
ATOM      9  C   UNL     1       2.610   0.458  -2.706  1.00  0.00     0.107 C 
ATOM     10  C   UNL     1       1.970  -0.795  -2.205  1.00  0.00    -0.006 C 
ATOM     11  C   UNL     1       1.543   1.536  -2.499  1.00  0.00     0.047 C 
ATOM     12  C   UNL     1       0.773  -0.573  -1.662  1.00  0.00    -0.016 C 
BRANCH   9  13
ATOM     13  N   UNL     1       3.002   0.261  -4.080  1.00  0.00    -0.332 N 
ATOM     14  N   UNL     1       5.192  -0.646  -3.973  1.00  0.00    -0.335 N 
ATOM     15  C   UNL     1       4.124  -0.198  -4.663  1.00  0.00     0.315 C 
ATOM     16  H   UNL     1       5.938  -0.948  -4.541  1.00  0.00     0.165 HD
ATOM     17  O   UNL     1       4.183  -0.221  -5.894  1.00  0.00    -0.249 OA
ATOM     18  H   UNL     1       2.304   0.516  -4.726  1.00  0.00     0.165 HD
BRANCH  14  19
ATOM     19  C   UNL     1       5.447  -0.765  -2.553  1.00  0.00     0.095 C 
ATOM     20  C   UNL     1       6.618  -0.979   1.472  1.00  0.00     0.332 C 
ATOM     21  N   UNL     1       6.763  -0.915   0.014  1.00  0.00    -0.337 N 
ATOM     22  C   UNL     1       6.207   0.358  -0.475  1.00  0.00     0.264 C 
ATOM     23  C   UNL     1       6.142  -2.099  -0.605  1.00  0.00     0.264 C 
ATOM     24  H   UNL     1       7.748  -0.934  -0.251  1.00  0.00     0.347 HD
ATOM     25  C   UNL     1       6.195   0.443  -1.999  1.00  0.00     0.086 C 
ATOM     26  C   UNL     1       6.173  -2.037  -2.139  1.00  0.00     0.086 C 
ENDBRANCH  14  19
ENDBRANCH   9  13
ENDBRANCH   5   8
ENDBRANCH   3   4
ENDBRANCH   2   3
ENDBRANCH   1   2
BRANCH   1  27
ATOM     27  C   UNL     1      -5.095   2.204  -0.358  1.00  0.00     0.116 C 
BRANCH  27  28
ATOM     28  N   UNL     1      -5.385   1.872   1.026  1.00  0.00    -0.352 N 
ATOM     29  C   UNL     1      -6.594   1.859   1.678  1.00  0.00     0.251 C 
ATOM     30  H   UNL     1      -4.606   1.620   1.574  1.00  0.00     0.163 HD
ATOM     31  O   UNL     1      -6.627   1.696   2.892  1.00  0.00    -0.269 OA
BRANCH  29  32
ATOM     32  C   UNL     1      -7.843   2.074   0.915  1.00  0.00     0.039 A 
ATOM     33  C   UNL     1      -8.810   2.932   1.444  1.00  0.00     0.014 A 
ATOM     34  C   UNL     1      -8.063   1.439  -0.311  1.00  0.00     0.014 A 
ATOM     35  C   UNL     1      -9.975   3.189   0.720  1.00  0.00     0.010 A 
ATOM     36  C   UNL     1      -9.187   1.761  -1.067  1.00  0.00     0.010 A 
ATOM     37  C   UNL     1     -10.161   2.630  -0.555  1.00  0.00    -0.014 A 
BRANCH  37  38
ATOM     38  C   UNL     1     -11.371   2.953  -1.355  1.00  0.00     0.031 A 
ATOM     39  C   UNL     1     -12.355   1.874  -1.724  1.00  0.00     0.074 A 
ATOM     40  C   UNL     1     -11.567   4.217  -1.779  1.00  0.00     0.049 A 
ATOM     41  N   UNL     1     -13.473   1.975  -2.396  1.00  0.00    -0.248 NA
ATOM     42  C   UNL     1     -12.030   0.500  -1.307  1.00  0.00     0.031 C 
ATOM     43  C   UNL     1     -10.658   5.341  -1.538  1.00  0.00     0.029 A 
ATOM     44  N   UNL     1     -12.594   4.772  -2.500  1.00  0.00    -0.354 N 
ATOM     45  C   UNL     1     -13.977   0.682  -2.493  1.00  0.00     0.074 A 
ATOM     46  C   UNL     1     -13.014  -0.192  -1.861  1.00  0.00     0.031 C 
ATOM     47  C   UNL     1     -11.186   6.455  -2.068  1.00  0.00     0.029 A 
ATOM     48  C   UNL     1     -12.448   6.122  -2.720  1.00  0.00     0.049 A 
ATOM     49  H   UNL     1     -13.364   4.253  -2.829  1.00  0.00     0.167 HD
ATOM     50  C   UNL     1     -15.143   0.263  -3.040  1.00  0.00     0.031 A 
ATOM     51  C   UNL     1     -13.238   6.995  -3.374  1.00  0.00     0.031 A 
ATOM     52  C   UNL     1     -16.098   1.139  -3.667  1.00  0.00     0.049 A 
ATOM     53  C   UNL     1     -14.532   6.509  -3.966  1.00  0.00     0.074 A 
ATOM     54  C   UNL     1     -17.338   0.822  -4.195  1.00  0.00     0.029 A 
ATOM     55  N   UNL     1     -15.918   2.500  -3.861  1.00  0.00    -0.354 N 
ATOM     56  N   UNL     1     -15.032   5.296  -3.970  1.00  0.00    -0.248 NA
ATOM     57  C   UNL     1     -15.378   7.513  -4.624  1.00  0.00     0.031 C 
ATOM     58  C   UNL     1     -17.879   1.979  -4.765  1.00  0.00     0.029 A 
ATOM     59  C   UNL     1     -17.011   3.033  -4.527  1.00  0.00     0.049 A 
ATOM     60  H   UNL     1     -15.131   3.013  -3.569  1.00  0.00     0.167 HD
ATOM     61  C   UNL     1     -16.264   5.397  -4.608  1.00  0.00     0.074 A 
ATOM     62  C   UNL     1     -16.440   6.793  -4.954  1.00  0.00     0.031 C 
ATOM     63  C   UNL     1     -17.169   4.422  -4.879  1.00  0.00     0.031 A 
BRANCH  50  64
ATOM     64  C   UNL     1     -15.442  -1.215  -2.997  1.00  0.00    -0.014 A 
ATOM     65  C   UNL     1     -15.704  -1.874  -1.781  1.00  0.00     0.010 A 
ATOM     66  C   UNL     1     -15.497  -1.951  -4.194  1.00  0.00     0.010 A 
ATOM     67  C   UNL     1     -15.963  -3.247  -1.759  1.00  0.00     0.020 A 
ATOM     68  C   UNL     1     -15.789  -3.318  -4.181  1.00  0.00     0.020 A 
ATOM     69  C   UNL     1     -16.002  -3.961  -2.960  1.00  0.00     0.054 A 
BRANCH  69  70
ATOM     70  S   UNL     1     -16.356  -5.739  -2.902  1.00  0.00     0.124 S 
ATOM     71  O   UNL     1     -15.123  -6.273  -2.328  1.00  0.00    -0.237 OA
ATOM     72  O   UNL     1     -17.530  -5.803  -2.036  1.00  0.00    -0.237 OA
ATOM     73  O   UNL     1     -16.595  -6.092  -4.299  1.00  0.00    -0.744 OA
ENDBRANCH  69  70
ENDBRANCH  50  64
BRANCH  51  74
ATOM     74  C   UNL     1     -12.829   8.423  -3.484  1.00  0.00    -0.014 A 
ATOM     75  C   UNL     1     -13.523   9.428  -2.787  1.00  0.00     0.010 A 
ATOM     76  C   UNL     1     -11.722   8.782  -4.275  1.00  0.00     0.010 A 
ATOM     77  C   UNL     1     -13.128  10.765  -2.891  1.00  0.00     0.020 A 
ATOM     78  C   UNL     1     -11.304  10.113  -4.356  1.00  0.00     0.020 A 
ATOM     79  C   UNL     1     -12.017  11.098  -3.671  1.00  0.00     0.054 A 
BRANCH  79  80
ATOM     80  S   UNL     1     -11.485  12.831  -3.743  1.00  0.00     0.124 S 
ATOM     81  O   UNL     1     -12.531  13.438  -4.559  1.00  0.00    -0.237 OA
ATOM     82  O   UNL     1     -11.477  13.216  -2.333  1.00  0.00    -0.237 OA
ATOM     83  O   UNL     1     -10.165  12.759  -4.367  1.00  0.00    -0.744 OA
ENDBRANCH  79  80
ENDBRANCH  51  74
BRANCH  63  84
ATOM     84  C   UNL     1     -18.450   4.839  -5.556  1.00  0.00    -0.014 A 
ATOM     85  C   UNL     1     -18.466   5.279  -6.892  1.00  0.00     0.010 A 
ATOM     86  C   UNL     1     -19.663   4.762  -4.847  1.00  0.00     0.010 A 
ATOM     87  C   UNL     1     -19.664   5.684  -7.488  1.00  0.00     0.020 A 
ATOM     88  C   UNL     1     -20.867   5.132  -5.450  1.00  0.00     0.020 A 
ATOM     89  C   UNL     1     -20.856   5.612  -6.761  1.00  0.00     0.054 A 
BRANCH  89  90
ATOM     90  S   UNL     1     -22.399   6.131  -7.560  1.00  0.00     0.124 S 
ATOM     91  O   UNL     1     -22.248   7.583  -7.597  1.00  0.00    -0.237 OA
ATOM     92  O   UNL     1     -22.331   5.458  -8.855  1.00  0.00    -0.237 OA
ATOM     93  O   UNL     1     -23.439   5.636  -6.661  1.00  0.00    -0.744 OA
ENDBRANCH  89  90
ENDBRANCH  63  84
ENDBRANCH  37  38
ENDBRANCH  29  32
ENDBRANCH  27  28
ENDBRANCH   1  27
TORSDOF 16
