REMARK SMILES CC1(C)CCC[C@H]1NC(=O)N[C@@H]1COC[C@@]1(C)C(=O)NCCCCNC(=O)c1ccc(-c2c3nc(c(-c4ccc(S(=O)(=O)[O-])cc4)c4ccc([nH]4)c(-c4ccc(S(=O)(=O)[O-])cc4)c4nc(c(-c5ccc(S(=O)(=O)[O-])cc5)c5ccc2[nH]5)C=C4)C=C3)cc1
REMARK SMILES IDX 23 1 22 2 21 3 20 4 18 5 19 6 16 8 12 9 13 10 14 11 15 12
REMARK SMILES IDX 17 13 11 14 8 15 9 16 10 18 7 20 1 21 2 22 3 23 4 24 5 25
REMARK SMILES IDX 6 26 24 27 25 28 26 29 27 31 28 32 29 33 87 34 30 35 86 36
REMARK SMILES IDX 31 37 32 38 33 39 80 40 34 41 85 42 79 43 81 44 35 45 84 46
REMARK SMILES IDX 78 47 77 48 36 50 66 51 47 52 65 53 48 54 51 55 64 56 82 57
REMARK SMILES IDX 49 58 50 59 63 61 83 62 52 63 37 64 38 65 46 66 39 67 45 68
REMARK SMILES IDX 40 69 41 70 42 71 43 72 44 73 67 74 68 75 76 76 69 77 75 78
REMARK SMILES IDX 70 79 71 80 72 81 73 82 74 83 53 84 54 85 62 86 55 87 61 88
REMARK SMILES IDX 56 89 57 90 58 91 59 92 60 93
REMARK H PARENT 20 7 8 17 11 19 25 30 81 49 51 60
REMARK Flexibility Score: inf
ROOT
ATOM      1  C   UNL     1       5.029   1.557   2.750  1.00  0.00     0.023 C 
ENDROOT
BRANCH   1   2
ATOM      2  C   UNL     1       3.622   1.979   2.346  1.00  0.00     0.023 C 
BRANCH   2   3
ATOM      3  C   UNL     1       3.434   3.407   1.823  1.00  0.00     0.116 C 
BRANCH   3   4
ATOM      4  N   UNL     1       3.852   3.664   0.455  1.00  0.00    -0.355 N 
ATOM      5  C   UNL     1       3.140   3.694  -0.713  1.00  0.00     0.230 C 
ATOM      6  O   UNL     1       3.676   4.256  -1.672  1.00  0.00    -0.274 OA
ATOM      7  H   UNL     1       4.813   3.850   0.351  1.00  0.00     0.163 HD
BRANCH   5   8
ATOM      8  C   UNL     1       1.790   2.978  -0.867  1.00  0.00     0.092 C 
ATOM      9  C   UNL     1       0.576   3.671  -0.220  1.00  0.00     0.127 C 
ATOM     10  C   UNL     1      -0.546   3.645  -1.255  1.00  0.00     0.186 C 
ATOM     11  O   UNL     1      -0.070   2.882  -2.365  1.00  0.00    -0.378 OA
ATOM     12  C   UNL     1       1.363   3.003  -2.351  1.00  0.00     0.179 C 
ATOM     13  C   UNL     1       2.017   1.531  -0.502  1.00  0.00     0.026 C 
BRANCH   9  14
ATOM     14  N   UNL     1       0.124   3.324   1.136  1.00  0.00    -0.332 N 
ATOM     15  N   UNL     1      -0.658   1.093   1.472  1.00  0.00    -0.335 N 
ATOM     16  C   UNL     1      -0.356   2.324   1.867  1.00  0.00     0.315 C 
ATOM     17  H   UNL     1      -0.775   0.491   2.242  1.00  0.00     0.165 HD
ATOM     18  O   UNL     1      -0.513   2.570   3.068  1.00  0.00    -0.249 OA
ATOM     19  H   UNL     1       0.208   4.121   1.709  1.00  0.00     0.165 HD
BRANCH  15  20
ATOM     20  C   UNL     1      -0.866   0.383   0.210  1.00  0.00     0.089 C 
ATOM     21  C   UNL     1       1.046  -1.253   1.062  1.00  0.00     0.013 C 
ATOM     22  C   UNL     1      -0.191  -1.040   0.171  1.00  0.00    -0.015 C 
ATOM     23  C   UNL     1       0.177  -1.444  -1.280  1.00  0.00     0.013 C 
ATOM     24  C   UNL     1      -1.319  -1.957   0.671  1.00  0.00     0.008 C 
ATOM     25  C   UNL     1      -2.561  -1.406  -0.000  1.00  0.00     0.003 C 
ATOM     26  C   UNL     1      -2.382   0.108   0.047  1.00  0.00     0.025 C 
ENDBRANCH  15  20
ENDBRANCH   9  14
ENDBRANCH   5   8
ENDBRANCH   3   4
ENDBRANCH   2   3
ENDBRANCH   1   2
BRANCH   1  27
ATOM     27  C   UNL     1       5.701   2.454   3.768  1.00  0.00     0.116 C 
BRANCH  27  28
ATOM     28  N   UNL     1       4.923   2.681   4.975  1.00  0.00    -0.352 N 
ATOM     29  C   UNL     1       5.389   3.087   6.210  1.00  0.00     0.251 C 
ATOM     30  H   UNL     1       3.953   2.528   4.904  1.00  0.00     0.163 HD
ATOM     31  O   UNL     1       4.640   3.159   7.167  1.00  0.00    -0.269 OA
BRANCH  29  32
ATOM     32  C   UNL     1       6.835   3.372   6.353  1.00  0.00     0.039 A 
ATOM     33  C   UNL     1       7.537   2.780   7.402  1.00  0.00     0.014 A 
ATOM     34  C   UNL     1       7.501   4.154   5.407  1.00  0.00     0.014 A 
ATOM     35  C   UNL     1       8.925   2.921   7.462  1.00  0.00     0.010 A 
ATOM     36  C   UNL     1       8.887   4.199   5.405  1.00  0.00     0.010 A 
ATOM     37  C   UNL     1       9.613   3.601   6.443  1.00  0.00    -0.014 A 
BRANCH  37  38
ATOM     38  C   UNL     1      11.090   3.734   6.468  1.00  0.00     0.031 A 
ATOM     39  C   UNL     1      11.713   5.102   6.559  1.00  0.00     0.074 A 
ATOM     40  C   UNL     1      11.864   2.636   6.361  1.00  0.00     0.049 A 
ATOM     41  N   UNL     1      12.979   5.431   6.577  1.00  0.00    -0.248 NA
ATOM     42  C   UNL     1      10.796   6.255   6.598  1.00  0.00     0.031 C 
ATOM     43  C   UNL     1      11.375   1.263   6.204  1.00  0.00     0.029 A 
ATOM     44  N   UNL     1      13.229   2.501   6.373  1.00  0.00    -0.354 N 
ATOM     45  C   UNL     1      13.006   6.821   6.613  1.00  0.00     0.074 A 
ATOM     46  C   UNL     1      11.636   7.276   6.542  1.00  0.00     0.031 C 
ATOM     47  C   UNL     1      12.423   0.423   6.179  1.00  0.00     0.029 A 
ATOM     48  C   UNL     1      13.655   1.197   6.284  1.00  0.00     0.049 A 
ATOM     49  H   UNL     1      13.845   3.266   6.439  1.00  0.00     0.167 HD
ATOM     50  C   UNL     1      14.072   7.646   6.729  1.00  0.00     0.031 A 
ATOM     51  C   UNL     1      14.900   0.683   6.295  1.00  0.00     0.031 A 
ATOM     52  C   UNL     1      15.430   7.186   6.827  1.00  0.00     0.049 A 
ATOM     53  C   UNL     1      16.070   1.618   6.444  1.00  0.00     0.074 A 
ATOM     54  C   UNL     1      16.580   7.931   7.014  1.00  0.00     0.029 A 
ATOM     55  N   UNL     1      15.819   5.857   6.750  1.00  0.00    -0.354 N 
ATOM     56  N   UNL     1      16.070   2.925   6.557  1.00  0.00    -0.248 NA
ATOM     57  C   UNL     1      17.405   1.007   6.484  1.00  0.00     0.031 C 
ATOM     58  C   UNL     1      17.671   7.055   7.002  1.00  0.00     0.029 A 
ATOM     59  C   UNL     1      17.194   5.761   6.864  1.00  0.00     0.049 A 
ATOM     60  H   UNL     1      15.207   5.095   6.632  1.00  0.00     0.167 HD
ATOM     61  C   UNL     1      17.404   3.292   6.703  1.00  0.00     0.074 A 
ATOM     62  C   UNL     1      18.177   2.066   6.686  1.00  0.00     0.031 C 
ATOM     63  C   UNL     1      17.942   4.529   6.838  1.00  0.00     0.031 A 
BRANCH  50  64
ATOM     64  C   UNL     1      13.803   9.128   6.763  1.00  0.00    -0.014 A 
ATOM     65  C   UNL     1      13.154   9.722   7.862  1.00  0.00     0.010 A 
ATOM     66  C   UNL     1      14.220   9.941   5.695  1.00  0.00     0.010 A 
ATOM     67  C   UNL     1      12.886  11.093   7.871  1.00  0.00     0.020 A 
ATOM     68  C   UNL     1      13.981  11.319   5.714  1.00  0.00     0.020 A 
ATOM     69  C   UNL     1      13.299  11.882   6.794  1.00  0.00     0.054 A 
BRANCH  69  70
ATOM     70  S   UNL     1      12.956  13.663   6.842  1.00  0.00     0.124 S 
ATOM     71  O   UNL     1      11.516  13.698   6.595  1.00  0.00    -0.237 OA
ATOM     72  O   UNL     1      13.370  14.033   8.193  1.00  0.00    -0.237 OA
ATOM     73  O   UNL     1      13.785  14.205   5.768  1.00  0.00    -0.744 OA
ENDBRANCH  69  70
ENDBRANCH  50  64
BRANCH  51  74
ATOM     74  C   UNL     1      15.102  -0.789   6.197  1.00  0.00    -0.014 A 
ATOM     75  C   UNL     1      15.545  -1.525   7.310  1.00  0.00     0.010 A 
ATOM     76  C   UNL     1      14.839  -1.466   4.992  1.00  0.00     0.010 A 
ATOM     77  C   UNL     1      15.741  -2.906   7.215  1.00  0.00     0.020 A 
ATOM     78  C   UNL     1      15.008  -2.851   4.901  1.00  0.00     0.020 A 
ATOM     79  C   UNL     1      15.470  -3.561   6.011  1.00  0.00     0.054 A 
BRANCH  79  80
ATOM     80  S   UNL     1      15.685  -5.361   5.925  1.00  0.00     0.124 S 
ATOM     81  O   UNL     1      17.138  -5.492   5.895  1.00  0.00    -0.237 OA
ATOM     82  O   UNL     1      15.032  -5.816   7.150  1.00  0.00    -0.237 OA
ATOM     83  O   UNL     1      14.997  -5.728   4.689  1.00  0.00    -0.744 OA
ENDBRANCH  79  80
ENDBRANCH  51  74
BRANCH  63  84
ATOM     84  C   UNL     1      19.435   4.616   6.999  1.00  0.00    -0.014 A 
ATOM     85  C   UNL     1      20.298   4.364   5.918  1.00  0.00     0.010 A 
ATOM     86  C   UNL     1      19.978   5.004   8.237  1.00  0.00     0.010 A 
ATOM     87  C   UNL     1      21.681   4.463   6.083  1.00  0.00     0.020 A 
ATOM     88  C   UNL     1      21.360   5.131   8.398  1.00  0.00     0.020 A 
ATOM     89  C   UNL     1      22.203   4.844   7.323  1.00  0.00     0.054 A 
BRANCH  89  90
ATOM     90  S   UNL     1      24.001   4.998   7.503  1.00  0.00     0.124 S 
ATOM     91  O   UNL     1      24.422   3.600   7.544  1.00  0.00    -0.237 OA
ATOM     92  O   UNL     1      24.382   5.734   6.300  1.00  0.00    -0.237 OA
ATOM     93  O   UNL     1      24.162   5.735   8.754  1.00  0.00    -0.744 OA
ENDBRANCH  89  90
ENDBRANCH  63  84
ENDBRANCH  37  38
ENDBRANCH  29  32
ENDBRANCH  27  28
ENDBRANCH   1  27
TORSDOF 16
