REMARK SMILES O=C(NCCCCNC(=O)[C@H]1CCCCC[C@@H]1NC(=O)c1cncc(Br)c1)c1ccc(-c2c3nc(c(-c4ccc(S(=O)(=O)[O-])cc4)c4ccc([nH]4)c(-c4ccc(S(=O)(=O)[O-])cc4)c4nc(c(-c5ccc(S(=O)(=O)[O-])cc5)c5ccc2[nH]5)C=C4)C=C3)cc1
REMARK SMILES IDX 5 1 4 2 3 3 1 4 2 5 28 7 29 8 87 9 30 10 86 11 31 12 32 13
REMARK SMILES IDX 33 14 80 15 34 16 85 17 79 18 81 19 35 20 84 21 78 22 77 23
REMARK SMILES IDX 36 25 66 26 47 27 65 28 48 29 51 30 64 31 82 32 49 33 50 34
REMARK SMILES IDX 63 36 83 37 52 38 37 39 38 40 46 41 39 42 45 43 40 44 41 45
REMARK SMILES IDX 42 46 43 47 44 48 67 49 68 50 76 51 69 52 75 53 70 54 71 55
REMARK SMILES IDX 72 56 73 57 74 58 53 59 54 60 62 61 55 62 61 63 56 64 57 65
REMARK SMILES IDX 58 66 59 67 60 68 6 69 7 70 8 71 9 72 10 74 11 75 12 76
REMARK SMILES IDX 13 77 14 78 17 80 16 81 15 82 18 84 19 85 20 87 21 88 22 89
REMARK SMILES IDX 27 90 23 91 25 92 24 93 26 94
REMARK H PARENT 3 6 81 24 51 35 8 73 18 86
REMARK Flexibility Score: 90.00
ROOT
ATOM      1  C   UNL     1       3.244   5.094  -5.291  1.00  0.00     0.023 C 
ENDROOT
BRANCH   1   2
ATOM      2  C   UNL     1       3.824   4.298  -6.450  1.00  0.00     0.116 C 
BRANCH   2   3
ATOM      3  N   UNL     1       3.594   2.869  -6.311  1.00  0.00    -0.352 N 
ATOM      4  O   UNL     1       2.968   0.822  -7.031  1.00  0.00    -0.269 OA
ATOM      5  C   UNL     1       3.291   1.968  -7.305  1.00  0.00     0.251 C 
ATOM      6  H   UNL     1       3.664   2.504  -5.400  1.00  0.00     0.163 HD
BRANCH   5   7
ATOM      7  C   UNL     1       3.337   2.431  -8.706  1.00  0.00     0.039 A 
ATOM      8  C   UNL     1       4.459   3.118  -9.176  1.00  0.00     0.014 A 
ATOM      9  C   UNL     1       2.234   2.214  -9.534  1.00  0.00     0.014 A 
ATOM     10  C   UNL     1       4.431   3.690 -10.440  1.00  0.00     0.010 A 
ATOM     11  C   UNL     1       2.240   2.726 -10.833  1.00  0.00     0.010 A 
ATOM     12  C   UNL     1       3.330   3.484 -11.288  1.00  0.00    -0.014 A 
BRANCH  12  13
ATOM     13  C   UNL     1       3.387   3.999 -12.677  1.00  0.00     0.031 A 
ATOM     14  C   UNL     1       2.463   5.086 -13.148  1.00  0.00     0.074 A 
ATOM     15  C   UNL     1       4.317   3.484 -13.505  1.00  0.00     0.049 A 
ATOM     16  N   UNL     1       2.407   5.659 -14.323  1.00  0.00    -0.248 NA
ATOM     17  C   UNL     1       1.474   5.594 -12.185  1.00  0.00     0.031 C 
ATOM     18  C   UNL     1       5.261   2.418 -13.152  1.00  0.00     0.029 A 
ATOM     19  N   UNL     1       4.640   3.797 -14.798  1.00  0.00    -0.354 N 
ATOM     20  C   UNL     1       1.368   6.579 -14.251  1.00  0.00     0.074 A 
ATOM     21  C   UNL     1       0.809   6.477 -12.920  1.00  0.00     0.031 C 
ATOM     22  C   UNL     1       6.089   2.204 -14.184  1.00  0.00     0.029 A 
ATOM     23  C   UNL     1       5.696   3.067 -15.290  1.00  0.00     0.049 A 
ATOM     24  H   UNL     1       4.163   4.479 -15.324  1.00  0.00     0.167 HD
ATOM     25  C   UNL     1       0.926   7.429 -15.209  1.00  0.00     0.031 A 
ATOM     26  C   UNL     1       6.276   3.076 -16.504  1.00  0.00     0.031 A 
ATOM     27  C   UNL     1       1.491   7.521 -16.531  1.00  0.00     0.049 A 
ATOM     28  C   UNL     1       5.753   4.015 -17.549  1.00  0.00     0.074 A 
ATOM     29  C   UNL     1       1.127   8.367 -17.566  1.00  0.00     0.029 A 
ATOM     30  N   UNL     1       2.536   6.741 -17.003  1.00  0.00    -0.354 N 
ATOM     31  N   UNL     1       4.782   4.892 -17.453  1.00  0.00    -0.248 NA
ATOM     32  C   UNL     1       6.399   3.965 -18.865  1.00  0.00     0.031 C 
ATOM     33  C   UNL     1       1.923   8.067 -18.677  1.00  0.00     0.029 A 
ATOM     34  C   UNL     1       2.816   7.070 -18.320  1.00  0.00     0.049 A 
ATOM     35  H   UNL     1       3.009   6.054 -16.480  1.00  0.00     0.167 HD
ATOM     36  C   UNL     1       4.704   5.503 -18.697  1.00  0.00     0.074 A 
ATOM     37  C   UNL     1       5.744   4.915 -19.518  1.00  0.00     0.031 C 
ATOM     38  C   UNL     1       3.846   6.462 -19.123  1.00  0.00     0.031 A 
BRANCH  25  39
ATOM     39  C   UNL     1      -0.245   8.315 -14.874  1.00  0.00    -0.014 A 
ATOM     40  C   UNL     1      -0.099   9.425 -14.024  1.00  0.00     0.010 A 
ATOM     41  C   UNL     1      -1.497   8.070 -15.469  1.00  0.00     0.010 A 
ATOM     42  C   UNL     1      -1.190  10.257 -13.752  1.00  0.00     0.020 A 
ATOM     43  C   UNL     1      -2.585   8.912 -15.217  1.00  0.00     0.020 A 
ATOM     44  C   UNL     1      -2.427   9.993 -14.348  1.00  0.00     0.054 A 
BRANCH  44  45
ATOM     45  S   UNL     1      -3.819  11.105 -14.001  1.00  0.00     0.124 S 
ATOM     46  O   UNL     1      -4.178  10.720 -12.638  1.00  0.00    -0.237 OA
ATOM     47  O   UNL     1      -3.216  12.428 -14.140  1.00  0.00    -0.237 OA
ATOM     48  O   UNL     1      -4.802  10.761 -15.024  1.00  0.00    -0.744 OA
ENDBRANCH  44  45
ENDBRANCH  25  39
BRANCH  26  49
ATOM     49  C   UNL     1       7.401   2.148 -16.788  1.00  0.00    -0.014 A 
ATOM     50  C   UNL     1       8.710   2.633 -16.943  1.00  0.00     0.010 A 
ATOM     51  C   UNL     1       7.168   0.762 -16.870  1.00  0.00     0.010 A 
ATOM     52  C   UNL     1       9.765   1.750 -17.189  1.00  0.00     0.020 A 
ATOM     53  C   UNL     1       8.223  -0.125 -17.087  1.00  0.00     0.020 A 
ATOM     54  C   UNL     1       9.515   0.376 -17.258  1.00  0.00     0.054 A 
BRANCH  54  55
ATOM     55  S   UNL     1      10.904  -0.760 -17.521  1.00  0.00     0.124 S 
ATOM     56  O   UNL     1      11.139  -0.622 -18.954  1.00  0.00    -0.237 OA
ATOM     57  O   UNL     1      11.939  -0.204 -16.652  1.00  0.00    -0.237 OA
ATOM     58  O   UNL     1      10.372  -2.052 -17.093  1.00  0.00    -0.744 OA
ENDBRANCH  54  55
ENDBRANCH  26  49
BRANCH  38  59
ATOM     59  C   UNL     1       4.010   6.936 -20.540  1.00  0.00    -0.014 A 
ATOM     60  C   UNL     1       3.611   6.133 -21.622  1.00  0.00     0.010 A 
ATOM     61  C   UNL     1       4.550   8.210 -20.790  1.00  0.00     0.010 A 
ATOM     62  C   UNL     1       3.784   6.581 -22.934  1.00  0.00     0.020 A 
ATOM     63  C   UNL     1       4.703   8.671 -22.099  1.00  0.00     0.020 A 
ATOM     64  C   UNL     1       4.334   7.846 -23.164  1.00  0.00     0.054 A 
BRANCH  64  65
ATOM     65  S   UNL     1       4.527   8.418 -24.874  1.00  0.00     0.124 S 
ATOM     66  O   UNL     1       5.706   7.676 -25.311  1.00  0.00    -0.237 OA
ATOM     67  O   UNL     1       3.266   8.017 -25.493  1.00  0.00    -0.237 OA
ATOM     68  O   UNL     1       4.713   9.861 -24.735  1.00  0.00    -0.744 OA
ENDBRANCH  64  65
ENDBRANCH  38  59
ENDBRANCH  12  13
ENDBRANCH   5   7
ENDBRANCH   2   3
ENDBRANCH   1   2
BRANCH   1  69
ATOM     69  C   UNL     1       3.851   4.753  -3.926  1.00  0.00     0.023 C 
BRANCH  69  70
ATOM     70  C   UNL     1       5.356   5.010  -3.846  1.00  0.00     0.116 C 
BRANCH  70  71
ATOM     71  N   UNL     1       5.621   6.425  -3.963  1.00  0.00    -0.356 N 
ATOM     72  C   UNL     1       5.786   7.398  -3.034  1.00  0.00     0.225 C 
ATOM     73  H   UNL     1       5.696   6.742  -4.891  1.00  0.00     0.163 HD
ATOM     74  O   UNL     1       5.766   8.550  -3.478  1.00  0.00    -0.275 OA
BRANCH  72  75
ATOM     75  C   UNL     1       6.147   7.098  -1.563  1.00  0.00     0.101 C 
BRANCH  75  76
ATOM     76  C   UNL     1       6.481   8.433  -0.852  1.00  0.00     0.015 C 
BRANCH  76  77
ATOM     77  C   UNL     1       5.306   9.397  -0.657  1.00  0.00     0.001 C 
BRANCH  77  78
ATOM     78  C   UNL     1       4.513   9.153   0.616  1.00  0.00     0.000 CG0
ATOM     79  G   UNL     1       3.789   7.817   0.634  1.00  0.00     0.000 G0
ENDBRANCH  77  78
ENDBRANCH  76  77
ENDBRANCH  75  76
BRANCH  75  80
ATOM     80  C   UNL     1       5.200   6.165  -0.759  1.00  0.00     0.094 C 
BRANCH  80  81
ATOM     81  C   UNL     1       4.733   6.621   0.637  1.00  0.00     0.026 C 
BRANCH  81  82
ATOM     82  C   UNL     1       3.789   7.817   0.634  1.00  0.00     0.002 CG0
ATOM     83  G   UNL     1       4.513   9.153   0.616  1.00  0.00     0.000 G0
ENDBRANCH  81  82
ENDBRANCH  80  81
BRANCH  80  84
ATOM     84  N   UNL     1       5.660   4.754  -0.602  1.00  0.00    -0.348 N 
ATOM     85  C   UNL     1       6.859   4.149  -0.324  1.00  0.00     0.253 C 
ATOM     86  H   UNL     1       4.931   4.105  -0.727  1.00  0.00     0.164 HD
ATOM     87  O   UNL     1       6.926   2.927  -0.235  1.00  0.00    -0.269 OA
BRANCH  85  88
ATOM     88  C   UNL     1       8.090   4.928  -0.208  1.00  0.00     0.059 A 
ATOM     89  C   UNL     1       9.035   4.830  -1.223  1.00  0.00     0.124 A 
ATOM     90  C   UNL     1       8.318   5.796   0.854  1.00  0.00     0.032 A 
ATOM     91  N   UNL     1      10.143   5.606  -1.280  1.00  0.00    -0.263 NA
ATOM     92  C   UNL     1       9.449   6.603   0.813  1.00  0.00     0.037 A 
ATOM     93  C   UNL     1      10.316   6.489  -0.267  1.00  0.00     0.126 A 
ATOM     94  Br  UNL     1       9.768   7.864   2.178  1.00  0.00    -0.049 Br
ENDBRANCH  85  88
ENDBRANCH  80  84
ENDBRANCH  75  80
ENDBRANCH  72  75
ENDBRANCH  70  71
ENDBRANCH  69  70
ENDBRANCH   1  69
TORSDOF 16
