REMARK SMILES CC1=C(CC(=O)NCCCCNC(=O)c2ccc(-c3c4nc(c(-c5ccc(S(=O)(=O)[O-])cc5)c5ccc([nH]5)c(-c5ccc(S(=O)(=O)[O-])cc5)c5nc(c(-c6ccc(S(=O)(=O)[O-])cc6)c6ccc3[nH]6)C=C5)C=C4)cc2)c2cc(F)ccc2/C1=C\c1ccc([S@@+](C)[O-])cc1
REMARK SMILES IDX 9 1 8 2 7 3 5 4 6 5 4 7 3 8 1 9 2 10 82 11 75 12 81 13 83 14
REMARK SMILES IDX 76 15 80 16 77 17 79 18 78 19 84 20 85 21 92 22 86 23 91 24
REMARK SMILES IDX 87 25 88 26 89 27 90 28 10 29 11 30 12 31 13 32 14 34 15 35
REMARK SMILES IDX 16 36 74 37 17 38 73 39 18 40 19 41 20 42 67 43 21 44 72 45
REMARK SMILES IDX 66 46 68 47 22 48 71 49 65 50 64 51 23 53 53 54 34 55 52 56
REMARK SMILES IDX 35 57 38 58 51 59 69 60 36 61 37 62 50 64 70 65 39 66 24 67
REMARK SMILES IDX 25 68 33 69 26 70 32 71 27 72 28 73 29 74 30 75 31 76 54 77
REMARK SMILES IDX 55 78 63 79 56 80 62 81 57 82 58 83 59 84 60 85 61 86 40 87
REMARK SMILES IDX 41 88 49 89 42 90 48 91 43 92 44 93 45 94 46 95 47 96
REMARK H PARENT 7 6 12 33 68 52 38 63
REMARK Flexibility Score: inf
ROOT
ATOM      1  C   UNL     1      -2.777  -0.260  -0.539  1.00  0.00     0.023 C 
ENDROOT
BRANCH   1   2
ATOM      2  C   UNL     1      -2.147  -1.569  -0.062  1.00  0.00     0.116 C 
BRANCH   2   3
ATOM      3  N   UNL     1      -2.179  -2.598  -1.081  1.00  0.00    -0.356 N 
ATOM      4  C   UNL     1      -1.191  -2.983  -1.939  1.00  0.00     0.224 C 
ATOM      5  O   UNL     1      -1.432  -3.885  -2.745  1.00  0.00    -0.275 OA
ATOM      6  H   UNL     1      -3.030  -3.086  -1.166  1.00  0.00     0.163 HD
BRANCH   4   7
ATOM      7  C   UNL     1       0.193  -2.338  -1.869  1.00  0.00     0.136 C 
BRANCH   7   8
ATOM      8  C   UNL     1       0.209  -0.908  -2.303  1.00  0.00    -0.027 C 
ATOM      9  C   UNL     1       1.135   0.273  -0.228  1.00  0.00     0.045 C 
ATOM     10  C   UNL     1       0.586   0.197  -1.614  1.00  0.00    -0.039 C 
ATOM     11  C   UNL     1       0.356   1.395  -2.439  1.00  0.00    -0.014 C 
ATOM     12  C   UNL     1      -0.198  -0.479  -3.654  1.00  0.00    -0.011 A 
ATOM     13  C   UNL     1      -0.071   0.917  -3.769  1.00  0.00    -0.010 A 
ATOM     14  C   UNL     1       0.454   2.661  -1.986  1.00  0.00     0.017 C 
ATOM     15  C   UNL     1      -0.634  -1.241  -4.730  1.00  0.00     0.048 A 
ATOM     16  C   UNL     1      -0.325   1.549  -4.981  1.00  0.00     0.012 A 
ATOM     17  C   UNL     1      -0.933  -0.591  -5.923  1.00  0.00     0.123 A 
ATOM     18  C   UNL     1      -0.775   0.788  -6.061  1.00  0.00     0.040 A 
ATOM     19  F   UNL     1      -1.364  -1.303  -6.973  1.00  0.00    -0.207 F 
BRANCH  14  20
ATOM     20  C   UNL     1       0.168   3.860  -2.778  1.00  0.00    -0.025 A 
ATOM     21  C   UNL     1      -1.144   4.184  -3.142  1.00  0.00     0.013 A 
ATOM     22  C   UNL     1       1.231   4.606  -3.290  1.00  0.00     0.013 A 
ATOM     23  C   UNL     1      -1.381   5.160  -4.117  1.00  0.00     0.061 A 
ATOM     24  C   UNL     1       0.990   5.595  -4.246  1.00  0.00     0.061 A 
ATOM     25  C   UNL     1      -0.311   5.850  -4.699  1.00  0.00     0.152 A 
BRANCH  25  26
ATOM     26  S   UNL     1      -0.549   6.906  -6.152  1.00  0.00    -0.018 S 
ATOM     27  C   UNL     1      -1.910   7.936  -5.575  1.00  0.00     0.346 C 
ATOM     28  O   UNL     1       0.730   7.811  -6.274  1.00  0.00    -0.612 OA
ENDBRANCH  25  26
ENDBRANCH  14  20
ENDBRANCH   7   8
ENDBRANCH   4   7
ENDBRANCH   2   3
ENDBRANCH   1   2
BRANCH   1  29
ATOM     29  C   UNL     1      -4.291  -0.309  -0.745  1.00  0.00     0.023 C 
BRANCH  29  30
ATOM     30  C   UNL     1      -5.102  -0.722   0.476  1.00  0.00     0.116 C 
BRANCH  30  31
ATOM     31  N   UNL     1      -4.897   0.136   1.635  1.00  0.00    -0.352 N 
ATOM     32  C   UNL     1      -5.810   0.484   2.606  1.00  0.00     0.251 C 
ATOM     33  H   UNL     1      -3.994   0.514   1.736  1.00  0.00     0.163 HD
ATOM     34  O   UNL     1      -5.510   1.290   3.480  1.00  0.00    -0.269 OA
BRANCH  32  35
ATOM     35  C   UNL     1      -7.173  -0.086   2.541  1.00  0.00     0.039 A 
ATOM     36  C   UNL     1      -7.356  -1.458   2.361  1.00  0.00     0.014 A 
ATOM     37  C   UNL     1      -8.271   0.777   2.574  1.00  0.00     0.014 A 
ATOM     38  C   UNL     1      -8.618  -1.942   2.036  1.00  0.00     0.010 A 
ATOM     39  C   UNL     1      -9.550   0.274   2.323  1.00  0.00     0.010 A 
ATOM     40  C   UNL     1      -9.726  -1.079   1.994  1.00  0.00    -0.014 A 
BRANCH  40  41
ATOM     41  C   UNL     1     -11.048  -1.609   1.575  1.00  0.00     0.031 A 
ATOM     42  C   UNL     1     -11.681  -1.157   0.284  1.00  0.00     0.074 A 
ATOM     43  C   UNL     1     -11.646  -2.558   2.321  1.00  0.00     0.049 A 
ATOM     44  N   UNL     1     -12.812  -1.538  -0.252  1.00  0.00    -0.248 NA
ATOM     45  C   UNL     1     -10.952  -0.154  -0.511  1.00  0.00     0.031 C 
ATOM     46  C   UNL     1     -11.112  -3.102   3.571  1.00  0.00     0.029 A 
ATOM     47  N   UNL     1     -12.810  -3.258   2.123  1.00  0.00    -0.354 N 
ATOM     48  C   UNL     1     -12.939  -0.815  -1.432  1.00  0.00     0.074 A 
ATOM     49  C   UNL     1     -11.783   0.049  -1.525  1.00  0.00     0.031 C 
ATOM     50  C   UNL     1     -11.911  -4.093   3.994  1.00  0.00     0.029 A 
ATOM     51  C   UNL     1     -13.047  -4.212   3.084  1.00  0.00     0.049 A 
ATOM     52  H   UNL     1     -13.416  -3.092   1.365  1.00  0.00     0.167 HD
ATOM     53  C   UNL     1     -13.923  -0.876  -2.360  1.00  0.00     0.031 A 
ATOM     54  C   UNL     1     -14.064  -5.083   3.228  1.00  0.00     0.031 A 
ATOM     55  C   UNL     1     -15.065  -1.748  -2.272  1.00  0.00     0.049 A 
ATOM     56  C   UNL     1     -15.170  -5.096   2.214  1.00  0.00     0.074 A 
ATOM     57  C   UNL     1     -16.113  -1.878  -3.166  1.00  0.00     0.029 A 
ATOM     58  N   UNL     1     -15.305  -2.643  -1.240  1.00  0.00    -0.354 N 
ATOM     59  N   UNL     1     -15.282  -4.387   1.117  1.00  0.00    -0.248 NA
ATOM     60  C   UNL     1     -16.290  -6.016   2.456  1.00  0.00     0.031 C 
ATOM     61  C   UNL     1     -17.012  -2.815  -2.651  1.00  0.00     0.029 A 
ATOM     62  C   UNL     1     -16.495  -3.312  -1.466  1.00  0.00     0.049 A 
ATOM     63  H   UNL     1     -14.716  -2.782  -0.464  1.00  0.00     0.167 HD
ATOM     64  C   UNL     1     -16.482  -4.776   0.535  1.00  0.00     0.074 A 
ATOM     65  C   UNL     1     -17.051  -5.798   1.391  1.00  0.00     0.031 C 
ATOM     66  C   UNL     1     -17.058  -4.321  -0.603  1.00  0.00     0.031 A 
BRANCH  53  67
ATOM     67  C   UNL     1     -13.828   0.027  -3.562  1.00  0.00    -0.014 A 
ATOM     68  C   UNL     1     -14.730   1.097  -3.704  1.00  0.00     0.010 A 
ATOM     69  C   UNL     1     -12.921  -0.248  -4.601  1.00  0.00     0.010 A 
ATOM     70  C   UNL     1     -14.745   1.864  -4.872  1.00  0.00     0.020 A 
ATOM     71  C   UNL     1     -12.917   0.532  -5.762  1.00  0.00     0.020 A 
ATOM     72  C   UNL     1     -13.842   1.571  -5.898  1.00  0.00     0.054 A 
BRANCH  72  73
ATOM     73  S   UNL     1     -13.874   2.572  -7.411  1.00  0.00     0.124 S 
ATOM     74  O   UNL     1     -15.014   2.011  -8.129  1.00  0.00    -0.237 OA
ATOM     75  O   UNL     1     -14.057   3.928  -6.895  1.00  0.00    -0.237 OA
ATOM     76  O   UNL     1     -12.567   2.319  -8.013  1.00  0.00    -0.744 OA
ENDBRANCH  72  73
ENDBRANCH  53  67
BRANCH  54  77
ATOM     77  C   UNL     1     -14.051  -6.019   4.385  1.00  0.00    -0.014 A 
ATOM     78  C   UNL     1     -14.218  -5.530   5.694  1.00  0.00     0.010 A 
ATOM     79  C   UNL     1     -13.766  -7.381   4.192  1.00  0.00     0.010 A 
ATOM     80  C   UNL     1     -14.036  -6.372   6.793  1.00  0.00     0.020 A 
ATOM     81  C   UNL     1     -13.611  -8.233   5.290  1.00  0.00     0.020 A 
ATOM     82  C   UNL     1     -13.715  -7.715   6.584  1.00  0.00     0.054 A 
BRANCH  82  83
ATOM     83  S   UNL     1     -13.416  -8.777   8.023  1.00  0.00     0.124 S 
ATOM     84  O   UNL     1     -12.049  -8.413   8.383  1.00  0.00    -0.237 OA
ATOM     85  O   UNL     1     -14.450  -8.347   8.962  1.00  0.00    -0.237 OA
ATOM     86  O   UNL     1     -13.586 -10.127   7.491  1.00  0.00    -0.744 OA
ENDBRANCH  82  83
ENDBRANCH  54  77
BRANCH  66  87
ATOM     87  C   UNL     1     -18.384  -4.905  -1.010  1.00  0.00    -0.014 A 
ATOM     88  C   UNL     1     -18.462  -5.738  -2.141  1.00  0.00     0.010 A 
ATOM     89  C   UNL     1     -19.567  -4.515  -0.359  1.00  0.00     0.010 A 
ATOM     90  C   UNL     1     -19.703  -6.142  -2.638  1.00  0.00     0.020 A 
ATOM     91  C   UNL     1     -20.809  -4.936  -0.840  1.00  0.00     0.020 A 
ATOM     92  C   UNL     1     -20.870  -5.726  -1.992  1.00  0.00     0.054 A 
BRANCH  92  93
ATOM     93  S   UNL     1     -22.476  -6.224  -2.673  1.00  0.00     0.124 S 
ATOM     94  O   UNL     1     -22.639  -5.292  -3.785  1.00  0.00    -0.237 OA
ATOM     95  O   UNL     1     -22.250  -7.618  -3.048  1.00  0.00    -0.237 OA
ATOM     96  O   UNL     1     -23.396  -6.030  -1.555  1.00  0.00    -0.744 OA
ENDBRANCH  92  93
ENDBRANCH  66  87
ENDBRANCH  40  41
ENDBRANCH  32  35
ENDBRANCH  30  31
ENDBRANCH  29  30
ENDBRANCH   1  29
TORSDOF 17
