REMARK SMILES C[C@H]([C@@H](C)O)[NH+]1CCC(C)(C(=O)NCCCCNC(=O)c2ccc(-c3c4nc(c(-c5ccc(S(=O)(=O)[O-])cc5)c5ccc([nH]5)c(-c5ccc(S(=O)(=O)[O-])cc5)c5nc(c(-c6ccc(S(=O)(=O)[O-])cc6)c6ccc3[nH]6)C=C5)C=C4)cc2)CC1
REMARK SMILES IDX 15 1 14 2 13 3 11 4 12 5 9 7 6 8 7 9 82 10 8 12 81 13 10 14
REMARK SMILES IDX 2 15 1 16 3 17 4 18 5 19 16 21 17 22 18 23 19 24 20 26 21 27
REMARK SMILES IDX 22 28 80 29 23 30 79 31 24 32 25 33 26 34 73 35 27 36 78 37
REMARK SMILES IDX 72 38 74 39 28 40 77 41 71 42 70 43 29 45 59 46 40 47 58 48
REMARK SMILES IDX 41 49 44 50 57 51 75 52 42 53 43 54 56 56 76 57 45 58 30 59
REMARK SMILES IDX 31 60 39 61 32 62 38 63 33 64 34 65 35 66 36 67 37 68 60 69
REMARK SMILES IDX 61 70 69 71 62 72 68 73 63 74 64 75 65 76 66 77 67 78 46 79
REMARK SMILES IDX 47 80 55 81 48 82 54 83 49 84 50 85 51 86 52 87 53 88
REMARK H PARENT 13 6 6 11 5 20 18 25 74 44 44 55
REMARK Flexibility Score: inf
ROOT
ATOM      1  C   UNL     1      -3.338   5.597   0.378  1.00  0.00     0.023 C 
ENDROOT
BRANCH   1   2
ATOM      2  C   UNL     1      -2.974   4.810   1.635  1.00  0.00     0.116 C 
BRANCH   2   3
ATOM      3  N   UNL     1      -3.559   3.481   1.623  1.00  0.00    -0.356 N 
ATOM      4  C   UNL     1      -3.015   2.237   1.523  1.00  0.00     0.226 C 
ATOM      5  O   UNL     1      -3.812   1.295   1.490  1.00  0.00    -0.274 OA
ATOM      6  H   UNL     1      -4.540   3.479   1.704  1.00  0.00     0.163 HD
BRANCH   4   7
ATOM      7  C   UNL     1      -1.492   2.008   1.476  1.00  0.00     0.057 C 
ATOM      8  N   UNL     1      -0.654   0.585  -1.049  1.00  0.00    -0.331 N 
ATOM      9  C   UNL     1      -1.165   1.963  -1.060  1.00  0.00     0.263 C 
ATOM     10  C   UNL     1      -1.294  -0.157   0.034  1.00  0.00     0.263 C 
ATOM     11  H   UNL     1      -0.926   0.057  -1.878  1.00  0.00     0.348 HD
ATOM     12  C   UNL     1      -0.858   2.697   0.251  1.00  0.00     0.078 C 
ATOM     13  C   UNL     1      -1.186   0.483   1.423  1.00  0.00     0.078 C 
ATOM     14  C   UNL     1      -0.868   2.503   2.800  1.00  0.00     0.022 C 
BRANCH   8  15
ATOM     15  C   UNL     1       0.820   0.546  -1.201  1.00  0.00     0.209 C 
ATOM     16  C   UNL     1       1.078   0.254  -2.692  1.00  0.00     0.078 C 
BRANCH  15  17
ATOM     17  C   UNL     1       1.696  -0.368  -0.281  1.00  0.00     0.169 C 
ATOM     18  C   UNL     1       1.992  -1.770  -0.792  1.00  0.00     0.045 C 
BRANCH  17  19
ATOM     19  O   UNL     1       2.954   0.281  -0.021  1.00  0.00    -0.387 OA
ATOM     20  H   UNL     1       3.449   0.371  -0.850  1.00  0.00     0.211 HD
ENDBRANCH  17  19
ENDBRANCH  15  17
ENDBRANCH   8  15
ENDBRANCH   4   7
ENDBRANCH   2   3
ENDBRANCH   1   2
BRANCH   1  21
ATOM     21  C   UNL     1      -4.820   5.947   0.257  1.00  0.00     0.023 C 
BRANCH  21  22
ATOM     22  C   UNL     1      -5.421   6.631   1.479  1.00  0.00     0.116 C 
BRANCH  22  23
ATOM     23  N   UNL     1      -4.700   7.831   1.873  1.00  0.00    -0.352 N 
ATOM     24  C   UNL     1      -5.210   9.038   2.295  1.00  0.00     0.251 C 
ATOM     25  H   UNL     1      -3.718   7.772   1.834  1.00  0.00     0.163 HD
ATOM     26  O   UNL     1      -4.473   9.991   2.482  1.00  0.00    -0.269 OA
BRANCH  24  27
ATOM     27  C   UNL     1      -6.671   9.164   2.476  1.00  0.00     0.039 A 
ATOM     28  C   UNL     1      -7.340  10.215   1.847  1.00  0.00     0.014 A 
ATOM     29  C   UNL     1      -7.377   8.210   3.214  1.00  0.00     0.014 A 
ATOM     30  C   UNL     1      -8.733  10.271   1.901  1.00  0.00     0.010 A 
ATOM     31  C   UNL     1      -8.767   8.226   3.204  1.00  0.00     0.010 A 
ATOM     32  C   UNL     1      -9.458   9.256   2.548  1.00  0.00    -0.014 A 
BRANCH  32  33
ATOM     33  C   UNL     1     -10.942   9.252   2.547  1.00  0.00     0.031 A 
ATOM     34  C   UNL     1     -11.694   9.388   3.842  1.00  0.00     0.074 A 
ATOM     35  C   UNL     1     -11.608   9.056   1.392  1.00  0.00     0.049 A 
ATOM     36  N   UNL     1     -12.984   9.347   4.054  1.00  0.00    -0.248 NA
ATOM     37  C   UNL     1     -10.890   9.568   5.062  1.00  0.00     0.031 C 
ATOM     38  C   UNL     1     -10.990   8.863   0.078  1.00  0.00     0.029 A 
ATOM     39  N   UNL     1     -12.955   8.980   1.139  1.00  0.00    -0.354 N 
ATOM     40  C   UNL     1     -13.145   9.476   5.428  1.00  0.00     0.074 A 
ATOM     41  C   UNL     1     -11.820   9.546   6.005  1.00  0.00     0.031 C 
ATOM     42  C   UNL     1     -11.955   8.716  -0.845  1.00  0.00     0.029 A 
ATOM     43  C   UNL     1     -13.256   8.767  -0.186  1.00  0.00     0.049 A 
ATOM     44  H   UNL     1     -13.640   9.070   1.839  1.00  0.00     0.167 HD
ATOM     45  C   UNL     1     -14.292   9.553   6.144  1.00  0.00     0.031 A 
ATOM     46  C   UNL     1     -14.446   8.623  -0.801  1.00  0.00     0.031 A 
ATOM     47  C   UNL     1     -15.607   9.496   5.565  1.00  0.00     0.049 A 
ATOM     48  C   UNL     1     -15.707   8.714   0.014  1.00  0.00     0.074 A 
ATOM     49  C   UNL     1     -16.831   9.619   6.198  1.00  0.00     0.029 A 
ATOM     50  N   UNL     1     -15.870   9.299   4.218  1.00  0.00    -0.354 N 
ATOM     51  N   UNL     1     -15.840   8.904   1.306  1.00  0.00    -0.248 NA
ATOM     52  C   UNL     1     -16.977   8.586  -0.712  1.00  0.00     0.031 C 
ATOM     53  C   UNL     1     -17.836   9.451   5.239  1.00  0.00     0.029 A 
ATOM     54  C   UNL     1     -17.237   9.278   4.001  1.00  0.00     0.049 A 
ATOM     55  H   UNL     1     -15.185   9.190   3.519  1.00  0.00     0.167 HD
ATOM     56  C   UNL     1     -17.209   8.942   1.543  1.00  0.00     0.074 A 
ATOM     57  C   UNL     1     -17.861   8.771   0.260  1.00  0.00     0.031 C 
ATOM     58  C   UNL     1     -17.868   9.106   2.717  1.00  0.00     0.031 A 
BRANCH  45  59
ATOM     59  C   UNL     1     -14.166   9.704   7.637  1.00  0.00    -0.014 A 
ATOM     60  C   UNL     1     -13.685  10.898   8.207  1.00  0.00     0.010 A 
ATOM     61  C   UNL     1     -14.555   8.651   8.484  1.00  0.00     0.010 A 
ATOM     62  C   UNL     1     -13.550  11.018   9.592  1.00  0.00     0.020 A 
ATOM     63  C   UNL     1     -14.449   8.777   9.872  1.00  0.00     0.020 A 
ATOM     64  C   UNL     1     -13.928   9.954  10.416  1.00  0.00     0.054 A 
BRANCH  64  65
ATOM     65  S   UNL     1     -13.753  10.141  12.211  1.00  0.00     0.124 S 
ATOM     66  O   UNL     1     -12.307  10.025  12.386  1.00  0.00    -0.237 OA
ATOM     67  O   UNL     1     -14.309  11.470  12.452  1.00  0.00    -0.237 OA
ATOM     68  O   UNL     1     -14.537   9.034  12.754  1.00  0.00    -0.744 OA
ENDBRANCH  64  65
ENDBRANCH  45  59
BRANCH  46  69
ATOM     69  C   UNL     1     -14.499   8.400  -2.271  1.00  0.00    -0.014 A 
ATOM     70  C   UNL     1     -14.947   9.418  -3.131  1.00  0.00     0.010 A 
ATOM     71  C   UNL     1     -14.080   7.175  -2.822  1.00  0.00     0.010 A 
ATOM     72  C   UNL     1     -14.990   9.211  -4.513  1.00  0.00     0.020 A 
ATOM     73  C   UNL     1     -14.097   6.973  -4.205  1.00  0.00     0.020 A 
ATOM     74  C   UNL     1     -14.562   7.990  -5.042  1.00  0.00     0.054 A 
BRANCH  74  75
ATOM     75  S   UNL     1     -14.571   7.764  -6.842  1.00  0.00     0.124 S 
ATOM     76  O   UNL     1     -15.993   7.592  -7.119  1.00  0.00    -0.237 OA
ATOM     77  O   UNL     1     -13.979   9.011  -7.320  1.00  0.00    -0.237 OA
ATOM     78  O   UNL     1     -13.745   6.576  -7.041  1.00  0.00    -0.744 OA
ENDBRANCH  74  75
ENDBRANCH  46  69
BRANCH  58  79
ATOM     79  C   UNL     1     -19.372   9.140   2.668  1.00  0.00    -0.014 A 
ATOM     80  C   UNL     1     -20.120   7.971   2.444  1.00  0.00     0.010 A 
ATOM     81  C   UNL     1     -20.045  10.352   2.907  1.00  0.00     0.010 A 
ATOM     82  C   UNL     1     -21.517   8.020   2.431  1.00  0.00     0.020 A 
ATOM     83  C   UNL     1     -21.441  10.399   2.922  1.00  0.00     0.020 A 
ATOM     84  C   UNL     1     -22.168   9.235   2.670  1.00  0.00     0.054 A 
BRANCH  84  85
ATOM     85  S   UNL     1     -23.981   9.264   2.695  1.00  0.00     0.124 S 
ATOM     86  O   UNL     1     -24.306   9.163   1.275  1.00  0.00    -0.237 OA
ATOM     87  O   UNL     1     -24.311   8.090   3.500  1.00  0.00    -0.237 OA
ATOM     88  O   UNL     1     -24.299  10.547   3.318  1.00  0.00    -0.744 OA
ENDBRANCH  84  85
ENDBRANCH  58  79
ENDBRANCH  32  33
ENDBRANCH  24  27
ENDBRANCH  22  23
ENDBRANCH  21  22
ENDBRANCH   1  21
TORSDOF 17
