REMARK SMILES CC(C)CCNC(=O)[C@@H](C)Oc1ccc(N)cc1C(=O)NCCCCNC(=O)c1ccc(-c2c3nc(c(-c4ccc(S(=O)(=O)[O-])cc4)c4ccc([nH]4)c(-c4ccc(S(=O)(=O)[O-])cc4)c4nc(c(-c5ccc(S(=O)(=O)[O-])cc5)c5ccc2[nH]5)C=C4)C=C3)cc1
REMARK SMILES IDX 22 1 21 2 19 3 20 4 18 6 12 7 13 8 14 9 17 10 15 11 11 12
REMARK SMILES IDX 9 13 10 14 7 15 6 16 8 18 5 19 4 20 2 21 1 22 3 23 16 24
REMARK SMILES IDX 23 27 24 28 25 29 26 30 27 31 28 33 29 34 30 35 88 36 31 37
REMARK SMILES IDX 87 38 32 39 33 40 34 41 81 42 35 43 86 44 80 45 82 46 36 47
REMARK SMILES IDX 85 48 79 49 78 50 37 52 67 53 48 54 66 55 49 56 52 57 65 58
REMARK SMILES IDX 83 59 50 60 51 61 64 63 84 64 53 65 38 66 39 67 47 68 40 69
REMARK SMILES IDX 46 70 41 71 42 72 43 73 44 74 45 75 68 76 69 77 77 78 70 79
REMARK SMILES IDX 76 80 71 81 72 82 73 83 74 84 75 85 54 86 55 87 63 88 56 89
REMARK SMILES IDX 62 90 57 91 58 92 59 93 60 94 61 95
REMARK H PARENT 21 5 6 17 16 25 16 26 26 32 82 51 52 62
REMARK Flexibility Score: inf
ROOT
ATOM      1  C   UNL     1      -6.093   2.811   1.501  1.00  0.00     0.116 C 
ENDROOT
BRANCH   1   2
ATOM      2  N   UNL     1      -6.382   1.435   1.753  1.00  0.00    -0.352 N 
ATOM      3  C   UNL     1      -5.569   0.339   1.871  1.00  0.00     0.255 C 
ATOM      4  O   UNL     1      -6.190  -0.724   2.010  1.00  0.00    -0.269 OA
ATOM      5  H   UNL     1      -7.340   1.238   1.861  1.00  0.00     0.163 HD
BRANCH   3   6
ATOM      6  C   UNL     1      -4.054   0.284   1.897  1.00  0.00     0.083 A 
ATOM      7  C   UNL     1      -3.082   1.291   2.043  1.00  0.00     0.133 A 
ATOM      8  C   UNL     1      -1.801   0.940   2.498  1.00  0.00     0.049 A 
ATOM      9  C   UNL     1      -1.382  -0.390   2.534  1.00  0.00     0.029 A 
ATOM     10  C   UNL     1      -3.572  -1.053   1.887  1.00  0.00     0.043 A 
ATOM     11  C   UNL     1      -2.238  -1.393   2.119  1.00  0.00     0.032 A 
BRANCH   7  12
ATOM     12  O   UNL     1      -3.295   2.624   1.898  1.00  0.00    -0.480 OA
BRANCH  12  13
ATOM     13  C   UNL     1      -2.710   3.318   0.774  1.00  0.00     0.258 C 
ATOM     14  C   UNL     1      -3.303   3.034  -0.627  1.00  0.00     0.064 C 
BRANCH  13  15
ATOM     15  C   UNL     1      -1.184   3.582   0.681  1.00  0.00     0.260 C 
ATOM     16  N   UNL     1      -0.339   2.713   0.052  1.00  0.00    -0.353 N 
ATOM     17  H   UNL     1       0.536   3.083  -0.206  1.00  0.00     0.163 HD
ATOM     18  O   UNL     1      -0.690   4.615   1.143  1.00  0.00    -0.271 OA
BRANCH  16  19
ATOM     19  C   UNL     1      -0.554   1.323  -0.287  1.00  0.00     0.116 C 
BRANCH  19  20
ATOM     20  C   UNL     1      -0.087   0.948  -1.683  1.00  0.00     0.024 C 
BRANCH  20  21
ATOM     21  C   UNL     1       1.435   0.768  -1.813  1.00  0.00    -0.016 C 
ATOM     22  C   UNL     1       2.003  -0.213  -0.782  1.00  0.00     0.007 C 
ATOM     23  C   UNL     1       1.757   0.273  -3.223  1.00  0.00     0.007 C 
ENDBRANCH  20  21
ENDBRANCH  19  20
ENDBRANCH  16  19
ENDBRANCH  13  15
ENDBRANCH  12  13
ENDBRANCH   7  12
BRANCH  11  24
ATOM     24  N   UNL     1      -1.828  -2.714   2.089  1.00  0.00    -0.399 N 
ATOM     25  H   UNL     1      -0.884  -2.940   2.254  1.00  0.00     0.156 HD
ATOM     26  H   UNL     1      -2.480  -3.428   1.903  1.00  0.00     0.156 HD
ENDBRANCH  11  24
ENDBRANCH   3   6
ENDBRANCH   1   2
BRANCH   1  27
ATOM     27  C   UNL     1      -6.939   3.441   0.408  1.00  0.00     0.023 C 
BRANCH  27  28
ATOM     28  C   UNL     1      -8.234   4.056   0.893  1.00  0.00     0.023 C 
BRANCH  28  29
ATOM     29  C   UNL     1      -8.082   4.978   2.094  1.00  0.00     0.116 C 
BRANCH  29  30
ATOM     30  N   UNL     1      -7.089   6.038   1.918  1.00  0.00    -0.352 N 
ATOM     31  C   UNL     1      -7.244   7.400   2.053  1.00  0.00     0.251 C 
ATOM     32  H   UNL     1      -6.185   5.736   1.669  1.00  0.00     0.163 HD
ATOM     33  O   UNL     1      -6.325   8.170   1.796  1.00  0.00    -0.269 OA
BRANCH  31  34
ATOM     34  C   UNL     1      -8.566   7.910   2.461  1.00  0.00     0.039 A 
ATOM     35  C   UNL     1      -9.219   8.834   1.644  1.00  0.00     0.014 A 
ATOM     36  C   UNL     1      -9.214   7.334   3.553  1.00  0.00     0.014 A 
ATOM     37  C   UNL     1     -10.576   9.083   1.853  1.00  0.00     0.010 A 
ATOM     38  C   UNL     1     -10.587   7.483   3.672  1.00  0.00     0.010 A 
ATOM     39  C   UNL     1     -11.287   8.354   2.822  1.00  0.00    -0.014 A 
BRANCH  39  40
ATOM     40  C   UNL     1     -12.761   8.467   2.965  1.00  0.00     0.031 A 
ATOM     41  C   UNL     1     -13.351   8.862   4.292  1.00  0.00     0.074 A 
ATOM     42  C   UNL     1     -13.569   8.113   1.944  1.00  0.00     0.049 A 
ATOM     43  N   UNL     1     -14.606   8.901   4.658  1.00  0.00    -0.248 NA
ATOM     44  C   UNL     1     -12.402   9.208   5.364  1.00  0.00     0.031 C 
ATOM     45  C   UNL     1     -13.127   7.637   0.630  1.00  0.00     0.029 A 
ATOM     46  N   UNL     1     -14.939   8.091   1.857  1.00  0.00    -0.354 N 
ATOM     47  C   UNL     1     -14.591   9.232   6.008  1.00  0.00     0.074 A 
ATOM     48  C   UNL     1     -13.205   9.318   6.409  1.00  0.00     0.031 C 
ATOM     49  C   UNL     1     -14.203   7.410  -0.142  1.00  0.00     0.029 A 
ATOM     50  C   UNL     1     -15.410   7.682   0.631  1.00  0.00     0.049 A 
ATOM     51  H   UNL     1     -15.530   8.344   2.603  1.00  0.00     0.167 HD
ATOM     52  C   UNL     1     -15.634   9.473   6.836  1.00  0.00     0.031 A 
ATOM     53  C   UNL     1     -16.671   7.542   0.178  1.00  0.00     0.031 A 
ATOM     54  C   UNL     1     -17.009   9.432   6.423  1.00  0.00     0.049 A 
ATOM     55  C   UNL     1     -17.816   7.871   1.094  1.00  0.00     0.074 A 
ATOM     56  C   UNL     1     -18.139   9.741   7.159  1.00  0.00     0.029 A 
ATOM     57  N   UNL     1     -17.440   9.069   5.156  1.00  0.00    -0.354 N 
ATOM     58  N   UNL     1     -17.782   8.253   2.349  1.00  0.00    -0.248 NA
ATOM     59  C   UNL     1     -19.169   7.764   0.531  1.00  0.00     0.031 C 
ATOM     60  C   UNL     1     -19.258   9.532   6.345  1.00  0.00     0.029 A 
ATOM     61  C   UNL     1     -18.820   9.135   5.090  1.00  0.00     0.049 A 
ATOM     62  H   UNL     1     -16.851   8.803   4.413  1.00  0.00     0.167 HD
ATOM     63  C   UNL     1     -19.106   8.452   2.720  1.00  0.00     0.074 A 
ATOM     64  C   UNL     1     -19.916   8.161   1.554  1.00  0.00     0.031 C 
ATOM     65  C   UNL     1     -19.607   8.840   3.919  1.00  0.00     0.031 A 
BRANCH  52  66
ATOM     66  C   UNL     1     -15.308   9.806   8.267  1.00  0.00    -0.014 A 
ATOM     67  C   UNL     1     -14.675  11.018   8.604  1.00  0.00     0.010 A 
ATOM     68  C   UNL     1     -15.618   8.890   9.287  1.00  0.00     0.010 A 
ATOM     69  C   UNL     1     -14.295  11.276   9.923  1.00  0.00     0.020 A 
ATOM     70  C   UNL     1     -15.269   9.159  10.614  1.00  0.00     0.020 A 
ATOM     71  C   UNL     1     -14.585  10.339  10.918  1.00  0.00     0.054 A 
BRANCH  71  72
ATOM     72  S   UNL     1     -14.069  10.689  12.621  1.00  0.00     0.124 S 
ATOM     73  O   UNL     1     -12.639  10.393  12.567  1.00  0.00    -0.237 OA
ATOM     74  O   UNL     1     -14.411  12.100  12.779  1.00  0.00    -0.237 OA
ATOM     75  O   UNL     1     -14.868   9.764  13.421  1.00  0.00    -0.744 OA
ENDBRANCH  71  72
ENDBRANCH  52  66
BRANCH  53  76
ATOM     76  C   UNL     1     -16.907   7.109  -1.226  1.00  0.00    -0.014 A 
ATOM     77  C   UNL     1     -17.321   8.041  -2.194  1.00  0.00     0.010 A 
ATOM     78  C   UNL     1     -16.677   5.777  -1.613  1.00  0.00     0.010 A 
ATOM     79  C   UNL     1     -17.503   7.649  -3.523  1.00  0.00     0.020 A 
ATOM     80  C   UNL     1     -16.837   5.386  -2.947  1.00  0.00     0.020 A 
ATOM     81  C   UNL     1     -17.255   6.325  -3.893  1.00  0.00     0.054 A 
BRANCH  81  82
ATOM     82  S   UNL     1     -17.417   5.858  -5.640  1.00  0.00     0.124 S 
ATOM     83  O   UNL     1     -18.866   5.797  -5.805  1.00  0.00    -0.237 OA
ATOM     84  O   UNL     1     -16.748   6.960  -6.326  1.00  0.00    -0.237 OA
ATOM     85  O   UNL     1     -16.722   4.575  -5.715  1.00  0.00    -0.744 OA
ENDBRANCH  81  82
ENDBRANCH  53  76
BRANCH  65  86
ATOM     86  C   UNL     1     -21.098   9.000   4.026  1.00  0.00    -0.014 A 
ATOM     87  C   UNL     1     -21.944   7.880   4.097  1.00  0.00     0.010 A 
ATOM     88  C   UNL     1     -21.651  10.290   4.121  1.00  0.00     0.010 A 
ATOM     89  C   UNL     1     -23.324   8.048   4.238  1.00  0.00     0.020 A 
ATOM     90  C   UNL     1     -23.028  10.461   4.286  1.00  0.00     0.020 A 
ATOM     91  C   UNL     1     -23.857   9.338   4.331  1.00  0.00     0.054 A 
BRANCH  91  92
ATOM     92  S   UNL     1     -25.645   9.531   4.565  1.00  0.00     0.124 S 
ATOM     93  O   UNL     1     -26.157   9.257   3.225  1.00  0.00    -0.237 OA
ATOM     94  O   UNL     1     -25.949   8.519   5.574  1.00  0.00    -0.237 OA
ATOM     95  O   UNL     1     -25.787  10.913   5.016  1.00  0.00    -0.744 OA
ENDBRANCH  91  92
ENDBRANCH  65  86
ENDBRANCH  39  40
ENDBRANCH  31  34
ENDBRANCH  29  30
ENDBRANCH  28  29
ENDBRANCH  27  28
ENDBRANCH   1  27
TORSDOF 21
