REMARK SMILES CCCOc1ccccc1C(=O)NCCCCNC(=O)c1ccc(-c2c3nc(c(-c4ccc(S(=O)(=O)[O-])cc4)c4ccc([nH]4)c(-c4ccc(S(=O)(=O)[O-])cc4)c4nc(c(-c5ccc(S(=O)(=O)[O-])cc5)c5ccc2[nH]5)C=C4)C=C3)cc1
REMARK SMILES IDX 15 1 14 2 13 3 11 4 12 5 10 7 5 8 6 9 7 10 9 11 8 12 4 13
REMARK SMILES IDX 3 14 2 15 1 16 16 17 17 18 18 19 19 20 20 22 21 23 22 24
REMARK SMILES IDX 80 25 23 26 79 27 24 28 25 29 26 30 73 31 27 32 78 33 72 34
REMARK SMILES IDX 74 35 28 36 77 37 71 38 70 39 29 41 59 42 40 43 58 44 41 45
REMARK SMILES IDX 44 46 57 47 75 48 42 49 43 50 56 52 76 53 45 54 30 55 31 56
REMARK SMILES IDX 39 57 32 58 38 59 33 60 34 61 35 62 36 63 37 64 60 65 61 66
REMARK SMILES IDX 69 67 62 68 68 69 63 70 64 71 65 72 66 73 67 74 46 75 47 76
REMARK SMILES IDX 55 77 48 78 54 79 49 80 50 81 51 82 52 83 53 84
REMARK H PARENT 13 6 18 21 74 40 44 51
REMARK Flexibility Score: inf
ROOT
ATOM      1  C   UNL     1      -2.234   2.440  -2.151  1.00  0.00     0.023 C 
ENDROOT
BRANCH   1   2
ATOM      2  C   UNL     1      -1.247   1.278  -2.111  1.00  0.00     0.116 C 
BRANCH   2   3
ATOM      3  N   UNL     1      -1.147   0.619  -0.822  1.00  0.00    -0.352 N 
ATOM      4  C   UNL     1      -0.482  -0.530  -0.458  1.00  0.00     0.255 C 
ATOM      5  O   UNL     1      -0.564  -0.892   0.718  1.00  0.00    -0.269 OA
ATOM      6  H   UNL     1      -1.632   1.065  -0.091  1.00  0.00     0.163 HD
BRANCH   4   7
ATOM      7  C   UNL     1       0.276  -1.393  -1.411  1.00  0.00     0.081 A 
ATOM      8  C   UNL     1       1.104  -0.953  -2.451  1.00  0.00     0.132 A 
ATOM      9  C   UNL     1       1.667  -1.874  -3.345  1.00  0.00     0.047 A 
ATOM     10  C   UNL     1       1.518  -3.244  -3.137  1.00  0.00     0.004 A 
ATOM     11  C   UNL     1       0.195  -2.780  -1.175  1.00  0.00     0.018 A 
ATOM     12  C   UNL     1       0.816  -3.698  -2.026  1.00  0.00     0.001 A 
BRANCH   8  13
ATOM     13  O   UNL     1       1.353   0.363  -2.700  1.00  0.00    -0.493 OA
BRANCH  13  14
ATOM     14  C   UNL     1       2.550   0.871  -2.092  1.00  0.00     0.229 C 
BRANCH  14  15
ATOM     15  C   UNL     1       2.333   1.345  -0.652  1.00  0.00     0.038 C 
ATOM     16  C   UNL     1       2.787   0.329   0.385  1.00  0.00     0.007 C 
ENDBRANCH  14  15
ENDBRANCH  13  14
ENDBRANCH   8  13
ENDBRANCH   4   7
ENDBRANCH   2   3
ENDBRANCH   1   2
BRANCH   1  17
ATOM     17  C   UNL     1      -1.887   3.627  -1.241  1.00  0.00     0.023 C 
BRANCH  17  18
ATOM     18  C   UNL     1      -0.491   4.236  -1.388  1.00  0.00     0.116 C 
BRANCH  18  19
ATOM     19  N   UNL     1      -0.231   4.814  -2.698  1.00  0.00    -0.352 N 
ATOM     20  C   UNL     1      -0.046   6.120  -3.083  1.00  0.00     0.251 C 
ATOM     21  H   UNL     1      -0.179   4.159  -3.431  1.00  0.00     0.163 HD
ATOM     22  O   UNL     1       0.068   6.380  -4.282  1.00  0.00    -0.269 OA
BRANCH  20  23
ATOM     23  C   UNL     1      -0.017   7.225  -2.095  1.00  0.00     0.039 A 
ATOM     24  C   UNL     1      -0.733   8.392  -2.379  1.00  0.00     0.014 A 
ATOM     25  C   UNL     1       0.728   7.146  -0.916  1.00  0.00     0.014 A 
ATOM     26  C   UNL     1      -0.766   9.439  -1.451  1.00  0.00     0.010 A 
ATOM     27  C   UNL     1       0.632   8.159   0.043  1.00  0.00     0.010 A 
ATOM     28  C   UNL     1      -0.119   9.317  -0.210  1.00  0.00    -0.014 A 
BRANCH  28  29
ATOM     29  C   UNL     1      -0.242  10.381   0.827  1.00  0.00     0.031 A 
ATOM     30  C   UNL     1       0.970  11.140   1.305  1.00  0.00     0.074 A 
ATOM     31  C   UNL     1      -1.447  10.641   1.378  1.00  0.00     0.049 A 
ATOM     32  N   UNL     1       1.048  12.084   2.210  1.00  0.00    -0.248 NA
ATOM     33  C   UNL     1       2.263  10.781   0.702  1.00  0.00     0.031 C 
ATOM     34  C   UNL     1      -2.697   9.957   1.038  1.00  0.00     0.029 A 
ATOM     35  N   UNL     1      -1.820  11.549   2.340  1.00  0.00    -0.354 N 
ATOM     36  C   UNL     1       2.395  12.422   2.294  1.00  0.00     0.074 A 
ATOM     37  C   UNL     1       3.103  11.546   1.385  1.00  0.00     0.031 C 
ATOM     38  C   UNL     1      -3.700  10.491   1.754  1.00  0.00     0.029 A 
ATOM     39  C   UNL     1      -3.164  11.523   2.635  1.00  0.00     0.049 A 
ATOM     40  H   UNL     1      -1.185  12.161   2.776  1.00  0.00     0.167 HD
ATOM     41  C   UNL     1       2.988  13.383   3.043  1.00  0.00     0.031 A 
ATOM     42  C   UNL     1      -3.888  12.240   3.518  1.00  0.00     0.031 A 
ATOM     43  C   UNL     1       2.284  14.256   3.948  1.00  0.00     0.049 A 
ATOM     44  C   UNL     1      -3.204  13.290   4.352  1.00  0.00     0.074 A 
ATOM     45  C   UNL     1       2.794  15.292   4.713  1.00  0.00     0.029 A 
ATOM     46  N   UNL     1       0.925  14.195   4.217  1.00  0.00    -0.354 N 
ATOM     47  N   UNL     1      -1.939  13.636   4.367  1.00  0.00    -0.248 NA
ATOM     48  C   UNL     1      -4.050  14.057   5.278  1.00  0.00     0.031 C 
ATOM     49  C   UNL     1       1.755  15.817   5.488  1.00  0.00     0.029 A 
ATOM     50  C   UNL     1       0.584  15.158   5.152  1.00  0.00     0.049 A 
ATOM     51  H   UNL     1       0.296  13.560   3.803  1.00  0.00     0.167 HD
ATOM     52  C   UNL     1      -1.845  14.687   5.274  1.00  0.00     0.074 A 
ATOM     53  C   UNL     1      -3.181  14.925   5.778  1.00  0.00     0.031 C 
ATOM     54  C   UNL     1      -0.750  15.393   5.649  1.00  0.00     0.031 A 
BRANCH  41  55
ATOM     55  C   UNL     1       4.484  13.540   2.924  1.00  0.00    -0.014 A 
ATOM     56  C   UNL     1       5.074  14.029   1.744  1.00  0.00     0.010 A 
ATOM     57  C   UNL     1       5.309  13.242   4.025  1.00  0.00     0.010 A 
ATOM     58  C   UNL     1       6.461  14.173   1.651  1.00  0.00     0.020 A 
ATOM     59  C   UNL     1       6.694  13.416   3.947  1.00  0.00     0.020 A 
ATOM     60  C   UNL     1       7.263  13.864   2.754  1.00  0.00     0.054 A 
BRANCH  60  61
ATOM     61  S   UNL     1       9.058  14.081   2.610  1.00  0.00     0.124 S 
ATOM     62  O   UNL     1       9.422  12.988   1.712  1.00  0.00    -0.237 OA
ATOM     63  O   UNL     1       9.174  15.423   2.045  1.00  0.00    -0.237 OA
ATOM     64  O   UNL     1       9.537  13.943   3.983  1.00  0.00    -0.744 OA
ENDBRANCH  60  61
ENDBRANCH  41  55
BRANCH  42  65
ATOM     65  C   UNL     1      -5.354  12.002   3.647  1.00  0.00    -0.014 A 
ATOM     66  C   UNL     1      -6.278  12.971   3.218  1.00  0.00     0.010 A 
ATOM     67  C   UNL     1      -5.833  10.798   4.194  1.00  0.00     0.010 A 
ATOM     68  C   UNL     1      -7.652  12.750   3.354  1.00  0.00     0.020 A 
ATOM     69  C   UNL     1      -7.206  10.559   4.302  1.00  0.00     0.020 A 
ATOM     70  C   UNL     1      -8.108  11.543   3.892  1.00  0.00     0.054 A 
BRANCH  70  71
ATOM     71  S   UNL     1      -9.896  11.259   4.013  1.00  0.00     0.124 S 
ATOM     72  O   UNL     1     -10.274  12.158   5.097  1.00  0.00    -0.237 OA
ATOM     73  O   UNL     1     -10.364  11.637   2.682  1.00  0.00    -0.237 OA
ATOM     74  O   UNL     1      -9.995   9.833   4.317  1.00  0.00    -0.744 OA
ENDBRANCH  70  71
ENDBRANCH  42  65
BRANCH  54  75
ATOM     75  C   UNL     1      -0.950  16.533   6.615  1.00  0.00    -0.014 A 
ATOM     76  C   UNL     1      -1.280  16.310   7.964  1.00  0.00     0.010 A 
ATOM     77  C   UNL     1      -0.757  17.855   6.169  1.00  0.00     0.010 A 
ATOM     78  C   UNL     1      -1.450  17.389   8.838  1.00  0.00     0.020 A 
ATOM     79  C   UNL     1      -0.893  18.933   7.047  1.00  0.00     0.020 A 
ATOM     80  C   UNL     1      -1.255  18.693   8.373  1.00  0.00     0.054 A 
BRANCH  80  81
ATOM     81  S   UNL     1      -1.446  20.073   9.536  1.00  0.00     0.124 S 
ATOM     82  O   UNL     1      -2.893  20.110   9.729  1.00  0.00    -0.237 OA
ATOM     83  O   UNL     1      -0.669  19.628  10.690  1.00  0.00    -0.237 OA
ATOM     84  O   UNL     1      -0.884  21.214   8.817  1.00  0.00    -0.744 OA
ENDBRANCH  80  81
ENDBRANCH  54  75
ENDBRANCH  28  29
ENDBRANCH  20  23
ENDBRANCH  18  19
ENDBRANCH  17  18
ENDBRANCH   1  17
TORSDOF 17
