REMARK SMILES Cc1ccccc1OCC(=O)c1nc(C)c(C(=O)NCCCCNC(=O)c2ccc(-c3c4nc(c(-c5ccc(S(=O)(=O)[O-])cc5)c5ccc([nH]5)c(-c5ccc(S(=O)(=O)[O-])cc5)c5nc(c(-c6ccc(S(=O)(=O)[O-])cc6)c6ccc3[nH]6)C=C5)C=C4)cc2)s1
REMARK SMILES IDX 21 1 20 2 19 3 17 4 18 5 16 7 12 8 13 9 87 10 14 11 15 12
REMARK SMILES IDX 10 13 11 14 9 15 8 16 7 17 1 18 2 19 3 20 4 21 6 22 5 23
REMARK SMILES IDX 22 24 23 25 24 26 25 27 26 29 27 30 28 31 86 32 29 33 85 34
REMARK SMILES IDX 30 35 31 36 32 37 79 38 33 39 84 40 78 41 80 42 34 43 83 44
REMARK SMILES IDX 77 45 76 46 35 48 65 49 46 50 64 51 47 52 50 53 63 54 81 55
REMARK SMILES IDX 48 56 49 57 62 59 82 60 51 61 36 62 37 63 45 64 38 65 44 66
REMARK SMILES IDX 39 67 40 68 41 69 42 70 43 71 66 72 67 73 75 74 68 75 74 76
REMARK SMILES IDX 69 77 70 78 71 79 72 80 73 81 52 82 53 83 61 84 54 85 60 86
REMARK SMILES IDX 55 87 56 88 57 89 58 90 59 91
REMARK H PARENT 19 6 24 28 80 47 50 58
REMARK Flexibility Score: inf
ROOT
ATOM      1  C   UNL     1       3.286   4.419   8.005  1.00  0.00     0.023 C 
ENDROOT
BRANCH   1   2
ATOM      2  C   UNL     1       2.317   3.244   7.800  1.00  0.00     0.116 C 
BRANCH   2   3
ATOM      3  N   UNL     1       1.242   3.572   6.890  1.00  0.00    -0.351 N 
ATOM      4  C   UNL     1       1.056   3.491   5.536  1.00  0.00     0.263 C 
ATOM      5  O   UNL     1      -0.075   3.877   5.203  1.00  0.00    -0.268 OA
ATOM      6  H   UNL     1       0.457   3.943   7.355  1.00  0.00     0.163 HD
BRANCH   4   7
ATOM      7  C   UNL     1       2.031   3.024   4.547  1.00  0.00     0.115 A 
ATOM      8  C   UNL     1       2.890   2.438   2.296  1.00  0.00     0.164 A 
ATOM      9  N   UNL     1       3.804   2.240   3.214  1.00  0.00    -0.237 NA
ATOM     10  S   UNL     1       1.417   3.018   2.896  1.00  0.00    -0.105 S 
ATOM     11  C   UNL     1       3.352   2.580   4.488  1.00  0.00     0.062 A 
ATOM     12  C   UNL     1       4.406   2.399   5.517  1.00  0.00     0.068 C 
BRANCH   8  13
ATOM     13  C   UNL     1       3.191   2.199   0.889  1.00  0.00     0.228 C 
ATOM     14  O   UNL     1       4.287   1.764   0.506  1.00  0.00    -0.288 OA
BRANCH  13  15
ATOM     15  C   UNL     1       2.181   2.595  -0.191  1.00  0.00     0.313 C 
BRANCH  15  16
ATOM     16  O   UNL     1       0.814   2.300  -0.096  1.00  0.00    -0.485 OA
BRANCH  16  17
ATOM     17  C   UNL     1       0.290   1.045  -0.127  1.00  0.00     0.122 A 
ATOM     18  C   UNL     1       2.357  -0.479  -0.504  1.00  0.00     0.048 C 
ATOM     19  C   UNL     1       0.896  -0.209  -0.289  1.00  0.00    -0.009 A 
ATOM     20  C   UNL     1       0.079  -1.361  -0.197  1.00  0.00     0.007 A 
ATOM     21  C   UNL     1      -1.299  -1.280  -0.003  1.00  0.00     0.001 A 
ATOM     22  C   UNL     1      -1.106   1.107   0.052  1.00  0.00     0.047 A 
ATOM     23  C   UNL     1      -1.898  -0.038   0.110  1.00  0.00     0.004 A 
ENDBRANCH  16  17
ENDBRANCH  15  16
ENDBRANCH  13  15
ENDBRANCH   8  13
ENDBRANCH   4   7
ENDBRANCH   2   3
ENDBRANCH   1   2
BRANCH   1  24
ATOM     24  C   UNL     1       2.793   5.525   8.943  1.00  0.00     0.023 C 
BRANCH  24  25
ATOM     25  C   UNL     1       2.725   5.090  10.398  1.00  0.00     0.116 C 
BRANCH  25  26
ATOM     26  N   UNL     1       3.957   5.209  11.162  1.00  0.00    -0.352 N 
ATOM     27  C   UNL     1       3.952   5.133  12.561  1.00  0.00     0.251 C 
ATOM     28  H   UNL     1       4.810   5.344  10.688  1.00  0.00     0.163 HD
ATOM     29  O   UNL     1       4.379   5.991  13.295  1.00  0.00    -0.269 OA
BRANCH  27  30
ATOM     30  C   UNL     1       3.397   3.862  13.096  1.00  0.00     0.039 A 
ATOM     31  C   UNL     1       4.256   2.881  13.598  1.00  0.00     0.014 A 
ATOM     32  C   UNL     1       2.059   3.578  12.844  1.00  0.00     0.014 A 
ATOM     33  C   UNL     1       3.805   1.562  13.687  1.00  0.00     0.010 A 
ATOM     34  C   UNL     1       1.663   2.261  12.797  1.00  0.00     0.010 A 
ATOM     35  C   UNL     1       2.539   1.244  13.195  1.00  0.00    -0.014 A 
BRANCH  35  36
ATOM     36  C   UNL     1       2.024  -0.106  12.992  1.00  0.00     0.031 A 
ATOM     37  C   UNL     1       0.893  -0.596  13.823  1.00  0.00     0.074 A 
ATOM     38  C   UNL     1       2.429  -0.829  11.922  1.00  0.00     0.049 A 
ATOM     39  N   UNL     1       0.548  -1.836  13.923  1.00  0.00    -0.248 NA
ATOM     40  C   UNL     1       0.063   0.289  14.640  1.00  0.00     0.031 C 
ATOM     41  C   UNL     1       1.740  -1.977  11.334  1.00  0.00     0.029 A 
ATOM     42  N   UNL     1       3.655  -0.805  11.254  1.00  0.00    -0.354 N 
ATOM     43  C   UNL     1      -0.687  -1.874  14.529  1.00  0.00     0.074 A 
ATOM     44  C   UNL     1      -0.917  -0.537  15.019  1.00  0.00     0.031 C 
ATOM     45  C   UNL     1       2.633  -2.714  10.656  1.00  0.00     0.029 A 
ATOM     46  C   UNL     1       3.941  -2.140  10.916  1.00  0.00     0.049 A 
ATOM     47  H   UNL     1       4.207  -0.014  11.060  1.00  0.00     0.167 HD
ATOM     48  C   UNL     1      -1.455  -2.995  14.432  1.00  0.00     0.031 A 
ATOM     49  C   UNL     1       5.027  -2.836  11.368  1.00  0.00     0.031 A 
ATOM     50  C   UNL     1      -0.764  -4.066  13.727  1.00  0.00     0.049 A 
ATOM     51  C   UNL     1       4.653  -4.103  12.110  1.00  0.00     0.074 A 
ATOM     52  C   UNL     1      -0.822  -4.535  12.425  1.00  0.00     0.029 A 
ATOM     53  N   UNL     1       0.365  -4.630  14.303  1.00  0.00    -0.354 N 
ATOM     54  N   UNL     1       3.449  -4.360  12.540  1.00  0.00    -0.248 NA
ATOM     55  C   UNL     1       5.597  -5.160  12.459  1.00  0.00     0.031 C 
ATOM     56  C   UNL     1       0.326  -5.339  12.200  1.00  0.00     0.029 A 
ATOM     57  C   UNL     1       1.062  -5.373  13.372  1.00  0.00     0.049 A 
ATOM     58  H   UNL     1       0.632  -4.516  15.244  1.00  0.00     0.167 HD
ATOM     59  C   UNL     1       3.432  -5.563  13.198  1.00  0.00     0.074 A 
ATOM     60  C   UNL     1       4.804  -6.029  13.113  1.00  0.00     0.031 C 
ATOM     61  C   UNL     1       2.288  -6.058  13.757  1.00  0.00     0.031 A 
BRANCH  48  62
ATOM     62  C   UNL     1      -2.929  -3.022  14.750  1.00  0.00    -0.014 A 
ATOM     63  C   UNL     1      -3.782  -3.864  14.005  1.00  0.00     0.010 A 
ATOM     64  C   UNL     1      -3.539  -2.231  15.742  1.00  0.00     0.010 A 
ATOM     65  C   UNL     1      -5.172  -3.859  14.180  1.00  0.00     0.020 A 
ATOM     66  C   UNL     1      -4.934  -2.191  15.905  1.00  0.00     0.020 A 
ATOM     67  C   UNL     1      -5.744  -3.003  15.116  1.00  0.00     0.054 A 
BRANCH  67  68
ATOM     68  S   UNL     1      -7.548  -2.971  15.283  1.00  0.00     0.124 S 
ATOM     69  O   UNL     1      -7.984  -2.655  13.924  1.00  0.00    -0.237 OA
ATOM     70  O   UNL     1      -7.845  -4.325  15.740  1.00  0.00    -0.237 OA
ATOM     71  O   UNL     1      -7.786  -1.915  16.266  1.00  0.00    -0.744 OA
ENDBRANCH  67  68
ENDBRANCH  48  62
BRANCH  49  72
ATOM     72  C   UNL     1       6.223  -1.988  11.636  1.00  0.00    -0.014 A 
ATOM     73  C   UNL     1       6.883  -1.458  10.507  1.00  0.00     0.010 A 
ATOM     74  C   UNL     1       6.355  -1.333  12.873  1.00  0.00     0.010 A 
ATOM     75  C   UNL     1       7.455  -0.185  10.556  1.00  0.00     0.020 A 
ATOM     76  C   UNL     1       6.939  -0.058  12.925  1.00  0.00     0.020 A 
ATOM     77  C   UNL     1       7.392   0.540  11.745  1.00  0.00     0.054 A 
BRANCH  77  78
ATOM     78  S   UNL     1       7.698   2.334  11.675  1.00  0.00     0.124 S 
ATOM     79  O   UNL     1       8.955   2.414  10.938  1.00  0.00    -0.237 OA
ATOM     80  O   UNL     1       6.514   2.816  10.960  1.00  0.00    -0.237 OA
ATOM     81  O   UNL     1       7.767   2.715  13.082  1.00  0.00    -0.744 OA
ENDBRANCH  77  78
ENDBRANCH  49  72
BRANCH  61  82
ATOM     82  C   UNL     1       2.160  -7.259  14.669  1.00  0.00    -0.014 A 
ATOM     83  C   UNL     1       3.221  -7.836  15.380  1.00  0.00     0.010 A 
ATOM     84  C   UNL     1       0.864  -7.774  14.934  1.00  0.00     0.010 A 
ATOM     85  C   UNL     1       3.009  -8.901  16.270  1.00  0.00     0.020 A 
ATOM     86  C   UNL     1       0.634  -8.801  15.852  1.00  0.00     0.020 A 
ATOM     87  C   UNL     1       1.717  -9.378  16.500  1.00  0.00     0.054 A 
BRANCH  87  88
ATOM     88  S   UNL     1       1.447 -10.702  17.705  1.00  0.00     0.124 S 
ATOM     89  O   UNL     1       1.640 -11.896  16.887  1.00  0.00    -0.237 OA
ATOM     90  O   UNL     1       2.484 -10.452  18.703  1.00  0.00    -0.237 OA
ATOM     91  O   UNL     1       0.081 -10.471  18.167  1.00  0.00    -0.744 OA
ENDBRANCH  87  88
ENDBRANCH  61  82
ENDBRANCH  35  36
ENDBRANCH  27  30
ENDBRANCH  25  26
ENDBRANCH  24  25
ENDBRANCH   1  24
TORSDOF 18
