REMARK SMILES CSCC[C@@H](NS(=O)(=O)c1ccc(F)c(C)c1)C(=O)NCCCCNC(=O)c1ccc(-c2c3nc(c(-c4ccc(S(=O)(=O)[O-])cc4)c4ccc([nH]4)c(-c4ccc(S(=O)(=O)[O-])cc4)c4nc(c(-c5ccc(S(=O)(=O)[O-])cc5)c5ccc2[nH]5)C=C4)C=C3)cc1
REMARK SMILES IDX 22 1 21 2 20 3 18 4 19 5 5 7 4 8 3 9 2 10 1 11 6 12 7 14
REMARK SMILES IDX 8 15 9 16 10 17 11 18 17 19 12 20 15 21 13 22 16 23 14 24
REMARK SMILES IDX 23 25 24 26 25 27 26 28 27 30 28 31 29 32 87 33 30 34 86 35
REMARK SMILES IDX 31 36 32 37 33 38 80 39 34 40 85 41 79 42 81 43 35 44 84 45
REMARK SMILES IDX 78 46 77 47 36 49 66 50 47 51 65 52 48 53 51 54 64 55 82 56
REMARK SMILES IDX 49 57 50 58 63 60 83 61 52 62 37 63 38 64 46 65 39 66 45 67
REMARK SMILES IDX 40 68 41 69 42 70 43 71 44 72 67 73 68 74 76 75 69 76 75 77
REMARK SMILES IDX 70 78 71 79 72 80 73 81 74 82 53 83 54 84 62 85 55 86 61 87
REMARK SMILES IDX 56 88 57 89 58 90 59 91 60 92
REMARK H PARENT 20 6 6 13 25 29 81 48 51 59
REMARK Flexibility Score: inf
ROOT
ATOM      1  C   UNL     1       0.915  -1.979   6.513  1.00  0.00     0.023 C 
ENDROOT
BRANCH   1   2
ATOM      2  C   UNL     1       1.274  -2.375   5.085  1.00  0.00     0.116 C 
BRANCH   2   3
ATOM      3  N   UNL     1       0.078  -2.607   4.297  1.00  0.00    -0.355 N 
ATOM      4  C   UNL     1      -0.241  -2.193   3.037  1.00  0.00     0.238 C 
ATOM      5  O   UNL     1      -1.335  -2.537   2.583  1.00  0.00    -0.273 OA
ATOM      6  H   UNL     1      -0.613  -3.150   4.742  1.00  0.00     0.163 HD
BRANCH   4   7
ATOM      7  C   UNL     1       0.715  -1.329   2.213  1.00  0.00     0.159 C 
BRANCH   7   8
ATOM      8  C   UNL     1       0.687   0.099   2.783  1.00  0.00     0.041 C 
BRANCH   8   9
ATOM      9  C   UNL     1       1.413   1.169   1.973  1.00  0.00     0.071 C 
BRANCH   9  10
ATOM     10  S   UNL     1       0.506   1.753   0.507  1.00  0.00    -0.165 SA
ATOM     11  C   UNL     1       1.142   0.612  -0.746  1.00  0.00     0.085 C 
ENDBRANCH   9  10
ENDBRANCH   8   9
ENDBRANCH   7   8
BRANCH   7  12
ATOM     12  N   UNL     1       2.082  -1.913   2.197  1.00  0.00    -0.199 NA
ATOM     13  H   UNL     1       2.164  -2.490   3.034  1.00  0.00     0.142 HD
BRANCH  12  14
ATOM     14  S   UNL     1       2.586  -2.866   0.902  1.00  0.00     0.241 S 
ATOM     15  O   UNL     1       1.730  -2.616  -0.236  1.00  0.00    -0.207 OA
ATOM     16  O   UNL     1       4.010  -2.611   0.837  1.00  0.00    -0.207 OA
BRANCH  14  17
ATOM     17  C   UNL     1       2.383  -4.568   1.382  1.00  0.00     0.082 A 
ATOM     18  C   UNL     1       1.185  -5.023   1.933  1.00  0.00     0.025 A 
ATOM     19  C   UNL     1       3.422  -5.478   1.124  1.00  0.00     0.028 A 
ATOM     20  C   UNL     1       1.042  -6.366   2.286  1.00  0.00     0.041 A 
ATOM     21  C   UNL     1       3.260  -6.841   1.422  1.00  0.00    -0.014 A 
ATOM     22  C   UNL     1       2.073  -7.261   2.027  1.00  0.00     0.126 A 
ATOM     23  C   UNL     1       4.306  -7.856   1.072  1.00  0.00     0.047 C 
ATOM     24  F   UNL     1       1.901  -8.553   2.337  1.00  0.00    -0.207 F 
ENDBRANCH  14  17
ENDBRANCH  12  14
ENDBRANCH   7  12
ENDBRANCH   4   7
ENDBRANCH   2   3
ENDBRANCH   1   2
BRANCH   1  25
ATOM     25  C   UNL     1       0.429  -3.147   7.374  1.00  0.00     0.023 C 
BRANCH  25  26
ATOM     26  C   UNL     1       1.477  -4.226   7.624  1.00  0.00     0.116 C 
BRANCH  26  27
ATOM     27  N   UNL     1       2.628  -3.718   8.353  1.00  0.00    -0.352 N 
ATOM     28  C   UNL     1       3.250  -4.256   9.453  1.00  0.00     0.251 C 
ATOM     29  H   UNL     1       3.011  -2.877   8.014  1.00  0.00     0.163 HD
ATOM     30  O   UNL     1       4.097  -3.607  10.058  1.00  0.00    -0.269 OA
BRANCH  28  31
ATOM     31  C   UNL     1       2.877  -5.611   9.906  1.00  0.00     0.039 A 
ATOM     32  C   UNL     1       2.608  -5.822  11.260  1.00  0.00     0.014 A 
ATOM     33  C   UNL     1       2.792  -6.666   8.993  1.00  0.00     0.014 A 
ATOM     34  C   UNL     1       2.215  -7.088  11.695  1.00  0.00     0.010 A 
ATOM     35  C   UNL     1       2.342  -7.912   9.417  1.00  0.00     0.010 A 
ATOM     36  C   UNL     1       2.063  -8.138  10.774  1.00  0.00    -0.014 A 
BRANCH  36  37
ATOM     37  C   UNL     1       1.659  -9.494  11.217  1.00  0.00     0.031 A 
ATOM     38  C   UNL     1       2.634 -10.634  11.110  1.00  0.00     0.074 A 
ATOM     39  C   UNL     1       0.406  -9.710  11.663  1.00  0.00     0.049 A 
ATOM     40  N   UNL     1       2.457 -11.900  11.388  1.00  0.00    -0.248 NA
ATOM     41  C   UNL     1       3.977 -10.313  10.598  1.00  0.00     0.031 C 
ATOM     42  C   UNL     1      -0.643  -8.694  11.775  1.00  0.00     0.029 A 
ATOM     43  N   UNL     1      -0.197 -10.861  12.101  1.00  0.00    -0.354 N 
ATOM     44  C   UNL     1       3.654 -12.528  11.062  1.00  0.00     0.074 A 
ATOM     45  C   UNL     1       4.534 -11.512  10.526  1.00  0.00     0.031 C 
ATOM     46  C   UNL     1      -1.754  -9.265  12.272  1.00  0.00     0.029 A 
ATOM     47  C   UNL     1      -1.504 -10.686  12.488  1.00  0.00     0.049 A 
ATOM     48  H   UNL     1       0.263 -11.731  12.134  1.00  0.00     0.167 HD
ATOM     49  C   UNL     1       3.998 -13.829  11.211  1.00  0.00     0.031 A 
ATOM     50  C   UNL     1      -2.398 -11.572  12.966  1.00  0.00     0.031 A 
ATOM     51  C   UNL     1       3.132 -14.833  11.766  1.00  0.00     0.049 A 
ATOM     52  C   UNL     1      -1.982 -13.004  13.159  1.00  0.00     0.074 A 
ATOM     53  C   UNL     1       3.400 -16.170  12.002  1.00  0.00     0.029 A 
ATOM     54  N   UNL     1       1.829 -14.606  12.184  1.00  0.00    -0.354 N 
ATOM     55  N   UNL     1      -0.830 -13.571  12.886  1.00  0.00    -0.248 NA
ATOM     56  C   UNL     1      -2.980 -13.911  13.741  1.00  0.00     0.031 C 
ATOM     57  C   UNL     1       2.249 -16.758  12.540  1.00  0.00     0.029 A 
ATOM     58  C   UNL     1       1.279 -15.777  12.675  1.00  0.00     0.049 A 
ATOM     59  H   UNL     1       1.364 -13.739  12.138  1.00  0.00     0.167 HD
ATOM     60  C   UNL     1      -0.957 -14.895  13.289  1.00  0.00     0.074 A 
ATOM     61  C   UNL     1      -2.292 -15.041  13.834  1.00  0.00     0.031 C 
ATOM     62  C   UNL     1      -0.049 -15.900  13.217  1.00  0.00     0.031 A 
BRANCH  49  63
ATOM     63  C   UNL     1       5.376 -14.231  10.762  1.00  0.00    -0.014 A 
ATOM     64  C   UNL     1       6.516 -13.839  11.488  1.00  0.00     0.010 A 
ATOM     65  C   UNL     1       5.536 -15.017   9.607  1.00  0.00     0.010 A 
ATOM     66  C   UNL     1       7.794 -14.182  11.039  1.00  0.00     0.020 A 
ATOM     67  C   UNL     1       6.812 -15.384   9.168  1.00  0.00     0.020 A 
ATOM     68  C   UNL     1       7.934 -14.945   9.876  1.00  0.00     0.054 A 
BRANCH  68  69
ATOM     69  S   UNL     1       9.602 -15.381   9.313  1.00  0.00     0.124 S 
ATOM     70  O   UNL     1      10.046 -14.133   8.697  1.00  0.00    -0.237 OA
ATOM     71  O   UNL     1      10.279 -15.743  10.556  1.00  0.00    -0.237 OA
ATOM     72  O   UNL     1       9.375 -16.488   8.387  1.00  0.00    -0.744 OA
ENDBRANCH  68  69
ENDBRANCH  49  63
BRANCH  50  73
ATOM     73  C   UNL     1      -3.766 -11.121  13.333  1.00  0.00    -0.014 A 
ATOM     74  C   UNL     1      -4.130 -10.988  14.685  1.00  0.00     0.010 A 
ATOM     75  C   UNL     1      -4.707 -10.809  12.336  1.00  0.00     0.010 A 
ATOM     76  C   UNL     1      -5.417 -10.569  15.034  1.00  0.00     0.020 A 
ATOM     77  C   UNL     1      -5.987 -10.368  12.681  1.00  0.00     0.020 A 
ATOM     78  C   UNL     1      -6.338 -10.262  14.029  1.00  0.00     0.054 A 
BRANCH  78  79
ATOM     79  S   UNL     1      -7.986  -9.666  14.500  1.00  0.00     0.124 S 
ATOM     80  O   UNL     1      -8.658 -10.904  14.882  1.00  0.00    -0.237 OA
ATOM     81  O   UNL     1      -7.690  -8.743  15.593  1.00  0.00    -0.237 OA
ATOM     82  O   UNL     1      -8.479  -9.033  13.279  1.00  0.00    -0.744 OA
ENDBRANCH  78  79
ENDBRANCH  50  73
BRANCH  62  83
ATOM     83  C   UNL     1      -0.458 -17.234  13.777  1.00  0.00    -0.014 A 
ATOM     84  C   UNL     1      -1.355 -18.068  13.089  1.00  0.00     0.010 A 
ATOM     85  C   UNL     1       0.096 -17.671  14.994  1.00  0.00     0.010 A 
ATOM     86  C   UNL     1      -1.721 -19.304  13.628  1.00  0.00     0.020 A 
ATOM     87  C   UNL     1      -0.252 -18.915  15.525  1.00  0.00     0.020 A 
ATOM     88  C   UNL     1      -1.172 -19.717  14.846  1.00  0.00     0.054 A 
BRANCH  88  89
ATOM     89  S   UNL     1      -1.637 -21.337  15.515  1.00  0.00     0.124 S 
ATOM     90  O   UNL     1      -2.947 -21.060  16.097  1.00  0.00    -0.237 OA
ATOM     91  O   UNL     1      -1.644 -22.189  14.328  1.00  0.00    -0.237 OA
ATOM     92  O   UNL     1      -0.576 -21.630  16.476  1.00  0.00    -0.744 OA
ENDBRANCH  88  89
ENDBRANCH  62  83
ENDBRANCH  36  37
ENDBRANCH  28  31
ENDBRANCH  26  27
ENDBRANCH  25  26
ENDBRANCH   1  25
TORSDOF 20
