REMARK SMILES C[C@@H]([C@H](C)O)[C@H](C(=O)NCCCCNC(=O)c1ccc(-c2c3nc(c(-c4ccc(S(=O)(=O)[O-])cc4)c4ccc([nH]4)c(-c4ccc(S(=O)(=O)[O-])cc4)c4nc(c(-c5ccc(S(=O)(=O)[O-])cc5)c5ccc2[nH]5)C=C4)C=C3)cc1)c1ccccc1Br
REMARK SMILES IDX 11 1 10 2 9 3 7 4 8 5 6 7 2 8 1 9 3 10 4 11 5 12 77 14 78 15
REMARK SMILES IDX 82 16 79 17 81 18 83 19 80 20 12 21 13 22 14 23 15 24 16 26
REMARK SMILES IDX 17 27 18 28 76 29 19 30 75 31 20 32 21 33 22 34 69 35 23 36
REMARK SMILES IDX 74 37 68 38 70 39 24 40 73 41 67 42 66 43 25 45 55 46 36 47
REMARK SMILES IDX 54 48 37 49 40 50 53 51 71 52 38 53 39 54 52 56 72 57 41 58
REMARK SMILES IDX 26 59 27 60 35 61 28 62 34 63 29 64 30 65 31 66 32 67 33 68
REMARK SMILES IDX 56 69 57 70 65 71 58 72 64 73 59 74 60 75 61 76 62 77 63 78
REMARK SMILES IDX 42 79 43 80 51 81 44 82 50 83 45 84 46 85 47 86 48 87 49 88
REMARK H PARENT 9 6 5 13 14 25 70 44 40 55
REMARK Flexibility Score: inf
ROOT
ATOM      1  C   UNL     1      -0.481   2.758   2.555  1.00  0.00     0.023 C 
ENDROOT
BRANCH   1   2
ATOM      2  C   UNL     1       0.729   2.617   1.639  1.00  0.00     0.116 C 
BRANCH   2   3
ATOM      3  N   UNL     1       0.323   2.205   0.321  1.00  0.00    -0.356 N 
ATOM      4  C   UNL     1      -0.025   2.881  -0.803  1.00  0.00     0.227 C 
ATOM      5  O   UNL     1      -0.222   2.120  -1.758  1.00  0.00    -0.274 OA
ATOM      6  H   UNL     1       0.290   1.227   0.212  1.00  0.00     0.163 HD
BRANCH   4   7
ATOM      7  C   UNL     1       0.029   4.437  -0.966  1.00  0.00     0.115 C 
BRANCH   7   8
ATOM      8  C   UNL     1      -0.080   4.840  -2.482  1.00  0.00     0.031 C 
ATOM      9  C   UNL     1       1.279   4.580  -3.180  1.00  0.00     0.011 C 
BRANCH   8  10
ATOM     10  C   UNL     1      -1.178   4.146  -3.351  1.00  0.00     0.115 C 
ATOM     11  C   UNL     1      -1.599   5.010  -4.543  1.00  0.00     0.038 C 
BRANCH  10  12
ATOM     12  O   UNL     1      -2.333   3.777  -2.613  1.00  0.00    -0.393 OA
ATOM     13  H   UNL     1      -2.772   4.575  -2.279  1.00  0.00     0.210 HD
ENDBRANCH  10  12
ENDBRANCH   8  10
ENDBRANCH   7   8
BRANCH   7  14
ATOM     14  C   UNL     1      -0.745   5.298   0.077  1.00  0.00    -0.021 A 
ATOM     15  C   UNL     1      -0.038   5.662   1.250  1.00  0.00     0.006 A 
ATOM     16  C   UNL     1      -2.087   5.717   0.065  1.00  0.00     0.021 A 
ATOM     17  C   UNL     1      -0.678   6.099   2.419  1.00  0.00     0.000 A 
ATOM     18  C   UNL     1      -2.751   6.079   1.255  1.00  0.00     0.016 A 
ATOM     19  Br  UNL     1      -3.015   6.375  -1.463  1.00  0.00    -0.051 Br
ATOM     20  C   UNL     1      -2.055   6.223   2.444  1.00  0.00     0.001 A 
ENDBRANCH   7  14
ENDBRANCH   4   7
ENDBRANCH   2   3
ENDBRANCH   1   2
BRANCH   1  21
ATOM     21  C   UNL     1      -1.046   1.433   3.059  1.00  0.00     0.023 C 
BRANCH  21  22
ATOM     22  C   UNL     1      -0.105   0.650   3.960  1.00  0.00     0.116 C 
BRANCH  22  23
ATOM     23  N   UNL     1       0.325   1.399   5.132  1.00  0.00    -0.352 N 
ATOM     24  C   UNL     1       0.530   0.940   6.414  1.00  0.00     0.251 C 
ATOM     25  H   UNL     1       0.492   2.359   4.989  1.00  0.00     0.163 HD
ATOM     26  O   UNL     1       0.783   1.717   7.317  1.00  0.00    -0.269 OA
BRANCH  24  27
ATOM     27  C   UNL     1       0.396  -0.509   6.672  1.00  0.00     0.039 A 
ATOM     28  C   UNL     1      -0.409  -0.934   7.730  1.00  0.00     0.014 A 
ATOM     29  C   UNL     1       1.018  -1.437   5.832  1.00  0.00     0.014 A 
ATOM     30  C   UNL     1      -0.640  -2.299   7.909  1.00  0.00     0.010 A 
ATOM     31  C   UNL     1       0.718  -2.786   5.960  1.00  0.00     0.010 A 
ATOM     32  C   UNL     1      -0.105  -3.232   7.005  1.00  0.00    -0.014 A 
BRANCH  32  33
ATOM     33  C   UNL     1      -0.362  -4.685   7.148  1.00  0.00     0.031 A 
ATOM     34  C   UNL     1       0.787  -5.618   7.416  1.00  0.00     0.074 A 
ATOM     35  C   UNL     1      -1.606  -5.169   6.966  1.00  0.00     0.049 A 
ATOM     36  N   UNL     1       0.790  -6.924   7.488  1.00  0.00    -0.248 NA
ATOM     37  C   UNL     1       2.115  -5.004   7.592  1.00  0.00     0.031 C 
ATOM     38  C   UNL     1      -2.793  -4.369   6.652  1.00  0.00     0.029 A 
ATOM     39  N   UNL     1      -2.077  -6.457   7.010  1.00  0.00    -0.354 N 
ATOM     40  C   UNL     1       2.117  -7.286   7.687  1.00  0.00     0.074 A 
ATOM     41  C   UNL     1       2.897  -6.069   7.674  1.00  0.00     0.031 C 
ATOM     42  C   UNL     1      -3.859  -5.182   6.560  1.00  0.00     0.029 A 
ATOM     43  C   UNL     1      -3.427  -6.560   6.771  1.00  0.00     0.049 A 
ATOM     44  H   UNL     1      -1.502  -7.234   7.194  1.00  0.00     0.167 HD
ATOM     45  C   UNL     1       2.638  -8.519   7.888  1.00  0.00     0.031 A 
ATOM     46  C   UNL     1      -4.226  -7.644   6.728  1.00  0.00     0.031 A 
ATOM     47  C   UNL     1       1.854  -9.723   7.933  1.00  0.00     0.049 A 
ATOM     48  C   UNL     1      -3.629  -9.001   6.981  1.00  0.00     0.074 A 
ATOM     49  C   UNL     1       2.275 -11.015   8.190  1.00  0.00     0.029 A 
ATOM     50  N   UNL     1       0.484  -9.780   7.725  1.00  0.00    -0.354 N 
ATOM     51  N   UNL     1      -2.380  -9.318   7.227  1.00  0.00    -0.248 NA
ATOM     52  C   UNL     1      -4.552 -10.144   6.967  1.00  0.00     0.031 C 
ATOM     53  C   UNL     1       1.163 -11.860   8.104  1.00  0.00     0.029 A 
ATOM     54  C   UNL     1       0.044 -11.086   7.839  1.00  0.00     0.049 A 
ATOM     55  H   UNL     1      -0.089  -9.005   7.526  1.00  0.00     0.167 HD
ATOM     56  C   UNL     1      -2.372 -10.694   7.424  1.00  0.00     0.074 A 
ATOM     57  C   UNL     1      -3.741 -11.146   7.282  1.00  0.00     0.031 C 
ATOM     58  C   UNL     1      -1.326 -11.511   7.701  1.00  0.00     0.031 A 
BRANCH  45  59
ATOM     59  C   UNL     1       4.128  -8.618   8.078  1.00  0.00    -0.014 A 
ATOM     60  C   UNL     1       4.742  -8.134   9.248  1.00  0.00     0.010 A 
ATOM     61  C   UNL     1       4.923  -9.218   7.085  1.00  0.00     0.010 A 
ATOM     62  C   UNL     1       6.129  -8.203   9.399  1.00  0.00     0.020 A 
ATOM     63  C   UNL     1       6.308  -9.316   7.246  1.00  0.00     0.020 A 
ATOM     64  C   UNL     1       6.904  -8.789   8.394  1.00  0.00     0.054 A 
BRANCH  64  65
ATOM     65  S   UNL     1       8.701  -8.879   8.622  1.00  0.00     0.124 S 
ATOM     66  O   UNL     1       9.105  -7.498   8.369  1.00  0.00    -0.237 OA
ATOM     67  O   UNL     1       8.828  -9.325  10.008  1.00  0.00    -0.237 OA
ATOM     68  O   UNL     1       9.130  -9.848   7.617  1.00  0.00    -0.744 OA
ENDBRANCH  64  65
ENDBRANCH  45  59
BRANCH  46  69
ATOM     69  C   UNL     1      -5.682  -7.486   6.463  1.00  0.00    -0.014 A 
ATOM     70  C   UNL     1      -6.615  -7.672   7.498  1.00  0.00     0.010 A 
ATOM     71  C   UNL     1      -6.143  -7.139   5.180  1.00  0.00     0.010 A 
ATOM     72  C   UNL     1      -7.984  -7.535   7.252  1.00  0.00     0.020 A 
ATOM     73  C   UNL     1      -7.510  -6.977   4.936  1.00  0.00     0.020 A 
ATOM     74  C   UNL     1      -8.423  -7.188   5.971  1.00  0.00     0.054 A 
BRANCH  74  75
ATOM     75  S   UNL     1     -10.202  -6.969   5.685  1.00  0.00     0.124 S 
ATOM     76  O   UNL     1     -10.675  -8.348   5.646  1.00  0.00    -0.237 OA
ATOM     77  O   UNL     1     -10.616  -6.189   6.848  1.00  0.00    -0.237 OA
ATOM     78  O   UNL     1     -10.256  -6.250   4.413  1.00  0.00    -0.744 OA
ENDBRANCH  74  75
ENDBRANCH  46  69
BRANCH  58  79
ATOM     79  C   UNL     1      -1.624 -12.971   7.908  1.00  0.00    -0.014 A 
ATOM     80  C   UNL     1      -1.932 -13.812   6.825  1.00  0.00     0.010 A 
ATOM     81  C   UNL     1      -1.534 -13.517   9.201  1.00  0.00     0.010 A 
ATOM     82  C   UNL     1      -2.172 -15.172   7.036  1.00  0.00     0.020 A 
ATOM     83  C   UNL     1      -1.749 -14.881   9.412  1.00  0.00     0.020 A 
ATOM     84  C   UNL     1      -2.079 -15.697   8.329  1.00  0.00     0.054 A 
BRANCH  84  85
ATOM     85  S   UNL     1      -2.347 -17.475   8.571  1.00  0.00     0.124 S 
ATOM     86  O   UNL     1      -3.800 -17.580   8.471  1.00  0.00    -0.237 OA
ATOM     87  O   UNL     1      -1.596 -18.067   7.467  1.00  0.00    -0.237 OA
ATOM     88  O   UNL     1      -1.793 -17.729   9.899  1.00  0.00    -0.744 OA
ENDBRANCH  84  85
ENDBRANCH  58  79
ENDBRANCH  32  33
ENDBRANCH  24  27
ENDBRANCH  22  23
ENDBRANCH  21  22
ENDBRANCH   1  21
TORSDOF 18
