REMARK SMILES CC(C)[C@H](NC(=O)[C@H](C)NC(=O)CNC(=O)OCc1ccccc1)C(=O)NCCCCNC(=O)c1ccc(-c2c3nc(c(-c4ccc(S(=O)(=O)[O-])cc4)c4ccc([nH]4)c(-c4ccc(S(=O)(=O)[O-])cc4)c4nc(c(-c5ccc(S(=O)(=O)[O-])cc5)c5ccc2[nH]5)C=C4)C=C3)cc1
REMARK SMILES IDX 25 1 26 2 27 3 4 5 2 6 1 7 3 8 5 9 6 10 7 12 8 13 9 14 10 15
REMARK SMILES IDX 11 16 12 18 13 19 14 20 15 21 16 23 17 24 18 25 19 26 20 27
REMARK SMILES IDX 24 28 21 29 23 30 22 31 28 32 29 33 30 34 31 35 32 36 33 37
REMARK SMILES IDX 34 39 35 40 36 41 94 42 37 43 93 44 38 45 39 46 40 47 87 48
REMARK SMILES IDX 41 49 92 50 86 51 88 52 42 53 91 54 85 55 84 56 43 58 73 59
REMARK SMILES IDX 54 60 72 61 55 62 58 63 71 64 89 65 56 66 57 67 70 69 90 70
REMARK SMILES IDX 59 71 44 72 45 73 53 74 46 75 52 76 47 77 48 78 49 79 50 80
REMARK SMILES IDX 51 81 74 82 75 83 83 84 76 85 82 86 77 87 78 88 79 89 80 90
REMARK SMILES IDX 81 91 60 92 61 93 69 94 62 95 68 96 63 97 64 98 65 99 66 100
REMARK SMILES IDX 67 101
REMARK H PARENT 27 4 5 11 10 17 14 22 32 38 88 57 58 68
REMARK Flexibility Score: inf
ROOT
ATOM      1  C   UNL     1      -2.223   0.427   2.079  1.00  0.00     0.242 C 
ATOM      2  O   UNL     1      -2.592  -0.147   1.045  1.00  0.00    -0.273 OA
ATOM      3  N   UNL     1      -3.194   0.763   2.962  1.00  0.00    -0.354 N 
ATOM      4  H   UNL     1      -4.103   0.642   2.603  1.00  0.00     0.163 HD
ENDROOT
BRANCH   1   5
ATOM      5  C   UNL     1      -0.731   0.795   2.195  1.00  0.00     0.173 C 
BRANCH   5   6
ATOM      6  C   UNL     1      -0.079   0.384   3.550  1.00  0.00     0.015 C 
ATOM      7  C   UNL     1      -0.448  -1.050   3.955  1.00  0.00     0.010 C 
ATOM      8  C   UNL     1       1.450   0.513   3.559  1.00  0.00     0.010 C 
ENDBRANCH   5   6
BRANCH   5   9
ATOM      9  N   UNL     1      -0.390   2.184   1.823  1.00  0.00    -0.342 N 
ATOM     10  C   UNL     1      -0.723   2.943   0.730  1.00  0.00     0.242 C 
ATOM     11  H   UNL     1       0.179   2.649   2.478  1.00  0.00     0.164 HD
ATOM     12  O   UNL     1       0.192   3.622   0.247  1.00  0.00    -0.273 OA
BRANCH  10  13
ATOM     13  C   UNL     1      -2.194   3.246   0.335  1.00  0.00     0.168 C 
ATOM     14  C   UNL     1      -2.837   3.857   1.571  1.00  0.00     0.041 C 
BRANCH  13  15
ATOM     15  N   UNL     1      -3.005   2.179  -0.231  1.00  0.00    -0.343 N 
ATOM     16  C   UNL     1      -4.243   2.260  -0.812  1.00  0.00     0.240 C 
ATOM     17  H   UNL     1      -2.612   1.277  -0.191  1.00  0.00     0.164 HD
ATOM     18  O   UNL     1      -4.797   1.215  -1.165  1.00  0.00    -0.273 OA
BRANCH  16  19
ATOM     19  C   UNL     1      -4.984   3.600  -0.915  1.00  0.00     0.219 C 
BRANCH  19  20
ATOM     20  N   UNL     1      -6.077   3.605   0.046  1.00  0.00    -0.312 N 
ATOM     21  C   UNL     1      -6.260   4.477   1.070  1.00  0.00     0.407 C 
ATOM     22  H   UNL     1      -6.756   2.901  -0.058  1.00  0.00     0.167 HD
ATOM     23  O   UNL     1      -7.083   4.251   1.957  1.00  0.00    -0.225 OA
BRANCH  21  24
ATOM     24  O   UNL     1      -5.416   5.533   1.033  1.00  0.00    -0.445 OA
BRANCH  24  25
ATOM     25  C   UNL     1      -5.351   6.340   2.222  1.00  0.00     0.270 C 
BRANCH  25  26
ATOM     26  C   UNL     1      -6.563   7.197   2.477  1.00  0.00    -0.011 A 
ATOM     27  C   UNL     1      -7.341   7.693   1.423  1.00  0.00     0.007 A 
ATOM     28  C   UNL     1      -6.918   7.519   3.796  1.00  0.00     0.007 A 
ATOM     29  C   UNL     1      -8.484   8.447   1.686  1.00  0.00     0.000 A 
ATOM     30  C   UNL     1      -8.057   8.280   4.056  1.00  0.00     0.000 A 
ATOM     31  C   UNL     1      -8.845   8.735   3.001  1.00  0.00     0.000 A 
ENDBRANCH  25  26
ENDBRANCH  24  25
ENDBRANCH  21  24
ENDBRANCH  19  20
ENDBRANCH  16  19
ENDBRANCH  13  15
ENDBRANCH  10  13
ENDBRANCH   5   9
ENDBRANCH   1   5
BRANCH   3  32
ATOM     32  C   UNL     1      -3.178   1.262   4.325  1.00  0.00     0.116 C 
BRANCH  32  33
ATOM     33  C   UNL     1      -3.911   2.581   4.530  1.00  0.00     0.023 C 
BRANCH  33  34
ATOM     34  C   UNL     1      -5.342   2.588   4.016  1.00  0.00     0.023 C 
BRANCH  34  35
ATOM     35  C   UNL     1      -6.274   1.775   4.889  1.00  0.00     0.116 C 
BRANCH  35  36
ATOM     36  N   UNL     1      -6.371   2.382   6.211  1.00  0.00    -0.352 N 
ATOM     37  C   UNL     1      -7.456   3.007   6.768  1.00  0.00     0.251 C 
ATOM     38  H   UNL     1      -5.562   2.337   6.770  1.00  0.00     0.163 HD
ATOM     39  O   UNL     1      -7.297   3.843   7.652  1.00  0.00    -0.269 OA
BRANCH  37  40
ATOM     40  C   UNL     1      -8.804   2.619   6.314  1.00  0.00     0.039 A 
ATOM     41  C   UNL     1      -9.835   3.558   6.311  1.00  0.00     0.014 A 
ATOM     42  C   UNL     1      -9.046   1.297   5.927  1.00  0.00     0.014 A 
ATOM     43  C   UNL     1     -11.111   3.159   5.920  1.00  0.00     0.010 A 
ATOM     44  C   UNL     1     -10.274   0.942   5.404  1.00  0.00     0.010 A 
ATOM     45  C   UNL     1     -11.333   1.850   5.457  1.00  0.00    -0.014 A 
BRANCH  45  46
ATOM     46  C   UNL     1     -12.685   1.376   5.095  1.00  0.00     0.031 A 
ATOM     47  C   UNL     1     -13.297   0.230   5.860  1.00  0.00     0.074 A 
ATOM     48  C   UNL     1     -13.324   1.945   4.057  1.00  0.00     0.049 A 
ATOM     49  N   UNL     1     -14.456  -0.350   5.688  1.00  0.00    -0.248 NA
ATOM     50  C   UNL     1     -12.485  -0.377   6.932  1.00  0.00     0.031 C 
ATOM     51  C   UNL     1     -12.783   3.013   3.210  1.00  0.00     0.029 A 
ATOM     52  N   UNL     1     -14.571   1.713   3.544  1.00  0.00    -0.354 N 
ATOM     53  C   UNL     1     -14.494  -1.395   6.606  1.00  0.00     0.074 A 
ATOM     54  C   UNL     1     -13.218  -1.422   7.278  1.00  0.00     0.031 C 
ATOM     55  C   UNL     1     -13.717   3.382   2.321  1.00  0.00     0.029 A 
ATOM     56  C   UNL     1     -14.901   2.552   2.507  1.00  0.00     0.049 A 
ATOM     57  H   UNL     1     -15.173   1.013   3.885  1.00  0.00     0.167 HD
ATOM     58  C   UNL     1     -15.517  -2.233   6.890  1.00  0.00     0.031 A 
ATOM     59  C   UNL     1     -16.041   2.644   1.798  1.00  0.00     0.031 A 
ATOM     60  C   UNL     1     -16.793  -2.167   6.231  1.00  0.00     0.049 A 
ATOM     61  C   UNL     1     -17.177   1.727   2.157  1.00  0.00     0.074 A 
ATOM     62  C   UNL     1     -17.929  -2.914   6.473  1.00  0.00     0.029 A 
ATOM     63  N   UNL     1     -17.099  -1.287   5.202  1.00  0.00    -0.354 N 
ATOM     64  N   UNL     1     -17.224   0.792   3.078  1.00  0.00    -0.248 NA
ATOM     65  C   UNL     1     -18.421   1.892   1.396  1.00  0.00     0.031 C 
ATOM     66  C   UNL     1     -18.908  -2.521   5.555  1.00  0.00     0.029 A 
ATOM     67  C   UNL     1     -18.402  -1.484   4.785  1.00  0.00     0.049 A 
ATOM     68  H   UNL     1     -16.480  -0.620   4.825  1.00  0.00     0.167 HD
ATOM     69  C   UNL     1     -18.512   0.272   3.023  1.00  0.00     0.074 A 
ATOM     70  C   UNL     1     -19.215   1.016   1.996  1.00  0.00     0.031 C 
ATOM     71  C   UNL     1     -19.066  -0.730   3.752  1.00  0.00     0.031 A 
BRANCH  58  72
ATOM     72  C   UNL     1     -15.294  -3.276   7.956  1.00  0.00    -0.014 A 
ATOM     73  C   UNL     1     -15.114  -2.914   9.305  1.00  0.00     0.010 A 
ATOM     74  C   UNL     1     -15.284  -4.640   7.612  1.00  0.00     0.010 A 
ATOM     75  C   UNL     1     -14.883  -3.890  10.279  1.00  0.00     0.020 A 
ATOM     76  C   UNL     1     -15.086  -5.622   8.588  1.00  0.00     0.020 A 
ATOM     77  C   UNL     1     -14.870  -5.239   9.914  1.00  0.00     0.054 A 
BRANCH  77  78
ATOM     78  S   UNL     1     -14.596  -6.484  11.204  1.00  0.00     0.124 S 
ATOM     79  O   UNL     1     -13.179  -6.300  11.505  1.00  0.00    -0.237 OA
ATOM     80  O   UNL     1     -15.520  -6.065  12.254  1.00  0.00    -0.237 OA
ATOM     81  O   UNL     1     -14.934  -7.745  10.547  1.00  0.00    -0.744 OA
ENDBRANCH  77  78
ENDBRANCH  58  72
BRANCH  59  82
ATOM     82  C   UNL     1     -16.167   3.664   0.723  1.00  0.00    -0.014 A 
ATOM     83  C   UNL     1     -17.018   4.772   0.885  1.00  0.00     0.010 A 
ATOM     84  C   UNL     1     -15.411   3.553  -0.458  1.00  0.00     0.010 A 
ATOM     85  C   UNL     1     -17.130   5.734  -0.123  1.00  0.00     0.020 A 
ATOM     86  C   UNL     1     -15.497   4.529  -1.455  1.00  0.00     0.020 A 
ATOM     87  C   UNL     1     -16.367   5.607  -1.286  1.00  0.00     0.054 A 
BRANCH  87  88
ATOM     88  S   UNL     1     -16.496   6.891  -2.562  1.00  0.00     0.124 S 
ATOM     89  O   UNL     1     -17.817   6.630  -3.123  1.00  0.00    -0.237 OA
ATOM     90  O   UNL     1     -16.371   8.122  -1.784  1.00  0.00    -0.237 OA
ATOM     91  O   UNL     1     -15.371   6.608  -3.450  1.00  0.00    -0.744 OA
ENDBRANCH  87  88
ENDBRANCH  59  82
BRANCH  71  92
ATOM     92  C   UNL     1     -20.510  -1.050   3.477  1.00  0.00    -0.014 A 
ATOM     93  C   UNL     1     -20.904  -1.668   2.278  1.00  0.00     0.010 A 
ATOM     94  C   UNL     1     -21.480  -0.755   4.452  1.00  0.00     0.010 A 
ATOM     95  C   UNL     1     -22.252  -1.937   2.036  1.00  0.00     0.020 A 
ATOM     96  C   UNL     1     -22.824  -1.055   4.229  1.00  0.00     0.020 A 
ATOM     97  C   UNL     1     -23.204  -1.625   3.012  1.00  0.00     0.054 A 
BRANCH  97  98
ATOM     98  S   UNL     1     -24.946  -1.998   2.681  1.00  0.00     0.124 S 
ATOM     99  O   UNL     1     -25.298  -0.964   1.712  1.00  0.00    -0.237 OA
ATOM    100  O   UNL     1     -24.888  -3.360   2.155  1.00  0.00    -0.237 OA
ATOM    101  O   UNL     1     -25.583  -1.869   3.989  1.00  0.00    -0.744 OA
ENDBRANCH  97  98
ENDBRANCH  71  92
ENDBRANCH  45  46
ENDBRANCH  37  40
ENDBRANCH  35  36
ENDBRANCH  34  35
ENDBRANCH  33  34
ENDBRANCH  32  33
ENDBRANCH   3  32
TORSDOF 23
