REMARK SMILES Cc1ccc(C)c([C@@H](C)[C@](C)(O)C(=O)NCCCCNC(=O)c2ccc(-c3c4nc(c(-c5ccc(S(=O)(=O)[O-])cc5)c5ccc([nH]5)c(-c5ccc(S(=O)(=O)[O-])cc5)c5nc(c(-c6ccc(S(=O)(=O)[O-])cc6)c6ccc3[nH]6)C=C5)C=C4)cc2)c1
REMARK SMILES IDX 18 1 17 2 16 3 15 4 13 5 14 6 10 8 11 9 8 10 9 11 7 12 1 13
REMARK SMILES IDX 2 14 3 15 83 16 4 17 5 18 6 19 12 20 19 22 20 23 21 24 22 26
REMARK SMILES IDX 23 27 24 28 82 29 25 30 81 31 26 32 27 33 28 34 75 35 29 36
REMARK SMILES IDX 80 37 74 38 76 39 30 40 79 41 73 42 72 43 31 45 61 46 42 47
REMARK SMILES IDX 60 48 43 49 46 50 59 51 77 52 44 53 45 54 58 56 78 57 47 58
REMARK SMILES IDX 32 59 33 60 41 61 34 62 40 63 35 64 36 65 37 66 38 67 39 68
REMARK SMILES IDX 62 69 63 70 71 71 64 72 70 73 65 74 66 75 67 76 68 77 69 78
REMARK SMILES IDX 48 79 49 80 57 81 50 82 56 83 51 84 52 85 53 86 54 87 55 88
REMARK H PARENT 15 7 12 21 20 25 76 44 46 55
REMARK Flexibility Score: inf
ROOT
ATOM      1  C   UNL     1      -7.199   2.698   3.441  1.00  0.00     0.023 C 
ENDROOT
BRANCH   1   2
ATOM      2  C   UNL     1      -6.066   3.713   3.215  1.00  0.00     0.023 C 
BRANCH   2   3
ATOM      3  C   UNL     1      -4.669   3.131   2.992  1.00  0.00     0.116 C 
BRANCH   3   4
ATOM      4  N   UNL     1      -4.548   2.316   1.801  1.00  0.00    -0.354 N 
ATOM      5  C   UNL     1      -3.555   2.213   0.865  1.00  0.00     0.252 C 
ATOM      6  O   UNL     1      -3.758   1.367  -0.018  1.00  0.00    -0.272 OA
ATOM      7  H   UNL     1      -5.320   1.728   1.635  1.00  0.00     0.163 HD
BRANCH   5   8
ATOM      8  C   UNL     1      -2.236   3.091   0.867  1.00  0.00     0.146 C 
ATOM      9  C   UNL     1      -1.621   2.995  -0.543  1.00  0.00     0.053 C 
BRANCH   8  10
ATOM     10  C   UNL     1      -1.193   2.781   2.017  1.00  0.00     0.057 C 
ATOM     11  C   UNL     1       0.304   2.882   1.715  1.00  0.00     0.016 C 
BRANCH  10  12
ATOM     12  C   UNL     1      -1.509   1.542   2.828  1.00  0.00    -0.039 A 
ATOM     13  C   UNL     1      -3.428   1.451   6.042  1.00  0.00     0.044 C 
ATOM     14  C   UNL     1      -2.811   0.963   4.772  1.00  0.00    -0.051 A 
ATOM     15  C   UNL     1      -3.154  -0.240   4.150  1.00  0.00     0.004 A 
ATOM     16  C   UNL     1      -1.922   1.808   4.137  1.00  0.00     0.007 A 
ATOM     17  C   UNL     1      -2.535  -0.622   2.962  1.00  0.00     0.004 A 
ATOM     18  C   UNL     1      -1.679   0.256   2.292  1.00  0.00    -0.048 A 
ATOM     19  C   UNL     1      -0.962  -0.241   1.072  1.00  0.00     0.044 C 
ENDBRANCH  10  12
ENDBRANCH   8  10
BRANCH   8  20
ATOM     20  O   UNL     1      -2.632   4.479   1.004  1.00  0.00    -0.380 OA
ATOM     21  H   UNL     1      -3.274   4.702   0.311  1.00  0.00     0.212 HD
ENDBRANCH   8  20
ENDBRANCH   5   8
ENDBRANCH   3   4
ENDBRANCH   2   3
ENDBRANCH   1   2
BRANCH   1  22
ATOM     22  C   UNL     1      -7.090   1.769   4.657  1.00  0.00     0.116 C 
BRANCH  22  23
ATOM     23  N   UNL     1      -7.357   2.388   5.954  1.00  0.00    -0.352 N 
ATOM     24  C   UNL     1      -7.196   1.902   7.253  1.00  0.00     0.251 C 
ATOM     25  H   UNL     1      -7.711   3.305   5.903  1.00  0.00     0.163 HD
ATOM     26  O   UNL     1      -7.558   2.580   8.194  1.00  0.00    -0.269 OA
BRANCH  24  27
ATOM     27  C   UNL     1      -6.489   0.610   7.500  1.00  0.00     0.039 A 
ATOM     28  C   UNL     1      -5.529   0.527   8.528  1.00  0.00     0.014 A 
ATOM     29  C   UNL     1      -6.622  -0.448   6.618  1.00  0.00     0.014 A 
ATOM     30  C   UNL     1      -4.556  -0.493   8.516  1.00  0.00     0.010 A 
ATOM     31  C   UNL     1      -5.615  -1.397   6.559  1.00  0.00     0.010 A 
ATOM     32  C   UNL     1      -4.527  -1.395   7.455  1.00  0.00    -0.014 A 
BRANCH  32  33
ATOM     33  C   UNL     1      -3.515  -2.450   7.248  1.00  0.00     0.031 A 
ATOM     34  C   UNL     1      -4.049  -3.797   7.513  1.00  0.00     0.074 A 
ATOM     35  C   UNL     1      -2.265  -2.384   6.729  1.00  0.00     0.049 A 
ATOM     36  N   UNL     1      -3.987  -4.370   8.670  1.00  0.00    -0.248 NA
ATOM     37  C   UNL     1      -4.873  -4.504   6.526  1.00  0.00     0.031 C 
ATOM     38  C   UNL     1      -1.420  -1.234   6.433  1.00  0.00     0.029 A 
ATOM     39  N   UNL     1      -1.513  -3.417   6.225  1.00  0.00    -0.354 N 
ATOM     40  C   UNL     1      -4.531  -5.619   8.471  1.00  0.00     0.074 A 
ATOM     41  C   UNL     1      -5.336  -5.504   7.280  1.00  0.00     0.031 C 
ATOM     42  C   UNL     1      -0.430  -1.577   5.574  1.00  0.00     0.029 A 
ATOM     43  C   UNL     1      -0.463  -3.017   5.403  1.00  0.00     0.049 A 
ATOM     44  H   UNL     1      -1.700  -4.362   6.429  1.00  0.00     0.167 HD
ATOM     45  C   UNL     1      -4.002  -6.723   9.068  1.00  0.00     0.031 A 
ATOM     46  C   UNL     1       0.547  -3.756   4.876  1.00  0.00     0.031 A 
ATOM     47  C   UNL     1      -2.936  -6.377   9.987  1.00  0.00     0.049 A 
ATOM     48  C   UNL     1       0.774  -4.861   5.828  1.00  0.00     0.074 A 
ATOM     49  C   UNL     1      -2.812  -5.549  11.086  1.00  0.00     0.029 A 
ATOM     50  N   UNL     1      -1.649  -6.626   9.556  1.00  0.00    -0.354 N 
ATOM     51  N   UNL     1       1.286  -4.663   7.009  1.00  0.00    -0.248 NA
ATOM     52  C   UNL     1       0.047  -6.109   5.665  1.00  0.00     0.031 C 
ATOM     53  C   UNL     1      -1.495  -5.003  11.010  1.00  0.00     0.029 A 
ATOM     54  C   UNL     1      -0.855  -5.561   9.903  1.00  0.00     0.049 A 
ATOM     55  H   UNL     1      -1.350  -7.434   9.079  1.00  0.00     0.167 HD
ATOM     56  C   UNL     1       0.542  -5.480   7.843  1.00  0.00     0.074 A 
ATOM     57  C   UNL     1      -0.093  -6.446   6.951  1.00  0.00     0.031 C 
ATOM     58  C   UNL     1       0.293  -5.117   9.137  1.00  0.00     0.031 A 
BRANCH  45  59
ATOM     59  C   UNL     1      -4.152  -8.119   8.524  1.00  0.00    -0.014 A 
ATOM     60  C   UNL     1      -3.721  -9.199   9.316  1.00  0.00     0.010 A 
ATOM     61  C   UNL     1      -4.506  -8.406   7.190  1.00  0.00     0.010 A 
ATOM     62  C   UNL     1      -3.607 -10.488   8.784  1.00  0.00     0.020 A 
ATOM     63  C   UNL     1      -4.451  -9.695   6.664  1.00  0.00     0.020 A 
ATOM     64  C   UNL     1      -3.967 -10.723   7.456  1.00  0.00     0.054 A 
BRANCH  64  65
ATOM     65  S   UNL     1      -3.736 -12.367   6.746  1.00  0.00     0.124 S 
ATOM     66  O   UNL     1      -2.280 -12.462   6.689  1.00  0.00    -0.237 OA
ATOM     67  O   UNL     1      -4.393 -13.225   7.727  1.00  0.00    -0.237 OA
ATOM     68  O   UNL     1      -4.410 -12.278   5.452  1.00  0.00    -0.744 OA
ENDBRANCH  64  65
ENDBRANCH  45  59
BRANCH  46  69
ATOM     69  C   UNL     1       0.927  -3.829   3.442  1.00  0.00    -0.014 A 
ATOM     70  C   UNL     1       2.079  -4.521   3.025  1.00  0.00     0.010 A 
ATOM     71  C   UNL     1       0.036  -3.397   2.443  1.00  0.00     0.010 A 
ATOM     72  C   UNL     1       2.305  -4.805   1.665  1.00  0.00     0.020 A 
ATOM     73  C   UNL     1       0.254  -3.669   1.085  1.00  0.00     0.020 A 
ATOM     74  C   UNL     1       1.382  -4.388   0.703  1.00  0.00     0.054 A 
BRANCH  74  75
ATOM     75  S   UNL     1       1.616  -4.870  -1.034  1.00  0.00     0.124 S 
ATOM     76  O   UNL     1       2.821  -4.132  -1.404  1.00  0.00    -0.237 OA
ATOM     77  O   UNL     1       1.766  -6.319  -0.942  1.00  0.00    -0.237 OA
ATOM     78  O   UNL     1       0.389  -4.417  -1.687  1.00  0.00    -0.744 OA
ENDBRANCH  74  75
ENDBRANCH  46  69
BRANCH  58  79
ATOM     79  C   UNL     1       1.125  -3.995   9.729  1.00  0.00    -0.014 A 
ATOM     80  C   UNL     1       1.140  -2.681   9.219  1.00  0.00     0.010 A 
ATOM     81  C   UNL     1       1.834  -4.255  10.913  1.00  0.00     0.010 A 
ATOM     82  C   UNL     1       1.865  -1.664   9.859  1.00  0.00     0.020 A 
ATOM     83  C   UNL     1       2.546  -3.243  11.567  1.00  0.00     0.020 A 
ATOM     84  C   UNL     1       2.564  -1.953  11.033  1.00  0.00     0.054 A 
BRANCH  84  85
ATOM     85  S   UNL     1       3.459  -0.622  11.885  1.00  0.00     0.124 S 
ATOM     86  O   UNL     1       4.552  -0.331  10.961  1.00  0.00    -0.237 OA
ATOM     87  O   UNL     1       2.445   0.423  12.007  1.00  0.00    -0.237 OA
ATOM     88  O   UNL     1       3.865  -1.230  13.151  1.00  0.00    -0.744 OA
ENDBRANCH  84  85
ENDBRANCH  58  79
ENDBRANCH  32  33
ENDBRANCH  24  27
ENDBRANCH  22  23
ENDBRANCH   1  22
TORSDOF 17
