REMARK SMILES CC[C@H]1CC[C@](O)([C@H](F)C(=O)NCCCCNC(=O)c2ccc(-c3c4nc(c(-c5ccc(S(=O)(=O)[O-])cc5)c5ccc([nH]5)c(-c5ccc(S(=O)(=O)[O-])cc5)c5nc(c(-c6ccc(S(=O)(=O)[O-])cc6)c6ccc3[nH]6)C=C5)C=C4)cc2)CC1
REMARK SMILES IDX 15 1 14 2 13 3 12 4 10 5 11 6 8 8 9 9 6 10 3 11 4 12 81 13
REMARK SMILES IDX 5 14 80 15 2 16 1 17 7 18 16 20 17 21 18 22 19 24 20 25
REMARK SMILES IDX 21 26 79 27 22 28 78 29 23 30 24 31 25 32 72 33 26 34 77 35
REMARK SMILES IDX 71 36 73 37 27 38 76 39 70 40 69 41 28 43 58 44 39 45 57 46
REMARK SMILES IDX 40 47 43 48 56 49 74 50 41 51 42 52 55 54 75 55 44 56 29 57
REMARK SMILES IDX 30 58 38 59 31 60 37 61 32 62 33 63 34 64 35 65 36 66 59 67
REMARK SMILES IDX 60 68 68 69 61 70 67 71 62 72 63 73 64 74 65 75 66 76 45 77
REMARK SMILES IDX 46 78 54 79 47 80 53 81 48 82 49 83 50 84 51 85 52 86
REMARK H PARENT 12 7 7 19 17 23 73 42 43 53
REMARK Flexibility Score: inf
ROOT
ATOM      1  C   UNL     1       0.361   5.830   5.307  1.00  0.00     0.023 C 
ENDROOT
BRANCH   1   2
ATOM      2  C   UNL     1       0.440   4.579   4.431  1.00  0.00     0.023 C 
BRANCH   2   3
ATOM      3  C   UNL     1       1.463   4.674   3.310  1.00  0.00     0.116 C 
BRANCH   3   4
ATOM      4  N   UNL     1       2.823   4.757   3.809  1.00  0.00    -0.353 N 
ATOM      5  C   UNL     1       3.915   4.032   3.423  1.00  0.00     0.257 C 
ATOM      6  O   UNL     1       5.000   4.287   3.952  1.00  0.00    -0.272 OA
ATOM      7  H   UNL     1       2.979   5.422   4.518  1.00  0.00     0.163 HD
BRANCH   5   8
ATOM      8  C   UNL     1       3.793   2.973   2.332  1.00  0.00     0.286 C 
ATOM      9  F   UNL     1       2.673   2.204   2.533  1.00  0.00    -0.234 F 
BRANCH   8  10
ATOM     10  C   UNL     1       3.834   3.486   0.851  1.00  0.00     0.105 C 
ATOM     11  C   UNL     1       5.953   5.612   0.361  1.00  0.00    -0.011 C 
ATOM     12  C   UNL     1       6.293   4.154   0.703  1.00  0.00     0.006 C 
ATOM     13  C   UNL     1       4.584   5.981   0.959  1.00  0.00     0.006 C 
ATOM     14  C   UNL     1       5.214   3.188   0.226  1.00  0.00     0.039 C 
ATOM     15  C   UNL     1       3.490   4.973   0.590  1.00  0.00     0.039 C 
BRANCH  11  16
ATOM     16  C   UNL     1       5.976   5.939  -1.149  1.00  0.00    -0.000 C 
ATOM     17  C   UNL     1       7.186   5.405  -1.898  1.00  0.00     0.004 C 
ENDBRANCH  11  16
BRANCH  10  18
ATOM     18  O   UNL     1       2.876   2.703   0.099  1.00  0.00    -0.386 OA
ATOM     19  H   UNL     1       2.875   2.995  -0.827  1.00  0.00     0.211 HD
ENDBRANCH  10  18
ENDBRANCH   8  10
ENDBRANCH   5   8
ENDBRANCH   3   4
ENDBRANCH   2   3
ENDBRANCH   1   2
BRANCH   1  20
ATOM     20  C   UNL     1       0.200   7.145   4.549  1.00  0.00     0.116 C 
BRANCH  20  21
ATOM     21  N   UNL     1      -0.969   7.154   3.682  1.00  0.00    -0.352 N 
ATOM     22  C   UNL     1      -2.020   8.036   3.654  1.00  0.00     0.251 C 
ATOM     23  H   UNL     1      -1.011   6.425   3.022  1.00  0.00     0.163 HD
ATOM     24  O   UNL     1      -3.009   7.789   2.966  1.00  0.00    -0.269 OA
BRANCH  22  25
ATOM     25  C   UNL     1      -1.968   9.265   4.470  1.00  0.00     0.039 A 
ATOM     26  C   UNL     1      -3.083   9.617   5.232  1.00  0.00     0.014 A 
ATOM     27  C   UNL     1      -0.819  10.062   4.492  1.00  0.00     0.014 A 
ATOM     28  C   UNL     1      -3.026  10.741   6.058  1.00  0.00     0.010 A 
ATOM     29  C   UNL     1      -0.735  11.131   5.380  1.00  0.00     0.010 A 
ATOM     30  C   UNL     1      -1.841  11.490   6.164  1.00  0.00    -0.014 A 
BRANCH  30  31
ATOM     31  C   UNL     1      -1.758  12.656   7.082  1.00  0.00     0.031 A 
ATOM     32  C   UNL     1      -1.525  14.039   6.530  1.00  0.00     0.074 A 
ATOM     33  C   UNL     1      -1.861  12.466   8.413  1.00  0.00     0.049 A 
ATOM     34  N   UNL     1      -1.432  15.175   7.173  1.00  0.00    -0.248 NA
ATOM     35  C   UNL     1      -1.352  14.164   5.072  1.00  0.00     0.031 C 
ATOM     36  C   UNL     1      -2.041  11.171   9.075  1.00  0.00     0.029 A 
ATOM     37  N   UNL     1      -1.834  13.364   9.452  1.00  0.00    -0.354 N 
ATOM     38  C   UNL     1      -1.174  16.139   6.205  1.00  0.00     0.074 A 
ATOM     39  C   UNL     1      -1.077  15.453   4.937  1.00  0.00     0.031 C 
ATOM     40  C   UNL     1      -2.151  11.363  10.399  1.00  0.00     0.029 A 
ATOM     41  C   UNL     1      -2.005  12.785  10.689  1.00  0.00     0.049 A 
ATOM     42  H   UNL     1      -1.705  14.331   9.324  1.00  0.00     0.167 HD
ATOM     43  C   UNL     1      -1.049  17.479   6.356  1.00  0.00     0.031 A 
ATOM     44  C   UNL     1      -2.039  13.337  11.918  1.00  0.00     0.031 A 
ATOM     45  C   UNL     1      -1.174  18.162   7.615  1.00  0.00     0.049 A 
ATOM     46  C   UNL     1      -1.890  14.830  12.053  1.00  0.00     0.074 A 
ATOM     47  C   UNL     1      -1.142  19.524   7.857  1.00  0.00     0.029 A 
ATOM     48  N   UNL     1      -1.347  17.541   8.842  1.00  0.00    -0.354 N 
ATOM     49  N   UNL     1      -1.746  15.733  11.113  1.00  0.00    -0.248 NA
ATOM     50  C   UNL     1      -1.923  15.380  13.416  1.00  0.00     0.031 C 
ATOM     51  C   UNL     1      -1.228  19.724   9.238  1.00  0.00     0.029 A 
ATOM     52  C   UNL     1      -1.387  18.491   9.848  1.00  0.00     0.049 A 
ATOM     53  H   UNL     1      -1.429  16.569   8.977  1.00  0.00     0.167 HD
ATOM     54  C   UNL     1      -1.706  16.959  11.769  1.00  0.00     0.074 A 
ATOM     55  C   UNL     1      -1.862  16.683  13.182  1.00  0.00     0.031 C 
ATOM     56  C   UNL     1      -1.555  18.202  11.249  1.00  0.00     0.031 A 
BRANCH  43  57
ATOM     57  C   UNL     1      -0.760  18.308   5.132  1.00  0.00    -0.014 A 
ATOM     58  C   UNL     1      -1.736  18.512   4.141  1.00  0.00     0.010 A 
ATOM     59  C   UNL     1       0.478  18.969   5.020  1.00  0.00     0.010 A 
ATOM     60  C   UNL     1      -1.474  19.348   3.051  1.00  0.00     0.020 A 
ATOM     61  C   UNL     1       0.734  19.827   3.947  1.00  0.00     0.020 A 
ATOM     62  C   UNL     1      -0.243  20.005   2.965  1.00  0.00     0.054 A 
BRANCH  62  63
ATOM     63  S   UNL     1       0.042  21.136   1.576  1.00  0.00     0.124 S 
ATOM     64  O   UNL     1       0.155  20.210   0.452  1.00  0.00    -0.237 OA
ATOM     65  O   UNL     1      -1.161  21.965   1.588  1.00  0.00    -0.237 OA
ATOM     66  O   UNL     1       1.276  21.828   1.937  1.00  0.00    -0.744 OA
ENDBRANCH  62  63
ENDBRANCH  43  57
BRANCH  44  67
ATOM     67  C   UNL     1      -2.224  12.485  13.128  1.00  0.00    -0.014 A 
ATOM     68  C   UNL     1      -3.384  12.600  13.916  1.00  0.00     0.010 A 
ATOM     69  C   UNL     1      -1.220  11.583  13.523  1.00  0.00     0.010 A 
ATOM     70  C   UNL     1      -3.513  11.867  15.100  1.00  0.00     0.020 A 
ATOM     71  C   UNL     1      -1.361  10.821  14.686  1.00  0.00     0.020 A 
ATOM     72  C   UNL     1      -2.497  10.985  15.480  1.00  0.00     0.054 A 
BRANCH  72  73
ATOM     73  S   UNL     1      -2.684  10.045  17.020  1.00  0.00     0.124 S 
ATOM     74  O   UNL     1      -2.477  11.076  18.031  1.00  0.00    -0.237 OA
ATOM     75  O   UNL     1      -4.046   9.528  16.911  1.00  0.00    -0.237 OA
ATOM     76  O   UNL     1      -1.633   9.034  16.932  1.00  0.00    -0.744 OA
ENDBRANCH  72  73
ENDBRANCH  44  67
BRANCH  56  77
ATOM     77  C   UNL     1      -1.597  19.367  12.204  1.00  0.00    -0.014 A 
ATOM     78  C   UNL     1      -0.553  19.608  13.113  1.00  0.00     0.010 A 
ATOM     79  C   UNL     1      -2.677  20.267  12.146  1.00  0.00     0.010 A 
ATOM     80  C   UNL     1      -0.606  20.709  13.973  1.00  0.00     0.020 A 
ATOM     81  C   UNL     1      -2.717  21.387  12.979  1.00  0.00     0.020 A 
ATOM     82  C   UNL     1      -1.687  21.593  13.898  1.00  0.00     0.054 A 
BRANCH  82  83
ATOM     83  S   UNL     1      -1.709  23.037  14.994  1.00  0.00     0.124 S 
ATOM     84  O   UNL     1      -1.993  22.431  16.292  1.00  0.00    -0.237 OA
ATOM     85  O   UNL     1      -0.362  23.580  14.834  1.00  0.00    -0.237 OA
ATOM     86  O   UNL     1      -2.779  23.870  14.449  1.00  0.00    -0.744 OA
ENDBRANCH  82  83
ENDBRANCH  56  77
ENDBRANCH  30  31
ENDBRANCH  22  25
ENDBRANCH  20  21
ENDBRANCH   1  20
TORSDOF 17
