REMARK SMILES CC(C)[C@@H](ON1C(=O)c2ccccc2C1=O)C(=O)NCCCCNC(=O)c1ccc(-c2c3nc(c(-c4ccc(S(=O)(=O)[O-])cc4)c4ccc([nH]4)c(-c4ccc(S(=O)(=O)[O-])cc4)c4nc(c(-c5ccc(S(=O)(=O)[O-])cc5)c5ccc2[nH]5)C=C4)C=C3)cc1
REMARK SMILES IDX 22 1 21 2 20 3 19 4 17 5 18 6 4 8 2 9 1 10 3 11 5 12 6 13
REMARK SMILES IDX 7 14 15 15 8 16 9 17 14 18 16 19 10 20 13 21 11 22 12 23
REMARK SMILES IDX 23 24 24 25 25 26 26 28 27 29 28 30 86 31 29 32 85 33 30 34
REMARK SMILES IDX 31 35 32 36 79 37 33 38 84 39 78 40 80 41 34 42 83 43 77 44
REMARK SMILES IDX 76 45 35 47 65 48 46 49 64 50 47 51 50 52 63 53 81 54 48 55
REMARK SMILES IDX 49 56 62 58 82 59 51 60 36 61 37 62 45 63 38 64 44 65 39 66
REMARK SMILES IDX 40 67 41 68 42 69 43 70 66 71 67 72 75 73 68 74 74 75 69 76
REMARK SMILES IDX 70 77 71 78 72 79 73 80 52 81 53 82 61 83 54 84 60 85 55 86
REMARK SMILES IDX 56 87 57 88 58 89 59 90
REMARK H PARENT 19 7 24 27 80 46 50 57
REMARK Flexibility Score: inf
ROOT
ATOM      1  C   UNL     1       0.751   6.108   0.099  1.00  0.00     0.023 C 
ENDROOT
BRANCH   1   2
ATOM      2  C   UNL     1       0.957   4.656   0.527  1.00  0.00     0.023 C 
BRANCH   2   3
ATOM      3  C   UNL     1      -0.329   3.906   0.867  1.00  0.00     0.116 C 
BRANCH   3   4
ATOM      4  N   UNL     1      -1.147   3.675  -0.311  1.00  0.00    -0.354 N 
ATOM      5  C   UNL     1      -1.436   2.502  -0.954  1.00  0.00     0.252 C 
ATOM      6  O   UNL     1      -2.171   2.550  -1.944  1.00  0.00    -0.272 OA
ATOM      7  H   UNL     1      -1.554   4.481  -0.705  1.00  0.00     0.163 HD
BRANCH   5   8
ATOM      8  C   UNL     1      -0.821   1.170  -0.486  1.00  0.00     0.241 C 
BRANCH   8   9
ATOM      9  C   UNL     1       0.720   1.148  -0.722  1.00  0.00     0.024 C 
ATOM     10  C   UNL     1       1.387  -0.200  -0.421  1.00  0.00     0.011 C 
ATOM     11  C   UNL     1       1.060   1.510  -2.177  1.00  0.00     0.011 C 
ENDBRANCH   8   9
BRANCH   8  12
ATOM     12  O   UNL     1      -1.278   1.067   0.876  1.00  0.00    -0.249 OA
BRANCH  12  13
ATOM     13  N   UNL     1      -1.016  -0.176   1.429  1.00  0.00    -0.144 N 
ATOM     14  C   UNL     1      -1.633  -1.332   1.077  1.00  0.00     0.285 C 
ATOM     15  C   UNL     1      -0.177  -0.294   2.494  1.00  0.00     0.285 C 
ATOM     16  O   UNL     1      -2.494  -1.561   0.252  1.00  0.00    -0.266 OA
ATOM     17  C   UNL     1      -0.999  -2.361   1.903  1.00  0.00     0.055 A 
ATOM     18  C   UNL     1      -0.106  -1.730   2.757  1.00  0.00     0.055 A 
ATOM     19  O   UNL     1       0.452   0.547   3.109  1.00  0.00    -0.266 OA
ATOM     20  C   UNL     1      -1.112  -3.735   1.850  1.00  0.00     0.015 A 
ATOM     21  C   UNL     1       0.739  -2.436   3.588  1.00  0.00     0.015 A 
ATOM     22  C   UNL     1      -0.264  -4.473   2.681  1.00  0.00     0.001 A 
ATOM     23  C   UNL     1       0.656  -3.830   3.538  1.00  0.00     0.001 A 
ENDBRANCH  12  13
ENDBRANCH   8  12
ENDBRANCH   5   8
ENDBRANCH   3   4
ENDBRANCH   2   3
ENDBRANCH   1   2
BRANCH   1  24
ATOM     24  C   UNL     1      -0.005   6.975   1.100  1.00  0.00     0.116 C 
BRANCH  24  25
ATOM     25  N   UNL     1       0.636   7.023   2.407  1.00  0.00    -0.352 N 
ATOM     26  C   UNL     1       0.953   8.116   3.178  1.00  0.00     0.251 C 
ATOM     27  H   UNL     1       0.875   6.149   2.793  1.00  0.00     0.163 HD
ATOM     28  O   UNL     1       1.624   7.979   4.196  1.00  0.00    -0.269 OA
BRANCH  26  29
ATOM     29  C   UNL     1       0.512   9.460   2.751  1.00  0.00     0.039 A 
ATOM     30  C   UNL     1       1.446  10.499   2.726  1.00  0.00     0.014 A 
ATOM     31  C   UNL     1      -0.802   9.682   2.331  1.00  0.00     0.014 A 
ATOM     32  C   UNL     1       1.085  11.736   2.190  1.00  0.00     0.010 A 
ATOM     33  C   UNL     1      -1.139  10.891   1.730  1.00  0.00     0.010 A 
ATOM     34  C   UNL     1      -0.193  11.924   1.636  1.00  0.00    -0.014 A 
BRANCH  34  35
ATOM     35  C   UNL     1      -0.538  13.166   0.898  1.00  0.00     0.031 A 
ATOM     36  C   UNL     1      -1.631  14.071   1.392  1.00  0.00     0.074 A 
ATOM     37  C   UNL     1       0.087  13.434  -0.267  1.00  0.00     0.049 A 
ATOM     38  N   UNL     1      -2.114  15.155   0.840  1.00  0.00    -0.248 NA
ATOM     39  C   UNL     1      -2.280  13.701   2.660  1.00  0.00     0.031 C 
ATOM     40  C   UNL     1       1.142  12.614  -0.870  1.00  0.00     0.029 A 
ATOM     41  N   UNL     1      -0.080  14.464  -1.160  1.00  0.00    -0.354 N 
ATOM     42  C   UNL     1      -3.127  15.591   1.685  1.00  0.00     0.074 A 
ATOM     43  C   UNL     1      -3.221  14.629   2.761  1.00  0.00     0.031 C 
ATOM     44  C   UNL     1       1.544  13.186  -2.015  1.00  0.00     0.029 A 
ATOM     45  C   UNL     1       0.742  14.380  -2.260  1.00  0.00     0.049 A 
ATOM     46  H   UNL     1      -0.727  15.194  -1.025  1.00  0.00     0.167 HD
ATOM     47  C   UNL     1      -3.898  16.700   1.580  1.00  0.00     0.031 A 
ATOM     48  C   UNL     1       0.829  15.161  -3.354  1.00  0.00     0.031 A 
ATOM     49  C   UNL     1      -3.806  17.648   0.500  1.00  0.00     0.049 A 
ATOM     50  C   UNL     1      -0.077  16.355  -3.474  1.00  0.00     0.074 A 
ATOM     51  C   UNL     1      -4.507  18.830   0.332  1.00  0.00     0.029 A 
ATOM     52  N   UNL     1      -2.977  17.516  -0.604  1.00  0.00    -0.354 N 
ATOM     53  N   UNL     1      -0.972  16.797  -2.623  1.00  0.00    -0.248 NA
ATOM     54  C   UNL     1       0.038  17.156  -4.701  1.00  0.00     0.031 C 
ATOM     55  C   UNL     1      -4.153  19.374  -0.907  1.00  0.00     0.029 A 
ATOM     56  C   UNL     1      -3.181  18.570  -1.480  1.00  0.00     0.049 A 
ATOM     57  H   UNL     1      -2.337  16.781  -0.745  1.00  0.00     0.167 HD
ATOM     58  C   UNL     1      -1.518  17.935  -3.207  1.00  0.00     0.074 A 
ATOM     59  C   UNL     1      -0.834  18.128  -4.468  1.00  0.00     0.031 C 
ATOM     60  C   UNL     1      -2.503  18.743  -2.741  1.00  0.00     0.031 A 
BRANCH  47  61
ATOM     61  C   UNL     1      -4.926  16.940   2.657  1.00  0.00    -0.014 A 
ATOM     62  C   UNL     1      -4.543  17.267   3.971  1.00  0.00     0.010 A 
ATOM     63  C   UNL     1      -6.296  16.879   2.342  1.00  0.00     0.010 A 
ATOM     64  C   UNL     1      -5.509  17.483   4.958  1.00  0.00     0.020 A 
ATOM     65  C   UNL     1      -7.266  17.126   3.318  1.00  0.00     0.020 A 
ATOM     66  C   UNL     1      -6.865  17.409   4.625  1.00  0.00     0.054 A 
BRANCH  66  67
ATOM     67  S   UNL     1      -8.094  17.710   5.925  1.00  0.00     0.124 S 
ATOM     68  O   UNL     1      -7.950  16.518   6.758  1.00  0.00    -0.237 OA
ATOM     69  O   UNL     1      -7.624  18.956   6.526  1.00  0.00    -0.237 OA
ATOM     70  O   UNL     1      -9.355  17.809   5.195  1.00  0.00    -0.744 OA
ENDBRANCH  66  67
ENDBRANCH  47  61
BRANCH  48  71
ATOM     71  C   UNL     1       1.808  14.830  -4.426  1.00  0.00    -0.014 A 
ATOM     72  C   UNL     1       2.921  15.656  -4.657  1.00  0.00     0.010 A 
ATOM     73  C   UNL     1       1.643  13.673  -5.210  1.00  0.00     0.010 A 
ATOM     74  C   UNL     1       3.845  15.338  -5.657  1.00  0.00     0.020 A 
ATOM     75  C   UNL     1       2.581  13.334  -6.190  1.00  0.00     0.020 A 
ATOM     76  C   UNL     1       3.672  14.174  -6.413  1.00  0.00     0.054 A 
BRANCH  76  77
ATOM     77  S   UNL     1       4.919  13.751  -7.661  1.00  0.00     0.124 S 
ATOM     78  O   UNL     1       4.678  14.760  -8.687  1.00  0.00    -0.237 OA
ATOM     79  O   UNL     1       6.168  13.890  -6.916  1.00  0.00    -0.237 OA
ATOM     80  O   UNL     1       4.576  12.381  -8.037  1.00  0.00    -0.744 OA
ENDBRANCH  76  77
ENDBRANCH  48  71
BRANCH  60  81
ATOM     81  C   UNL     1      -2.903  19.916  -3.598  1.00  0.00    -0.014 A 
ATOM     82  C   UNL     1      -3.619  19.726  -4.793  1.00  0.00     0.010 A 
ATOM     83  C   UNL     1      -2.622  21.226  -3.168  1.00  0.00     0.010 A 
ATOM     84  C   UNL     1      -4.031  20.825  -5.553  1.00  0.00     0.020 A 
ATOM     85  C   UNL     1      -3.059  22.328  -3.909  1.00  0.00     0.020 A 
ATOM     86  C   UNL     1      -3.754  22.119  -5.102  1.00  0.00     0.054 A 
BRANCH  86  87
ATOM     87  S   UNL     1      -4.361  23.526  -6.073  1.00  0.00     0.124 S 
ATOM     88  O   UNL     1      -3.510  23.467  -7.259  1.00  0.00    -0.237 OA
ATOM     89  O   UNL     1      -5.764  23.182  -6.289  1.00  0.00    -0.237 OA
ATOM     90  O   UNL     1      -4.133  24.675  -5.200  1.00  0.00    -0.744 OA
ENDBRANCH  86  87
ENDBRANCH  60  81
ENDBRANCH  34  35
ENDBRANCH  26  29
ENDBRANCH  24  25
ENDBRANCH   1  24
TORSDOF 17
