REMARK SMILES Nc1nc(N)nc(N/C=C/C(=O)NCCCCNC(=O)c2ccc(-c3c4nc(c(-c5ccc(S(=O)(=O)[O-])cc5)c5ccc([nH]5)c(-c5ccc(S(=O)(=O)[O-])cc5)c5nc(c(-c6ccc(S(=O)(=O)[O-])cc6)c6ccc3[nH]6)C=C5)C=C4)cc2)n1
REMARK SMILES IDX 15 1 14 2 13 3 11 4 12 5 10 7 9 8 8 9 7 11 2 12 3 13 81 14
REMARK SMILES IDX 4 15 6 16 1 17 5 20 16 23 17 24 18 25 19 26 20 28 21 29
REMARK SMILES IDX 22 30 80 31 23 32 79 33 24 34 25 35 26 36 73 37 27 38 78 39
REMARK SMILES IDX 72 40 74 41 28 42 77 43 71 44 70 45 29 47 59 48 40 49 58 50
REMARK SMILES IDX 41 51 44 52 57 53 75 54 42 55 43 56 56 58 76 59 45 60 30 61
REMARK SMILES IDX 31 62 39 63 32 64 38 65 33 66 34 67 35 68 36 69 37 70 60 71
REMARK SMILES IDX 61 72 69 73 62 74 68 75 63 76 64 77 65 78 66 79 67 80 46 81
REMARK SMILES IDX 47 82 55 83 48 84 54 85 49 86 50 87 51 88 52 89 53 90
REMARK H PARENT 13 6 8 10 1 18 1 19 5 21 5 22 18 27 74 46 44 57
REMARK Flexibility Score: inf
ROOT
ATOM      1  C   UNL     1       4.416   3.297  -1.047  1.00  0.00     0.023 C 
ENDROOT
BRANCH   1   2
ATOM      2  C   UNL     1       3.985   3.993   0.246  1.00  0.00     0.116 C 
BRANCH   2   3
ATOM      3  N   UNL     1       3.541   5.353  -0.013  1.00  0.00    -0.353 N 
ATOM      4  C   UNL     1       2.296   5.895  -0.086  1.00  0.00     0.245 C 
ATOM      5  O   UNL     1       2.175   7.111  -0.229  1.00  0.00    -0.270 OA
ATOM      6  H   UNL     1       4.272   5.996  -0.164  1.00  0.00     0.163 HD
BRANCH   4   7
ATOM      7  C   UNL     1       1.070   5.080   0.094  1.00  0.00     0.089 C 
ATOM      8  C   UNL     1       0.899   3.828  -0.338  1.00  0.00     0.091 C 
BRANCH   8   9
ATOM      9  N   UNL     1      -0.191   3.017  -0.176  1.00  0.00    -0.330 N 
ATOM     10  H   UNL     1      -1.063   3.454  -0.046  1.00  0.00     0.169 HD
BRANCH   9  11
ATOM     11  C   UNL     1      -0.170   1.620  -0.180  1.00  0.00     0.233 A 
ATOM     12  C   UNL     1      -1.284  -0.310  -0.002  1.00  0.00     0.226 A 
ATOM     13  N   UNL     1      -0.176  -1.030  -0.032  1.00  0.00    -0.177 NA
ATOM     14  N   UNL     1      -1.342   1.011  -0.052  1.00  0.00    -0.177 NA
ATOM     15  C   UNL     1       0.939  -0.331  -0.146  1.00  0.00     0.226 A 
ATOM     16  N   UNL     1       0.997   0.984  -0.242  1.00  0.00    -0.177 NA
BRANCH  12  17
ATOM     17  N   UNL     1      -2.468  -0.988   0.086  1.00  0.00    -0.368 N 
ATOM     18  H   UNL     1      -2.469  -1.972   0.125  1.00  0.00     0.159 HD
ATOM     19  H   UNL     1      -3.318  -0.493   0.109  1.00  0.00     0.159 HD
ENDBRANCH  12  17
BRANCH  15  20
ATOM     20  N   UNL     1       2.120  -1.016  -0.141  1.00  0.00    -0.368 N 
ATOM     21  H   UNL     1       2.120  -1.998  -0.070  1.00  0.00     0.159 HD
ATOM     22  H   UNL     1       2.973  -0.527  -0.208  1.00  0.00     0.159 HD
ENDBRANCH  15  20
ENDBRANCH   9  11
ENDBRANCH   8   9
ENDBRANCH   4   7
ENDBRANCH   2   3
ENDBRANCH   1   2
BRANCH   1  23
ATOM     23  C   UNL     1       5.824   3.668  -1.524  1.00  0.00     0.023 C 
BRANCH  23  24
ATOM     24  C   UNL     1       6.954   3.265  -0.581  1.00  0.00     0.116 C 
BRANCH  24  25
ATOM     25  N   UNL     1       6.991   1.837  -0.304  1.00  0.00    -0.352 N 
ATOM     26  C   UNL     1       8.083   1.039  -0.053  1.00  0.00     0.251 C 
ATOM     27  H   UNL     1       6.118   1.382  -0.294  1.00  0.00     0.163 HD
ATOM     28  O   UNL     1       7.946  -0.172   0.060  1.00  0.00    -0.269 OA
BRANCH  26  29
ATOM     29  C   UNL     1       9.425   1.655   0.036  1.00  0.00     0.039 A 
ATOM     30  C   UNL     1      10.470   1.100  -0.707  1.00  0.00     0.014 A 
ATOM     31  C   UNL     1       9.642   2.791   0.821  1.00  0.00     0.014 A 
ATOM     32  C   UNL     1      11.718   1.728  -0.718  1.00  0.00     0.010 A 
ATOM     33  C   UNL     1      10.866   3.450   0.758  1.00  0.00     0.010 A 
ATOM     34  C   UNL     1      11.915   2.928  -0.015  1.00  0.00    -0.014 A 
BRANCH  34  35
ATOM     35  C   UNL     1      13.203   3.662  -0.088  1.00  0.00     0.031 A 
ATOM     36  C   UNL     1      14.052   3.828   1.142  1.00  0.00     0.074 A 
ATOM     37  C   UNL     1      13.572   4.243  -1.247  1.00  0.00     0.049 A 
ATOM     38  N   UNL     1      15.174   4.484   1.286  1.00  0.00    -0.248 NA
ATOM     39  C   UNL     1      13.561   3.196   2.377  1.00  0.00     0.031 C 
ATOM     40  C   UNL     1      12.814   4.193  -2.499  1.00  0.00     0.029 A 
ATOM     41  N   UNL     1      14.675   4.997  -1.557  1.00  0.00    -0.354 N 
ATOM     42  C   UNL     1      15.514   4.362   2.628  1.00  0.00     0.074 A 
ATOM     43  C   UNL     1      14.455   3.608   3.264  1.00  0.00     0.031 C 
ATOM     44  C   UNL     1      13.488   4.864  -3.448  1.00  0.00     0.029 A 
ATOM     45  C   UNL     1      14.704   5.421  -2.865  1.00  0.00     0.049 A 
ATOM     46  H   UNL     1      15.380   5.214  -0.905  1.00  0.00     0.167 HD
ATOM     47  C   UNL     1      16.615   4.821   3.271  1.00  0.00     0.031 A 
ATOM     48  C   UNL     1      15.606   6.176  -3.522  1.00  0.00     0.031 A 
ATOM     49  C   UNL     1      17.671   5.562   2.634  1.00  0.00     0.049 A 
ATOM     50  C   UNL     1      16.821   6.672  -2.790  1.00  0.00     0.074 A 
ATOM     51  C   UNL     1      18.855   6.018   3.185  1.00  0.00     0.029 A 
ATOM     52  N   UNL     1      17.668   5.959   1.305  1.00  0.00    -0.354 N 
ATOM     53  N   UNL     1      17.158   6.489  -1.536  1.00  0.00    -0.248 NA
ATOM     54  C   UNL     1      17.782   7.468  -3.565  1.00  0.00     0.031 C 
ATOM     55  C   UNL     1      19.549   6.730   2.200  1.00  0.00     0.029 A 
ATOM     56  C   UNL     1      18.820   6.674   1.022  1.00  0.00     0.049 A 
ATOM     57  H   UNL     1      16.953   5.763   0.658  1.00  0.00     0.167 HD
ATOM     58  C   UNL     1      18.383   7.127  -1.377  1.00  0.00     0.074 A 
ATOM     59  C   UNL     1      18.732   7.690  -2.666  1.00  0.00     0.031 C 
ATOM     60  C   UNL     1      19.151   7.233  -0.264  1.00  0.00     0.031 A 
BRANCH  47  61
ATOM     61  C   UNL     1      16.718   4.538   4.746  1.00  0.00    -0.014 A 
ATOM     62  C   UNL     1      16.941   3.232   5.221  1.00  0.00     0.010 A 
ATOM     63  C   UNL     1      16.599   5.591   5.671  1.00  0.00     0.010 A 
ATOM     64  C   UNL     1      16.985   2.976   6.594  1.00  0.00     0.020 A 
ATOM     65  C   UNL     1      16.671   5.343   7.045  1.00  0.00     0.020 A 
ATOM     66  C   UNL     1      16.840   4.032   7.497  1.00  0.00     0.054 A 
BRANCH  66  67
ATOM     67  S   UNL     1      16.892   3.672   9.274  1.00  0.00     0.124 S 
ATOM     68  O   UNL     1      15.577   3.078   9.498  1.00  0.00    -0.237 OA
ATOM     69  O   UNL     1      18.023   2.754   9.385  1.00  0.00    -0.237 OA
ATOM     70  O   UNL     1      17.096   4.983   9.887  1.00  0.00    -0.744 OA
ENDBRANCH  66  67
ENDBRANCH  47  61
BRANCH  48  71
ATOM     71  C   UNL     1      15.403   6.478  -4.964  1.00  0.00    -0.014 A 
ATOM     72  C   UNL     1      16.189   5.839  -5.939  1.00  0.00     0.010 A 
ATOM     73  C   UNL     1      14.400   7.376  -5.373  1.00  0.00     0.010 A 
ATOM     74  C   UNL     1      15.982   6.097  -7.296  1.00  0.00     0.020 A 
ATOM     75  C   UNL     1      14.175   7.619  -6.731  1.00  0.00     0.020 A 
ATOM     76  C   UNL     1      14.973   6.983  -7.684  1.00  0.00     0.054 A 
BRANCH  76  77
ATOM     77  S   UNL     1      14.674   7.247  -9.455  1.00  0.00     0.124 S 
ATOM     78  O   UNL     1      15.799   8.098  -9.829  1.00  0.00    -0.237 OA
ATOM     79  O   UNL     1      14.704   5.886  -9.987  1.00  0.00    -0.237 OA
ATOM     80  O   UNL     1      13.362   7.890  -9.487  1.00  0.00    -0.744 OA
ENDBRANCH  76  77
ENDBRANCH  48  71
BRANCH  60  81
ATOM     81  C   UNL     1      20.460   7.964  -0.395  1.00  0.00    -0.014 A 
ATOM     82  C   UNL     1      20.502   9.365  -0.510  1.00  0.00     0.010 A 
ATOM     83  C   UNL     1      21.666   7.241  -0.347  1.00  0.00     0.010 A 
ATOM     84  C   UNL     1      21.729  10.027  -0.603  1.00  0.00     0.020 A 
ATOM     85  C   UNL     1      22.894   7.903  -0.415  1.00  0.00     0.020 A 
ATOM     86  C   UNL     1      22.918   9.292  -0.556  1.00  0.00     0.054 A 
BRANCH  86  87
ATOM     87  S   UNL     1      24.499  10.178  -0.632  1.00  0.00     0.124 S 
ATOM     88  O   UNL     1      24.585  10.525  -2.047  1.00  0.00    -0.237 OA
ATOM     89  O   UNL     1      24.284  11.299   0.279  1.00  0.00    -0.237 OA
ATOM     90  O   UNL     1      25.472   9.189  -0.172  1.00  0.00    -0.744 OA
ENDBRANCH  86  87
ENDBRANCH  60  81
ENDBRANCH  34  35
ENDBRANCH  26  29
ENDBRANCH  24  25
ENDBRANCH  23  24
ENDBRANCH   1  23
TORSDOF 18
