REMARK SMILES COc1ccc(-n2c(=S)[nH]cc(CC(=O)NCCCCNC(=O)c3ccc(-c4c5nc(c(-c6ccc(S(=O)(=O)[O-])cc6)c6ccc([nH]6)c(-c6ccc(S(=O)(=O)[O-])cc6)c6nc(c(-c7ccc(S(=O)(=O)[O-])cc7)c7ccc4[nH]7)C=C6)C=C5)cc3)c2=O)cc1Cl
REMARK SMILES IDX 18 1 17 2 16 3 14 4 15 5 13 7 12 8 7 9 8 10 84 11 9 12 10 13
REMARK SMILES IDX 85 14 11 15 6 17 3 18 4 19 87 20 5 21 86 22 88 23 2 24 1 25
REMARK SMILES IDX 19 26 20 27 21 28 22 29 23 31 24 32 25 33 83 34 26 35 82 36
REMARK SMILES IDX 27 37 28 38 29 39 76 40 30 41 81 42 75 43 77 44 31 45 80 46
REMARK SMILES IDX 74 47 73 48 32 50 62 51 43 52 61 53 44 54 47 55 60 56 78 57
REMARK SMILES IDX 45 58 46 59 59 61 79 62 48 63 33 64 34 65 42 66 35 67 41 68
REMARK SMILES IDX 36 69 37 70 38 71 39 72 40 73 63 74 64 75 72 76 65 77 71 78
REMARK SMILES IDX 66 79 67 80 68 81 69 82 70 83 49 84 50 85 58 86 51 87 57 88
REMARK SMILES IDX 52 89 53 90 54 91 55 92 56 93
REMARK H PARENT 16 6 10 16 21 30 77 49 47 60
REMARK Flexibility Score: inf
ROOT
ATOM      1  C   UNL     1       3.676   0.169   8.051  1.00  0.00     0.023 C 
ENDROOT
BRANCH   1   2
ATOM      2  C   UNL     1       2.440  -0.246   8.853  1.00  0.00     0.116 C 
BRANCH   2   3
ATOM      3  N   UNL     1       2.307   0.512  10.084  1.00  0.00    -0.356 N 
ATOM      4  C   UNL     1       1.528   1.604  10.341  1.00  0.00     0.224 C 
ATOM      5  O   UNL     1       1.624   2.160  11.436  1.00  0.00    -0.275 OA
ATOM      6  H   UNL     1       2.855   0.195  10.838  1.00  0.00     0.163 HD
BRANCH   4   7
ATOM      7  C   UNL     1       0.574   2.126   9.276  1.00  0.00     0.142 C 
BRANCH   7   8
ATOM      8  C   UNL     1       1.316   2.810   8.163  1.00  0.00     0.043 A 
ATOM      9  N   UNL     1       1.823   2.915   5.746  1.00  0.00    -0.253 N 
ATOM     10  C   UNL     1       2.818   3.877   6.002  1.00  0.00     0.184 A 
ATOM     11  C   UNL     1       1.009   2.392   6.764  1.00  0.00     0.262 A 
ATOM     12  S   UNL     1       3.774   4.724   4.908  1.00  0.00    -0.040 S 
ATOM     13  N   UNL     1       2.990   4.224   7.320  1.00  0.00    -0.338 N 
ATOM     14  O   UNL     1       0.099   1.579   6.590  1.00  0.00    -0.269 OA
ATOM     15  C   UNL     1       2.278   3.715   8.358  1.00  0.00     0.095 A 
ATOM     16  H   UNL     1       3.683   4.892   7.527  1.00  0.00     0.168 HD
BRANCH   9  17
ATOM     17  C   UNL     1       1.567   2.446   4.407  1.00  0.00     0.053 A 
ATOM     18  C   UNL     1       1.058   1.639   1.754  1.00  0.00     0.137 A 
ATOM     19  C   UNL     1       0.021   2.117   2.556  1.00  0.00     0.050 A 
ATOM     20  C   UNL     1       2.352   1.553   2.278  1.00  0.00     0.085 A 
ATOM     21  C   UNL     1       0.270   2.501   3.877  1.00  0.00     0.031 A 
ATOM     22  C   UNL     1       2.598   1.938   3.603  1.00  0.00     0.051 A 
ATOM     23  Cl  UNL     1       3.699   1.035   1.332  1.00  0.00    -0.080 Cl
BRANCH  18  24
ATOM     24  O   UNL     1       0.736   1.388   0.446  1.00  0.00    -0.495 OA
ATOM     25  C   UNL     1       0.824   0.004   0.112  1.00  0.00     0.278 C 
ENDBRANCH  18  24
ENDBRANCH   9  17
ENDBRANCH   7   8
ENDBRANCH   4   7
ENDBRANCH   2   3
ENDBRANCH   1   2
BRANCH   1  26
ATOM     26  C   UNL     1       5.016  -0.132   8.726  1.00  0.00     0.023 C 
BRANCH  26  27
ATOM     27  C   UNL     1       5.264  -1.599   9.050  1.00  0.00     0.116 C 
BRANCH  27  28
ATOM     28  N   UNL     1       5.248  -2.462   7.879  1.00  0.00    -0.352 N 
ATOM     29  C   UNL     1       6.031  -3.563   7.615  1.00  0.00     0.251 C 
ATOM     30  H   UNL     1       4.590  -2.228   7.184  1.00  0.00     0.163 HD
ATOM     31  O   UNL     1       5.956  -4.127   6.527  1.00  0.00    -0.269 OA
BRANCH  29  32
ATOM     32  C   UNL     1       6.998  -4.027   8.634  1.00  0.00     0.039 A 
ATOM     33  C   UNL     1       6.615  -4.155   9.971  1.00  0.00     0.014 A 
ATOM     34  C   UNL     1       8.318  -4.281   8.253  1.00  0.00     0.014 A 
ATOM     35  C   UNL     1       7.583  -4.367  10.945  1.00  0.00     0.010 A 
ATOM     36  C   UNL     1       9.276  -4.575   9.228  1.00  0.00     0.010 A 
ATOM     37  C   UNL     1       8.927  -4.567  10.588  1.00  0.00    -0.014 A 
BRANCH  37  38
ATOM     38  C   UNL     1       9.945  -4.754  11.654  1.00  0.00     0.031 A 
ATOM     39  C   UNL     1      11.030  -3.732  11.872  1.00  0.00     0.074 A 
ATOM     40  C   UNL     1       9.851  -5.821  12.472  1.00  0.00     0.049 A 
ATOM     41  N   UNL     1      11.971  -3.720  12.781  1.00  0.00    -0.248 NA
ATOM     42  C   UNL     1      11.067  -2.577  10.960  1.00  0.00     0.031 C 
ATOM     43  C   UNL     1       8.833  -6.869  12.370  1.00  0.00     0.029 A 
ATOM     44  N   UNL     1      10.596  -6.185  13.566  1.00  0.00    -0.354 N 
ATOM     45  C   UNL     1      12.719  -2.573  12.542  1.00  0.00     0.074 A 
ATOM     46  C   UNL     1      12.140  -1.924  11.388  1.00  0.00     0.031 C 
ATOM     47  C   UNL     1       8.982  -7.725  13.392  1.00  0.00     0.029 A 
ATOM     48  C   UNL     1      10.141  -7.325  14.185  1.00  0.00     0.049 A 
ATOM     49  H   UNL     1      11.381  -5.679  13.877  1.00  0.00     0.167 HD
ATOM     50  C   UNL     1      13.783  -2.099  13.232  1.00  0.00     0.031 A 
ATOM     51  C   UNL     1      10.602  -7.987  15.265  1.00  0.00     0.031 A 
ATOM     52  C   UNL     1      14.343  -2.737  14.395  1.00  0.00     0.049 A 
ATOM     53  C   UNL     1      11.802  -7.458  15.995  1.00  0.00     0.074 A 
ATOM     54  C   UNL     1      15.408  -2.312  15.171  1.00  0.00     0.029 A 
ATOM     55  N   UNL     1      13.887  -3.921  14.953  1.00  0.00    -0.354 N 
ATOM     56  N   UNL     1      12.490  -6.368  15.753  1.00  0.00    -0.248 NA
ATOM     57  C   UNL     1      12.290  -8.242  17.137  1.00  0.00     0.031 C 
ATOM     58  C   UNL     1      15.630  -3.267  16.166  1.00  0.00     0.029 A 
ATOM     59  C   UNL     1      14.666  -4.255  16.048  1.00  0.00     0.049 A 
ATOM     60  H   UNL     1      13.123  -4.446  14.621  1.00  0.00     0.167 HD
ATOM     61  C   UNL     1      13.494  -6.335  16.714  1.00  0.00     0.074 A 
ATOM     62  C   UNL     1      13.309  -7.499  17.555  1.00  0.00     0.031 C 
ATOM     63  C   UNL     1      14.481  -5.421  16.875  1.00  0.00     0.031 A 
BRANCH  50  64
ATOM     64  C   UNL     1      14.432  -0.823  12.765  1.00  0.00    -0.014 A 
ATOM     65  C   UNL     1      15.725  -0.861  12.211  1.00  0.00     0.010 A 
ATOM     66  C   UNL     1      13.823   0.423  12.996  1.00  0.00     0.010 A 
ATOM     67  C   UNL     1      16.412   0.322  11.927  1.00  0.00     0.020 A 
ATOM     68  C   UNL     1      14.498   1.609  12.692  1.00  0.00     0.020 A 
ATOM     69  C   UNL     1      15.797   1.551  12.181  1.00  0.00     0.054 A 
BRANCH  69  70
ATOM     70  S   UNL     1      16.714   3.079  11.838  1.00  0.00     0.124 S 
ATOM     71  O   UNL     1      17.625   3.154  12.975  1.00  0.00    -0.237 OA
ATOM     72  O   UNL     1      17.336   2.796  10.546  1.00  0.00    -0.237 OA
ATOM     73  O   UNL     1      15.669   4.100  11.803  1.00  0.00    -0.744 OA
ENDBRANCH  69  70
ENDBRANCH  50  64
BRANCH  51  74
ATOM     74  C   UNL     1       9.898  -9.222  15.705  1.00  0.00    -0.014 A 
ATOM     75  C   UNL     1       9.937 -10.380  14.905  1.00  0.00     0.010 A 
ATOM     76  C   UNL     1       9.103  -9.215  16.863  1.00  0.00     0.010 A 
ATOM     77  C   UNL     1       9.144 -11.485  15.219  1.00  0.00     0.020 A 
ATOM     78  C   UNL     1       8.330 -10.332  17.197  1.00  0.00     0.020 A 
ATOM     79  C   UNL     1       8.331 -11.447  16.354  1.00  0.00     0.054 A 
BRANCH  79  80
ATOM     80  S   UNL     1       7.259 -12.866  16.710  1.00  0.00     0.124 S 
ATOM     81  O   UNL     1       6.144 -12.633  15.796  1.00  0.00    -0.237 OA
ATOM     82  O   UNL     1       8.113 -14.005  16.383  1.00  0.00    -0.237 OA
ATOM     83  O   UNL     1       6.950 -12.710  18.129  1.00  0.00    -0.744 OA
ENDBRANCH  79  80
ENDBRANCH  51  74
BRANCH  63  84
ATOM     84  C   UNL     1      15.465  -5.629  17.994  1.00  0.00    -0.014 A 
ATOM     85  C   UNL     1      15.463  -4.755  19.097  1.00  0.00     0.010 A 
ATOM     86  C   UNL     1      16.477  -6.598  17.887  1.00  0.00     0.010 A 
ATOM     87  C   UNL     1      16.476  -4.823  20.056  1.00  0.00     0.020 A 
ATOM     88  C   UNL     1      17.479  -6.685  18.857  1.00  0.00     0.020 A 
ATOM     89  C   UNL     1      17.486  -5.780  19.922  1.00  0.00     0.054 A 
BRANCH  89  90
ATOM     90  S   UNL     1      18.816  -5.830  21.154  1.00  0.00     0.124 S 
ATOM     91  O   UNL     1      19.668  -4.722  20.733  1.00  0.00    -0.237 OA
ATOM     92  O   UNL     1      18.099  -5.630  22.412  1.00  0.00    -0.237 OA
ATOM     93  O   UNL     1      19.392  -7.162  20.981  1.00  0.00    -0.744 OA
ENDBRANCH  89  90
ENDBRANCH  63  84
ENDBRANCH  37  38
ENDBRANCH  29  32
ENDBRANCH  27  28
ENDBRANCH  26  27
ENDBRANCH   1  26
TORSDOF 17
