REMARK SMILES C[NH+]1CCN(c2nc3c(cc2F)c(=O)c(C(=O)NCCCCNC(=O)c2ccc(-c4c5nc(c(-c6ccc(S(=O)(=O)[O-])cc6)c6ccc([nH]6)c(-c6ccc(S(=O)(=O)[O-])cc6)c6nc(c(-c7ccc(S(=O)(=O)[O-])cc7)c7ccc4[nH]7)C=C6)C=C5)cc2)cn3-c2ccc(F)cc2F)CC1
REMARK SMILES IDX 21 1 20 2 19 3 18 4 16 5 17 6 15 8 6 9 7 10 11 11 8 12 10 13
REMARK SMILES IDX 12 14 9 15 87 16 13 17 86 18 14 19 5 20 1 21 2 22 3 23 97 24
REMARK SMILES IDX 4 26 96 27 88 28 89 29 94 30 90 31 93 32 95 33 91 34 92 35
REMARK SMILES IDX 22 36 23 37 24 38 25 40 26 41 27 42 85 43 28 44 84 45 29 46
REMARK SMILES IDX 30 47 31 48 78 49 32 50 83 51 77 52 79 53 33 54 82 55 76 56
REMARK SMILES IDX 75 57 34 59 64 60 45 61 63 62 46 63 49 64 62 65 80 66 47 67
REMARK SMILES IDX 48 68 61 70 81 71 50 72 35 73 36 74 44 75 37 76 43 77 38 78
REMARK SMILES IDX 39 79 40 80 41 81 42 82 65 83 66 84 74 85 67 86 73 87 68 88
REMARK SMILES IDX 69 89 70 90 71 91 72 92 51 93 52 94 60 95 53 96 59 97 54 98
REMARK SMILES IDX 55 99 56 100 57 101 58 102
REMARK H PARENT 18 7 2 25 23 39 79 58 49 69
REMARK Flexibility Score: inf
ROOT
ATOM      1  C   UNL     1      -9.355  -0.101   6.903  1.00  0.00     0.023 C 
ENDROOT
BRANCH   1   2
ATOM      2  C   UNL     1      -8.322  -0.235   5.788  1.00  0.00     0.023 C 
BRANCH   2   3
ATOM      3  C   UNL     1      -8.838  -0.896   4.507  1.00  0.00     0.116 C 
BRANCH   3   4
ATOM      4  N   UNL     1      -9.488   0.071   3.645  1.00  0.00    -0.352 N 
ATOM      5  C   UNL     1      -9.025   0.829   2.617  1.00  0.00     0.256 C 
ATOM      6  O   UNL     1      -9.853   1.558   2.060  1.00  0.00    -0.269 OA
ATOM      7  H   UNL     1     -10.443   0.204   3.842  1.00  0.00     0.163 HD
BRANCH   5   8
ATOM      8  C   UNL     1      -7.629   0.762   2.097  1.00  0.00     0.104 A 
ATOM      9  C   UNL     1      -2.867  -0.132   0.543  1.00  0.00     0.167 A 
ATOM     10  N   UNL     1      -3.923   0.534   0.009  1.00  0.00    -0.209 NA
ATOM     11  C   UNL     1      -2.957  -0.729   1.802  1.00  0.00     0.166 A 
ATOM     12  C   UNL     1      -5.093   0.611   0.696  1.00  0.00     0.151 A 
ATOM     13  C   UNL     1      -4.114  -0.599   2.545  1.00  0.00     0.059 A 
ATOM     14  F   UNL     1      -1.912  -1.374   2.343  1.00  0.00    -0.203 F 
ATOM     15  C   UNL     1      -5.187   0.090   1.984  1.00  0.00     0.069 A 
ATOM     16  N   UNL     1      -6.247   1.235   0.119  1.00  0.00    -0.297 N 
ATOM     17  C   UNL     1      -6.394   0.332   2.786  1.00  0.00     0.203 A 
ATOM     18  C   UNL     1      -7.439   1.212   0.843  1.00  0.00     0.111 A 
ATOM     19  O   UNL     1      -6.284   0.211   3.998  1.00  0.00    -0.288 OA
BRANCH   9  20
ATOM     20  N   UNL     1      -1.713  -0.161  -0.194  1.00  0.00    -0.343 N 
ATOM     21  C   UNL     1       2.509   0.148   0.140  1.00  0.00     0.332 C 
ATOM     22  N   UNL     1       1.164   0.014  -0.413  1.00  0.00    -0.334 N 
ATOM     23  C   UNL     1       0.336   1.201  -0.084  1.00  0.00     0.283 C 
ATOM     24  C   UNL     1       0.506  -1.203   0.120  1.00  0.00     0.283 C 
ATOM     25  H   UNL     1       1.248  -0.060  -1.427  1.00  0.00     0.347 HD
ATOM     26  C   UNL     1      -1.112   1.096  -0.631  1.00  0.00     0.179 C 
ATOM     27  C   UNL     1      -0.935  -1.377  -0.403  1.00  0.00     0.179 C 
ENDBRANCH   9  20
BRANCH  16  28
ATOM     28  C   UNL     1      -6.232   1.814  -1.188  1.00  0.00     0.083 A 
ATOM     29  C   UNL     1      -5.798   1.073  -2.301  1.00  0.00     0.033 A 
ATOM     30  C   UNL     1      -6.662   3.137  -1.405  1.00  0.00     0.150 A 
ATOM     31  C   UNL     1      -5.800   1.639  -3.579  1.00  0.00     0.041 A 
ATOM     32  C   UNL     1      -6.657   3.710  -2.672  1.00  0.00     0.080 A 
ATOM     33  F   UNL     1      -7.066   3.890  -0.370  1.00  0.00    -0.205 F 
ATOM     34  C   UNL     1      -6.226   2.951  -3.749  1.00  0.00     0.126 A 
ATOM     35  F   UNL     1      -6.218   3.491  -4.975  1.00  0.00    -0.207 F 
ENDBRANCH  16  28
ENDBRANCH   5   8
ENDBRANCH   3   4
ENDBRANCH   2   3
ENDBRANCH   1   2
BRANCH   1  36
ATOM     36  C   UNL     1      -9.842  -1.421   7.482  1.00  0.00     0.116 C 
BRANCH  36  37
ATOM     37  N   UNL     1      -8.773  -2.242   8.032  1.00  0.00    -0.352 N 
ATOM     38  C   UNL     1      -8.833  -3.072   9.126  1.00  0.00     0.251 C 
ATOM     39  H   UNL     1      -7.907  -2.197   7.566  1.00  0.00     0.163 HD
ATOM     40  O   UNL     1      -7.837  -3.659   9.533  1.00  0.00    -0.269 OA
BRANCH  38  41
ATOM     41  C   UNL     1     -10.124  -3.204   9.824  1.00  0.00     0.039 A 
ATOM     42  C   UNL     1     -10.205  -2.823  11.164  1.00  0.00     0.014 A 
ATOM     43  C   UNL     1     -11.261  -3.605   9.117  1.00  0.00     0.014 A 
ATOM     44  C   UNL     1     -11.451  -2.785  11.788  1.00  0.00     0.010 A 
ATOM     45  C   UNL     1     -12.508  -3.521   9.727  1.00  0.00     0.010 A 
ATOM     46  C   UNL     1     -12.611  -3.107  11.064  1.00  0.00    -0.014 A 
BRANCH  46  47
ATOM     47  C   UNL     1     -13.946  -3.039  11.698  1.00  0.00     0.031 A 
ATOM     48  C   UNL     1     -14.686  -4.310  11.998  1.00  0.00     0.074 A 
ATOM     49  C   UNL     1     -14.507  -1.843  11.955  1.00  0.00     0.049 A 
ATOM     50  N   UNL     1     -15.876  -4.465  12.513  1.00  0.00    -0.248 NA
ATOM     51  C   UNL     1     -14.006  -5.571  11.656  1.00  0.00     0.031 C 
ATOM     52  C   UNL     1     -13.894  -0.540  11.682  1.00  0.00     0.029 A 
ATOM     53  N   UNL     1     -15.725  -1.529  12.504  1.00  0.00    -0.354 N 
ATOM     54  C   UNL     1     -16.096  -5.835  12.543  1.00  0.00     0.074 A 
ATOM     55  C   UNL     1     -14.931  -6.468  11.964  1.00  0.00     0.031 C 
ATOM     56  C   UNL     1     -14.729   0.431  12.090  1.00  0.00     0.029 A 
ATOM     57  C   UNL     1     -15.943  -0.177  12.628  1.00  0.00     0.049 A 
ATOM     58  H   UNL     1     -16.381  -2.208  12.782  1.00  0.00     0.167 HD
ATOM     59  C   UNL     1     -17.165  -6.507  13.026  1.00  0.00     0.031 A 
ATOM     60  C   UNL     1     -17.000   0.493  13.124  1.00  0.00     0.031 A 
ATOM     61  C   UNL     1     -18.308  -5.879  13.627  1.00  0.00     0.049 A 
ATOM     62  C   UNL     1     -18.179  -0.276  13.650  1.00  0.00     0.074 A 
ATOM     63  C   UNL     1     -19.411  -6.479  14.207  1.00  0.00     0.029 A 
ATOM     64  N   UNL     1     -18.493  -4.510  13.725  1.00  0.00    -0.354 N 
ATOM     65  N   UNL     1     -18.347  -1.575  13.717  1.00  0.00    -0.248 NA
ATOM     66  C   UNL     1     -19.310   0.508  14.167  1.00  0.00     0.031 C 
ATOM     67  C   UNL     1     -20.280  -5.468  14.631  1.00  0.00     0.029 A 
ATOM     68  C   UNL     1     -19.702  -4.242  14.341  1.00  0.00     0.049 A 
ATOM     69  H   UNL     1     -17.859  -3.828  13.404  1.00  0.00     0.167 HD
ATOM     70  C   UNL     1     -19.592  -1.764  14.305  1.00  0.00     0.074 A 
ATOM     71  C   UNL     1     -20.136  -0.448  14.573  1.00  0.00     0.031 C 
ATOM     72  C   UNL     1     -20.223  -2.925  14.600  1.00  0.00     0.031 A 
BRANCH  59  73
ATOM     73  C   UNL     1     -17.142  -8.005  12.924  1.00  0.00    -0.014 A 
ATOM     74  C   UNL     1     -16.349  -8.773  13.794  1.00  0.00     0.010 A 
ATOM     75  C   UNL     1     -17.942  -8.651  11.966  1.00  0.00     0.010 A 
ATOM     76  C   UNL     1     -16.334 -10.165  13.689  1.00  0.00     0.020 A 
ATOM     77  C   UNL     1     -17.943 -10.045  11.869  1.00  0.00     0.020 A 
ATOM     78  C   UNL     1     -17.131 -10.792  12.725  1.00  0.00     0.054 A 
BRANCH  78  79
ATOM     79  S   UNL     1     -17.091 -12.602  12.618  1.00  0.00     0.124 S 
ATOM     80  O   UNL     1     -15.714 -12.851  12.198  1.00  0.00    -0.237 OA
ATOM     81  O   UNL     1     -17.414 -13.006  13.984  1.00  0.00    -0.237 OA
ATOM     82  O   UNL     1     -18.110 -12.915  11.619  1.00  0.00    -0.744 OA
ENDBRANCH  78  79
ENDBRANCH  59  73
BRANCH  60  83
ATOM     83  C   UNL     1     -16.973   1.977  13.178  1.00  0.00    -0.014 A 
ATOM     84  C   UNL     1     -16.713   2.631  14.395  1.00  0.00     0.010 A 
ATOM     85  C   UNL     1     -17.175   2.742  12.016  1.00  0.00     0.010 A 
ATOM     86  C   UNL     1     -16.658   4.026  14.450  1.00  0.00     0.020 A 
ATOM     87  C   UNL     1     -17.107   4.138  12.065  1.00  0.00     0.020 A 
ATOM     88  C   UNL     1     -16.849   4.771  13.283  1.00  0.00     0.054 A 
BRANCH  88  89
ATOM     89  S   UNL     1     -16.723   6.578  13.379  1.00  0.00     0.124 S 
ATOM     90  O   UNL     1     -17.843   6.919  14.251  1.00  0.00    -0.237 OA
ATOM     91  O   UNL     1     -15.393   6.764  13.954  1.00  0.00    -0.237 OA
ATOM     92  O   UNL     1     -16.860   7.007  11.989  1.00  0.00    -0.744 OA
ENDBRANCH  88  89
ENDBRANCH  60  83
BRANCH  72  93
ATOM     93  C   UNL     1     -21.567  -2.840  15.264  1.00  0.00    -0.014 A 
ATOM     94  C   UNL     1     -22.726  -2.598  14.508  1.00  0.00     0.010 A 
ATOM     95  C   UNL     1     -21.680  -3.118  16.638  1.00  0.00     0.010 A 
ATOM     96  C   UNL     1     -23.982  -2.638  15.118  1.00  0.00     0.020 A 
ATOM     97  C   UNL     1     -22.936  -3.174  17.247  1.00  0.00     0.020 A 
ATOM     98  C   UNL     1     -24.079  -2.935  16.482  1.00  0.00     0.054 A 
BRANCH  98  99
ATOM     99  S   UNL     1     -25.729  -3.056  17.225  1.00  0.00     0.124 S 
ATOM    100  O   UNL     1     -26.215  -1.683  17.119  1.00  0.00    -0.237 OA
ATOM    101  O   UNL     1     -26.395  -4.027  16.361  1.00  0.00    -0.237 OA
ATOM    102  O   UNL     1     -25.465  -3.517  18.586  1.00  0.00    -0.744 OA
ENDBRANCH  98  99
ENDBRANCH  72  93
ENDBRANCH  46  47
ENDBRANCH  38  41
ENDBRANCH  36  37
ENDBRANCH   1  36
TORSDOF 16
