REMARK SMILES O=C(C[N@@H+]1C[C@@]2([N+](=O)[O-])CC=C(Cl)[C@@]([N+](=O)[O-])(C1)C2)NCCCCNC(=O)c1ccc(-c2c3nc(c(-c4ccc(S(=O)(=O)[O-])cc4)c4ccc([nH]4)c(-c4ccc(S(=O)(=O)[O-])cc4)c4nc(c(-c5ccc(S(=O)(=O)[O-])cc5)c5ccc2[nH]5)C=C4)C=C3)cc1
REMARK SMILES IDX 23 1 22 2 21 3 20 4 1 5 2 6 3 8 4 9 5 10 18 11 6 13 14 14
REMARK SMILES IDX 10 15 19 16 12 17 11 18 13 19 7 20 8 21 9 22 15 23 16 24
REMARK SMILES IDX 17 25 24 26 25 27 26 28 27 30 28 31 29 32 87 33 30 34 86 35
REMARK SMILES IDX 31 36 32 37 33 38 80 39 34 40 85 41 79 42 81 43 35 44 84 45
REMARK SMILES IDX 78 46 77 47 36 49 66 50 47 51 65 52 48 53 51 54 64 55 82 56
REMARK SMILES IDX 49 57 50 58 63 60 83 61 52 62 37 63 38 64 46 65 39 66 45 67
REMARK SMILES IDX 40 68 41 69 42 70 43 71 44 72 67 73 68 74 76 75 69 76 75 77
REMARK SMILES IDX 70 78 71 79 72 80 73 81 74 82 53 83 54 84 62 85 55 86 61 87
REMARK SMILES IDX 56 88 57 89 58 90 59 91 60 92
REMARK H PARENT 20 7 4 12 25 29 81 48 51 59
REMARK Flexibility Score: inf
ROOT
ATOM      1  C   UNL     1       3.971   0.994   3.764  1.00  0.00     0.023 C 
ENDROOT
BRANCH   1   2
ATOM      2  C   UNL     1       2.489   0.876   3.395  1.00  0.00     0.023 C 
BRANCH   2   3
ATOM      3  C   UNL     1       2.127   1.365   1.993  1.00  0.00     0.116 C 
BRANCH   3   4
ATOM      4  N   UNL     1       2.768   0.590   0.951  1.00  0.00    -0.351 N 
ATOM      5  O   UNL     1       0.857  -0.376   0.094  1.00  0.00    -0.269 OA
ATOM      6  C   UNL     1       2.073  -0.213   0.068  1.00  0.00     0.275 C 
ATOM      7  H   UNL     1       3.748   0.638   0.868  1.00  0.00     0.163 HD
BRANCH   6   8
ATOM      8  C   UNL     1       2.972  -0.902  -0.972  1.00  0.00     0.363 C 
BRANCH   8   9
ATOM      9  N   UNL     1       3.846   0.097  -1.627  1.00  0.00    -0.315 N 
ATOM     10  C   UNL     1       3.079   1.011  -2.505  1.00  0.00     0.350 C 
ATOM     11  C   UNL     1       4.959  -0.548  -2.374  1.00  0.00     0.356 C 
ATOM     12  H   UNL     1       4.257   0.657  -0.881  1.00  0.00     0.348 HD
ATOM     13  C   UNL     1       3.988   2.092  -3.139  1.00  0.00     0.280 C 
ATOM     14  C   UNL     1       5.909   0.521  -2.988  1.00  0.00     0.311 C 
ATOM     15  C   UNL     1       4.638   3.039  -2.092  1.00  0.00     0.121 C 
ATOM     16  C   UNL     1       5.095   1.410  -3.958  1.00  0.00     0.191 C 
ATOM     17  C   UNL     1       6.509   1.375  -1.881  1.00  0.00     0.097 C 
ATOM     18  C   UNL     1       5.919   2.516  -1.478  1.00  0.00     0.004 C 
ATOM     19  Cl  UNL     1       7.896   0.796  -1.029  1.00  0.00    -0.081 Cl
BRANCH  13  20
ATOM     20  N   UNL     1       3.085   2.903  -4.056  1.00  0.00     0.032 N 
ATOM     21  O   UNL     1       2.577   3.935  -3.601  1.00  0.00    -0.264 OA
ATOM     22  O   UNL     1       2.864   2.445  -5.185  1.00  0.00    -0.264 OA
ENDBRANCH  13  20
BRANCH  14  23
ATOM     23  N   UNL     1       7.005  -0.152  -3.805  1.00  0.00     0.038 N 
ATOM     24  O   UNL     1       7.057  -1.390  -3.799  1.00  0.00    -0.263 OA
ATOM     25  O   UNL     1       7.746   0.581  -4.476  1.00  0.00    -0.263 OA
ENDBRANCH  14  23
ENDBRANCH   8   9
ENDBRANCH   6   8
ENDBRANCH   3   4
ENDBRANCH   2   3
ENDBRANCH   1   2
BRANCH   1  26
ATOM     26  C   UNL     1       4.556   2.404   3.717  1.00  0.00     0.116 C 
BRANCH  26  27
ATOM     27  N   UNL     1       3.947   3.309   4.679  1.00  0.00    -0.352 N 
ATOM     28  C   UNL     1       4.540   4.136   5.605  1.00  0.00     0.251 C 
ATOM     29  H   UNL     1       2.962   3.333   4.665  1.00  0.00     0.163 HD
ATOM     30  O   UNL     1       3.840   4.728   6.424  1.00  0.00    -0.269 OA
BRANCH  28  31
ATOM     31  C   UNL     1       6.013   4.293   5.643  1.00  0.00     0.039 A 
ATOM     32  C   UNL     1       6.662   4.276   6.881  1.00  0.00     0.014 A 
ATOM     33  C   UNL     1       6.757   4.460   4.472  1.00  0.00     0.014 A 
ATOM     34  C   UNL     1       8.057   4.350   6.939  1.00  0.00     0.010 A 
ATOM     35  C   UNL     1       8.151   4.457   4.526  1.00  0.00     0.010 A 
ATOM     36  C   UNL     1       8.818   4.398   5.759  1.00  0.00    -0.014 A 
BRANCH  36  37
ATOM     37  C   UNL     1      10.306   4.367   5.796  1.00  0.00     0.031 A 
ATOM     38  C   UNL     1      11.108   5.527   5.266  1.00  0.00     0.074 A 
ATOM     39  C   UNL     1      10.940   3.264   6.246  1.00  0.00     0.049 A 
ATOM     40  N   UNL     1      12.407   5.652   5.163  1.00  0.00    -0.248 NA
ATOM     41  C   UNL     1      10.353   6.687   4.767  1.00  0.00     0.031 C 
ATOM     42  C   UNL     1      10.284   2.057   6.755  1.00  0.00     0.029 A 
ATOM     43  N   UNL     1      12.280   2.976   6.345  1.00  0.00    -0.354 N 
ATOM     44  C   UNL     1      12.624   6.893   4.573  1.00  0.00     0.074 A 
ATOM     45  C   UNL     1      11.322   7.460   4.298  1.00  0.00     0.031 C 
ATOM     46  C   UNL     1      11.220   1.174   7.138  1.00  0.00     0.029 A 
ATOM     47  C   UNL     1      12.542   1.728   6.860  1.00  0.00     0.049 A 
ATOM     48  H   UNL     1      12.987   3.605   6.072  1.00  0.00     0.167 HD
ATOM     49  C   UNL     1      13.798   7.511   4.300  1.00  0.00     0.031 A 
ATOM     50  C   UNL     1      13.710   1.092   7.077  1.00  0.00     0.031 A 
ATOM     51  C   UNL     1      15.093   6.949   4.583  1.00  0.00     0.049 A 
ATOM     52  C   UNL     1      15.001   1.791   6.743  1.00  0.00     0.074 A 
ATOM     53  C   UNL     1      16.339   7.524   4.397  1.00  0.00     0.029 A 
ATOM     54  N   UNL     1      15.313   5.682   5.103  1.00  0.00    -0.354 N 
ATOM     55  N   UNL     1      15.183   2.993   6.251  1.00  0.00    -0.248 NA
ATOM     56  C   UNL     1      16.243   1.051   7.005  1.00  0.00     0.031 C 
ATOM     57  C   UNL     1      17.312   6.583   4.745  1.00  0.00     0.029 A 
ATOM     58  C   UNL     1      16.674   5.447   5.215  1.00  0.00     0.049 A 
ATOM     59  H   UNL     1      14.607   5.045   5.355  1.00  0.00     0.167 HD
ATOM     60  C   UNL     1      16.562   3.165   6.174  1.00  0.00     0.074 A 
ATOM     61  C   UNL     1      17.164   1.950   6.684  1.00  0.00     0.031 C 
ATOM     62  C   UNL     1      17.264   4.234   5.724  1.00  0.00     0.031 A 
BRANCH  49  63
ATOM     63  C   UNL     1      13.740   8.869   3.648  1.00  0.00    -0.014 A 
ATOM     64  C   UNL     1      13.266   9.995   4.346  1.00  0.00     0.010 A 
ATOM     65  C   UNL     1      14.216   9.033   2.334  1.00  0.00     0.010 A 
ATOM     66  C   UNL     1      13.228  11.248   3.729  1.00  0.00     0.020 A 
ATOM     67  C   UNL     1      14.210  10.291   1.723  1.00  0.00     0.020 A 
ATOM     68  C   UNL     1      13.700  11.387   2.420  1.00  0.00     0.054 A 
BRANCH  68  69
ATOM     69  S   UNL     1      13.660  13.031   1.653  1.00  0.00     0.124 S 
ATOM     70  O   UNL     1      12.229  13.225   1.432  1.00  0.00    -0.237 OA
ATOM     71  O   UNL     1      14.257  13.878   2.683  1.00  0.00    -0.237 OA
ATOM     72  O   UNL     1      14.460  12.869   0.442  1.00  0.00    -0.744 OA
ENDBRANCH  68  69
ENDBRANCH  49  63
BRANCH  50  73
ATOM     73  C   UNL     1      13.717  -0.282   7.653  1.00  0.00    -0.014 A 
ATOM     74  C   UNL     1      14.200  -0.509   8.954  1.00  0.00     0.010 A 
ATOM     75  C   UNL     1      13.238  -1.372   6.903  1.00  0.00     0.010 A 
ATOM     76  C   UNL     1      14.224  -1.802   9.486  1.00  0.00     0.020 A 
ATOM     77  C   UNL     1      13.231  -2.662   7.444  1.00  0.00     0.020 A 
ATOM     78  C   UNL     1      13.736  -2.870   8.728  1.00  0.00     0.054 A 
BRANCH  78  79
ATOM     79  S   UNL     1      13.734  -4.531   9.457  1.00  0.00     0.124 S 
ATOM     80  O   UNL     1      15.154  -4.868   9.449  1.00  0.00    -0.237 OA
ATOM     81  O   UNL     1      13.146  -4.296  10.774  1.00  0.00    -0.237 OA
ATOM     82  O   UNL     1      12.901  -5.306   8.540  1.00  0.00    -0.744 OA
ENDBRANCH  78  79
ENDBRANCH  50  73
BRANCH  62  83
ATOM     83  C   UNL     1      18.767   4.162   5.799  1.00  0.00    -0.014 A 
ATOM     84  C   UNL     1      19.505   3.316   4.952  1.00  0.00     0.010 A 
ATOM     85  C   UNL     1      19.456   4.999   6.698  1.00  0.00     0.010 A 
ATOM     86  C   UNL     1      20.901   3.285   5.025  1.00  0.00     0.020 A 
ATOM     87  C   UNL     1      20.852   4.994   6.751  1.00  0.00     0.020 A 
ATOM     88  C   UNL     1      21.565   4.126   5.924  1.00  0.00     0.054 A 
BRANCH  88  89
ATOM     89  S   UNL     1      23.378   4.098   5.967  1.00  0.00     0.124 S 
ATOM     90  O   UNL     1      23.648   2.814   6.608  1.00  0.00    -0.237 OA
ATOM     91  O   UNL     1      23.733   4.182   4.552  1.00  0.00    -0.237 OA
ATOM     92  O   UNL     1      23.725   5.275   6.761  1.00  0.00    -0.744 OA
ENDBRANCH  88  89
ENDBRANCH  62  83
ENDBRANCH  36  37
ENDBRANCH  28  31
ENDBRANCH  26  27
ENDBRANCH   1  26
TORSDOF 17
