REMARK SMILES N#C/C(=C/c1cccc(OCC(=O)NCCCCNC(=O)c2ccc(-c3c4nc(c(-c5ccc(S(=O)(=O)[O-])cc5)c5ccc([nH]5)c(-c5ccc(S(=O)(=O)[O-])cc5)c5nc(c(-c6ccc(S(=O)(=O)[O-])cc6)c6ccc3[nH]6)C=C5)C=C4)cc2)c1)c1nc2ccccc2[nH]1
REMARK SMILES IDX 16 1 15 2 14 3 12 4 13 5 11 7 10 8 9 9 5 10 6 11 82 12 7 13
REMARK SMILES IDX 8 14 4 15 3 16 2 17 1 18 83 19 84 20 91 21 85 22 90 23 86 25
REMARK SMILES IDX 89 26 87 27 88 28 17 29 18 30 19 31 20 32 21 34 22 35 23 36
REMARK SMILES IDX 81 37 24 38 80 39 25 40 26 41 27 42 74 43 28 44 79 45 73 46
REMARK SMILES IDX 75 47 29 48 78 49 72 50 71 51 30 53 60 54 41 55 59 56 42 57
REMARK SMILES IDX 45 58 58 59 76 60 43 61 44 62 57 64 77 65 46 66 31 67 32 68
REMARK SMILES IDX 40 69 33 70 39 71 34 72 35 73 36 74 37 75 38 76 61 77 62 78
REMARK SMILES IDX 70 79 63 80 69 81 64 82 65 83 66 84 67 85 68 86 47 87 48 88
REMARK SMILES IDX 56 89 49 90 55 91 50 92 51 93 52 94 53 95 54 96
REMARK H PARENT 14 6 91 24 19 33 75 52 45 63
REMARK Flexibility Score: inf
ROOT
ATOM      1  C   UNL     1      10.499   1.603   1.588  1.00  0.00     0.023 C 
ENDROOT
BRANCH   1   2
ATOM      2  C   UNL     1      10.089   0.869   2.865  1.00  0.00     0.116 C 
BRANCH   2   3
ATOM      3  N   UNL     1       8.658   0.756   3.086  1.00  0.00    -0.353 N 
ATOM      4  C   UNL     1       7.896  -0.382   3.098  1.00  0.00     0.257 C 
ATOM      5  O   UNL     1       6.764  -0.361   3.589  1.00  0.00    -0.271 OA
ATOM      6  H   UNL     1       8.178   1.600   3.248  1.00  0.00     0.163 HD
BRANCH   4   7
ATOM      7  C   UNL     1       8.466  -1.692   2.545  1.00  0.00     0.329 C 
BRANCH   7   8
ATOM      8  O   UNL     1       8.961  -1.661   1.217  1.00  0.00    -0.484 OA
BRANCH   8   9
ATOM      9  C   UNL     1       8.068  -1.454   0.201  1.00  0.00     0.120 A 
ATOM     10  C   UNL     1       5.881  -1.103  -0.814  1.00  0.00    -0.021 A 
ATOM     11  C   UNL     1       6.492  -0.934  -2.060  1.00  0.00     0.008 A 
ATOM     12  C   UNL     1       6.675  -1.389   0.311  1.00  0.00     0.054 A 
ATOM     13  C   UNL     1       7.879  -1.029  -2.180  1.00  0.00     0.004 A 
ATOM     14  C   UNL     1       8.659  -1.286  -1.053  1.00  0.00     0.046 A 
BRANCH  10  15
ATOM     15  C   UNL     1       4.415  -0.983  -0.711  1.00  0.00     0.031 C 
ATOM     16  C   UNL     1       3.740  -0.085   0.034  1.00  0.00     0.095 C 
BRANCH  16  17
ATOM     17  C   UNL     1       2.220  -0.085   0.034  1.00  0.00     0.103 C 
ATOM     18  N   UNL     1       0.960  -0.085   0.034  1.00  0.00    -0.192 NA
ENDBRANCH  16  17
BRANCH  16  19
ATOM     19  C   UNL     1       4.403   0.922   0.791  1.00  0.00     0.149 A 
ATOM     20  N   UNL     1       5.297   1.821   0.428  1.00  0.00    -0.228 NA
ATOM     21  N   UNL     1       4.130   1.034   2.138  1.00  0.00    -0.337 N 
ATOM     22  C   UNL     1       5.634   2.501   1.572  1.00  0.00     0.089 A 
ATOM     23  C   UNL     1       4.935   2.011   2.666  1.00  0.00     0.066 A 
ATOM     24  H   UNL     1       3.469   0.501   2.637  1.00  0.00     0.168 HD
ATOM     25  C   UNL     1       6.546   3.546   1.762  1.00  0.00     0.030 A 
ATOM     26  C   UNL     1       5.122   2.476   3.970  1.00  0.00     0.028 A 
ATOM     27  C   UNL     1       6.767   4.025   3.061  1.00  0.00     0.002 A 
ATOM     28  C   UNL     1       6.072   3.488   4.146  1.00  0.00     0.002 A 
ENDBRANCH  16  19
ENDBRANCH  10  15
ENDBRANCH   8   9
ENDBRANCH   7   8
ENDBRANCH   4   7
ENDBRANCH   2   3
ENDBRANCH   1   2
BRANCH   1  29
ATOM     29  C   UNL     1      10.228   3.110   1.489  1.00  0.00     0.023 C 
BRANCH  29  30
ATOM     30  C   UNL     1      10.470   3.985   2.718  1.00  0.00     0.116 C 
BRANCH  30  31
ATOM     31  N   UNL     1      11.875   4.271   2.956  1.00  0.00    -0.352 N 
ATOM     32  C   UNL     1      12.494   5.480   3.171  1.00  0.00     0.251 C 
ATOM     33  H   UNL     1      12.469   3.487   2.965  1.00  0.00     0.163 HD
ATOM     34  O   UNL     1      13.730   5.519   3.206  1.00  0.00    -0.269 OA
BRANCH  32  35
ATOM     35  C   UNL     1      11.726   6.742   3.341  1.00  0.00     0.039 A 
ATOM     36  C   UNL     1      12.189   7.900   2.705  1.00  0.00     0.014 A 
ATOM     37  C   UNL     1      10.595   6.821   4.161  1.00  0.00     0.014 A 
ATOM     38  C   UNL     1      11.501   9.113   2.849  1.00  0.00     0.010 A 
ATOM     39  C   UNL     1       9.881   8.024   4.266  1.00  0.00     0.010 A 
ATOM     40  C   UNL     1      10.325   9.185   3.614  1.00  0.00    -0.014 A 
BRANCH  40  41
ATOM     41  C   UNL     1       9.562  10.464   3.720  1.00  0.00     0.031 A 
ATOM     42  C   UNL     1       9.457  11.200   5.032  1.00  0.00     0.074 A 
ATOM     43  C   UNL     1       8.934  10.964   2.635  1.00  0.00     0.049 A 
ATOM     44  N   UNL     1       8.842  12.326   5.301  1.00  0.00    -0.248 NA
ATOM     45  C   UNL     1      10.117  10.588   6.195  1.00  0.00     0.031 C 
ATOM     46  C   UNL     1       8.925  10.348   1.307  1.00  0.00     0.029 A 
ATOM     47  N   UNL     1       8.183  12.104   2.476  1.00  0.00    -0.354 N 
ATOM     48  C   UNL     1       9.034  12.554   6.659  1.00  0.00     0.074 A 
ATOM     49  C   UNL     1       9.786  11.426   7.168  1.00  0.00     0.031 C 
ATOM     50  C   UNL     1       8.226  11.128   0.466  1.00  0.00     0.029 A 
ATOM     51  C   UNL     1       7.707  12.281   1.197  1.00  0.00     0.049 A 
ATOM     52  H   UNL     1       8.002  12.736   3.209  1.00  0.00     0.167 HD
ATOM     53  C   UNL     1       8.638  13.609   7.414  1.00  0.00     0.031 A 
ATOM     54  C   UNL     1       6.939  13.254   0.666  1.00  0.00     0.031 A 
ATOM     55  C   UNL     1       7.889  14.735   6.916  1.00  0.00     0.049 A 
ATOM     56  C   UNL     1       6.489  14.403   1.529  1.00  0.00     0.074 A 
ATOM     57  C   UNL     1       7.487  15.870   7.599  1.00  0.00     0.029 A 
ATOM     58  N   UNL     1       7.420  14.867   5.618  1.00  0.00    -0.354 N 
ATOM     59  N   UNL     1       6.742  14.630   2.795  1.00  0.00    -0.248 NA
ATOM     60  C   UNL     1       5.662  15.434   0.885  1.00  0.00     0.031 C 
ATOM     61  C   UNL     1       6.730  16.663   6.730  1.00  0.00     0.029 A 
ATOM     62  C   UNL     1       6.711  16.051   5.488  1.00  0.00     0.049 A 
ATOM     63  H   UNL     1       7.570  14.216   4.894  1.00  0.00     0.167 HD
ATOM     64  C   UNL     1       6.128  15.843   3.092  1.00  0.00     0.074 A 
ATOM     65  C   UNL     1       5.504  16.307   1.870  1.00  0.00     0.031 C 
ATOM     66  C   UNL     1       6.089  16.510   4.271  1.00  0.00     0.031 A 
BRANCH  53  67
ATOM     67  C   UNL     1       8.999  13.594   8.879  1.00  0.00    -0.014 A 
ATOM     68  C   UNL     1      10.329  13.768   9.301  1.00  0.00     0.010 A 
ATOM     69  C   UNL     1       7.988  13.453   9.848  1.00  0.00     0.010 A 
ATOM     70  C   UNL     1      10.648  13.755  10.662  1.00  0.00     0.020 A 
ATOM     71  C   UNL     1       8.299  13.467  11.211  1.00  0.00     0.020 A 
ATOM     72  C   UNL     1       9.631  13.599  11.608  1.00  0.00     0.054 A 
BRANCH  72  73
ATOM     73  S   UNL     1      10.072  13.595  13.368  1.00  0.00     0.124 S 
ATOM     74  O   UNL     1      10.714  12.290  13.513  1.00  0.00    -0.237 OA
ATOM     75  O   UNL     1      10.965  14.747  13.478  1.00  0.00    -0.237 OA
ATOM     76  O   UNL     1       8.790  13.737  14.049  1.00  0.00    -0.744 OA
ENDBRANCH  72  73
ENDBRANCH  53  67
BRANCH  54  77
ATOM     77  C   UNL     1       6.553  13.191  -0.771  1.00  0.00    -0.014 A 
ATOM     78  C   UNL     1       7.099  14.095  -1.700  1.00  0.00     0.010 A 
ATOM     79  C   UNL     1       5.641  12.218  -1.221  1.00  0.00     0.010 A 
ATOM     80  C   UNL     1       6.730  14.036  -3.047  1.00  0.00     0.020 A 
ATOM     81  C   UNL     1       5.292  12.138  -2.572  1.00  0.00     0.020 A 
ATOM     82  C   UNL     1       5.831  13.056  -3.475  1.00  0.00     0.054 A 
BRANCH  82  83
ATOM     83  S   UNL     1       5.412  12.962  -5.238  1.00  0.00     0.124 S 
ATOM     84  O   UNL     1       4.535  14.117  -5.404  1.00  0.00    -0.237 OA
ATOM     85  O   UNL     1       6.721  13.065  -5.880  1.00  0.00    -0.237 OA
ATOM     86  O   UNL     1       4.764  11.659  -5.367  1.00  0.00    -0.744 OA
ENDBRANCH  82  83
ENDBRANCH  54  77
BRANCH  66  87
ATOM     87  C   UNL     1       5.374  17.837   4.300  1.00  0.00    -0.014 A 
ATOM     88  C   UNL     1       3.972  17.916   4.227  1.00  0.00     0.010 A 
ATOM     89  C   UNL     1       6.117  19.023   4.458  1.00  0.00     0.010 A 
ATOM     90  C   UNL     1       3.329  19.156   4.281  1.00  0.00     0.020 A 
ATOM     91  C   UNL     1       5.476  20.262   4.539  1.00  0.00     0.020 A 
ATOM     92  C   UNL     1       4.085  20.322   4.436  1.00  0.00     0.054 A 
BRANCH  92  93
ATOM     93  S   UNL     1       3.224  21.915   4.549  1.00  0.00     0.124 S 
ATOM     94  O   UNL     1       2.807  22.134   3.167  1.00  0.00    -0.237 OA
ATOM     95  O   UNL     1       2.146  21.632   5.493  1.00  0.00    -0.237 OA
ATOM     96  O   UNL     1       4.251  22.830   5.043  1.00  0.00    -0.744 OA
ENDBRANCH  92  93
ENDBRANCH  66  87
ENDBRANCH  40  41
ENDBRANCH  32  35
ENDBRANCH  30  31
ENDBRANCH  29  30
ENDBRANCH   1  29
TORSDOF 19
