REMARK SMILES O=C(CN1C(=O)COc2ccccc21)Nc1ccc(C(=O)NCCCCNC(=O)c2ccc(-c3c4nc(c(-c5ccc(S(=O)(=O)[O-])cc5)c5ccc([nH]5)c(-c5ccc(S(=O)(=O)[O-])cc5)c5nc(c(-c6ccc(S(=O)(=O)[O-])cc6)c6ccc3[nH]6)C=C5)C=C4)cc2)cc1
REMARK SMILES IDX 24 1 23 2 22 3 20 4 21 5 19 7 16 8 17 9 91 10 18 11 90 12
REMARK SMILES IDX 15 13 1 14 2 15 3 17 4 18 5 19 14 20 6 21 7 22 9 23 13 24
REMARK SMILES IDX 8 25 10 26 12 27 11 28 25 29 26 30 27 31 28 32 29 34 30 35
REMARK SMILES IDX 31 36 89 37 32 38 88 39 33 40 34 41 35 42 82 43 36 44 87 45
REMARK SMILES IDX 81 46 83 47 37 48 86 49 80 50 79 51 38 53 68 54 49 55 67 56
REMARK SMILES IDX 50 57 53 58 66 59 84 60 51 61 52 62 65 64 85 65 54 66 39 67
REMARK SMILES IDX 40 68 48 69 41 70 47 71 42 72 43 73 44 74 45 75 46 76 69 77
REMARK SMILES IDX 70 78 78 79 71 80 77 81 72 82 73 83 74 84 75 85 76 86 55 87
REMARK SMILES IDX 56 88 64 89 57 90 63 91 58 92 59 93 60 94 61 95 62 96
REMARK H PARENT 22 6 15 16 27 33 83 52 53 63
REMARK Flexibility Score: inf
ROOT
ATOM      1  C   UNL     1      -1.161   1.501   6.508  1.00  0.00     0.023 C 
ENDROOT
BRANCH   1   2
ATOM      2  C   UNL     1      -1.305   2.599   5.450  1.00  0.00     0.116 C 
BRANCH   2   3
ATOM      3  N   UNL     1      -0.314   3.639   5.651  1.00  0.00    -0.352 N 
ATOM      4  C   UNL     1       0.928   3.843   5.102  1.00  0.00     0.251 C 
ATOM      5  O   UNL     1       1.540   4.859   5.435  1.00  0.00    -0.269 OA
ATOM      6  H   UNL     1      -0.582   4.327   6.303  1.00  0.00     0.163 HD
BRANCH   4   7
ATOM      7  C   UNL     1       1.541   2.935   4.088  1.00  0.00     0.039 A 
ATOM      8  C   UNL     1       2.674   1.395   2.004  1.00  0.00     0.041 A 
ATOM      9  C   UNL     1       3.078   2.717   2.204  1.00  0.00     0.027 A 
ATOM     10  C   UNL     1       1.779   0.826   2.904  1.00  0.00     0.027 A 
ATOM     11  C   UNL     1       2.501   3.485   3.225  1.00  0.00     0.016 A 
ATOM     12  C   UNL     1       1.244   1.580   3.953  1.00  0.00     0.016 A 
BRANCH   8  13
ATOM     13  N   UNL     1       3.158   0.719   0.866  1.00  0.00    -0.325 N 
ATOM     14  O   UNL     1       1.610  -1.013   0.715  1.00  0.00    -0.273 OA
ATOM     15  C   UNL     1       2.542  -0.357   0.250  1.00  0.00     0.244 C 
ATOM     16  H   UNL     1       4.003   1.039   0.476  1.00  0.00     0.169 HD
BRANCH  15  17
ATOM     17  C   UNL     1       3.123  -0.757  -1.114  1.00  0.00     0.226 C 
BRANCH  17  18
ATOM     18  N   UNL     1       3.928   0.181  -1.900  1.00  0.00    -0.297 N 
ATOM     19  C   UNL     1       5.072  -0.313  -2.525  1.00  0.00     0.265 C 
ATOM     20  C   UNL     1       3.547   1.538  -2.127  1.00  0.00     0.087 A 
ATOM     21  O   UNL     1       5.481  -1.467  -2.402  1.00  0.00    -0.270 OA
ATOM     22  C   UNL     1       5.729   0.659  -3.494  1.00  0.00     0.330 C 
ATOM     23  C   UNL     1       4.500   2.421  -2.661  1.00  0.00     0.143 A 
ATOM     24  C   UNL     1       2.302   2.056  -1.750  1.00  0.00     0.030 A 
ATOM     25  O   UNL     1       5.737   2.017  -3.089  1.00  0.00    -0.482 OA
ATOM     26  C   UNL     1       4.260   3.795  -2.712  1.00  0.00     0.049 A 
ATOM     27  C   UNL     1       2.060   3.433  -1.803  1.00  0.00     0.002 A 
ATOM     28  C   UNL     1       3.043   4.303  -2.267  1.00  0.00     0.004 A 
ENDBRANCH  17  18
ENDBRANCH  15  17
ENDBRANCH   8  13
ENDBRANCH   4   7
ENDBRANCH   2   3
ENDBRANCH   1   2
BRANCH   1  29
ATOM     29  C   UNL     1      -1.807   1.834   7.854  1.00  0.00     0.023 C 
BRANCH  29  30
ATOM     30  C   UNL     1      -3.317   2.035   7.808  1.00  0.00     0.116 C 
BRANCH  30  31
ATOM     31  N   UNL     1      -4.028   0.894   7.255  1.00  0.00    -0.352 N 
ATOM     32  C   UNL     1      -5.274   0.413   7.581  1.00  0.00     0.251 C 
ATOM     33  H   UNL     1      -3.552   0.397   6.550  1.00  0.00     0.163 HD
ATOM     34  O   UNL     1      -5.667  -0.640   7.097  1.00  0.00    -0.269 OA
BRANCH  32  35
ATOM     35  C   UNL     1      -6.114   1.154   8.547  1.00  0.00     0.039 A 
ATOM     36  C   UNL     1      -6.759   0.436   9.555  1.00  0.00     0.014 A 
ATOM     37  C   UNL     1      -6.255   2.543   8.471  1.00  0.00     0.014 A 
ATOM     38  C   UNL     1      -7.503   1.119  10.518  1.00  0.00     0.010 A 
ATOM     39  C   UNL     1      -6.929   3.228   9.477  1.00  0.00     0.010 A 
ATOM     40  C   UNL     1      -7.565   2.524  10.508  1.00  0.00    -0.014 A 
BRANCH  40  41
ATOM     41  C   UNL     1      -8.284   3.252  11.584  1.00  0.00     0.031 A 
ATOM     42  C   UNL     1      -9.503   4.077  11.270  1.00  0.00     0.074 A 
ATOM     43  C   UNL     1      -7.823   3.179  12.849  1.00  0.00     0.049 A 
ATOM     44  N   UNL     1     -10.281   4.738  12.088  1.00  0.00    -0.248 NA
ATOM     45  C   UNL     1      -9.889   4.193   9.854  1.00  0.00     0.031 C 
ATOM     46  C   UNL     1      -6.620   2.455  13.271  1.00  0.00     0.029 A 
ATOM     47  N   UNL     1      -8.317   3.705  14.016  1.00  0.00    -0.354 N 
ATOM     48  C   UNL     1     -11.245   5.344  11.291  1.00  0.00     0.074 A 
ATOM     49  C   UNL     1     -10.918   5.026   9.919  1.00  0.00     0.031 C 
ATOM     50  C   UNL     1      -6.498   2.542  14.605  1.00  0.00     0.029 A 
ATOM     51  C   UNL     1      -7.589   3.357  15.130  1.00  0.00     0.049 A 
ATOM     52  H   UNL     1      -9.116   4.279  14.052  1.00  0.00     0.167 HD
ATOM     53  C   UNL     1     -12.321   6.076  11.667  1.00  0.00     0.031 A 
ATOM     54  C   UNL     1      -7.781   3.654  16.430  1.00  0.00     0.031 A 
ATOM     55  C   UNL     1     -12.642   6.390  13.035  1.00  0.00     0.049 A 
ATOM     56  C   UNL     1      -8.977   4.479  16.819  1.00  0.00     0.074 A 
ATOM     57  C   UNL     1     -13.733   7.088  13.524  1.00  0.00     0.029 A 
ATOM     58  N   UNL     1     -11.875   6.029  14.133  1.00  0.00    -0.354 N 
ATOM     59  N   UNL     1      -9.919   4.979  16.054  1.00  0.00    -0.248 NA
ATOM     60  C   UNL     1      -9.145   4.765  18.249  1.00  0.00     0.031 C 
ATOM     61  C   UNL     1     -13.596   7.198  14.912  1.00  0.00     0.029 A 
ATOM     62  C   UNL     1     -12.456   6.511  15.295  1.00  0.00     0.049 A 
ATOM     63  H   UNL     1     -11.041   5.508  14.092  1.00  0.00     0.167 HD
ATOM     64  C   UNL     1     -10.806   5.616  16.916  1.00  0.00     0.074 A 
ATOM     65  C   UNL     1     -10.302   5.412  18.258  1.00  0.00     0.031 C 
ATOM     66  C   UNL     1     -11.936   6.308  16.623  1.00  0.00     0.031 A 
BRANCH  53  67
ATOM     67  C   UNL     1     -13.235   6.585  10.583  1.00  0.00    -0.014 A 
ATOM     68  C   UNL     1     -14.044   5.703   9.844  1.00  0.00     0.010 A 
ATOM     69  C   UNL     1     -13.333   7.967  10.337  1.00  0.00     0.010 A 
ATOM     70  C   UNL     1     -14.909   6.188   8.859  1.00  0.00     0.020 A 
ATOM     71  C   UNL     1     -14.219   8.460   9.374  1.00  0.00     0.020 A 
ATOM     72  C   UNL     1     -14.992   7.565   8.632  1.00  0.00     0.054 A 
BRANCH  72  73
ATOM     73  S   UNL     1     -16.155   8.167   7.377  1.00  0.00     0.124 S 
ATOM     74  O   UNL     1     -15.512   7.735   6.138  1.00  0.00    -0.237 OA
ATOM     75  O   UNL     1     -17.389   7.466   7.721  1.00  0.00    -0.237 OA
ATOM     76  O   UNL     1     -16.181   9.612   7.592  1.00  0.00    -0.744 OA
ENDBRANCH  72  73
ENDBRANCH  53  67
BRANCH  54  77
ATOM     77  C   UNL     1      -6.832   3.153  17.462  1.00  0.00    -0.014 A 
ATOM     78  C   UNL     1      -7.239   2.196  18.409  1.00  0.00     0.010 A 
ATOM     79  C   UNL     1      -5.514   3.643  17.513  1.00  0.00     0.010 A 
ATOM     80  C   UNL     1      -6.359   1.765  19.407  1.00  0.00     0.020 A 
ATOM     81  C   UNL     1      -4.621   3.190  18.488  1.00  0.00     0.020 A 
ATOM     82  C   UNL     1      -5.055   2.267  19.440  1.00  0.00     0.054 A 
BRANCH  82  83
ATOM     83  S   UNL     1      -3.923   1.676  20.729  1.00  0.00     0.124 S 
ATOM     84  O   UNL     1      -4.444   2.341  21.918  1.00  0.00    -0.237 OA
ATOM     85  O   UNL     1      -4.113   0.229  20.676  1.00  0.00    -0.237 OA
ATOM     86  O   UNL     1      -2.615   2.142  20.273  1.00  0.00    -0.744 OA
ENDBRANCH  82  83
ENDBRANCH  54  77
BRANCH  66  87
ATOM     87  C   UNL     1     -12.716   6.868  17.784  1.00  0.00    -0.014 A 
ATOM     88  C   UNL     1     -12.214   7.928  18.560  1.00  0.00     0.010 A 
ATOM     89  C   UNL     1     -13.981   6.335  18.092  1.00  0.00     0.010 A 
ATOM     90  C   UNL     1     -12.937   8.406  19.656  1.00  0.00     0.020 A 
ATOM     91  C   UNL     1     -14.723   6.833  19.165  1.00  0.00     0.020 A 
ATOM     92  C   UNL     1     -14.185   7.851  19.955  1.00  0.00     0.054 A 
BRANCH  92  93
ATOM     93  S   UNL     1     -15.108   8.493  21.378  1.00  0.00     0.124 S 
ATOM     94  O   UNL     1     -14.355   7.942  22.501  1.00  0.00    -0.237 OA
ATOM     95  O   UNL     1     -15.005   9.940  21.200  1.00  0.00    -0.237 OA
ATOM     96  O   UNL     1     -16.450   7.944  21.198  1.00  0.00    -0.744 OA
ENDBRANCH  92  93
ENDBRANCH  66  87
ENDBRANCH  40  41
ENDBRANCH  32  35
ENDBRANCH  30  31
ENDBRANCH  29  30
ENDBRANCH   1  29
TORSDOF 17
