REMARK SMILES NS(=O)(=O)c1ccc(C#Cc2cc(Cl)cc3c2O[C@H](C(F)(F)F)C(C(=O)NCCCCNC(=O)c2ccc(-c4c5nc(c(-c6ccc(S(=O)(=O)[O-])cc6)c6ccc([nH]6)c(-c6ccc(S(=O)(=O)[O-])cc6)c6nc(c(-c7ccc(S(=O)(=O)[O-])cc7)c7ccc4[nH]7)C=C6)C=C5)cc2)=C3)cc1
REMARK SMILES IDX 29 1 28 2 27 3 25 4 26 5 24 7 11 8 12 9 17 10 13 11 16 12
REMARK SMILES IDX 18 13 14 14 15 15 95 16 19 17 10 18 9 19 8 20 5 21 6 22
REMARK SMILES IDX 97 23 7 24 96 25 2 26 3 27 4 28 1 29 20 32 21 33 22 34 23 35
REMARK SMILES IDX 30 36 31 37 32 38 33 39 34 41 35 42 36 43 94 44 37 45 93 46
REMARK SMILES IDX 38 47 39 48 40 49 87 50 41 51 92 52 86 53 88 54 42 55 91 56
REMARK SMILES IDX 85 57 84 58 43 60 73 61 54 62 72 63 55 64 58 65 71 66 89 67
REMARK SMILES IDX 56 68 57 69 70 71 90 72 59 73 44 74 45 75 53 76 46 77 52 78
REMARK SMILES IDX 47 79 48 80 49 81 50 82 51 83 74 84 75 85 83 86 76 87 82 88
REMARK SMILES IDX 77 89 78 90 79 91 80 92 81 93 60 94 61 95 69 96 62 97 68 98
REMARK SMILES IDX 63 99 64 100 65 101 66 102 67 103
REMARK H PARENT 27 6 1 30 1 31 32 40 88 59 58 70
REMARK Flexibility Score: inf
ROOT
ATOM      1  C   UNL     1      -2.045  12.006   2.124  1.00  0.00     0.023 C 
ENDROOT
BRANCH   1   2
ATOM      2  C   UNL     1      -2.061  12.239   0.619  1.00  0.00     0.116 C 
BRANCH   2   3
ATOM      3  N   UNL     1      -1.207  13.348   0.224  1.00  0.00    -0.352 N 
ATOM      4  C   UNL     1      -0.045  13.507  -0.457  1.00  0.00     0.251 C 
ATOM      5  O   UNL     1       0.333  14.670  -0.621  1.00  0.00    -0.270 OA
ATOM      6  H   UNL     1      -1.568  14.210   0.531  1.00  0.00     0.163 HD
BRANCH   4   7
ATOM      7  C   UNL     1       0.777  12.383  -0.994  1.00  0.00     0.067 C 
ATOM      8  C   UNL     1       3.257   9.226  -2.216  1.00  0.00     0.069 A 
ATOM      9  C   UNL     1       4.440   9.494  -2.901  1.00  0.00     0.041 A 
ATOM     10  C   UNL     1       2.454  10.290  -1.789  1.00  0.00     0.143 A 
ATOM     11  C   UNL     1       4.810  10.819  -3.139  1.00  0.00     0.043 A 
ATOM     12  C   UNL     1       2.823  11.618  -2.021  1.00  0.00     0.020 A 
ATOM     13  O   UNL     1       1.328   9.960  -1.094  1.00  0.00    -0.474 OA
ATOM     14  Cl  UNL     1       6.279  11.149  -3.975  1.00  0.00    -0.084 Cl
ATOM     15  C   UNL     1       4.012  11.882  -2.703  1.00  0.00     0.032 A 
ATOM     16  C   UNL     1       1.984  12.695  -1.501  1.00  0.00     0.025 C 
ATOM     17  C   UNL     1       0.299  10.965  -1.002  1.00  0.00     0.314 C 
BRANCH   8  18
ATOM     18  C   UNL     1       2.846   7.877  -1.958  1.00  0.00    -0.058 C 
ATOM     19  C   UNL     1       2.433   6.768  -1.734  1.00  0.00    -0.062 C 
BRANCH  19  20
ATOM     20  C   UNL     1       1.950   5.437  -1.533  1.00  0.00     0.025 A 
ATOM     21  C   UNL     1       1.025   2.810  -1.382  1.00  0.00     0.082 A 
ATOM     22  C   UNL     1       0.125   3.868  -1.218  1.00  0.00     0.023 A 
ATOM     23  C   UNL     1       2.387   3.058  -1.578  1.00  0.00     0.023 A 
ATOM     24  C   UNL     1       0.593   5.186  -1.293  1.00  0.00     0.018 A 
ATOM     25  C   UNL     1       2.847   4.372  -1.647  1.00  0.00     0.018 A 
BRANCH  21  26
ATOM     26  S   UNL     1       0.451   1.141  -1.486  1.00  0.00     0.238 S 
ATOM     27  O   UNL     1       1.100   0.500  -2.607  1.00  0.00    -0.207 OA
ATOM     28  O   UNL     1      -0.980   1.104  -1.294  1.00  0.00    -0.207 OA
BRANCH  26  29
ATOM     29  N   UNL     1       1.109   0.434  -0.112  1.00  0.00    -0.225 NA
ATOM     30  H   UNL     1       0.837  -0.548  -0.071  1.00  0.00     0.137 HD
ATOM     31  H   UNL     1       0.765   0.918   0.717  1.00  0.00     0.137 HD
ENDBRANCH  26  29
ENDBRANCH  21  26
ENDBRANCH  19  20
ENDBRANCH   8  18
BRANCH  17  32
ATOM     32  C   UNL     1      -0.767  10.708  -2.086  1.00  0.00     0.429 C 
ATOM     33  F   UNL     1      -1.435   9.556  -1.828  1.00  0.00    -0.167 F 
ATOM     34  F   UNL     1      -1.700  11.686  -2.148  1.00  0.00    -0.167 F 
ATOM     35  F   UNL     1      -0.231  10.599  -3.322  1.00  0.00    -0.167 F 
ENDBRANCH  17  32
ENDBRANCH   4   7
ENDBRANCH   2   3
ENDBRANCH   1   2
BRANCH   1  36
ATOM     36  C   UNL     1      -3.059  12.865   2.866  1.00  0.00     0.023 C 
BRANCH  36  37
ATOM     37  C   UNL     1      -4.487  12.735   2.355  1.00  0.00     0.116 C 
BRANCH  37  38
ATOM     38  N   UNL     1      -4.997  11.367   2.351  1.00  0.00    -0.352 N 
ATOM     39  C   UNL     1      -6.241  10.932   2.757  1.00  0.00     0.251 C 
ATOM     40  H   UNL     1      -4.381  10.674   2.019  1.00  0.00     0.163 HD
ATOM     41  O   UNL     1      -6.511   9.739   2.804  1.00  0.00    -0.269 OA
BRANCH  39  42
ATOM     42  C   UNL     1      -7.217  11.955   3.182  1.00  0.00     0.039 A 
ATOM     43  C   UNL     1      -7.415  13.076   2.376  1.00  0.00     0.014 A 
ATOM     44  C   UNL     1      -7.787  11.878   4.453  1.00  0.00     0.014 A 
ATOM     45  C   UNL     1      -7.979  14.211   2.934  1.00  0.00     0.010 A 
ATOM     46  C   UNL     1      -8.484  12.980   4.956  1.00  0.00     0.010 A 
ATOM     47  C   UNL     1      -8.532  14.178   4.227  1.00  0.00    -0.014 A 
BRANCH  47  48
ATOM     48  C   UNL     1      -9.175  15.409   4.761  1.00  0.00     0.031 A 
ATOM     49  C   UNL     1      -8.680  16.081   6.015  1.00  0.00     0.074 A 
ATOM     50  C   UNL     1     -10.181  15.960   4.051  1.00  0.00     0.049 A 
ATOM     51  N   UNL     1      -9.097  17.195   6.563  1.00  0.00    -0.248 NA
ATOM     52  C   UNL     1      -7.588  15.428   6.757  1.00  0.00     0.031 C 
ATOM     53  C   UNL     1     -10.736  15.400   2.814  1.00  0.00     0.029 A 
ATOM     54  N   UNL     1     -10.885  17.124   4.229  1.00  0.00    -0.354 N 
ATOM     55  C   UNL     1      -8.335  17.369   7.713  1.00  0.00     0.074 A 
ATOM     56  C   UNL     1      -7.456  16.225   7.811  1.00  0.00     0.031 C 
ATOM     57  C   UNL     1     -11.623  16.259   2.301  1.00  0.00     0.029 A 
ATOM     58  C   UNL     1     -11.783  17.381   3.219  1.00  0.00     0.049 A 
ATOM     59  H   UNL     1     -10.759  17.718   5.004  1.00  0.00     0.167 HD
ATOM     60  C   UNL     1      -8.357  18.398   8.594  1.00  0.00     0.031 A 
ATOM     61  C   UNL     1     -12.654  18.394   3.044  1.00  0.00     0.031 A 
ATOM     62  C   UNL     1      -9.230  19.541   8.472  1.00  0.00     0.049 A 
ATOM     63  C   UNL     1     -12.690  19.496   4.061  1.00  0.00     0.074 A 
ATOM     64  C   UNL     1      -9.301  20.651   9.296  1.00  0.00     0.029 A 
ATOM     65  N   UNL     1     -10.175  19.727   7.473  1.00  0.00    -0.354 N 
ATOM     66  N   UNL     1     -11.929  19.662   5.117  1.00  0.00    -0.248 NA
ATOM     67  C   UNL     1     -13.694  20.548   3.865  1.00  0.00     0.031 C 
ATOM     68  C   UNL     1     -10.347  21.460   8.850  1.00  0.00     0.029 A 
ATOM     69  C   UNL     1     -10.866  20.910   7.689  1.00  0.00     0.049 A 
ATOM     70  H   UNL     1     -10.332  19.111   6.721  1.00  0.00     0.167 HD
ATOM     71  C   UNL     1     -12.359  20.843   5.709  1.00  0.00     0.074 A 
ATOM     72  C   UNL     1     -13.416  21.369   4.870  1.00  0.00     0.031 C 
ATOM     73  C   UNL     1     -11.925  21.427   6.853  1.00  0.00     0.031 A 
BRANCH  60  74
ATOM     74  C   UNL     1      -7.412  18.369   9.774  1.00  0.00    -0.014 A 
ATOM     75  C   UNL     1      -7.930  18.349  11.085  1.00  0.00     0.010 A 
ATOM     76  C   UNL     1      -6.024  18.519   9.598  1.00  0.00     0.010 A 
ATOM     77  C   UNL     1      -7.091  18.531  12.188  1.00  0.00     0.020 A 
ATOM     78  C   UNL     1      -5.176  18.664  10.701  1.00  0.00     0.020 A 
ATOM     79  C   UNL     1      -5.720  18.701  11.988  1.00  0.00     0.054 A 
BRANCH  79  80
ATOM     80  S   UNL     1      -4.657  19.003  13.427  1.00  0.00     0.124 S 
ATOM     81  O   UNL     1      -5.049  20.351  13.824  1.00  0.00    -0.237 OA
ATOM     82  O   UNL     1      -5.050  17.934  14.341  1.00  0.00    -0.237 OA
ATOM     83  O   UNL     1      -3.304  18.881  12.886  1.00  0.00    -0.744 OA
ENDBRANCH  79  80
ENDBRANCH  60  74
BRANCH  61  84
ATOM     84  C   UNL     1     -13.530  18.396   1.838  1.00  0.00    -0.014 A 
ATOM     85  C   UNL     1     -14.459  17.355   1.631  1.00  0.00     0.010 A 
ATOM     86  C   UNL     1     -13.369  19.370   0.839  1.00  0.00     0.010 A 
ATOM     87  C   UNL     1     -15.142  17.241   0.419  1.00  0.00     0.020 A 
ATOM     88  C   UNL     1     -14.087  19.286  -0.359  1.00  0.00     0.020 A 
ATOM     89  C   UNL     1     -14.939  18.200  -0.575  1.00  0.00     0.054 A 
BRANCH  89  90
ATOM     90  S   UNL     1     -15.775  17.983  -2.169  1.00  0.00     0.124 S 
ATOM     91  O   UNL     1     -15.049  16.850  -2.735  1.00  0.00    -0.237 OA
ATOM     92  O   UNL     1     -17.153  17.711  -1.768  1.00  0.00    -0.237 OA
ATOM     93  O   UNL     1     -15.564  19.261  -2.844  1.00  0.00    -0.744 OA
ENDBRANCH  89  90
ENDBRANCH  61  84
BRANCH  73  94
ATOM     94  C   UNL     1     -12.601  22.701   7.298  1.00  0.00    -0.014 A 
ATOM     95  C   UNL     1     -11.861  23.895   7.398  1.00  0.00     0.010 A 
ATOM     96  C   UNL     1     -13.937  22.689   7.737  1.00  0.00     0.010 A 
ATOM     97  C   UNL     1     -12.428  25.036   7.970  1.00  0.00     0.020 A 
ATOM     98  C   UNL     1     -14.522  23.842   8.269  1.00  0.00     0.020 A 
ATOM     99  C   UNL     1     -13.753  24.999   8.410  1.00  0.00     0.054 A 
BRANCH  99 100
ATOM    100  S   UNL     1     -14.455  26.478   9.190  1.00  0.00     0.124 S 
ATOM    101  O   UNL     1     -13.760  26.508  10.473  1.00  0.00    -0.237 OA
ATOM    102  O   UNL     1     -14.092  27.536   8.251  1.00  0.00    -0.237 OA
ATOM    103  O   UNL     1     -15.885  26.183   9.263  1.00  0.00    -0.744 OA
ENDBRANCH  99 100
ENDBRANCH  73  94
ENDBRANCH  47  48
ENDBRANCH  39  42
ENDBRANCH  37  38
ENDBRANCH  36  37
ENDBRANCH   1  36
TORSDOF 19
