REMARK SMILES O=C(NCCCCNC(=O)[C@H]1C[C@H](O)CN1S(=O)(=O)c1ccc2c(c1)OCCO2)c1ccc(-c2c3nc(c(-c4ccc(S(=O)(=O)[O-])cc4)c4ccc([nH]4)c(-c4ccc(S(=O)(=O)[O-])cc4)c4nc(c(-c5ccc(S(=O)(=O)[O-])cc5)c5ccc2[nH]5)C=C4)C=C3)cc1
REMARK SMILES IDX 5 1 4 2 3 3 1 4 2 5 30 7 31 8 89 9 32 10 88 11 33 12 34 13
REMARK SMILES IDX 35 14 82 15 36 16 87 17 81 18 83 19 37 20 86 21 80 22 79 23
REMARK SMILES IDX 38 25 68 26 49 27 67 28 50 29 53 30 66 31 84 32 51 33 52 34
REMARK SMILES IDX 65 36 85 37 54 38 39 39 40 40 48 41 41 42 47 43 42 44 43 45
REMARK SMILES IDX 44 46 45 47 46 48 69 49 70 50 78 51 71 52 77 53 72 54 73 55
REMARK SMILES IDX 74 56 75 57 76 58 55 59 56 60 64 61 57 62 63 63 58 64 59 65
REMARK SMILES IDX 60 66 61 67 62 68 6 69 7 70 8 71 9 72 10 74 11 75 12 76
REMARK SMILES IDX 16 77 13 78 15 79 17 80 18 81 19 82 20 83 21 84 25 85 22 86
REMARK SMILES IDX 24 87 23 88 26 89 29 90 27 91 28 92 14 93
REMARK H PARENT 3 6 83 24 53 35 8 73 14 94
REMARK Flexibility Score: inf
ROOT
ATOM      1  C   UNL     1       4.947  -2.638   0.132  1.00  0.00     0.023 C 
ENDROOT
BRANCH   1   2
ATOM      2  C   UNL     1       4.633  -1.206  -0.291  1.00  0.00     0.116 C 
BRANCH   2   3
ATOM      3  N   UNL     1       3.210  -0.942  -0.457  1.00  0.00    -0.352 N 
ATOM      4  O   UNL     1       1.246   0.129  -0.173  1.00  0.00    -0.269 OA
ATOM      5  C   UNL     1       2.462   0.119  -0.000  1.00  0.00     0.251 C 
ATOM      6  H   UNL     1       2.713  -1.620  -0.969  1.00  0.00     0.163 HD
BRANCH   5   7
ATOM      7  C   UNL     1       3.118   1.223   0.737  1.00  0.00     0.039 A 
ATOM      8  C   UNL     1       4.304   1.792   0.271  1.00  0.00     0.014 A 
ATOM      9  C   UNL     1       2.550   1.669   1.935  1.00  0.00     0.014 A 
ATOM     10  C   UNL     1       5.009   2.675   1.083  1.00  0.00     0.010 A 
ATOM     11  C   UNL     1       3.222   2.619   2.711  1.00  0.00     0.010 A 
ATOM     12  C   UNL     1       4.484   3.090   2.319  1.00  0.00    -0.014 A 
BRANCH  12  13
ATOM     13  C   UNL     1       5.276   4.013   3.174  1.00  0.00     0.031 A 
ATOM     14  C   UNL     1       5.808   3.568   4.512  1.00  0.00     0.074 A 
ATOM     15  C   UNL     1       5.565   5.247   2.714  1.00  0.00     0.049 A 
ATOM     16  N   UNL     1       6.575   4.220   5.351  1.00  0.00    -0.248 NA
ATOM     17  C   UNL     1       5.427   2.224   4.975  1.00  0.00     0.031 C 
ATOM     18  C   UNL     1       5.106   5.800   1.438  1.00  0.00     0.029 A 
ATOM     19  N   UNL     1       6.337   6.246   3.250  1.00  0.00    -0.354 N 
ATOM     20  C   UNL     1       6.744   3.382   6.448  1.00  0.00     0.074 A 
ATOM     21  C   UNL     1       5.984   2.180   6.178  1.00  0.00     0.031 C 
ATOM     22  C   UNL     1       5.654   7.011   1.261  1.00  0.00     0.029 A 
ATOM     23  C   UNL     1       6.460   7.343   2.431  1.00  0.00     0.049 A 
ATOM     24  H   UNL     1       6.763   6.183   4.136  1.00  0.00     0.167 HD
ATOM     25  C   UNL     1       7.468   3.590   7.575  1.00  0.00     0.031 A 
ATOM     26  C   UNL     1       7.146   8.489   2.597  1.00  0.00     0.031 A 
ATOM     27  C   UNL     1       8.240   4.777   7.836  1.00  0.00     0.049 A 
ATOM     28  C   UNL     1       7.949   8.691   3.849  1.00  0.00     0.074 A 
ATOM     29  C   UNL     1       9.036   5.063   8.933  1.00  0.00     0.029 A 
ATOM     30  N   UNL     1       8.316   5.874   6.992  1.00  0.00    -0.354 N 
ATOM     31  N   UNL     1       8.116   7.873   4.860  1.00  0.00    -0.248 NA
ATOM     32  C   UNL     1       8.660   9.969   3.978  1.00  0.00     0.031 C 
ATOM     33  C   UNL     1       9.562   6.350   8.770  1.00  0.00     0.029 A 
ATOM     34  C   UNL     1       9.132   6.846   7.550  1.00  0.00     0.049 A 
ATOM     35  H   UNL     1       7.859   5.952   6.124  1.00  0.00     0.167 HD
ATOM     36  C   UNL     1       8.970   8.529   5.737  1.00  0.00     0.074 A 
ATOM     37  C   UNL     1       9.296   9.805   5.131  1.00  0.00     0.031 C 
ATOM     38  C   UNL     1       9.444   8.111   6.937  1.00  0.00     0.031 A 
BRANCH  25  39
ATOM     39  C   UNL     1       7.436   2.516   8.632  1.00  0.00    -0.014 A 
ATOM     40  C   UNL     1       8.118   1.299   8.460  1.00  0.00     0.010 A 
ATOM     41  C   UNL     1       6.739   2.747   9.833  1.00  0.00     0.010 A 
ATOM     42  C   UNL     1       8.068   0.314   9.452  1.00  0.00     0.020 A 
ATOM     43  C   UNL     1       6.707   1.774  10.837  1.00  0.00     0.020 A 
ATOM     44  C   UNL     1       7.356   0.555  10.631  1.00  0.00     0.054 A 
BRANCH  44  45
ATOM     45  S   UNL     1       7.310  -0.734  11.907  1.00  0.00     0.124 S 
ATOM     46  O   UNL     1       6.351  -1.681  11.343  1.00  0.00    -0.237 OA
ATOM     47  O   UNL     1       8.695  -1.196  11.950  1.00  0.00    -0.237 OA
ATOM     48  O   UNL     1       6.857  -0.025  13.101  1.00  0.00    -0.744 OA
ENDBRANCH  44  45
ENDBRANCH  25  39
BRANCH  26  49
ATOM     49  C   UNL     1       7.111   9.526   1.532  1.00  0.00    -0.014 A 
ATOM     50  C   UNL     1       8.240   9.761   0.729  1.00  0.00     0.010 A 
ATOM     51  C   UNL     1       5.935  10.261   1.295  1.00  0.00     0.010 A 
ATOM     52  C   UNL     1       8.198  10.719  -0.288  1.00  0.00     0.020 A 
ATOM     53  C   UNL     1       5.881  11.201   0.264  1.00  0.00     0.020 A 
ATOM     54  C   UNL     1       7.016  11.432  -0.515  1.00  0.00     0.054 A 
BRANCH  54  55
ATOM     55  S   UNL     1       6.959  12.624  -1.881  1.00  0.00     0.124 S 
ATOM     56  O   UNL     1       7.670  13.766  -1.316  1.00  0.00    -0.237 OA
ATOM     57  O   UNL     1       7.650  11.914  -2.954  1.00  0.00    -0.237 OA
ATOM     58  O   UNL     1       5.527  12.822  -2.099  1.00  0.00    -0.744 OA
ENDBRANCH  54  55
ENDBRANCH  26  49
BRANCH  38  59
ATOM     59  C   UNL     1      10.394   9.030   7.655  1.00  0.00    -0.014 A 
ATOM     60  C   UNL     1       9.939  10.203   8.283  1.00  0.00     0.010 A 
ATOM     61  C   UNL     1      11.760   8.700   7.721  1.00  0.00     0.010 A 
ATOM     62  C   UNL     1      10.841  11.050   8.931  1.00  0.00     0.020 A 
ATOM     63  C   UNL     1      12.661   9.533   8.388  1.00  0.00     0.020 A 
ATOM     64  C   UNL     1      12.198  10.713   8.973  1.00  0.00     0.054 A 
BRANCH  64  65
ATOM     65  S   UNL     1      13.350  11.816   9.838  1.00  0.00     0.124 S 
ATOM     66  O   UNL     1      13.534  12.887   8.863  1.00  0.00    -0.237 OA
ATOM     67  O   UNL     1      12.607  12.182  11.042  1.00  0.00    -0.237 OA
ATOM     68  O   UNL     1      14.523  10.975  10.071  1.00  0.00    -0.744 OA
ENDBRANCH  64  65
ENDBRANCH  38  59
ENDBRANCH  12  13
ENDBRANCH   5   7
ENDBRANCH   2   3
ENDBRANCH   1   2
BRANCH   1  69
ATOM     69  C   UNL     1       4.450  -3.739  -0.805  1.00  0.00     0.023 C 
BRANCH  69  70
ATOM     70  C   UNL     1       4.803  -3.551  -2.277  1.00  0.00     0.116 C 
BRANCH  70  71
ATOM     71  N   UNL     1       6.232  -3.504  -2.520  1.00  0.00    -0.355 N 
ATOM     72  C   UNL     1       7.057  -4.391  -3.151  1.00  0.00     0.238 C 
ATOM     73  H   UNL     1       6.682  -2.701  -2.171  1.00  0.00     0.163 HD
ATOM     74  O   UNL     1       8.239  -4.075  -3.298  1.00  0.00    -0.273 OA
BRANCH  72  75
ATOM     75  C   UNL     1       6.508  -5.715  -3.668  1.00  0.00     0.165 C 
ATOM     76  C   UNL     1       7.096  -6.064  -5.051  1.00  0.00     0.063 C 
ATOM     77  N   UNL     1       6.648  -6.957  -2.811  1.00  0.00    -0.183 NA
ATOM     78  C   UNL     1       7.548  -7.510  -4.959  1.00  0.00     0.131 C 
ATOM     79  C   UNL     1       6.729  -8.065  -3.800  1.00  0.00     0.135 C 
BRANCH  77  80
ATOM     80  S   UNL     1       7.897  -6.896  -1.628  1.00  0.00     0.244 S 
ATOM     81  O   UNL     1       9.164  -7.027  -2.311  1.00  0.00    -0.207 OA
ATOM     82  O   UNL     1       7.608  -5.785  -0.748  1.00  0.00    -0.207 OA
BRANCH  80  83
ATOM     83  C   UNL     1       7.672  -8.378  -0.657  1.00  0.00     0.086 A 
ATOM     84  C   UNL     1       7.103  -8.294   0.620  1.00  0.00     0.026 A 
ATOM     85  C   UNL     1       8.171  -9.598  -1.126  1.00  0.00     0.072 A 
ATOM     86  C   UNL     1       7.000  -9.442   1.411  1.00  0.00     0.052 A 
ATOM     87  C   UNL     1       8.001 -10.748  -0.362  1.00  0.00     0.162 A 
ATOM     88  C   UNL     1       7.447 -10.668   0.920  1.00  0.00     0.161 A 
ATOM     89  O   UNL     1       8.401 -11.930  -0.935  1.00  0.00    -0.486 OA
ATOM     90  O   UNL     1       7.310 -11.755   1.746  1.00  0.00    -0.486 OA
ATOM     91  C   UNL     1       7.852 -13.051  -0.231  1.00  0.00     0.271 C 
ATOM     92  C   UNL     1       8.059 -12.879   1.264  1.00  0.00     0.271 C 
ENDBRANCH  80  83
ENDBRANCH  77  80
BRANCH  78  93
ATOM     93  O   UNL     1       7.313  -8.214  -6.171  1.00  0.00    -0.392 OA
ATOM     94  H   UNL     1       6.370  -8.174  -6.391  1.00  0.00     0.211 HD
ENDBRANCH  78  93
ENDBRANCH  72  75
ENDBRANCH  70  71
ENDBRANCH  69  70
ENDBRANCH   1  69
TORSDOF 17
