REMARK SMILES O=C(Cn1cnc(-c2ccccc2)c1-c1ccccc1)NCCCCNC(=O)c1ccc(-c2c3nc(c(-c4ccc(S(=O)(=O)[O-])cc4)c4ccc([nH]4)c(-c4ccc(S(=O)(=O)[O-])cc4)c4nc(c(-c5ccc(S(=O)(=O)[O-])cc5)c5ccc2[nH]5)C=C4)C=C3)cc1
REMARK SMILES IDX 24 1 23 2 22 3 21 4 1 5 2 6 3 8 4 9 5 10 14 11 6 12 7 13
REMARK SMILES IDX 15 14 16 15 20 16 17 17 19 18 18 19 8 20 9 21 13 22 10 23
REMARK SMILES IDX 12 24 11 25 25 26 26 27 27 28 28 30 29 31 30 32 88 33 31 34
REMARK SMILES IDX 87 35 32 36 33 37 34 38 81 39 35 40 86 41 80 42 82 43 36 44
REMARK SMILES IDX 85 45 79 46 78 47 37 49 67 50 48 51 66 52 49 53 52 54 65 55
REMARK SMILES IDX 83 56 50 57 51 58 64 60 84 61 53 62 38 63 39 64 47 65 40 66
REMARK SMILES IDX 46 67 41 68 42 69 43 70 44 71 45 72 68 73 69 74 77 75 70 76
REMARK SMILES IDX 76 77 71 78 72 79 73 80 74 81 75 82 54 83 55 84 63 85 56 86
REMARK SMILES IDX 62 87 57 88 58 89 59 90 60 91 61 92
REMARK H PARENT 21 7 26 29 82 48 52 59
REMARK Flexibility Score: inf
ROOT
ATOM      1  C   UNL     1       3.860  -2.244   3.289  1.00  0.00     0.023 C 
ENDROOT
BRANCH   1   2
ATOM      2  C   UNL     1       2.385  -1.891   3.047  1.00  0.00     0.023 C 
BRANCH   2   3
ATOM      3  C   UNL     1       2.099  -0.488   2.500  1.00  0.00     0.116 C 
BRANCH   3   4
ATOM      4  N   UNL     1       2.762  -0.221   1.237  1.00  0.00    -0.355 N 
ATOM      5  O   UNL     1       0.841  -0.063  -0.012  1.00  0.00    -0.273 OA
ATOM      6  C   UNL     1       2.066   0.015   0.067  1.00  0.00     0.239 C 
ATOM      7  H   UNL     1       3.746  -0.207   1.212  1.00  0.00     0.163 HD
BRANCH   6   8
ATOM      8  C   UNL     1       2.916   0.282  -1.159  1.00  0.00     0.223 C 
BRANCH   8   9
ATOM      9  N   UNL     1       3.827   1.398  -0.992  1.00  0.00    -0.321 N 
ATOM     10  C   UNL     1       3.433   2.708  -0.963  1.00  0.00     0.201 A 
ATOM     11  C   UNL     1       5.198   1.362  -0.834  1.00  0.00     0.076 A 
ATOM     12  N   UNL     1       4.448   3.513  -0.762  1.00  0.00    -0.236 NA
ATOM     13  C   UNL     1       5.555   2.703  -0.740  1.00  0.00     0.096 A 
BRANCH  11  14
ATOM     14  C   UNL     1       6.032   0.168  -0.743  1.00  0.00     0.000 A 
ATOM     15  C   UNL     1       6.802  -0.050   0.408  1.00  0.00     0.010 A 
ATOM     16  C   UNL     1       6.158  -0.711  -1.824  1.00  0.00     0.010 A 
ATOM     17  C   UNL     1       7.683  -1.128   0.478  1.00  0.00     0.001 A 
ATOM     18  C   UNL     1       7.033  -1.796  -1.750  1.00  0.00     0.001 A 
ATOM     19  C   UNL     1       7.797  -2.002  -0.602  1.00  0.00     0.000 A 
ENDBRANCH  11  14
BRANCH  13  20
ATOM     20  C   UNL     1       6.911   3.199  -0.595  1.00  0.00     0.002 A 
ATOM     21  C   UNL     1       7.249   4.000   0.497  1.00  0.00     0.010 A 
ATOM     22  C   UNL     1       7.902   2.858  -1.527  1.00  0.00     0.010 A 
ATOM     23  C   UNL     1       8.565   4.437   0.665  1.00  0.00     0.001 A 
ATOM     24  C   UNL     1       9.215   3.301  -1.359  1.00  0.00     0.001 A 
ATOM     25  C   UNL     1       9.547   4.089  -0.260  1.00  0.00     0.000 A 
ENDBRANCH  13  20
ENDBRANCH   8   9
ENDBRANCH   6   8
ENDBRANCH   3   4
ENDBRANCH   2   3
ENDBRANCH   1   2
BRANCH   1  26
ATOM     26  C   UNL     1       4.609  -1.297   4.218  1.00  0.00     0.116 C 
BRANCH  26  27
ATOM     27  N   UNL     1       4.146  -1.347   5.602  1.00  0.00    -0.352 N 
ATOM     28  C   UNL     1       4.630  -0.620   6.679  1.00  0.00     0.251 C 
ATOM     29  H   UNL     1       3.406  -1.967   5.792  1.00  0.00     0.163 HD
ATOM     30  O   UNL     1       4.461  -1.019   7.821  1.00  0.00    -0.269 OA
BRANCH  28  31
ATOM     31  C   UNL     1       5.370   0.635   6.419  1.00  0.00     0.039 A 
ATOM     32  C   UNL     1       6.503   0.969   7.162  1.00  0.00     0.014 A 
ATOM     33  C   UNL     1       4.933   1.468   5.392  1.00  0.00     0.014 A 
ATOM     34  C   UNL     1       7.244   2.091   6.788  1.00  0.00     0.010 A 
ATOM     35  C   UNL     1       5.741   2.486   4.934  1.00  0.00     0.010 A 
ATOM     36  C   UNL     1       6.885   2.829   5.643  1.00  0.00    -0.014 A 
BRANCH  36  37
ATOM     37  C   UNL     1       7.786   3.860   5.119  1.00  0.00     0.031 A 
ATOM     38  C   UNL     1       9.210   3.440   5.049  1.00  0.00     0.074 A 
ATOM     39  C   UNL     1       7.409   5.044   4.585  1.00  0.00     0.049 A 
ATOM     40  N   UNL     1      10.155   3.796   5.853  1.00  0.00    -0.248 NA
ATOM     41  C   UNL     1       9.599   2.384   4.101  1.00  0.00     0.031 C 
ATOM     42  C   UNL     1       6.053   5.528   4.309  1.00  0.00     0.029 A 
ATOM     43  N   UNL     1       8.186   6.043   4.070  1.00  0.00    -0.354 N 
ATOM     44  C   UNL     1      11.314   3.217   5.355  1.00  0.00     0.074 A 
ATOM     45  C   UNL     1      10.884   2.206   4.421  1.00  0.00     0.031 C 
ATOM     46  C   UNL     1       6.107   6.584   3.467  1.00  0.00     0.029 A 
ATOM     47  C   UNL     1       7.495   6.967   3.288  1.00  0.00     0.049 A 
ATOM     48  H   UNL     1       9.154   6.105   4.238  1.00  0.00     0.167 HD
ATOM     49  C   UNL     1      12.527   3.811   5.537  1.00  0.00     0.031 A 
ATOM     50  C   UNL     1       8.023   7.962   2.527  1.00  0.00     0.031 A 
ATOM     51  C   UNL     1      12.468   4.856   6.531  1.00  0.00     0.049 A 
ATOM     52  C   UNL     1       9.361   8.269   3.085  1.00  0.00     0.074 A 
ATOM     53  C   UNL     1      12.053   4.927   7.848  1.00  0.00     0.029 A 
ATOM     54  N   UNL     1      12.489   6.154   6.073  1.00  0.00    -0.354 N 
ATOM     55  N   UNL     1       9.534   8.796   4.263  1.00  0.00    -0.248 NA
ATOM     56  C   UNL     1      10.522   7.591   2.532  1.00  0.00     0.031 C 
ATOM     57  C   UNL     1      11.381   6.181   7.953  1.00  0.00     0.029 A 
ATOM     58  C   UNL     1      11.502   6.842   6.729  1.00  0.00     0.049 A 
ATOM     59  H   UNL     1      13.102   6.521   5.396  1.00  0.00     0.167 HD
ATOM     60  C   UNL     1      10.627   8.125   4.790  1.00  0.00     0.074 A 
ATOM     61  C   UNL     1      11.260   7.481   3.640  1.00  0.00     0.031 C 
ATOM     62  C   UNL     1      10.747   7.927   6.138  1.00  0.00     0.031 A 
BRANCH  49  63
ATOM     63  C   UNL     1      13.633   3.759   4.511  1.00  0.00    -0.014 A 
ATOM     64  C   UNL     1      14.874   4.351   4.821  1.00  0.00     0.010 A 
ATOM     65  C   UNL     1      13.403   3.419   3.161  1.00  0.00     0.010 A 
ATOM     66  C   UNL     1      15.803   4.655   3.817  1.00  0.00     0.020 A 
ATOM     67  C   UNL     1      14.341   3.674   2.161  1.00  0.00     0.020 A 
ATOM     68  C   UNL     1      15.522   4.324   2.492  1.00  0.00     0.054 A 
BRANCH  68  69
ATOM     69  S   UNL     1      16.684   4.803   1.192  1.00  0.00     0.124 S 
ATOM     70  O   UNL     1      16.578   6.258   1.220  1.00  0.00    -0.237 OA
ATOM     71  O   UNL     1      17.941   4.247   1.685  1.00  0.00    -0.237 OA
ATOM     72  O   UNL     1      16.146   4.155  -0.001  1.00  0.00    -0.744 OA
ENDBRANCH  68  69
ENDBRANCH  49  63
BRANCH  50  73
ATOM     73  C   UNL     1       7.570   8.469   1.204  1.00  0.00    -0.014 A 
ATOM     74  C   UNL     1       8.169   9.604   0.624  1.00  0.00     0.010 A 
ATOM     75  C   UNL     1       6.763   7.668   0.371  1.00  0.00     0.010 A 
ATOM     76  C   UNL     1       8.043   9.871  -0.751  1.00  0.00     0.020 A 
ATOM     77  C   UNL     1       6.634   7.924  -1.001  1.00  0.00     0.020 A 
ATOM     78  C   UNL     1       7.299   9.011  -1.562  1.00  0.00     0.054 A 
BRANCH  78  79
ATOM     79  S   UNL     1       7.311   9.250  -3.365  1.00  0.00     0.124 S 
ATOM     80  O   UNL     1       6.517  10.465  -3.525  1.00  0.00    -0.237 OA
ATOM     81  O   UNL     1       8.735   9.387  -3.660  1.00  0.00    -0.237 OA
ATOM     82  O   UNL     1       6.691   8.033  -3.886  1.00  0.00    -0.744 OA
ENDBRANCH  78  79
ENDBRANCH  50  73
BRANCH  62  83
ATOM     83  C   UNL     1       9.885   8.750   7.072  1.00  0.00    -0.014 A 
ATOM     84  C   UNL     1       8.479   8.828   7.007  1.00  0.00     0.010 A 
ATOM     85  C   UNL     1      10.538   9.412   8.128  1.00  0.00     0.010 A 
ATOM     86  C   UNL     1       7.759   9.599   7.934  1.00  0.00     0.020 A 
ATOM     87  C   UNL     1       9.826  10.160   9.068  1.00  0.00     0.020 A 
ATOM     88  C   UNL     1       8.441  10.269   8.953  1.00  0.00     0.054 A 
BRANCH  88  89
ATOM     89  S   UNL     1       7.512  11.284  10.137  1.00  0.00     0.124 S 
ATOM     90  O   UNL     1       7.016  12.373   9.301  1.00  0.00    -0.237 OA
ATOM     91  O   UNL     1       6.497  10.357  10.633  1.00  0.00    -0.237 OA
ATOM     92  O   UNL     1       8.518  11.674  11.125  1.00  0.00    -0.744 OA
ENDBRANCH  88  89
ENDBRANCH  62  83
ENDBRANCH  36  37
ENDBRANCH  28  31
ENDBRANCH  26  27
ENDBRANCH   1  26
TORSDOF 17
