REMARK SMILES Cc1ccc(C(C)(C)C)c(OCC(=O)c2nc(C)c(C(=O)NCCCCNC(=O)c3ccc(-c4c5nc(c(-c6ccc(S(=O)(=O)[O-])cc6)c6ccc([nH]6)c(-c6ccc(S(=O)(=O)[O-])cc6)c6nc(c(-c7ccc(S(=O)(=O)[O-])cc7)c7ccc4[nH]7)C=C6)C=C5)cc3)s2)c1
REMARK SMILES IDX 23 1 22 2 20 3 21 4 19 6 15 7 16 8 90 9 17 10 18 11 13 12
REMARK SMILES IDX 14 13 12 14 11 15 10 16 1 17 2 18 3 19 91 20 4 21 5 22 6 23
REMARK SMILES IDX 7 24 8 25 9 26 24 27 25 28 26 29 27 30 28 31 29 33 30 34
REMARK SMILES IDX 31 35 89 36 32 37 88 38 33 39 34 40 35 41 82 42 36 43 87 44
REMARK SMILES IDX 81 45 83 46 37 47 86 48 80 49 79 50 38 52 68 53 49 54 67 55
REMARK SMILES IDX 50 56 53 57 66 58 84 59 51 60 52 61 65 63 85 64 54 65 39 66
REMARK SMILES IDX 40 67 48 68 41 69 47 70 42 71 43 72 44 73 45 74 46 75 69 76
REMARK SMILES IDX 70 77 78 78 71 79 77 80 72 81 73 82 74 83 75 84 76 85 55 86
REMARK SMILES IDX 56 87 64 88 57 89 63 90 58 91 59 92 60 93 61 94 62 95
REMARK H PARENT 22 5 27 32 83 51 53 62
REMARK Flexibility Score: inf
ROOT
ATOM      1  C   UNL     1      -2.213   4.286   7.671  1.00  0.00     0.116 C 
ENDROOT
BRANCH   1   2
ATOM      2  N   UNL     1      -2.953   3.469   6.735  1.00  0.00    -0.351 N 
ATOM      3  C   UNL     1      -2.847   3.193   5.399  1.00  0.00     0.263 C 
ATOM      4  O   UNL     1      -3.728   2.407   5.018  1.00  0.00    -0.268 OA
ATOM      5  H   UNL     1      -3.709   3.002   7.158  1.00  0.00     0.163 HD
BRANCH   3   6
ATOM      6  C   UNL     1      -1.839   3.724   4.480  1.00  0.00     0.115 A 
ATOM      7  C   UNL     1      -0.607   3.962   2.349  1.00  0.00     0.164 A 
ATOM      8  N   UNL     1      -0.126   4.776   3.255  1.00  0.00    -0.237 NA
ATOM      9  S   UNL     1      -1.889   2.997   2.882  1.00  0.00    -0.105 S 
ATOM     10  C   UNL     1      -0.825   4.682   4.459  1.00  0.00     0.062 A 
ATOM     11  C   UNL     1      -0.339   5.658   5.466  1.00  0.00     0.068 C 
BRANCH   7  12
ATOM     12  C   UNL     1      -0.047   3.921   1.006  1.00  0.00     0.228 C 
ATOM     13  O   UNL     1       1.119   4.250   0.751  1.00  0.00    -0.288 OA
BRANCH  12  14
ATOM     14  C   UNL     1      -0.970   3.582  -0.174  1.00  0.00     0.313 C 
BRANCH  14  15
ATOM     15  O   UNL     1      -1.688   2.370  -0.238  1.00  0.00    -0.485 OA
BRANCH  15  16
ATOM     16  C   UNL     1      -1.030   1.174  -0.209  1.00  0.00     0.123 A 
ATOM     17  C   UNL     1       2.532  -0.217  -0.135  1.00  0.00     0.044 C 
ATOM     18  C   UNL     1       1.034  -0.143  -0.131  1.00  0.00    -0.047 A 
ATOM     19  C   UNL     1       0.275  -1.299   0.003  1.00  0.00     0.004 A 
ATOM     20  C   UNL     1       0.372   1.081  -0.267  1.00  0.00     0.050 A 
ATOM     21  C   UNL     1      -1.119  -1.225   0.007  1.00  0.00     0.008 A 
ATOM     22  C   UNL     1      -1.815   0.004  -0.097  1.00  0.00    -0.000 A 
BRANCH  22  23
ATOM     23  C   UNL     1      -3.366  -0.050  -0.091  1.00  0.00    -0.010 C 
ATOM     24  C   UNL     1      -3.837  -0.859  -1.324  1.00  0.00     0.016 C 
ATOM     25  C   UNL     1      -3.858  -0.756   1.196  1.00  0.00     0.016 C 
ATOM     26  C   UNL     1      -4.123   1.297  -0.154  1.00  0.00     0.016 C 
ENDBRANCH  22  23
ENDBRANCH  15  16
ENDBRANCH  14  15
ENDBRANCH  12  14
ENDBRANCH   7  12
ENDBRANCH   3   6
ENDBRANCH   1   2
BRANCH   1  27
ATOM     27  C   UNL     1      -2.809   5.698   7.782  1.00  0.00     0.023 C 
BRANCH  27  28
ATOM     28  C   UNL     1      -4.092   5.786   8.611  1.00  0.00     0.023 C 
BRANCH  28  29
ATOM     29  C   UNL     1      -3.844   5.560  10.094  1.00  0.00     0.116 C 
BRANCH  29  30
ATOM     30  N   UNL     1      -3.736   6.763  10.897  1.00  0.00    -0.352 N 
ATOM     31  C   UNL     1      -3.505   6.838  12.268  1.00  0.00     0.251 C 
ATOM     32  H   UNL     1      -3.837   7.619  10.422  1.00  0.00     0.163 HD
ATOM     33  O   UNL     1      -3.751   7.828  12.914  1.00  0.00    -0.269 OA
BRANCH  31  34
ATOM     34  C   UNL     1      -2.812   5.677  12.885  1.00  0.00     0.039 A 
ATOM     35  C   UNL     1      -1.513   5.894  13.360  1.00  0.00     0.014 A 
ATOM     36  C   UNL     1      -3.305   4.386  12.722  1.00  0.00     0.014 A 
ATOM     37  C   UNL     1      -0.644   4.813  13.501  1.00  0.00     0.010 A 
ATOM     38  C   UNL     1      -2.412   3.331  12.756  1.00  0.00     0.010 A 
ATOM     39  C   UNL     1      -1.071   3.545  13.109  1.00  0.00    -0.014 A 
BRANCH  39  40
ATOM     40  C   UNL     1      -0.180   2.397  12.966  1.00  0.00     0.031 A 
ATOM     41  C   UNL     1      -0.244   1.279  13.940  1.00  0.00     0.074 A 
ATOM     42  C   UNL     1       0.667   2.295  11.916  1.00  0.00     0.049 A 
ATOM     43  N   UNL     1       0.748   0.498  14.220  1.00  0.00    -0.248 NA
ATOM     44  C   UNL     1      -1.447   0.981  14.713  1.00  0.00     0.031 C 
ATOM     45  C   UNL     1       1.370   1.087  11.485  1.00  0.00     0.029 A 
ATOM     46  N   UNL     1       1.234   3.307  11.140  1.00  0.00    -0.354 N 
ATOM     47  C   UNL     1       0.243  -0.557  14.946  1.00  0.00     0.074 A 
ATOM     48  C   UNL     1      -1.105  -0.171  15.296  1.00  0.00     0.031 C 
ATOM     49  C   UNL     1       2.451   1.448  10.778  1.00  0.00     0.029 A 
ATOM     50  C   UNL     1       2.547   2.896  10.847  1.00  0.00     0.049 A 
ATOM     51  H   UNL     1       0.801   4.144  10.855  1.00  0.00     0.167 HD
ATOM     52  C   UNL     1       0.939  -1.724  15.053  1.00  0.00     0.031 A 
ATOM     53  C   UNL     1       3.673   3.598  11.164  1.00  0.00     0.031 A 
ATOM     54  C   UNL     1       2.226  -1.669  14.369  1.00  0.00     0.049 A 
ATOM     55  C   UNL     1       4.660   2.810  11.995  1.00  0.00     0.074 A 
ATOM     56  C   UNL     1       2.654  -2.138  13.137  1.00  0.00     0.029 A 
ATOM     57  N   UNL     1       3.222  -0.821  14.836  1.00  0.00    -0.354 N 
ATOM     58  N   UNL     1       4.374   1.684  12.585  1.00  0.00    -0.248 NA
ATOM     59  C   UNL     1       6.018   3.261  12.291  1.00  0.00     0.031 C 
ATOM     60  C   UNL     1       3.895  -1.524  12.839  1.00  0.00     0.029 A 
ATOM     61  C   UNL     1       4.226  -0.695  13.895  1.00  0.00     0.049 A 
ATOM     62  H   UNL     1       3.214  -0.374  15.713  1.00  0.00     0.167 HD
ATOM     63  C   UNL     1       5.436   1.285  13.355  1.00  0.00     0.074 A 
ATOM     64  C   UNL     1       6.452   2.291  13.115  1.00  0.00     0.031 C 
ATOM     65  C   UNL     1       5.369   0.172  14.143  1.00  0.00     0.031 A 
BRANCH  52  66
ATOM     66  C   UNL     1       0.283  -3.011  15.500  1.00  0.00    -0.014 A 
ATOM     67  C   UNL     1       0.658  -4.230  14.901  1.00  0.00     0.010 A 
ATOM     68  C   UNL     1      -0.748  -3.075  16.457  1.00  0.00     0.010 A 
ATOM     69  C   UNL     1      -0.038  -5.422  15.142  1.00  0.00     0.020 A 
ATOM     70  C   UNL     1      -1.482  -4.251  16.677  1.00  0.00     0.020 A 
ATOM     71  C   UNL     1      -1.131  -5.417  16.003  1.00  0.00     0.054 A 
BRANCH  71  72
ATOM     72  S   UNL     1      -2.096  -6.937  16.203  1.00  0.00     0.124 S 
ATOM     73  O   UNL     1      -2.393  -7.309  14.821  1.00  0.00    -0.237 OA
ATOM     74  O   UNL     1      -1.160  -7.812  16.902  1.00  0.00    -0.237 OA
ATOM     75  O   UNL     1      -3.255  -6.511  16.985  1.00  0.00    -0.744 OA
ENDBRANCH  71  72
ENDBRANCH  52  66
BRANCH  53  76
ATOM     76  C   UNL     1       3.472   5.067  11.273  1.00  0.00    -0.014 A 
ATOM     77  C   UNL     1       3.227   5.779  10.081  1.00  0.00     0.010 A 
ATOM     78  C   UNL     1       3.093   5.633  12.503  1.00  0.00     0.010 A 
ATOM     79  C   UNL     1       2.456   6.942  10.101  1.00  0.00     0.020 A 
ATOM     80  C   UNL     1       2.322   6.802  12.524  1.00  0.00     0.020 A 
ATOM     81  C   UNL     1       1.952   7.404  11.318  1.00  0.00     0.054 A 
BRANCH  81  82
ATOM     82  S   UNL     1       0.640   8.659  11.269  1.00  0.00     0.124 S 
ATOM     83  O   UNL     1       1.283   9.757  10.555  1.00  0.00    -0.237 OA
ATOM     84  O   UNL     1      -0.411   7.958  10.530  1.00  0.00    -0.237 OA
ATOM     85  O   UNL     1       0.357   8.902  12.679  1.00  0.00    -0.744 OA
ENDBRANCH  81  82
ENDBRANCH  53  76
BRANCH  65  86
ATOM     86  C   UNL     1       6.393  -0.260  15.164  1.00  0.00    -0.014 A 
ATOM     87  C   UNL     1       7.301   0.607  15.790  1.00  0.00     0.010 A 
ATOM     88  C   UNL     1       6.373  -1.601  15.620  1.00  0.00     0.010 A 
ATOM     89  C   UNL     1       8.190   0.148  16.775  1.00  0.00     0.020 A 
ATOM     90  C   UNL     1       7.223  -2.061  16.630  1.00  0.00     0.020 A 
ATOM     91  C   UNL     1       8.148  -1.185  17.185  1.00  0.00     0.054 A 
BRANCH  91  92
ATOM     92  S   UNL     1       9.255  -1.758  18.499  1.00  0.00     0.124 S 
ATOM     93  O   UNL     1      10.436  -2.165  17.742  1.00  0.00    -0.237 OA
ATOM     94  O   UNL     1       9.425  -0.567  19.330  1.00  0.00    -0.237 OA
ATOM     95  O   UNL     1       8.506  -2.843  19.127  1.00  0.00    -0.744 OA
ENDBRANCH  91  92
ENDBRANCH  65  86
ENDBRANCH  39  40
ENDBRANCH  31  34
ENDBRANCH  29  30
ENDBRANCH  28  29
ENDBRANCH  27  28
ENDBRANCH   1  27
TORSDOF 19
