REMARK SMILES CCCC[C@H](C(=O)NCCCCNC(=O)c1ccc(-c2c3nc(c(-c4ccc(S(=O)(=O)[O-])cc4)c4ccc([nH]4)c(-c4ccc(S(=O)(=O)[O-])cc4)c4nc(c(-c5ccc(S(=O)(=O)[O-])cc5)c5ccc2[nH]5)C=C4)C=C3)cc1)[C@H](O)c1ccc(C(F)(F)F)cc1
REMARK SMILES IDX 10 1 9 2 8 3 6 4 7 5 5 7 4 8 3 9 2 10 1 11 76 12 78 13 79 14
REMARK SMILES IDX 87 15 80 16 86 17 81 18 82 19 83 20 84 21 85 22 77 23 11 25
REMARK SMILES IDX 12 26 13 27 14 28 15 30 16 31 17 32 75 33 18 34 74 35 19 36
REMARK SMILES IDX 20 37 21 38 68 39 22 40 73 41 67 42 69 43 23 44 72 45 66 46
REMARK SMILES IDX 65 47 24 49 54 50 35 51 53 52 36 53 39 54 52 55 70 56 37 57
REMARK SMILES IDX 38 58 51 60 71 61 40 62 25 63 26 64 34 65 27 66 33 67 28 68
REMARK SMILES IDX 29 69 30 70 31 71 32 72 55 73 56 74 64 75 57 76 63 77 58 78
REMARK SMILES IDX 59 79 60 80 61 81 62 82 41 83 42 84 50 85 43 86 49 87 44 88
REMARK SMILES IDX 45 89 46 90 47 91 48 92
REMARK H PARENT 8 6 77 24 13 29 69 48 39 59
REMARK Flexibility Score: inf
ROOT
ATOM      1  C   UNL     1      -3.688   5.102  -3.402  1.00  0.00     0.023 C 
ENDROOT
BRANCH   1   2
ATOM      2  C   UNL     1      -2.369   4.550  -2.874  1.00  0.00     0.116 C 
BRANCH   2   3
ATOM      3  N   UNL     1      -1.781   5.373  -1.833  1.00  0.00    -0.356 N 
ATOM      4  C   UNL     1      -1.095   5.026  -0.711  1.00  0.00     0.226 C 
ATOM      5  O   UNL     1      -0.628   5.946  -0.032  1.00  0.00    -0.275 OA
ATOM      6  H   UNL     1      -1.899   6.342  -1.960  1.00  0.00     0.163 HD
BRANCH   4   7
ATOM      7  C   UNL     1      -0.922   3.570  -0.287  1.00  0.00     0.111 C 
BRANCH   7   8
ATOM      8  C   UNL     1       0.584   3.191  -0.331  1.00  0.00     0.016 C 
BRANCH   8   9
ATOM      9  C   UNL     1       1.087   2.615  -1.664  1.00  0.00     0.001 C 
BRANCH   9  10
ATOM     10  C   UNL     1       1.169   3.559  -2.859  1.00  0.00    -0.003 C 
ATOM     11  C   UNL     1       1.975   4.824  -2.628  1.00  0.00     0.004 C 
ENDBRANCH   9  10
ENDBRANCH   8   9
ENDBRANCH   7   8
BRANCH   7  12
ATOM     12  C   UNL     1      -1.486   3.472   1.161  1.00  0.00     0.157 C 
BRANCH  12  13
ATOM     13  C   UNL     1      -3.007   3.481   1.209  1.00  0.00    -0.019 A 
ATOM     14  C   UNL     1      -3.704   4.694   1.306  1.00  0.00     0.007 A 
ATOM     15  C   UNL     1      -3.747   2.289   1.153  1.00  0.00     0.007 A 
ATOM     16  C   UNL     1      -5.102   4.714   1.353  1.00  0.00     0.013 A 
ATOM     17  C   UNL     1      -5.143   2.307   1.214  1.00  0.00     0.013 A 
ATOM     18  C   UNL     1      -5.837   3.519   1.314  1.00  0.00     0.056 A 
BRANCH  18  19
ATOM     19  C   UNL     1      -7.344   3.554   1.380  1.00  0.00     0.416 C 
ATOM     20  F   UNL     1      -7.804   4.167   2.506  1.00  0.00    -0.166 F 
ATOM     21  F   UNL     1      -7.898   4.225   0.333  1.00  0.00    -0.166 F 
ATOM     22  F   UNL     1      -7.917   2.316   1.373  1.00  0.00    -0.166 F 
ENDBRANCH  18  19
ENDBRANCH  12  13
BRANCH  12  23
ATOM     23  O   UNL     1      -1.040   2.264   1.795  1.00  0.00    -0.388 OA
ATOM     24  H   UNL     1      -1.386   1.498   1.311  1.00  0.00     0.211 HD
ENDBRANCH  12  23
ENDBRANCH   7  12
ENDBRANCH   4   7
ENDBRANCH   2   3
ENDBRANCH   1   2
BRANCH   1  25
ATOM     25  C   UNL     1      -3.611   6.488  -4.050  1.00  0.00     0.023 C 
BRANCH  25  26
ATOM     26  C   UNL     1      -2.531   6.682  -5.113  1.00  0.00     0.116 C 
BRANCH  26  27
ATOM     27  N   UNL     1      -2.657   5.767  -6.236  1.00  0.00    -0.352 N 
ATOM     28  C   UNL     1      -2.779   6.033  -7.582  1.00  0.00     0.251 C 
ATOM     29  H   UNL     1      -2.656   4.811  -5.998  1.00  0.00     0.163 HD
ATOM     30  O   UNL     1      -2.998   5.117  -8.364  1.00  0.00    -0.269 OA
BRANCH  28  31
ATOM     31  C   UNL     1      -2.679   7.425  -8.078  1.00  0.00     0.039 A 
ATOM     32  C   UNL     1      -3.634   7.885  -8.989  1.00  0.00     0.014 A 
ATOM     33  C   UNL     1      -1.658   8.277  -7.649  1.00  0.00     0.014 A 
ATOM     34  C   UNL     1      -3.610   9.219  -9.406  1.00  0.00     0.010 A 
ATOM     35  C   UNL     1      -1.682   9.624  -8.004  1.00  0.00     0.010 A 
ATOM     36  C   UNL     1      -2.660  10.113  -8.884  1.00  0.00    -0.014 A 
BRANCH  36  37
ATOM     37  C   UNL     1      -2.690  11.559  -9.235  1.00  0.00     0.031 A 
ATOM     38  C   UNL     1      -1.530  12.194  -9.956  1.00  0.00     0.074 A 
ATOM     39  C   UNL     1      -3.736  12.318  -8.848  1.00  0.00     0.049 A 
ATOM     40  N   UNL     1      -1.362  13.445 -10.305  1.00  0.00    -0.248 NA
ATOM     41  C   UNL     1      -0.403  11.318 -10.311  1.00  0.00     0.031 C 
ATOM     42  C   UNL     1      -4.901  11.838  -8.100  1.00  0.00     0.029 A 
ATOM     43  N   UNL     1      -3.988  13.657  -9.024  1.00  0.00    -0.354 N 
ATOM     44  C   UNL     1      -0.107  13.508 -10.900  1.00  0.00     0.074 A 
ATOM     45  C   UNL     1       0.463  12.181 -10.824  1.00  0.00     0.031 C 
ATOM     46  C   UNL     1      -5.752  12.859  -7.905  1.00  0.00     0.029 A 
ATOM     47  C   UNL     1      -5.178  14.074  -8.473  1.00  0.00     0.049 A 
ATOM     48  H   UNL     1      -3.374  14.262  -9.499  1.00  0.00     0.167 HD
ATOM     49  C   UNL     1       0.509  14.570 -11.475  1.00  0.00     0.031 A 
ATOM     50  C   UNL     1      -5.743  15.297  -8.421  1.00  0.00     0.031 A 
ATOM     51  C   UNL     1      -0.065  15.887 -11.561  1.00  0.00     0.049 A 
ATOM     52  C   UNL     1      -5.039  16.459  -9.067  1.00  0.00     0.074 A 
ATOM     53  C   UNL     1       0.454  17.010 -12.183  1.00  0.00     0.029 A 
ATOM     54  N   UNL     1      -1.279  16.263 -11.007  1.00  0.00    -0.354 N 
ATOM     55  N   UNL     1      -3.888  16.480  -9.696  1.00  0.00    -0.248 NA
ATOM     56  C   UNL     1      -5.718  17.761  -9.011  1.00  0.00     0.031 C 
ATOM     57  C   UNL     1      -0.417  18.080 -11.952  1.00  0.00     0.029 A 
ATOM     58  C   UNL     1      -1.513  17.607 -11.248  1.00  0.00     0.049 A 
ATOM     59  H   UNL     1      -1.886  15.663 -10.516  1.00  0.00     0.167 HD
ATOM     60  C   UNL     1      -3.720  17.789 -10.135  1.00  0.00     0.074 A 
ATOM     61  C   UNL     1      -4.895  18.524  -9.717  1.00  0.00     0.031 C 
ATOM     62  C   UNL     1      -2.686  18.331 -10.825  1.00  0.00     0.031 A 
BRANCH  49  63
ATOM     63  C   UNL     1       1.885  14.355 -12.050  1.00  0.00    -0.014 A 
ATOM     64  C   UNL     1       2.081  13.575 -13.205  1.00  0.00     0.010 A 
ATOM     65  C   UNL     1       2.994  14.991 -11.461  1.00  0.00     0.010 A 
ATOM     66  C   UNL     1       3.362  13.405 -13.737  1.00  0.00     0.020 A 
ATOM     67  C   UNL     1       4.272  14.849 -12.008  1.00  0.00     0.020 A 
ATOM     68  C   UNL     1       4.450  14.044 -13.135  1.00  0.00     0.054 A 
BRANCH  68  69
ATOM     69  S   UNL     1       6.095  13.834 -13.869  1.00  0.00     0.124 S 
ATOM     70  O   UNL     1       6.399  12.445 -13.533  1.00  0.00    -0.237 OA
ATOM     71  O   UNL     1       5.850  14.097 -15.284  1.00  0.00    -0.237 OA
ATOM     72  O   UNL     1       6.912  14.832 -13.184  1.00  0.00    -0.744 OA
ENDBRANCH  68  69
ENDBRANCH  49  63
BRANCH  50  73
ATOM     73  C   UNL     1      -7.052  15.485  -7.734  1.00  0.00    -0.014 A 
ATOM     74  C   UNL     1      -8.211  15.794  -8.468  1.00  0.00     0.010 A 
ATOM     75  C   UNL     1      -7.145  15.354  -6.336  1.00  0.00     0.010 A 
ATOM     76  C   UNL     1      -9.432  15.994  -7.815  1.00  0.00     0.020 A 
ATOM     77  C   UNL     1      -8.369  15.521  -5.683  1.00  0.00     0.020 A 
ATOM     78  C   UNL     1      -9.503  15.854  -6.426  1.00  0.00     0.054 A 
BRANCH  78  79
ATOM     79  S   UNL     1     -11.106  16.075  -5.605  1.00  0.00     0.124 S 
ATOM     80  O   UNL     1     -11.296  17.519  -5.694  1.00  0.00    -0.237 OA
ATOM     81  O   UNL     1     -11.998  15.265  -6.432  1.00  0.00    -0.237 OA
ATOM     82  O   UNL     1     -10.874  15.554  -4.259  1.00  0.00    -0.744 OA
ENDBRANCH  78  79
ENDBRANCH  50  73
BRANCH  62  83
ATOM     83  C   UNL     1      -2.793  19.784 -11.211  1.00  0.00    -0.014 A 
ATOM     84  C   UNL     1      -2.709  20.808 -10.251  1.00  0.00     0.010 A 
ATOM     85  C   UNL     1      -2.938  20.129 -12.568  1.00  0.00     0.010 A 
ATOM     86  C   UNL     1      -2.808  22.148 -10.636  1.00  0.00     0.020 A 
ATOM     87  C   UNL     1      -3.005  21.468 -12.960  1.00  0.00     0.020 A 
ATOM     88  C   UNL     1      -2.957  22.469 -11.989  1.00  0.00     0.054 A 
BRANCH  88  89
ATOM     89  S   UNL     1      -3.053  24.217 -12.465  1.00  0.00     0.124 S 
ATOM     90  O   UNL     1      -4.387  24.585 -12.001  1.00  0.00    -0.237 OA
ATOM     91  O   UNL     1      -1.943  24.812 -11.725  1.00  0.00    -0.237 OA
ATOM     92  O   UNL     1      -2.883  24.190 -13.916  1.00  0.00    -0.744 OA
ENDBRANCH  88  89
ENDBRANCH  62  83
ENDBRANCH  36  37
ENDBRANCH  28  31
ENDBRANCH  26  27
ENDBRANCH  25  26
ENDBRANCH   1  25
TORSDOF 21
