REMARK SMILES CCC(CC)(CC(=O)Nc1cccc(OC)c1)C(=O)NCCCCNC(=O)c1ccc(-c2c3nc(c(-c4ccc(S(=O)(=O)[O-])cc4)c4ccc([nH]4)c(-c4ccc(S(=O)(=O)[O-])cc4)c4nc(c(-c5ccc(S(=O)(=O)[O-])cc5)c5ccc2[nH]5)C=C4)C=C3)cc1
REMARK SMILES IDX 22 1 21 2 20 3 18 4 19 5 3 7 2 8 1 9 4 10 5 11 6 12 7 13
REMARK SMILES IDX 8 14 9 15 10 17 11 18 17 19 12 20 14 21 13 22 15 23 16 24
REMARK SMILES IDX 23 25 24 26 25 27 26 28 27 30 28 31 29 32 87 33 30 34 86 35
REMARK SMILES IDX 31 36 32 37 33 38 80 39 34 40 85 41 79 42 81 43 35 44 84 45
REMARK SMILES IDX 78 46 77 47 36 49 66 50 47 51 65 52 48 53 51 54 64 55 82 56
REMARK SMILES IDX 49 57 50 58 63 60 83 61 52 62 37 63 38 64 46 65 39 66 45 67
REMARK SMILES IDX 40 68 41 69 42 70 43 71 44 72 67 73 68 74 76 75 69 76 75 77
REMARK SMILES IDX 70 78 71 79 72 80 73 81 74 82 53 83 54 84 62 85 55 86 61 87
REMARK SMILES IDX 56 88 57 89 58 90 59 91 60 92
REMARK H PARENT 20 6 9 16 25 29 81 48 51 59
REMARK Flexibility Score: inf
ROOT
ATOM      1  C   UNL     1       2.904  -3.414   5.742  1.00  0.00     0.023 C 
ENDROOT
BRANCH   1   2
ATOM      2  C   UNL     1       2.409  -2.082   5.187  1.00  0.00     0.116 C 
BRANCH   2   3
ATOM      3  N   UNL     1       3.166  -1.715   4.012  1.00  0.00    -0.356 N 
ATOM      4  C   UNL     1       2.817  -1.625   2.713  1.00  0.00     0.226 C 
ATOM      5  O   UNL     1       3.728  -1.851   1.911  1.00  0.00    -0.274 OA
ATOM      6  H   UNL     1       4.107  -1.491   4.193  1.00  0.00     0.163 HD
BRANCH   4   7
ATOM      7  C   UNL     1       1.407  -1.219   2.242  1.00  0.00     0.057 C 
BRANCH   7   8
ATOM      8  C   UNL     1       1.621  -0.569   0.849  1.00  0.00     0.014 C 
ATOM      9  C   UNL     1       2.543   0.644   0.733  1.00  0.00     0.005 C 
ENDBRANCH   7   8
BRANCH   7  10
ATOM     10  C   UNL     1       0.722  -0.154   3.171  1.00  0.00     0.014 C 
ATOM     11  C   UNL     1      -0.801  -0.065   3.081  1.00  0.00     0.005 C 
ENDBRANCH   7  10
BRANCH   7  12
ATOM     12  C   UNL     1       0.502  -2.475   2.076  1.00  0.00     0.117 C 
BRANCH  12  13
ATOM     13  C   UNL     1       0.981  -3.615   1.177  1.00  0.00     0.225 C 
ATOM     14  O   UNL     1       1.791  -4.442   1.601  1.00  0.00    -0.275 OA
ATOM     15  N   UNL     1       0.385  -3.844  -0.045  1.00  0.00    -0.326 N 
ATOM     16  H   UNL     1       0.671  -4.663  -0.510  1.00  0.00     0.169 HD
BRANCH  15  17
ATOM     17  C   UNL     1      -0.572  -3.070  -0.719  1.00  0.00     0.044 A 
ATOM     18  C   UNL     1      -1.871  -3.554  -0.867  1.00  0.00     0.026 A 
ATOM     19  C   UNL     1      -0.228  -1.862  -1.323  1.00  0.00     0.072 A 
ATOM     20  C   UNL     1      -2.842  -2.771  -1.504  1.00  0.00     0.006 A 
ATOM     21  C   UNL     1      -1.210  -1.052  -1.890  1.00  0.00     0.120 A 
ATOM     22  C   UNL     1      -2.517  -1.506  -1.996  1.00  0.00     0.046 A 
BRANCH  21  23
ATOM     23  O   UNL     1      -0.893   0.178  -2.396  1.00  0.00    -0.497 OA
ATOM     24  C   UNL     1      -0.813   1.157  -1.354  1.00  0.00     0.278 C 
ENDBRANCH  21  23
ENDBRANCH  15  17
ENDBRANCH  12  13
ENDBRANCH   7  12
ENDBRANCH   4   7
ENDBRANCH   2   3
ENDBRANCH   1   2
BRANCH   1  25
ATOM     25  C   UNL     1       4.414  -3.494   5.997  1.00  0.00     0.023 C 
BRANCH  25  26
ATOM     26  C   UNL     1       5.022  -2.319   6.754  1.00  0.00     0.116 C 
BRANCH  26  27
ATOM     27  N   UNL     1       4.374  -2.068   8.029  1.00  0.00    -0.352 N 
ATOM     28  C   UNL     1       4.951  -1.820   9.252  1.00  0.00     0.251 C 
ATOM     29  H   UNL     1       3.389  -2.077   8.016  1.00  0.00     0.163 HD
ATOM     30  O   UNL     1       4.260  -1.722  10.254  1.00  0.00    -0.269 OA
BRANCH  28  31
ATOM     31  C   UNL     1       6.422  -1.718   9.339  1.00  0.00     0.039 A 
ATOM     32  C   UNL     1       7.094  -2.530  10.254  1.00  0.00     0.014 A 
ATOM     33  C   UNL     1       7.130  -0.868   8.484  1.00  0.00     0.014 A 
ATOM     34  C   UNL     1       8.489  -2.535  10.270  1.00  0.00     0.010 A 
ATOM     35  C   UNL     1       8.520  -0.925   8.457  1.00  0.00     0.010 A 
ATOM     36  C   UNL     1       9.212  -1.759   9.350  1.00  0.00    -0.014 A 
BRANCH  36  37
ATOM     37  C   UNL     1      10.695  -1.808   9.309  1.00  0.00     0.031 A 
ATOM     38  C   UNL     1      11.496  -0.585   9.657  1.00  0.00     0.074 A 
ATOM     39  C   UNL     1      11.314  -2.936   8.907  1.00  0.00     0.049 A 
ATOM     40  N   UNL     1      12.793  -0.416   9.637  1.00  0.00    -0.248 NA
ATOM     41  C   UNL     1      10.740   0.615  10.054  1.00  0.00     0.031 C 
ATOM     42  C   UNL     1      10.644  -4.173   8.500  1.00  0.00     0.029 A 
ATOM     43  N   UNL     1      12.649  -3.222   8.769  1.00  0.00    -0.354 N 
ATOM     44  C   UNL     1      13.007   0.907  10.002  1.00  0.00     0.074 A 
ATOM     45  C   UNL     1      11.706   1.511  10.188  1.00  0.00     0.031 C 
ATOM     46  C   UNL     1      11.570  -5.092   8.182  1.00  0.00     0.029 A 
ATOM     47  C   UNL     1      12.897  -4.501   8.328  1.00  0.00     0.049 A 
ATOM     48  H   UNL     1      13.363  -2.573   8.967  1.00  0.00     0.167 HD
ATOM     49  C   UNL     1      14.181   1.557  10.188  1.00  0.00     0.031 A 
ATOM     50  C   UNL     1      14.061  -5.126   8.067  1.00  0.00     0.031 A 
ATOM     51  C   UNL     1      15.473   0.949  10.012  1.00  0.00     0.049 A 
ATOM     52  C   UNL     1      15.353  -4.387   8.285  1.00  0.00     0.074 A 
ATOM     53  C   UNL     1      16.722   1.505  10.223  1.00  0.00     0.029 A 
ATOM     54  N   UNL     1      15.681  -0.354   9.585  1.00  0.00    -0.354 N 
ATOM     55  N   UNL     1      15.536  -3.154   8.693  1.00  0.00    -0.248 NA
ATOM     56  C   UNL     1      16.594  -5.128   8.022  1.00  0.00     0.031 C 
ATOM     57  C   UNL     1      17.687   0.551   9.883  1.00  0.00     0.029 A 
ATOM     58  C   UNL     1      17.038  -0.616   9.510  1.00  0.00     0.049 A 
ATOM     59  H   UNL     1      14.969  -0.998   9.367  1.00  0.00     0.167 HD
ATOM     60  C   UNL     1      16.913  -2.978   8.758  1.00  0.00     0.074 A 
ATOM     61  C   UNL     1      17.515  -4.235   8.362  1.00  0.00     0.031 C 
ATOM     62  C   UNL     1      17.617  -1.875   9.114  1.00  0.00     0.031 A 
BRANCH  49  63
ATOM     63  C   UNL     1      14.114   3.003  10.600  1.00  0.00    -0.014 A 
ATOM     64  C   UNL     1      13.669   3.370  11.884  1.00  0.00     0.010 A 
ATOM     65  C   UNL     1      14.519   4.008   9.704  1.00  0.00     0.010 A 
ATOM     66  C   UNL     1      13.585   4.716  12.247  1.00  0.00     0.020 A 
ATOM     67  C   UNL     1      14.463   5.356  10.074  1.00  0.00     0.020 A 
ATOM     68  C   UNL     1      13.977   5.701  11.337  1.00  0.00     0.054 A 
BRANCH  68  69
ATOM     69  S   UNL     1      13.869   7.441  11.838  1.00  0.00     0.124 S 
ATOM     70  O   UNL     1      12.430   7.683  11.774  1.00  0.00    -0.237 OA
ATOM     71  O   UNL     1      14.443   7.425  13.181  1.00  0.00    -0.237 OA
ATOM     72  O   UNL     1      14.663   8.142  10.832  1.00  0.00    -0.744 OA
ENDBRANCH  68  69
ENDBRANCH  49  63
BRANCH  50  73
ATOM     73  C   UNL     1      14.056  -6.537   7.591  1.00  0.00    -0.014 A 
ATOM     74  C   UNL     1      14.473  -7.577   8.439  1.00  0.00     0.010 A 
ATOM     75  C   UNL     1      13.614  -6.848   6.293  1.00  0.00     0.010 A 
ATOM     76  C   UNL     1      14.465  -8.902   7.992  1.00  0.00     0.020 A 
ATOM     77  C   UNL     1      13.580  -8.174   5.851  1.00  0.00     0.020 A 
ATOM     78  C   UNL     1      14.017  -9.192   6.700  1.00  0.00     0.054 A 
BRANCH  78  79
ATOM     79  S   UNL     1      13.964 -10.924   6.161  1.00  0.00     0.124 S 
ATOM     80  O   UNL     1      15.375 -11.212   5.924  1.00  0.00    -0.237 OA
ATOM     81  O   UNL     1      13.366 -11.596   7.312  1.00  0.00    -0.237 OA
ATOM     82  O   UNL     1      13.123 -10.884   4.967  1.00  0.00    -0.744 OA
ENDBRANCH  78  79
ENDBRANCH  50  73
BRANCH  62  83
ATOM     83  C   UNL     1      19.118  -1.985   9.122  1.00  0.00    -0.014 A 
ATOM     84  C   UNL     1      19.852  -2.025   7.923  1.00  0.00     0.010 A 
ATOM     85  C   UNL     1      19.805  -1.991  10.349  1.00  0.00     0.010 A 
ATOM     86  C   UNL     1      21.247  -2.098   7.953  1.00  0.00     0.020 A 
ATOM     87  C   UNL     1      21.201  -2.037  10.383  1.00  0.00     0.020 A 
ATOM     88  C   UNL     1      21.913  -2.103   9.183  1.00  0.00     0.054 A 
BRANCH  88  89
ATOM     89  S   UNL     1      23.726  -2.149   9.195  1.00  0.00     0.124 S 
ATOM     90  O   UNL     1      23.996  -3.542   8.850  1.00  0.00    -0.237 OA
ATOM     91  O   UNL     1      24.079  -1.168   8.172  1.00  0.00    -0.237 OA
ATOM     92  O   UNL     1      24.072  -1.767  10.562  1.00  0.00    -0.744 OA
ENDBRANCH  88  89
ENDBRANCH  62  83
ENDBRANCH  36  37
ENDBRANCH  28  31
ENDBRANCH  26  27
ENDBRANCH  25  26
ENDBRANCH   1  25
TORSDOF 20
