REMARK SMILES O=C(NCCCCNC(=O)[C@H]1CCCN(C(=O)C2CC[NH+](Cc3ccco3)CC2)C1)c1ccc(-c2c3nc(c(-c4ccc(S(=O)(=O)[O-])cc4)c4ccc([nH]4)c(-c4ccc(S(=O)(=O)[O-])cc4)c4nc(c(-c5ccc(S(=O)(=O)[O-])cc5)c5ccc2[nH]5)C=C4)C=C3)cc1
REMARK SMILES IDX 6 1 5 2 4 3 3 4 1 5 2 6 31 8 32 9 90 10 33 11 89 12 34 13
REMARK SMILES IDX 35 14 36 15 83 16 37 17 88 18 82 19 84 20 38 21 87 22 81 23
REMARK SMILES IDX 80 24 39 26 69 27 50 28 68 29 51 30 54 31 67 32 85 33 52 34
REMARK SMILES IDX 53 35 66 37 86 38 55 39 40 40 41 41 49 42 42 43 48 44 43 45
REMARK SMILES IDX 44 46 45 47 46 48 47 49 70 50 71 51 79 52 72 53 78 54 73 55
REMARK SMILES IDX 74 56 75 57 76 58 77 59 56 60 57 61 65 62 58 63 64 64 59 65
REMARK SMILES IDX 60 66 61 67 62 68 63 69 7 70 8 71 9 72 10 74 11 75 12 76
REMARK SMILES IDX 30 77 13 78 15 79 14 80 16 81 17 82 18 83 19 84 29 85 20 86
REMARK SMILES IDX 28 87 21 88 22 90 23 91 24 92 27 93 25 94 26 95
REMARK H PARENT 3 7 84 25 54 36 8 73 21 89
REMARK Flexibility Score: inf
ROOT
ATOM      1  C   UNL     1       7.789   0.393  -7.524  1.00  0.00     0.023 C 
ENDROOT
BRANCH   1   2
ATOM      2  C   UNL     1       8.324   0.265  -8.948  1.00  0.00     0.023 C 
BRANCH   2   3
ATOM      3  C   UNL     1       9.827   0.075  -9.039  1.00  0.00     0.116 C 
BRANCH   3   4
ATOM      4  N   UNL     1      10.319  -1.037  -8.239  1.00  0.00    -0.352 N 
ATOM      5  O   UNL     1      11.721  -2.757  -7.781  1.00  0.00    -0.269 OA
ATOM      6  C   UNL     1      11.439  -1.803  -8.480  1.00  0.00     0.251 C 
ATOM      7  H   UNL     1       9.794  -1.268  -7.439  1.00  0.00     0.163 HD
BRANCH   6   8
ATOM      8  C   UNL     1      12.257  -1.440  -9.654  1.00  0.00     0.039 A 
ATOM      9  C   UNL     1      12.718  -0.130  -9.790  1.00  0.00     0.014 A 
ATOM     10  C   UNL     1      12.439  -2.380 -10.670  1.00  0.00     0.014 A 
ATOM     11  C   UNL     1      13.237   0.279 -11.007  1.00  0.00     0.010 A 
ATOM     12  C   UNL     1      13.051  -1.986 -11.861  1.00  0.00     0.010 A 
ATOM     13  C   UNL     1      13.427  -0.647 -12.048  1.00  0.00    -0.014 A 
BRANCH  13  14
ATOM     14  C   UNL     1      14.101  -0.188 -13.286  1.00  0.00     0.031 A 
ATOM     15  C   UNL     1      13.392  -0.160 -14.610  1.00  0.00     0.074 A 
ATOM     16  C   UNL     1      15.365   0.266 -13.174  1.00  0.00     0.049 A 
ATOM     17  N   UNL     1      13.835   0.271 -15.764  1.00  0.00    -0.248 NA
ATOM     18  C   UNL     1      12.018  -0.684 -14.654  1.00  0.00     0.031 C 
ATOM     19  C   UNL     1      16.151   0.265 -11.935  1.00  0.00     0.029 A 
ATOM     20  N   UNL     1      16.195   0.851 -14.091  1.00  0.00    -0.354 N 
ATOM     21  C   UNL     1      12.807   0.054 -16.674  1.00  0.00     0.074 A 
ATOM     22  C   UNL     1      11.722  -0.564 -15.943  1.00  0.00     0.031 C 
ATOM     23  C   UNL     1      17.317   0.887 -12.153  1.00  0.00     0.029 A 
ATOM     24  C   UNL     1      17.391   1.266 -13.557  1.00  0.00     0.049 A 
ATOM     25  H   UNL     1      15.958   0.963 -15.040  1.00  0.00     0.167 HD
ATOM     26  C   UNL     1      12.776   0.347 -17.997  1.00  0.00     0.031 A 
ATOM     27  C   UNL     1      18.442   1.875 -14.134  1.00  0.00     0.031 A 
ATOM     28  C   UNL     1      13.865   0.962 -18.713  1.00  0.00     0.049 A 
ATOM     29  C   UNL     1      18.372   2.199 -15.595  1.00  0.00     0.074 A 
ATOM     30  C   UNL     1      13.937   1.294 -20.056  1.00  0.00     0.029 A 
ATOM     31  N   UNL     1      15.072   1.345 -18.145  1.00  0.00    -0.354 N 
ATOM     32  N   UNL     1      17.391   1.980 -16.437  1.00  0.00    -0.248 NA
ATOM     33  C   UNL     1      19.548   2.850 -16.182  1.00  0.00     0.031 C 
ATOM     34  C   UNL     1      15.199   1.846 -20.305  1.00  0.00     0.029 A 
ATOM     35  C   UNL     1      15.896   1.901 -19.109  1.00  0.00     0.049 A 
ATOM     36  H   UNL     1      15.307   1.236 -17.195  1.00  0.00     0.167 HD
ATOM     37  C   UNL     1      17.835   2.459 -17.661  1.00  0.00     0.074 A 
ATOM     38  C   UNL     1      19.155   3.017 -17.438  1.00  0.00     0.031 C 
ATOM     39  C   UNL     1      17.214   2.429 -18.866  1.00  0.00     0.031 A 
BRANCH  26  40
ATOM     40  C   UNL     1      11.530  -0.009 -18.766  1.00  0.00    -0.014 A 
ATOM     41  C   UNL     1      10.350   0.742 -18.622  1.00  0.00     0.010 A 
ATOM     42  C   UNL     1      11.557  -1.069 -19.691  1.00  0.00     0.010 A 
ATOM     43  C   UNL     1       9.212   0.423 -19.369  1.00  0.00     0.020 A 
ATOM     44  C   UNL     1      10.428  -1.378 -20.456  1.00  0.00     0.020 A 
ATOM     45  C   UNL     1       9.257  -0.637 -20.280  1.00  0.00     0.054 A 
BRANCH  45  46
ATOM     46  S   UNL     1       7.777  -1.007 -21.263  1.00  0.00     0.124 S 
ATOM     47  O   UNL     1       6.913  -1.650 -20.275  1.00  0.00    -0.237 OA
ATOM     48  O   UNL     1       7.345   0.316 -21.706  1.00  0.00    -0.237 OA
ATOM     49  O   UNL     1       8.273  -1.883 -22.321  1.00  0.00    -0.744 OA
ENDBRANCH  45  46
ENDBRANCH  26  40
BRANCH  27  50
ATOM     50  C   UNL     1      19.648   2.182 -13.322  1.00  0.00    -0.014 A 
ATOM     51  C   UNL     1      19.974   3.507 -12.989  1.00  0.00     0.010 A 
ATOM     52  C   UNL     1      20.453   1.134 -12.839  1.00  0.00     0.010 A 
ATOM     53  C   UNL     1      21.095   3.779 -12.198  1.00  0.00     0.020 A 
ATOM     54  C   UNL     1      21.554   1.399 -12.024  1.00  0.00     0.020 A 
ATOM     55  C   UNL     1      21.877   2.723 -11.720  1.00  0.00     0.054 A 
BRANCH  55  56
ATOM     56  S   UNL     1      23.292   3.086 -10.646  1.00  0.00     0.124 S 
ATOM     57  O   UNL     1      24.310   3.484 -11.612  1.00  0.00    -0.237 OA
ATOM     58  O   UNL     1      22.779   4.154  -9.790  1.00  0.00    -0.237 OA
ATOM     59  O   UNL     1      23.534   1.817  -9.964  1.00  0.00    -0.744 OA
ENDBRANCH  55  56
ENDBRANCH  27  50
BRANCH  39  60
ATOM     60  C   UNL     1      17.970   3.019 -20.023  1.00  0.00    -0.014 A 
ATOM     61  C   UNL     1      19.070   2.345 -20.583  1.00  0.00     0.010 A 
ATOM     62  C   UNL     1      17.577   4.260 -20.554  1.00  0.00     0.010 A 
ATOM     63  C   UNL     1      19.797   2.927 -21.624  1.00  0.00     0.020 A 
ATOM     64  C   UNL     1      18.287   4.833 -21.611  1.00  0.00     0.020 A 
ATOM     65  C   UNL     1      19.406   4.172 -22.125  1.00  0.00     0.054 A 
BRANCH  65  66
ATOM     66  S   UNL     1      20.360   4.910 -23.478  1.00  0.00     0.124 S 
ATOM     67  O   UNL     1      21.529   5.431 -22.775  1.00  0.00    -0.237 OA
ATOM     68  O   UNL     1      20.612   3.770 -24.356  1.00  0.00    -0.237 OA
ATOM     69  O   UNL     1      19.457   5.921 -24.025  1.00  0.00    -0.744 OA
ENDBRANCH  65  66
ENDBRANCH  39  60
ENDBRANCH  13  14
ENDBRANCH   6   8
ENDBRANCH   3   4
ENDBRANCH   2   3
ENDBRANCH   1   2
BRANCH   1  70
ATOM     70  C   UNL     1       8.560   1.378  -6.647  1.00  0.00     0.116 C 
BRANCH  70  71
ATOM     71  N   UNL     1       8.495   2.718  -7.193  1.00  0.00    -0.356 N 
ATOM     72  C   UNL     1       7.745   3.770  -6.773  1.00  0.00     0.224 C 
ATOM     73  H   UNL     1       9.071   2.889  -7.973  1.00  0.00     0.163 HD
ATOM     74  O   UNL     1       7.746   4.797  -7.451  1.00  0.00    -0.275 OA
BRANCH  72  75
ATOM     75  C   UNL     1       6.946   3.635  -5.492  1.00  0.00     0.098 C 
ATOM     76  C   UNL     1       6.674   5.036  -4.919  1.00  0.00     0.017 C 
ATOM     77  C   UNL     1       5.656   2.831  -5.752  1.00  0.00     0.133 C 
ATOM     78  C   UNL     1       5.707   4.948  -3.753  1.00  0.00     0.022 C 
ATOM     79  N   UNL     1       4.729   2.908  -4.618  1.00  0.00    -0.342 N 
ATOM     80  C   UNL     1       4.446   4.270  -4.252  1.00  0.00     0.119 C 
BRANCH  79  81
ATOM     81  C   UNL     1       4.234   1.762  -4.027  1.00  0.00     0.226 C 
ATOM     82  O   UNL     1       4.523   0.655  -4.506  1.00  0.00    -0.275 OA
BRANCH  81  83
ATOM     83  C   UNL     1       3.302   1.764  -2.786  1.00  0.00     0.090 C 
ATOM     84  C   UNL     1       1.817   1.937  -3.078  1.00  0.00     0.075 C 
ATOM     85  C   UNL     1       3.723   2.526  -1.531  1.00  0.00     0.075 C 
ATOM     86  C   UNL     1       1.367   3.388  -3.073  1.00  0.00     0.263 C 
ATOM     87  C   UNL     1       3.078   3.903  -1.302  1.00  0.00     0.263 C 
ATOM     88  N   UNL     1       1.754   4.142  -1.882  1.00  0.00    -0.329 N 
ATOM     89  H   UNL     1       1.146   3.714  -1.184  1.00  0.00     0.348 HD
BRANCH  88  90
ATOM     90  C   UNL     1       1.425   5.588  -1.971  1.00  0.00     0.338 C 
BRANCH  90  91
ATOM     91  C   UNL     1       1.972   6.335  -3.158  1.00  0.00     0.157 A 
ATOM     92  C   UNL     1       1.574   6.444  -4.479  1.00  0.00     0.052 A 
ATOM     93  O   UNL     1       3.091   7.097  -2.960  1.00  0.00    -0.463 OA
ATOM     94  C   UNL     1       2.518   7.277  -5.127  1.00  0.00     0.042 A 
ATOM     95  C   UNL     1       3.409   7.665  -4.155  1.00  0.00     0.195 A 
ENDBRANCH  90  91
ENDBRANCH  88  90
ENDBRANCH  81  83
ENDBRANCH  79  81
ENDBRANCH  72  75
ENDBRANCH  70  71
ENDBRANCH   1  70
TORSDOF 18
