REMARK SMILES C[C@H]1SC[C@H](C(=O)NCCCCNC(=O)c2ccc(-c3c4nc(c(-c5ccc(S(=O)(=O)[O-])cc5)c5ccc([nH]5)c(-c5ccc(S(=O)(=O)[O-])cc5)c5nc(c(-c6ccc(S(=O)(=O)[O-])cc6)c6ccc3[nH]6)C=C5)C=C4)cc2)N1C(=O)[C@@H]1CSc2ccccc21
REMARK SMILES IDX 11 1 10 2 9 3 8 4 6 5 7 6 5 8 1 9 2 10 3 11 76 12 4 13 77 14
REMARK SMILES IDX 78 15 79 16 80 17 87 18 81 19 82 20 86 21 83 22 85 23 84 24
REMARK SMILES IDX 12 25 13 26 14 27 15 29 16 30 17 31 75 32 18 33 74 34 19 35
REMARK SMILES IDX 20 36 21 37 68 38 22 39 73 40 67 41 69 42 23 43 72 44 66 45
REMARK SMILES IDX 65 46 24 48 54 49 35 50 53 51 36 52 39 53 52 54 70 55 37 56
REMARK SMILES IDX 38 57 51 59 71 60 40 61 25 62 26 63 34 64 27 65 33 66 28 67
REMARK SMILES IDX 29 68 30 69 31 70 32 71 55 72 56 73 64 74 57 75 63 76 58 77
REMARK SMILES IDX 59 78 60 79 61 80 62 81 41 82 42 83 50 84 43 85 49 86 44 87
REMARK SMILES IDX 45 88 46 89 47 90 48 91
REMARK H PARENT 8 7 13 28 69 47 39 58
REMARK Flexibility Score: inf
ROOT
ATOM      1  C   UNL     1       5.981   0.677   4.559  1.00  0.00     0.023 C 
ENDROOT
BRANCH   1   2
ATOM      2  C   UNL     1       4.751   1.063   3.738  1.00  0.00     0.023 C 
BRANCH   2   3
ATOM      3  C   UNL     1       3.878  -0.111   3.309  1.00  0.00     0.116 C 
BRANCH   3   4
ATOM      4  N   UNL     1       3.260  -0.759   4.444  1.00  0.00    -0.354 N 
ATOM      5  C   UNL     1       1.947  -1.019   4.688  1.00  0.00     0.243 C 
ATOM      6  O   UNL     1       1.652  -1.424   5.819  1.00  0.00    -0.273 OA
ATOM      7  H   UNL     1       3.884  -1.058   5.145  1.00  0.00     0.163 HD
BRANCH   5   8
ATOM      8  C   UNL     1       0.826  -0.630   3.701  1.00  0.00     0.185 C 
ATOM      9  C   UNL     1      -1.420  -0.693   1.520  1.00  0.00     0.043 C 
ATOM     10  C   UNL     1       0.000  -0.129   1.470  1.00  0.00     0.141 C 
ATOM     11  S   UNL     1      -0.021   1.504   2.260  1.00  0.00    -0.135 SA
ATOM     12  N   UNL     1       0.951  -0.906   2.256  1.00  0.00    -0.318 N 
ATOM     13  C   UNL     1       0.604   0.885   3.853  1.00  0.00     0.107 C 
BRANCH  12  14
ATOM     14  C   UNL     1       1.608  -2.044   1.813  1.00  0.00     0.232 C 
ATOM     15  O   UNL     1       1.999  -2.888   2.621  1.00  0.00    -0.274 OA
BRANCH  14  16
ATOM     16  C   UNL     1       1.836  -2.244   0.313  1.00  0.00     0.120 C 
ATOM     17  C   UNL     1       2.507  -3.616   0.068  1.00  0.00     0.093 C 
ATOM     18  C   UNL     1       2.723  -1.248  -0.429  1.00  0.00    -0.021 A 
ATOM     19  S   UNL     1       3.156  -3.567  -1.628  1.00  0.00    -0.125 SA
ATOM     20  C   UNL     1       3.368  -1.813  -1.539  1.00  0.00     0.011 A 
ATOM     21  C   UNL     1       2.837   0.127  -0.232  1.00  0.00     0.006 A 
ATOM     22  C   UNL     1       4.069  -1.040  -2.457  1.00  0.00     0.015 A 
ATOM     23  C   UNL     1       3.525   0.918  -1.156  1.00  0.00     0.000 A 
ATOM     24  C   UNL     1       4.129   0.339  -2.271  1.00  0.00     0.001 A 
ENDBRANCH  14  16
ENDBRANCH  12  14
ENDBRANCH   5   8
ENDBRANCH   3   4
ENDBRANCH   2   3
ENDBRANCH   1   2
BRANCH   1  25
ATOM     25  C   UNL     1       6.908  -0.335   3.897  1.00  0.00     0.116 C 
BRANCH  25  26
ATOM     26  N   UNL     1       7.420   0.126   2.616  1.00  0.00    -0.352 N 
ATOM     27  C   UNL     1       8.717   0.159   2.159  1.00  0.00     0.251 C 
ATOM     28  H   UNL     1       6.742   0.463   1.987  1.00  0.00     0.163 HD
ATOM     29  O   UNL     1       8.979   0.738   1.113  1.00  0.00    -0.269 OA
BRANCH  27  30
ATOM     30  C   UNL     1       9.792  -0.480   2.950  1.00  0.00     0.039 A 
ATOM     31  C   UNL     1      10.995   0.207   3.126  1.00  0.00     0.014 A 
ATOM     32  C   UNL     1       9.614  -1.742   3.526  1.00  0.00     0.014 A 
ATOM     33  C   UNL     1      11.992  -0.344   3.934  1.00  0.00     0.010 A 
ATOM     34  C   UNL     1      10.575  -2.249   4.398  1.00  0.00     0.010 A 
ATOM     35  C   UNL     1      11.775  -1.557   4.611  1.00  0.00    -0.014 A 
BRANCH  35  36
ATOM     36  C   UNL     1      12.794  -2.099   5.548  1.00  0.00     0.031 A 
ATOM     37  C   UNL     1      13.456  -3.424   5.274  1.00  0.00     0.074 A 
ATOM     38  C   UNL     1      13.099  -1.411   6.667  1.00  0.00     0.049 A 
ATOM     39  N   UNL     1      14.357  -4.055   5.984  1.00  0.00    -0.248 NA
ATOM     40  C   UNL     1      13.040  -4.143   4.059  1.00  0.00     0.031 C 
ATOM     41  C   UNL     1      12.489  -0.142   7.074  1.00  0.00     0.029 A 
ATOM     42  N   UNL     1      13.998  -1.681   7.669  1.00  0.00    -0.354 N 
ATOM     43  C   UNL     1      14.616  -5.239   5.302  1.00  0.00     0.074 A 
ATOM     44  C   UNL     1      13.730  -5.270   4.160  1.00  0.00     0.031 C 
ATOM     45  C   UNL     1      13.052   0.270   8.221  1.00  0.00     0.029 A 
ATOM     46  C   UNL     1      14.030  -0.722   8.655  1.00  0.00     0.049 A 
ATOM     47  H   UNL     1      14.565  -2.485   7.682  1.00  0.00     0.167 HD
ATOM     48  C   UNL     1      15.530  -6.199   5.583  1.00  0.00     0.031 A 
ATOM     49  C   UNL     1      14.759  -0.649   9.786  1.00  0.00     0.031 A 
ATOM     50  C   UNL     1      16.408  -6.169   6.723  1.00  0.00     0.049 A 
ATOM     51  C   UNL     1      15.752  -1.740  10.087  1.00  0.00     0.074 A 
ATOM     52  C   UNL     1      17.388  -7.080   7.078  1.00  0.00     0.029 A 
ATOM     53  N   UNL     1      16.414  -5.178   7.693  1.00  0.00    -0.354 N 
ATOM     54  N   UNL     1      16.027  -2.819   9.392  1.00  0.00    -0.248 NA
ATOM     55  C   UNL     1      16.546  -1.594  11.314  1.00  0.00     0.031 C 
ATOM     56  C   UNL     1      17.950  -6.667   8.290  1.00  0.00     0.029 A 
ATOM     57  C   UNL     1      17.368  -5.464   8.656  1.00  0.00     0.049 A 
ATOM     58  H   UNL     1      15.828  -4.387   7.697  1.00  0.00     0.167 HD
ATOM     59  C   UNL     1      17.042  -3.467  10.087  1.00  0.00     0.074 A 
ATOM     60  C   UNL     1      17.350  -2.645  11.239  1.00  0.00     0.031 C 
ATOM     61  C   UNL     1      17.662  -4.639   9.800  1.00  0.00     0.031 A 
BRANCH  48  62
ATOM     62  C   UNL     1      15.636  -7.361   4.628  1.00  0.00    -0.014 A 
ATOM     63  C   UNL     1      16.151  -7.181   3.330  1.00  0.00     0.010 A 
ATOM     64  C   UNL     1      15.275  -8.654   5.046  1.00  0.00     0.010 A 
ATOM     65  C   UNL     1      16.271  -8.266   2.458  1.00  0.00     0.020 A 
ATOM     66  C   UNL     1      15.423  -9.748   4.187  1.00  0.00     0.020 A 
ATOM     67  C   UNL     1      15.909  -9.544   2.893  1.00  0.00     0.054 A 
BRANCH  67  68
ATOM     68  S   UNL     1      16.119 -10.938   1.752  1.00  0.00     0.124 S 
ATOM     69  O   UNL     1      15.072 -10.681   0.766  1.00  0.00    -0.237 OA
ATOM     70  O   UNL     1      17.488 -10.757   1.276  1.00  0.00    -0.237 OA
ATOM     71  O   UNL     1      15.904 -12.112   2.594  1.00  0.00    -0.744 OA
ENDBRANCH  67  68
ENDBRANCH  48  62
BRANCH  49  72
ATOM     72  C   UNL     1      14.574   0.495  10.723  1.00  0.00    -0.014 A 
ATOM     73  C   UNL     1      15.593   1.443  10.920  1.00  0.00     0.010 A 
ATOM     74  C   UNL     1      13.368   0.633  11.436  1.00  0.00     0.010 A 
ATOM     75  C   UNL     1      15.424   2.486  11.836  1.00  0.00     0.020 A 
ATOM     76  C   UNL     1      13.182   1.694  12.326  1.00  0.00     0.020 A 
ATOM     77  C   UNL     1      14.219   2.605  12.534  1.00  0.00     0.054 A 
BRANCH  77  78
ATOM     78  S   UNL     1      14.010   3.981  13.697  1.00  0.00     0.124 S 
ATOM     79  O   UNL     1      14.870   3.576  14.804  1.00  0.00    -0.237 OA
ATOM     80  O   UNL     1      14.476   5.126  12.918  1.00  0.00    -0.237 OA
ATOM     81  O   UNL     1      12.577   3.974  13.981  1.00  0.00    -0.744 OA
ENDBRANCH  77  78
ENDBRANCH  49  72
BRANCH  61  82
ATOM     82  C   UNL     1      18.761  -5.085  10.730  1.00  0.00    -0.014 A 
ATOM     83  C   UNL     1      18.482  -5.520  12.038  1.00  0.00     0.010 A 
ATOM     84  C   UNL     1      20.091  -5.102  10.273  1.00  0.00     0.010 A 
ATOM     85  C   UNL     1      19.518  -5.920  12.886  1.00  0.00     0.020 A 
ATOM     86  C   UNL     1      21.126  -5.533  11.107  1.00  0.00     0.020 A 
ATOM     87  C   UNL     1      20.834  -5.921  12.415  1.00  0.00     0.054 A 
BRANCH  87  88
ATOM     88  S   UNL     1      22.158  -6.468  13.528  1.00  0.00     0.124 S 
ATOM     89  O   UNL     1      22.248  -5.350  14.464  1.00  0.00    -0.237 OA
ATOM     90  O   UNL     1      21.619  -7.708  14.081  1.00  0.00    -0.237 OA
ATOM     91  O   UNL     1      23.309  -6.634  12.644  1.00  0.00    -0.744 OA
ENDBRANCH  87  88
ENDBRANCH  61  82
ENDBRANCH  35  36
ENDBRANCH  27  30
ENDBRANCH  25  26
ENDBRANCH   1  25
TORSDOF 16
