REMARK SMILES COCCNC(=O)N[C@H]1CCCCC[C@@H]1C(=O)NCCCCNC(=O)c1ccc(-c2c3nc(c(-c4ccc(S(=O)(=O)[O-])cc4)c4ccc([nH]4)c(-c4ccc(S(=O)(=O)[O-])cc4)c4nc(c(-c5ccc(S(=O)(=O)[O-])cc5)c5ccc2[nH]5)C=C4)C=C3)cc1
REMARK SMILES IDX 19 1 18 2 16 3 17 4 15 6 9 7 8 8 5 9 6 10 7 12 4 14 3 15
REMARK SMILES IDX 2 16 1 17 10 18 11 19 14 21 13 22 12 23 20 25 21 26 22 27
REMARK SMILES IDX 23 28 24 29 25 31 26 32 27 33 85 34 28 35 84 36 29 37 30 38
REMARK SMILES IDX 31 39 78 40 32 41 83 42 77 43 79 44 33 45 82 46 76 47 75 48
REMARK SMILES IDX 34 50 64 51 45 52 63 53 46 54 49 55 62 56 80 57 47 58 48 59
REMARK SMILES IDX 61 61 81 62 50 63 35 64 36 65 44 66 37 67 43 68 38 69 39 70
REMARK SMILES IDX 40 71 41 72 42 73 65 74 66 75 74 76 67 77 73 78 68 79 69 80
REMARK SMILES IDX 70 81 71 82 72 83 51 84 52 85 60 86 53 87 59 88 54 89 55 90
REMARK SMILES IDX 56 91 57 92 58 93
REMARK H PARENT 18 5 5 11 8 13 23 30 79 49 49 60
REMARK Flexibility Score: 90.00
ROOT
ATOM      1  C   UNL     1       3.693  -0.318  -5.468  1.00  0.00     0.116 C 
ENDROOT
BRANCH   1   2
ATOM      2  N   UNL     1       3.077  -0.545  -6.760  1.00  0.00    -0.356 N 
ATOM      3  C   UNL     1       1.954  -1.246  -7.091  1.00  0.00     0.225 C 
ATOM      4  O   UNL     1       1.472  -1.014  -8.206  1.00  0.00    -0.275 OA
ATOM      5  H   UNL     1       3.542  -0.127  -7.520  1.00  0.00     0.163 HD
BRANCH   3   6
ATOM      6  C   UNL     1       1.377  -2.409  -6.256  1.00  0.00     0.101 C 
BRANCH   6   7
ATOM      7  C   UNL     1       1.326  -2.162  -4.715  1.00  0.00     0.096 C 
BRANCH   7   8
ATOM      8  N   UNL     1      -0.043  -2.091  -4.157  1.00  0.00    -0.335 N 
ATOM      9  N   UNL     1       0.039  -1.753  -1.783  1.00  0.00    -0.336 N 
ATOM     10  C   UNL     1      -0.549  -1.698  -2.980  1.00  0.00     0.315 C 
ATOM     11  H   UNL     1      -0.192  -0.970  -1.233  1.00  0.00     0.165 HD
ATOM     12  O   UNL     1      -1.680  -1.200  -3.001  1.00  0.00    -0.249 OA
ATOM     13  H   UNL     1      -0.732  -2.401  -4.789  1.00  0.00     0.165 HD
BRANCH   9  14
ATOM     14  C   UNL     1       0.933  -2.663  -1.068  1.00  0.00     0.146 C 
BRANCH  14  15
ATOM     15  C   UNL     1       1.775  -1.945  -0.003  1.00  0.00     0.181 C 
BRANCH  15  16
ATOM     16  O   UNL     1       1.481  -2.381   1.327  1.00  0.00    -0.383 OA
ATOM     17  C   UNL     1       0.136  -2.140   1.717  1.00  0.00     0.194 C 
ENDBRANCH  15  16
ENDBRANCH  14  15
ENDBRANCH   9  14
ENDBRANCH   7   8
BRANCH   7  18
ATOM     18  C   UNL     1       2.217  -3.168  -4.003  1.00  0.00     0.026 C 
BRANCH  18  19
ATOM     19  C   UNL     1       1.515  -4.519  -3.836  1.00  0.00     0.002 CG0
ATOM     20  G   UNL     1       1.930  -5.493  -4.918  1.00  0.00     0.000 G0
ENDBRANCH  18  19
ENDBRANCH   7  18
ENDBRANCH   6   7
BRANCH   6  21
ATOM     21  C   UNL     1       2.136  -3.673  -6.770  1.00  0.00     0.015 C 
BRANCH  21  22
ATOM     22  C   UNL     1       1.598  -5.042  -6.337  1.00  0.00     0.001 C 
BRANCH  22  23
ATOM     23  C   UNL     1       1.930  -5.493  -4.918  1.00  0.00     0.000 CG0
ATOM     24  G   UNL     1       1.515  -4.519  -3.836  1.00  0.00     0.000 G0
ENDBRANCH  22  23
ENDBRANCH  21  22
ENDBRANCH   6  21
ENDBRANCH   3   6
ENDBRANCH   1   2
BRANCH   1  25
ATOM     25  C   UNL     1       5.126   0.193  -5.485  1.00  0.00     0.023 C 
BRANCH  25  26
ATOM     26  C   UNL     1       5.373   1.491  -6.244  1.00  0.00     0.023 C 
BRANCH  26  27
ATOM     27  C   UNL     1       4.454   2.655  -5.889  1.00  0.00     0.116 C 
BRANCH  27  28
ATOM     28  N   UNL     1       4.625   3.134  -4.526  1.00  0.00    -0.352 N 
ATOM     29  C   UNL     1       5.067   4.358  -4.063  1.00  0.00     0.251 C 
ATOM     30  H   UNL     1       4.389   2.485  -3.825  1.00  0.00     0.163 HD
ATOM     31  O   UNL     1       5.258   4.521  -2.871  1.00  0.00    -0.269 OA
BRANCH  29  32
ATOM     32  C   UNL     1       5.346   5.456  -5.022  1.00  0.00     0.039 A 
ATOM     33  C   UNL     1       6.533   6.182  -4.889  1.00  0.00     0.014 A 
ATOM     34  C   UNL     1       4.456   5.760  -6.054  1.00  0.00     0.014 A 
ATOM     35  C   UNL     1       6.870   7.142  -5.848  1.00  0.00     0.010 A 
ATOM     36  C   UNL     1       4.835   6.650  -7.056  1.00  0.00     0.010 A 
ATOM     37  C   UNL     1       6.049   7.348  -6.969  1.00  0.00    -0.014 A 
BRANCH  37  38
ATOM     38  C   UNL     1       6.442   8.277  -8.064  1.00  0.00     0.031 A 
ATOM     39  C   UNL     1       5.586   9.473  -8.386  1.00  0.00     0.074 A 
ATOM     40  C   UNL     1       7.532   8.009  -8.813  1.00  0.00     0.049 A 
ATOM     41  N   UNL     1       5.719  10.348  -9.351  1.00  0.00    -0.248 NA
ATOM     42  C   UNL     1       4.414   9.705  -7.525  1.00  0.00     0.031 C 
ATOM     43  C   UNL     1       8.430   6.865  -8.631  1.00  0.00     0.029 A 
ATOM     44  N   UNL     1       8.069   8.680  -9.885  1.00  0.00    -0.354 N 
ATOM     45  C   UNL     1       4.648  11.224  -9.219  1.00  0.00     0.074 A 
ATOM     46  C   UNL     1       3.842  10.742  -8.119  1.00  0.00     0.031 C 
ATOM     47  C   UNL     1       9.418   6.931  -9.538  1.00  0.00     0.029 A 
ATOM     48  C   UNL     1       9.203   8.091 -10.396  1.00  0.00     0.049 A 
ATOM     49  H   UNL     1       7.679   9.505 -10.254  1.00  0.00     0.167 HD
ATOM     50  C   UNL     1       4.372  12.345  -9.929  1.00  0.00     0.031 A 
ATOM     51  C   UNL     1       9.978   8.438 -11.442  1.00  0.00     0.031 A 
ATOM     52  C   UNL     1       5.176  12.829 -11.020  1.00  0.00     0.049 A 
ATOM     53  C   UNL     1       9.629   9.667 -12.239  1.00  0.00     0.074 A 
ATOM     54  C   UNL     1       4.995  13.970 -11.781  1.00  0.00     0.029 A 
ATOM     55  N   UNL     1       6.315  12.204 -11.502  1.00  0.00    -0.354 N 
ATOM     56  N   UNL     1       8.638  10.509 -12.065  1.00  0.00    -0.248 NA
ATOM     57  C   UNL     1      10.509   9.998 -13.369  1.00  0.00     0.031 C 
ATOM     58  C   UNL     1       5.998  14.011 -12.755  1.00  0.00     0.029 A 
ATOM     59  C   UNL     1       6.838  12.927 -12.561  1.00  0.00     0.049 A 
ATOM     60  H   UNL     1       6.696  11.369 -11.146  1.00  0.00     0.167 HD
ATOM     61  C   UNL     1       8.798  11.487 -13.041  1.00  0.00     0.074 A 
ATOM     62  C   UNL     1       9.986  11.141 -13.792  1.00  0.00     0.031 C 
ATOM     63  C   UNL     1       8.029  12.576 -13.293  1.00  0.00     0.031 A 
BRANCH  50  64
ATOM     64  C   UNL     1       3.149  13.132  -9.537  1.00  0.00    -0.014 A 
ATOM     65  C   UNL     1       3.108  13.842  -8.322  1.00  0.00     0.010 A 
ATOM     66  C   UNL     1       2.046  13.202 -10.406  1.00  0.00     0.010 A 
ATOM     67  C   UNL     1       1.972  14.572  -7.966  1.00  0.00     0.020 A 
ATOM     68  C   UNL     1       0.918  13.956 -10.067  1.00  0.00     0.020 A 
ATOM     69  C   UNL     1       0.883  14.623  -8.840  1.00  0.00     0.054 A 
BRANCH  69  70
ATOM     70  S   UNL     1      -0.567  15.602  -8.361  1.00  0.00     0.124 S 
ATOM     71  O   UNL     1      -1.149  14.778  -7.304  1.00  0.00    -0.237 OA
ATOM     72  O   UNL     1       0.028  16.861  -7.920  1.00  0.00    -0.237 OA
ATOM     73  O   UNL     1      -1.353  15.684  -9.590  1.00  0.00    -0.744 OA
ENDBRANCH  69  70
ENDBRANCH  50  64
BRANCH  51  74
ATOM     74  C   UNL     1      11.171   7.621 -11.801  1.00  0.00    -0.014 A 
ATOM     75  C   UNL     1      12.468   8.139 -11.633  1.00  0.00     0.010 A 
ATOM     76  C   UNL     1      11.018   6.328 -12.335  1.00  0.00     0.010 A 
ATOM     77  C   UNL     1      13.586   7.396 -12.025  1.00  0.00     0.020 A 
ATOM     78  C   UNL     1      12.134   5.569 -12.698  1.00  0.00     0.020 A 
ATOM     79  C   UNL     1      13.411   6.116 -12.558  1.00  0.00     0.054 A 
BRANCH  79  80
ATOM     80  S   UNL     1      14.876   5.161 -13.041  1.00  0.00     0.124 S 
ATOM     81  O   UNL     1      15.283   5.832 -14.271  1.00  0.00    -0.237 OA
ATOM     82  O   UNL     1      15.764   5.343 -11.896  1.00  0.00    -0.237 OA
ATOM     83  O   UNL     1      14.359   3.804 -13.208  1.00  0.00    -0.744 OA
ENDBRANCH  79  80
ENDBRANCH  51  74
BRANCH  63  84
ATOM     84  C   UNL     1       8.474  13.502 -14.394  1.00  0.00    -0.014 A 
ATOM     85  C   UNL     1       8.373  13.133 -15.747  1.00  0.00     0.010 A 
ATOM     86  C   UNL     1       8.954  14.784 -14.067  1.00  0.00     0.010 A 
ATOM     87  C   UNL     1       8.772  14.018 -16.752  1.00  0.00     0.020 A 
ATOM     88  C   UNL     1       9.326  15.682 -15.070  1.00  0.00     0.020 A 
ATOM     89  C   UNL     1       9.246  15.288 -16.406  1.00  0.00     0.054 A 
BRANCH  89  90
ATOM     90  S   UNL     1       9.715  16.434 -17.731  1.00  0.00     0.124 S 
ATOM     91  O   UNL     1      10.976  15.864 -18.196  1.00  0.00    -0.237 OA
ATOM     92  O   UNL     1       8.595  16.324 -18.662  1.00  0.00    -0.237 OA
ATOM     93  O   UNL     1       9.828  17.723 -17.051  1.00  0.00    -0.744 OA
ENDBRANCH  89  90
ENDBRANCH  63  84
ENDBRANCH  37  38
ENDBRANCH  29  32
ENDBRANCH  27  28
ENDBRANCH  26  27
ENDBRANCH  25  26
ENDBRANCH   1  25
TORSDOF 18
