REMARK SMILES COc1cccc2cc(/C=C/c3cc(C(=O)NCCCCNC(=O)c4ccc(-c5c6nc(c(-c7ccc(S(=O)(=O)[O-])cc7)c7ccc([nH]7)c(-c7ccc(S(=O)(=O)[O-])cc7)c7nc(c(-c8ccc(S(=O)(=O)[O-])cc8)c8ccc5[nH]8)C=C7)C=C6)cc4)ncn3)oc12
REMARK SMILES IDX 19 1 18 2 17 3 15 4 16 5 14 7 12 8 13 9 87 10 86 11 85 12
REMARK SMILES IDX 11 13 10 14 9 15 3 16 4 17 89 18 5 19 7 20 88 21 6 22 8 23
REMARK SMILES IDX 2 24 1 25 20 26 21 27 22 28 23 29 24 31 25 32 26 33 84 34
REMARK SMILES IDX 27 35 83 36 28 37 29 38 30 39 77 40 31 41 82 42 76 43 78 44
REMARK SMILES IDX 32 45 81 46 75 47 74 48 33 50 63 51 44 52 62 53 45 54 48 55
REMARK SMILES IDX 61 56 79 57 46 58 47 59 60 61 80 62 49 63 34 64 35 65 43 66
REMARK SMILES IDX 36 67 42 68 37 69 38 70 39 71 40 72 41 73 64 74 65 75 73 76
REMARK SMILES IDX 66 77 72 78 67 79 68 80 69 81 70 82 71 83 50 84 51 85 59 86
REMARK SMILES IDX 52 87 58 88 53 89 54 90 55 91 56 92 57 93
REMARK H PARENT 17 6 22 30 78 49 48 60
REMARK Flexibility Score: inf
ROOT
ATOM      1  C   UNL     1      -6.669  -3.748   0.294  1.00  0.00     0.023 C 
ENDROOT
BRANCH   1   2
ATOM      2  C   UNL     1      -7.321  -2.763   1.270  1.00  0.00     0.116 C 
BRANCH   2   3
ATOM      3  N   UNL     1      -8.499  -3.348   1.886  1.00  0.00    -0.351 N 
ATOM      4  C   UNL     1      -8.700  -3.982   3.094  1.00  0.00     0.270 C 
ATOM      5  O   UNL     1      -9.852  -4.337   3.352  1.00  0.00    -0.268 OA
ATOM      6  H   UNL     1      -9.311  -3.278   1.334  1.00  0.00     0.163 HD
BRANCH   4   7
ATOM      7  C   UNL     1      -7.607  -4.225   4.098  1.00  0.00     0.132 A 
ATOM      8  C   UNL     1      -5.385  -4.476   4.788  1.00  0.00     0.067 A 
ATOM      9  C   UNL     1      -6.287  -4.372   3.751  1.00  0.00     0.062 A 
ATOM     10  N   UNL     1      -5.754  -4.578   6.073  1.00  0.00    -0.237 NA
ATOM     11  C   UNL     1      -7.071  -4.498   6.304  1.00  0.00     0.223 A 
ATOM     12  N   UNL     1      -8.020  -4.301   5.383  1.00  0.00    -0.231 NA
BRANCH   8  13
ATOM     13  C   UNL     1      -3.944  -4.461   4.526  1.00  0.00     0.032 C 
ATOM     14  C   UNL     1      -3.391  -3.486   3.785  1.00  0.00     0.049 C 
BRANCH  14  15
ATOM     15  C   UNL     1      -2.011  -3.430   3.455  1.00  0.00     0.128 A 
ATOM     16  C   UNL     1       0.695  -1.711   1.850  1.00  0.00     0.162 A 
ATOM     17  C   UNL     1       2.020  -2.150   1.722  1.00  0.00     0.050 A 
ATOM     18  C   UNL     1      -0.171  -2.569   2.537  1.00  0.00     0.176 A 
ATOM     19  C   UNL     1       2.430  -3.385   2.239  1.00  0.00     0.005 A 
ATOM     20  C   UNL     1       0.202  -3.795   3.067  1.00  0.00     0.025 A 
ATOM     21  O   UNL     1      -1.493  -2.351   2.773  1.00  0.00    -0.453 OA
ATOM     22  C   UNL     1       1.532  -4.220   2.916  1.00  0.00     0.012 A 
ATOM     23  C   UNL     1      -0.971  -4.329   3.663  1.00  0.00     0.059 A 
BRANCH  16  24
ATOM     24  O   UNL     1       0.234  -0.502   1.403  1.00  0.00    -0.493 OA
ATOM     25  C   UNL     1       0.757  -0.097   0.142  1.00  0.00     0.278 C 
ENDBRANCH  16  24
ENDBRANCH  14  15
ENDBRANCH   8  13
ENDBRANCH   4   7
ENDBRANCH   2   3
ENDBRANCH   1   2
BRANCH   1  26
ATOM     26  C   UNL     1      -7.318  -3.784  -1.092  1.00  0.00     0.023 C 
BRANCH  26  27
ATOM     27  C   UNL     1      -7.163  -2.503  -1.906  1.00  0.00     0.116 C 
BRANCH  27  28
ATOM     28  N   UNL     1      -5.775  -2.141  -2.153  1.00  0.00    -0.352 N 
ATOM     29  C   UNL     1      -5.251  -1.465  -3.231  1.00  0.00     0.251 C 
ATOM     30  H   UNL     1      -5.130  -2.414  -1.461  1.00  0.00     0.163 HD
ATOM     31  O   UNL     1      -4.041  -1.322  -3.343  1.00  0.00    -0.269 OA
BRANCH  29  32
ATOM     32  C   UNL     1      -6.167  -0.959  -4.275  1.00  0.00     0.039 A 
ATOM     33  C   UNL     1      -5.910  -1.287  -5.608  1.00  0.00     0.014 A 
ATOM     34  C   UNL     1      -7.296  -0.210  -3.933  1.00  0.00     0.014 A 
ATOM     35  C   UNL     1      -6.830  -0.926  -6.595  1.00  0.00     0.010 A 
ATOM     36  C   UNL     1      -8.240   0.095  -4.909  1.00  0.00     0.010 A 
ATOM     37  C   UNL     1      -8.020  -0.268  -6.246  1.00  0.00    -0.014 A 
BRANCH  37  38
ATOM     38  C   UNL     1      -9.061   0.029  -7.261  1.00  0.00     0.031 A 
ATOM     39  C   UNL     1      -9.400   1.453  -7.602  1.00  0.00     0.074 A 
ATOM     40  C   UNL     1      -9.755  -0.985  -7.816  1.00  0.00     0.049 A 
ATOM     41  N   UNL     1     -10.328   1.909  -8.403  1.00  0.00    -0.248 NA
ATOM     42  C   UNL     1      -8.611   2.502  -6.936  1.00  0.00     0.031 C 
ATOM     43  C   UNL     1      -9.551  -2.408  -7.531  1.00  0.00     0.029 A 
ATOM     44  N   UNL     1     -10.781  -0.973  -8.726  1.00  0.00    -0.354 N 
ATOM     45  C   UNL     1     -10.249   3.293  -8.324  1.00  0.00     0.074 A 
ATOM     46  C   UNL     1      -9.209   3.603  -7.366  1.00  0.00     0.031 C 
ATOM     47  C   UNL     1     -10.412  -3.131  -8.266  1.00  0.00     0.029 A 
ATOM     48  C   UNL     1     -11.250  -2.225  -9.045  1.00  0.00     0.049 A 
ATOM     49  H   UNL     1     -11.147  -0.145  -9.114  1.00  0.00     0.167 HD
ATOM     50  C   UNL     1     -10.965   4.224  -8.999  1.00  0.00     0.031 A 
ATOM     51  C   UNL     1     -12.248  -2.603  -9.867  1.00  0.00     0.031 A 
ATOM     52  C   UNL     1     -11.988   3.913  -9.961  1.00  0.00     0.049 A 
ATOM     53  C   UNL     1     -13.024  -1.553 -10.612  1.00  0.00     0.074 A 
ATOM     54  C   UNL     1     -12.727   4.784 -10.742  1.00  0.00     0.029 A 
ATOM     55  N   UNL     1     -12.416   2.632 -10.274  1.00  0.00    -0.354 N 
ATOM     56  N   UNL     1     -12.889  -0.249 -10.573  1.00  0.00    -0.248 NA
ATOM     57  C   UNL     1     -14.080  -2.026 -11.518  1.00  0.00     0.031 C 
ATOM     58  C   UNL     1     -13.631   4.031 -11.499  1.00  0.00     0.029 A 
ATOM     59  C   UNL     1     -13.422   2.689 -11.223  1.00  0.00     0.049 A 
ATOM     60  H   UNL     1     -12.057   1.804  -9.880  1.00  0.00     0.167 HD
ATOM     61  C   UNL     1     -13.828   0.254 -11.465  1.00  0.00     0.074 A 
ATOM     62  C   UNL     1     -14.515  -0.885 -12.038  1.00  0.00     0.031 C 
ATOM     63  C   UNL     1     -14.097   1.545 -11.782  1.00  0.00     0.031 A 
BRANCH  50  64
ATOM     64  C   UNL     1     -10.663   5.670  -8.712  1.00  0.00    -0.014 A 
ATOM     65  C   UNL     1      -9.464   6.260  -9.151  1.00  0.00     0.010 A 
ATOM     66  C   UNL     1     -11.600   6.456  -8.018  1.00  0.00     0.010 A 
ATOM     67  C   UNL     1      -9.187   7.598  -8.861  1.00  0.00     0.020 A 
ATOM     68  C   UNL     1     -11.338   7.802  -7.747  1.00  0.00     0.020 A 
ATOM     69  C   UNL     1     -10.123   8.359  -8.154  1.00  0.00     0.054 A 
BRANCH  69  70
ATOM     70  S   UNL     1      -9.742  10.097  -7.798  1.00  0.00     0.124 S 
ATOM     71  O   UNL     1      -8.775   9.975  -6.710  1.00  0.00    -0.237 OA
ATOM     72  O   UNL     1      -9.201  10.575  -9.068  1.00  0.00    -0.237 OA
ATOM     73  O   UNL     1     -11.035  10.664  -7.423  1.00  0.00    -0.744 OA
ENDBRANCH  69  70
ENDBRANCH  50  64
BRANCH  51  74
ATOM     74  C   UNL     1     -12.557  -4.048 -10.040  1.00  0.00    -0.014 A 
ATOM     75  C   UNL     1     -12.208  -4.711 -11.230  1.00  0.00     0.010 A 
ATOM     76  C   UNL     1     -13.180  -4.773  -9.008  1.00  0.00     0.010 A 
ATOM     77  C   UNL     1     -12.489  -6.071 -11.390  1.00  0.00     0.020 A 
ATOM     78  C   UNL     1     -13.442  -6.138  -9.156  1.00  0.00     0.020 A 
ATOM     79  C   UNL     1     -13.104  -6.776 -10.351  1.00  0.00     0.054 A 
BRANCH  79  80
ATOM     80  S   UNL     1     -13.404  -8.554 -10.557  1.00  0.00     0.124 S 
ATOM     81  O   UNL     1     -14.570  -8.565 -11.435  1.00  0.00    -0.237 OA
ATOM     82  O   UNL     1     -12.156  -9.020 -11.155  1.00  0.00    -0.237 OA
ATOM     83  O   UNL     1     -13.641  -9.018  -9.191  1.00  0.00    -0.744 OA
ENDBRANCH  79  80
ENDBRANCH  51  74
BRANCH  63  84
ATOM     84  C   UNL     1     -15.161   1.796 -12.814  1.00  0.00    -0.014 A 
ATOM     85  C   UNL     1     -16.524   1.649 -12.501  1.00  0.00     0.010 A 
ATOM     86  C   UNL     1     -14.793   2.243 -14.096  1.00  0.00     0.010 A 
ATOM     87  C   UNL     1     -17.501   1.924 -13.461  1.00  0.00     0.020 A 
ATOM     88  C   UNL     1     -15.768   2.540 -15.051  1.00  0.00     0.020 A 
ATOM     89  C   UNL     1     -17.117   2.367 -14.731  1.00  0.00     0.054 A 
BRANCH  89  90
ATOM     90  S   UNL     1     -18.404   2.767 -15.945  1.00  0.00     0.124 S 
ATOM     91  O   UNL     1     -18.833   1.442 -16.381  1.00  0.00    -0.237 OA
ATOM     92  O   UNL     1     -19.377   3.513 -15.149  1.00  0.00    -0.237 OA
ATOM     93  O   UNL     1     -17.697   3.557 -16.951  1.00  0.00    -0.744 OA
ENDBRANCH  89  90
ENDBRANCH  63  84
ENDBRANCH  37  38
ENDBRANCH  29  32
ENDBRANCH  27  28
ENDBRANCH  26  27
ENDBRANCH   1  26
TORSDOF 17
