REMARK SMILES Cc1cc(/C=C2/C(=O)NC(=S)[NH+]=C2NCCCCNC(=O)c2ccc(-c3c4nc(c(-c5ccc(S(=O)(=O)[O-])cc5)c5ccc([nH]5)c(-c5ccc(S(=O)(=O)[O-])cc5)c5nc(c(-c6ccc(S(=O)(=O)[O-])cc6)c6ccc3[nH]6)C=C5)C=C4)cc2)c(C)n1-c1cccc(C(=O)[O-])c1
REMARK SMILES IDX 17 1 16 2 15 3 14 4 5 5 6 6 7 7 13 8 8 9 9 10 12 11 10 12
REMARK SMILES IDX 11 16 4 17 1 18 2 19 3 20 84 21 82 22 83 23 85 24 86 25
REMARK SMILES IDX 93 26 87 27 89 28 88 29 90 30 91 31 92 32 18 33 19 34 20 35
REMARK SMILES IDX 21 37 22 38 23 39 81 40 24 41 80 42 25 43 26 44 27 45 74 46
REMARK SMILES IDX 28 47 79 48 73 49 75 50 29 51 78 52 72 53 71 54 30 56 60 57
REMARK SMILES IDX 41 58 59 59 42 60 45 61 58 62 76 63 43 64 44 65 57 67 77 68
REMARK SMILES IDX 46 69 31 70 32 71 40 72 33 73 39 74 34 75 35 76 36 77 37 78
REMARK SMILES IDX 38 79 61 80 62 81 70 82 63 83 69 84 64 85 65 86 66 87 67 88
REMARK SMILES IDX 68 89 47 90 48 91 56 92 49 93 55 94 50 95 51 96 52 97 53 98
REMARK SMILES IDX 54 99
REMARK H PARENT 9 13 12 14 14 15 19 36 75 55 45 66
REMARK Flexibility Score: inf
ROOT
ATOM      1  C   UNL     1      -2.786  -0.220   2.922  1.00  0.00     0.024 C 
ENDROOT
BRANCH   1   2
ATOM      2  C   UNL     1      -2.504  -1.537   2.166  1.00  0.00     0.039 C 
BRANCH   2   3
ATOM      3  C   UNL     1      -2.034  -2.904   2.701  1.00  0.00     0.194 C 
BRANCH   3   4
ATOM      4  N   UNL     1      -1.569  -3.090   4.062  1.00  0.00    -0.305 N 
ATOM      5  C   UNL     1       1.099  -4.292   2.708  1.00  0.00     0.032 C 
ATOM      6  C   UNL     1       0.251  -4.864   3.590  1.00  0.00     0.128 C 
ATOM      7  C   UNL     1       0.481  -6.308   3.836  1.00  0.00     0.319 C 
ATOM      8  C   UNL     1      -0.833  -4.223   4.426  1.00  0.00     0.234 C 
ATOM      9  O   UNL     1       1.003  -7.072   3.031  1.00  0.00    -0.250 OA
ATOM     10  N   UNL     1       0.077  -6.722   5.068  1.00  0.00    -0.229 N 
ATOM     11  N   UNL     1      -1.181  -4.777   5.561  1.00  0.00    -0.236 N 
ATOM     12  C   UNL     1      -0.636  -5.972   5.965  1.00  0.00     0.295 C 
ATOM     13  H   UNL     1       0.318  -7.637   5.337  1.00  0.00     0.268 HD
ATOM     14  H   UNL     1      -1.844  -4.329   6.135  1.00  0.00     0.268 HD
ATOM     15  H   UNL     1      -1.775  -2.407   4.742  1.00  0.00     0.256 HD
ATOM     16  S   UNL     1      -0.885  -6.651   7.481  1.00  0.00    -0.005 S 
BRANCH   5  17
ATOM     17  C   UNL     1       1.200  -2.917   2.331  1.00  0.00    -0.003 A 
ATOM     18  C   UNL     1       1.337  -0.174  -0.138  1.00  0.00     0.065 C 
ATOM     19  C   UNL     1       1.209  -1.056   1.060  1.00  0.00     0.020 A 
ATOM     20  C   UNL     1       1.334  -2.437   1.022  1.00  0.00     0.031 A 
ATOM     21  N   UNL     1       0.999  -0.670   2.396  1.00  0.00    -0.318 N 
ATOM     22  C   UNL     1       1.220  -1.824   3.176  1.00  0.00     0.027 A 
ATOM     23  C   UNL     1       1.300  -1.867   4.665  1.00  0.00     0.065 C 
BRANCH  21  24
ATOM     24  C   UNL     1       0.362   0.536   2.905  1.00  0.00     0.046 A 
ATOM     25  C   UNL     1       0.333   0.801   4.711  1.00  0.00     0.026 A 
ATOM     26  C   UNL     1      -0.925   1.279   1.881  1.00  0.00     0.036 A 
ATOM     27  C   UNL     1      -1.046   1.723   5.483  1.00  0.00     0.003 A 
ATOM     28  C   UNL     1      -2.206   2.319   2.627  1.00  0.00    -0.001 A 
ATOM     29  C   UNL     1      -2.291   2.535   4.413  1.00  0.00     0.010 A 
BRANCH  28  30
ATOM     30  C   UNL     1      -3.267   2.933   1.797  1.00  0.00     0.072 C 
ATOM     31  O   UNL     1      -4.127   3.700   2.183  1.00  0.00    -0.545 OA
ATOM     32  O   UNL     1      -3.262   2.463   0.535  1.00  0.00    -0.545 OA
ENDBRANCH  28  30
ENDBRANCH  21  24
ENDBRANCH   5  17
ENDBRANCH   3   4
ENDBRANCH   2   3
ENDBRANCH   1   2
BRANCH   1  33
ATOM     33  C   UNL     1      -1.600   0.577   3.821  1.00  0.00     0.116 C 
BRANCH  33  34
ATOM     34  N   UNL     1      -0.425   2.324   3.646  1.00  0.00    -0.352 N 
ATOM     35  C   UNL     1       0.389   3.413   4.440  1.00  0.00     0.251 C 
ATOM     36  H   UNL     1      -0.362   2.545   2.689  1.00  0.00     0.163 HD
ATOM     37  O   UNL     1       0.888   4.263   3.687  1.00  0.00    -0.269 OA
BRANCH  35  38
ATOM     38  C   UNL     1       0.566   3.611   6.059  1.00  0.00     0.039 A 
ATOM     39  C   UNL     1      -0.441   4.238   6.789  1.00  0.00     0.014 A 
ATOM     40  C   UNL     1       1.599   3.127   6.908  1.00  0.00     0.014 A 
ATOM     41  C   UNL     1      -0.514   4.170   8.255  1.00  0.00     0.010 A 
ATOM     42  C   UNL     1       1.577   3.188   8.435  1.00  0.00     0.010 A 
ATOM     43  C   UNL     1       0.483   3.671   9.202  1.00  0.00    -0.014 A 
BRANCH  43  44
ATOM     44  C   UNL     1       0.402   4.298  10.846  1.00  0.00     0.031 A 
ATOM     45  C   UNL     1       0.069   5.696  10.484  1.00  0.00     0.074 A 
ATOM     46  C   UNL     1       0.691   4.195  12.253  1.00  0.00     0.049 A 
ATOM     47  N   UNL     1       0.953   6.221   9.696  1.00  0.00    -0.248 NA
ATOM     48  C   UNL     1      -1.232   6.356  10.442  1.00  0.00     0.031 C 
ATOM     49  C   UNL     1       1.405   3.128  12.999  1.00  0.00     0.029 A 
ATOM     50  N   UNL     1       0.443   5.082  13.418  1.00  0.00    -0.354 N 
ATOM     51  C   UNL     1       0.468   7.385   9.190  1.00  0.00     0.074 A 
ATOM     52  C   UNL     1      -0.950   7.343   9.570  1.00  0.00     0.031 C 
ATOM     53  C   UNL     1       1.385   3.296  14.367  1.00  0.00     0.029 A 
ATOM     54  C   UNL     1       0.717   4.542  14.784  1.00  0.00     0.049 A 
ATOM     55  H   UNL     1       0.109   5.999  13.294  1.00  0.00     0.167 HD
ATOM     56  C   UNL     1       1.403   8.374   9.286  1.00  0.00     0.031 A 
ATOM     57  C   UNL     1       0.559   5.097  16.098  1.00  0.00     0.031 A 
ATOM     58  C   UNL     1       1.292   8.996  10.587  1.00  0.00     0.049 A 
ATOM     59  C   UNL     1       0.937   6.498  15.892  1.00  0.00     0.074 A 
ATOM     60  C   UNL     1       0.181   9.370  11.323  1.00  0.00     0.029 A 
ATOM     61  N   UNL     1       2.314   8.771  11.489  1.00  0.00    -0.354 N 
ATOM     62  N   UNL     1       2.169   6.864  15.711  1.00  0.00    -0.248 NA
ATOM     63  C   UNL     1      -0.046   7.568  15.955  1.00  0.00     0.031 C 
ATOM     64  C   UNL     1       0.414   8.816  12.595  1.00  0.00     0.029 A 
ATOM     65  C   UNL     1       1.780   8.625  12.751  1.00  0.00     0.049 A 
ATOM     66  H   UNL     1       3.272   8.723  11.265  1.00  0.00     0.167 HD
ATOM     67  C   UNL     1       2.010   8.040  15.044  1.00  0.00     0.074 A 
ATOM     68  C   UNL     1       0.708   8.548  15.457  1.00  0.00     0.031 C 
ATOM     69  C   UNL     1       2.605   8.137  13.827  1.00  0.00     0.031 A 
BRANCH  56  70
ATOM     70  C   UNL     1       2.742   7.950   8.663  1.00  0.00    -0.014 A 
ATOM     71  C   UNL     1       3.190   8.585   7.500  1.00  0.00     0.010 A 
ATOM     72  C   UNL     1       3.498   6.840   9.134  1.00  0.00     0.010 A 
ATOM     73  C   UNL     1       4.325   8.108   6.822  1.00  0.00     0.020 A 
ATOM     74  C   UNL     1       4.595   6.328   8.437  1.00  0.00     0.020 A 
ATOM     75  C   UNL     1       5.010   6.977   7.284  1.00  0.00     0.054 A 
BRANCH  75  76
ATOM     76  S   UNL     1       6.432   6.356   6.344  1.00  0.00     0.124 S 
ATOM     77  O   UNL     1       5.915   6.309   4.977  1.00  0.00    -0.237 OA
ATOM     78  O   UNL     1       7.433   7.389   6.590  1.00  0.00    -0.237 OA
ATOM     79  O   UNL     1       6.704   5.046   6.933  1.00  0.00    -0.744 OA
ENDBRANCH  75  76
ENDBRANCH  56  70
BRANCH  57  80
ATOM     80  C   UNL     1       0.456   4.949  17.737  1.00  0.00    -0.014 A 
ATOM     81  C   UNL     1       0.957   5.985  18.633  1.00  0.00     0.010 A 
ATOM     82  C   UNL     1      -0.505   4.137  18.376  1.00  0.00     0.010 A 
ATOM     83  C   UNL     1       0.460   6.260  19.957  1.00  0.00     0.020 A 
ATOM     84  C   UNL     1      -0.996   4.390  19.720  1.00  0.00     0.020 A 
ATOM     85  C   UNL     1      -0.550   5.474  20.488  1.00  0.00     0.054 A 
BRANCH  85  86
ATOM     86  S   UNL     1      -1.373   5.955  22.078  1.00  0.00     0.124 S 
ATOM     87  O   UNL     1      -0.333   5.737  23.080  1.00  0.00    -0.237 OA
ATOM     88  O   UNL     1      -1.734   7.354  21.853  1.00  0.00    -0.237 OA
ATOM     89  O   UNL     1      -2.513   5.044  22.166  1.00  0.00    -0.744 OA
ENDBRANCH  85  86
ENDBRANCH  57  80
BRANCH  69  90
ATOM     90  C   UNL     1       4.002   7.569  13.665  1.00  0.00    -0.014 A 
ATOM     91  C   UNL     1       4.410   6.275  14.061  1.00  0.00     0.010 A 
ATOM     92  C   UNL     1       4.986   8.421  13.135  1.00  0.00     0.010 A 
ATOM     93  C   UNL     1       5.755   5.876  13.994  1.00  0.00     0.020 A 
ATOM     94  C   UNL     1       6.321   8.018  13.024  1.00  0.00     0.020 A 
ATOM     95  C   UNL     1       6.706   6.760  13.487  1.00  0.00     0.054 A 
BRANCH  95  96
ATOM     96  S   UNL     1       8.454   6.275  13.486  1.00  0.00     0.124 S 
ATOM     97  O   UNL     1       8.768   6.250  14.913  1.00  0.00    -0.237 OA
ATOM     98  O   UNL     1       8.429   4.970  12.833  1.00  0.00    -0.237 OA
ATOM     99  O   UNL     1       9.110   7.345  12.737  1.00  0.00    -0.744 OA
ENDBRANCH  95  96
ENDBRANCH  69  90
ENDBRANCH  43  44
ENDBRANCH  35  38
ENDBRANCH  33  34
ENDBRANCH   1  33
TORSDOF 16
