REMARK SMILES Cc1cc(C)c2nc(NS(=O)(=O)c3cc(C(=O)NCCCCNC(=O)c4ccc(-c5c6nc(c(-c7ccc(S(=O)(=O)[O-])cc7)c7ccc([nH]7)c(-c7ccc(S(=O)(=O)[O-])cc7)c7nc(c(-c8ccc(S(=O)(=O)[O-])cc8)c8ccc5[nH]8)C=C7)C=C6)cc4)ccc3Cl)sc2c1
REMARK SMILES IDX 20 1 19 2 18 3 16 4 17 5 15 7 13 8 14 9 88 10 87 11 89 12
REMARK SMILES IDX 86 13 10 14 11 15 12 16 9 17 8 19 1 20 2 21 3 22 92 23 4 24
REMARK SMILES IDX 91 25 5 26 6 27 90 28 7 29 21 30 22 31 23 32 24 33 25 35
REMARK SMILES IDX 26 36 27 37 85 38 28 39 84 40 29 41 30 42 31 43 78 44 32 45
REMARK SMILES IDX 83 46 77 47 79 48 33 49 82 50 76 51 75 52 34 54 64 55 45 56
REMARK SMILES IDX 63 57 46 58 49 59 62 60 80 61 47 62 48 63 61 65 81 66 50 67
REMARK SMILES IDX 35 68 36 69 44 70 37 71 43 72 38 73 39 74 40 75 41 76 42 77
REMARK SMILES IDX 65 78 66 79 74 80 67 81 73 82 68 83 69 84 70 85 71 86 72 87
REMARK SMILES IDX 51 88 52 89 60 90 53 91 59 92 54 93 55 94 56 95 57 96 58 97
REMARK H PARENT 18 6 9 18 23 34 79 53 49 64
REMARK Flexibility Score: inf
ROOT
ATOM      1  C   UNL     1       1.039   7.431  -1.854  1.00  0.00     0.023 C 
ENDROOT
BRANCH   1   2
ATOM      2  C   UNL     1       1.987   7.926  -0.757  1.00  0.00     0.116 C 
BRANCH   2   3
ATOM      3  N   UNL     1       1.243   8.602   0.289  1.00  0.00    -0.352 N 
ATOM      4  C   UNL     1       0.692   8.232   1.488  1.00  0.00     0.251 C 
ATOM      5  O   UNL     1      -0.005   9.080   2.049  1.00  0.00    -0.269 OA
ATOM      6  H   UNL     1       1.100   9.556   0.090  1.00  0.00     0.163 HD
BRANCH   4   7
ATOM      7  C   UNL     1       0.920   6.928   2.188  1.00  0.00     0.041 A 
ATOM      8  C   UNL     1       0.734   5.697   4.309  1.00  0.00     0.107 A 
ATOM      9  C   UNL     1       0.476   6.836   3.520  1.00  0.00     0.037 A 
ATOM     10  C   UNL     1       1.577   4.705   3.823  1.00  0.00     0.061 A 
ATOM     11  C   UNL     1       1.912   4.728   2.467  1.00  0.00     0.023 A 
ATOM     12  Cl  UNL     1       2.201   3.413   4.776  1.00  0.00    -0.083 Cl
ATOM     13  C   UNL     1       1.528   5.799   1.645  1.00  0.00     0.015 A 
BRANCH   8  14
ATOM     14  S   UNL     1      -0.230   5.501   5.789  1.00  0.00     0.265 S 
ATOM     15  O   UNL     1      -1.429   6.304   5.622  1.00  0.00    -0.201 OA
ATOM     16  O   UNL     1       0.660   5.732   6.896  1.00  0.00    -0.201 OA
BRANCH  14  17
ATOM     17  N   UNL     1      -0.762   3.927   5.929  1.00  0.00    -0.255 N 
ATOM     18  H   UNL     1      -0.845   3.547   6.834  1.00  0.00     0.182 HD
BRANCH  17  19
ATOM     19  C   UNL     1      -1.101   3.106   4.838  1.00  0.00     0.197 A 
ATOM     20  C   UNL     1       0.736  -0.117   0.032  1.00  0.00     0.044 C 
ATOM     21  C   UNL     1       0.054   0.312   1.301  1.00  0.00    -0.049 A 
ATOM     22  C   UNL     1      -0.058  -0.589   2.366  1.00  0.00     0.009 A 
ATOM     23  C   UNL     1      -0.405   1.627   1.448  1.00  0.00     0.024 A 
ATOM     24  C   UNL     1      -0.550  -0.195   3.626  1.00  0.00    -0.024 A 
ATOM     25  C   UNL     1      -0.853   2.032   2.714  1.00  0.00     0.057 A 
ATOM     26  C   UNL     1      -0.669  -1.201   4.734  1.00  0.00     0.047 C 
ATOM     27  C   UNL     1      -0.843   1.176   3.817  1.00  0.00     0.087 A 
ATOM     28  S   UNL     1      -1.476   3.559   3.236  1.00  0.00    -0.096 S 
ATOM     29  N   UNL     1      -1.046   1.810   5.035  1.00  0.00    -0.219 NA
ENDBRANCH  17  19
ENDBRANCH  14  17
ENDBRANCH   8  14
ENDBRANCH   4   7
ENDBRANCH   2   3
ENDBRANCH   1   2
BRANCH   1  30
ATOM     30  C   UNL     1       0.644   8.518  -2.870  1.00  0.00     0.023 C 
BRANCH  30  31
ATOM     31  C   UNL     1       1.772   8.941  -3.812  1.00  0.00     0.116 C 
BRANCH  31  32
ATOM     32  N   UNL     1       2.246   7.838  -4.644  1.00  0.00    -0.352 N 
ATOM     33  C   UNL     1       3.436   7.734  -5.336  1.00  0.00     0.251 C 
ATOM     34  H   UNL     1       1.637   7.069  -4.723  1.00  0.00     0.163 HD
ATOM     35  O   UNL     1       3.552   6.938  -6.261  1.00  0.00    -0.269 OA
BRANCH  33  36
ATOM     36  C   UNL     1       4.564   8.594  -4.942  1.00  0.00     0.039 A 
ATOM     37  C   UNL     1       5.299   9.296  -5.902  1.00  0.00     0.014 A 
ATOM     38  C   UNL     1       4.853   8.725  -3.586  1.00  0.00     0.014 A 
ATOM     39  C   UNL     1       6.267  10.207  -5.480  1.00  0.00     0.010 A 
ATOM     40  C   UNL     1       5.731   9.702  -3.170  1.00  0.00     0.010 A 
ATOM     41  C   UNL     1       6.465  10.429  -4.109  1.00  0.00    -0.014 A 
BRANCH  41  42
ATOM     42  C   UNL     1       7.352  11.505  -3.654  1.00  0.00     0.031 A 
ATOM     43  C   UNL     1       7.051  12.873  -4.180  1.00  0.00     0.074 A 
ATOM     44  C   UNL     1       8.223  11.353  -2.632  1.00  0.00     0.049 A 
ATOM     45  N   UNL     1       7.821  13.662  -4.857  1.00  0.00    -0.248 NA
ATOM     46  C   UNL     1       5.688  13.400  -3.986  1.00  0.00     0.031 C 
ATOM     47  C   UNL     1       8.417  10.174  -1.779  1.00  0.00     0.029 A 
ATOM     48  N   UNL     1       9.020  12.285  -2.039  1.00  0.00    -0.354 N 
ATOM     49  C   UNL     1       7.114  14.852  -5.026  1.00  0.00     0.074 A 
ATOM     50  C   UNL     1       5.766  14.586  -4.591  1.00  0.00     0.031 C 
ATOM     51  C   UNL     1       9.047  10.541  -0.642  1.00  0.00     0.029 A 
ATOM     52  C   UNL     1       9.465  11.924  -0.772  1.00  0.00     0.049 A 
ATOM     53  H   UNL     1       9.259  13.138  -2.468  1.00  0.00     0.167 HD
ATOM     54  C   UNL     1       7.724  16.034  -5.329  1.00  0.00     0.031 A 
ATOM     55  C   UNL     1      10.094  12.717   0.128  1.00  0.00     0.031 A 
ATOM     56  C   UNL     1       9.083  15.849  -5.758  1.00  0.00     0.049 A 
ATOM     57  C   UNL     1      10.664  13.860  -0.620  1.00  0.00     0.074 A 
ATOM     58  C   UNL     1       9.698  15.202  -6.809  1.00  0.00     0.029 A 
ATOM     59  N   UNL     1      10.067  16.086  -4.829  1.00  0.00    -0.354 N 
ATOM     60  N   UNL     1      11.611  13.741  -1.507  1.00  0.00    -0.248 NA
ATOM     61  C   UNL     1       9.911  15.102  -0.675  1.00  0.00     0.031 C 
ATOM     62  C   UNL     1      10.897  14.664  -6.257  1.00  0.00     0.029 A 
ATOM     63  C   UNL     1      10.970  15.059  -4.919  1.00  0.00     0.049 A 
ATOM     64  H   UNL     1      10.115  16.852  -4.212  1.00  0.00     0.167 HD
ATOM     65  C   UNL     1      11.303  14.676  -2.483  1.00  0.00     0.074 A 
ATOM     66  C   UNL     1      10.325  15.562  -1.859  1.00  0.00     0.031 C 
ATOM     67  C   UNL     1      11.663  14.481  -3.786  1.00  0.00     0.031 A 
BRANCH  54  68
ATOM     68  C   UNL     1       7.209  17.388  -4.901  1.00  0.00    -0.014 A 
ATOM     69  C   UNL     1       7.835  18.555  -5.389  1.00  0.00     0.010 A 
ATOM     70  C   UNL     1       6.309  17.548  -3.828  1.00  0.00     0.010 A 
ATOM     71  C   UNL     1       7.610  19.806  -4.796  1.00  0.00     0.020 A 
ATOM     72  C   UNL     1       6.044  18.796  -3.258  1.00  0.00     0.020 A 
ATOM     73  C   UNL     1       6.723  19.915  -3.724  1.00  0.00     0.054 A 
BRANCH  73  74
ATOM     74  S   UNL     1       6.521  21.512  -2.894  1.00  0.00     0.124 S 
ATOM     75  O   UNL     1       7.841  21.715  -2.307  1.00  0.00    -0.237 OA
ATOM     76  O   UNL     1       6.177  22.396  -4.004  1.00  0.00    -0.237 OA
ATOM     77  O   UNL     1       5.440  21.267  -1.942  1.00  0.00    -0.744 OA
ENDBRANCH  73  74
ENDBRANCH  54  68
BRANCH  55  78
ATOM     78  C   UNL     1       9.973  12.706   1.607  1.00  0.00    -0.014 A 
ATOM     79  C   UNL     1      10.869  13.443   2.401  1.00  0.00     0.010 A 
ATOM     80  C   UNL     1       8.801  12.215   2.220  1.00  0.00     0.010 A 
ATOM     81  C   UNL     1      10.564  13.753   3.736  1.00  0.00     0.020 A 
ATOM     82  C   UNL     1       8.494  12.511   3.553  1.00  0.00     0.020 A 
ATOM     83  C   UNL     1       9.363  13.309   4.294  1.00  0.00     0.054 A 
BRANCH  83  84
ATOM     84  S   UNL     1       8.880  13.898   5.944  1.00  0.00     0.124 S 
ATOM     85  O   UNL     1       9.852  13.234   6.808  1.00  0.00    -0.237 OA
ATOM     86  O   UNL     1       9.030  15.345   5.817  1.00  0.00    -0.237 OA
ATOM     87  O   UNL     1       7.502  13.431   6.086  1.00  0.00    -0.744 OA
ENDBRANCH  83  84
ENDBRANCH  55  78
BRANCH  67  88
ATOM     88  C   UNL     1      12.675  13.401  -4.100  1.00  0.00    -0.014 A 
ATOM     89  C   UNL     1      12.466  12.032  -3.840  1.00  0.00     0.010 A 
ATOM     90  C   UNL     1      13.816  13.775  -4.832  1.00  0.00     0.010 A 
ATOM     91  C   UNL     1      13.385  11.069  -4.284  1.00  0.00     0.020 A 
ATOM     92  C   UNL     1      14.725  12.820  -5.293  1.00  0.00     0.020 A 
ATOM     93  C   UNL     1      14.509  11.471  -5.012  1.00  0.00     0.054 A 
BRANCH  93  94
ATOM     94  S   UNL     1      15.664  10.216  -5.634  1.00  0.00     0.124 S 
ATOM     95  O   UNL     1      16.255   9.690  -4.407  1.00  0.00    -0.237 OA
ATOM     96  O   UNL     1      14.787   9.296  -6.354  1.00  0.00    -0.237 OA
ATOM     97  O   UNL     1      16.580  10.977  -6.484  1.00  0.00    -0.744 OA
ENDBRANCH  93  94
ENDBRANCH  67  88
ENDBRANCH  41  42
ENDBRANCH  33  36
ENDBRANCH  31  32
ENDBRANCH  30  31
ENDBRANCH   1  30
TORSDOF 17
