REMARK SMILES CC[NH2+]C[C@@H](C)C(=O)N1CCO[C@@H](CC(=O)NCCCCNC(=O)c2ccc(-c3c4nc(c(-c5ccc(S(=O)(=O)[O-])cc5)c5ccc([nH]5)c(-c5ccc(S(=O)(=O)[O-])cc5)c5nc(c(-c6ccc(S(=O)(=O)[O-])cc6)c6ccc3[nH]6)C=C5)C=C4)cc2)C1
REMARK SMILES IDX 18 1 17 2 15 3 16 4 14 6 13 7 9 8 10 9 85 10 11 11 12 12
REMARK SMILES IDX 7 13 8 14 5 15 6 16 4 17 3 18 2 21 1 22 19 23 20 24 21 25
REMARK SMILES IDX 22 26 23 27 24 29 25 30 26 31 84 32 27 33 83 34 28 35 29 36
REMARK SMILES IDX 30 37 77 38 31 39 82 40 76 41 78 42 32 43 81 44 75 45 74 46
REMARK SMILES IDX 33 48 63 49 44 50 62 51 45 52 48 53 61 54 79 55 46 56 47 57
REMARK SMILES IDX 60 59 80 60 49 61 34 62 35 63 43 64 36 65 42 66 37 67 38 68
REMARK SMILES IDX 39 69 40 70 41 71 64 72 65 73 73 74 66 75 72 76 67 77 68 78
REMARK SMILES IDX 69 79 70 80 71 81 50 82 51 83 59 84 52 85 58 86 53 87 54 88
REMARK SMILES IDX 55 89 56 90 57 91
REMARK H PARENT 17 5 3 19 3 20 22 28 78 47 48 58
REMARK Flexibility Score: inf
ROOT
ATOM      1  C   UNL     1       0.926  -4.200   9.293  1.00  0.00     0.116 C 
ENDROOT
BRANCH   1   2
ATOM      2  N   UNL     1       2.382  -4.250   9.270  1.00  0.00    -0.356 N 
ATOM      3  C   UNL     1       3.310  -3.255   9.380  1.00  0.00     0.222 C 
ATOM      4  O   UNL     1       4.498  -3.542   9.226  1.00  0.00    -0.275 OA
ATOM      5  H   UNL     1       2.760  -5.152   9.155  1.00  0.00     0.163 HD
BRANCH   3   6
ATOM      6  C   UNL     1       2.897  -1.825   9.656  1.00  0.00     0.133 C 
BRANCH   6   7
ATOM      7  C   UNL     1       2.851  -0.965   8.388  1.00  0.00     0.147 C 
ATOM      8  N   UNL     1       1.462  -0.653   6.307  1.00  0.00    -0.337 N 
ATOM      9  C   UNL     1       1.136   0.686   6.777  1.00  0.00     0.148 C 
ATOM     10  C   UNL     1       1.835  -1.538   7.393  1.00  0.00     0.152 C 
ATOM     11  C   UNL     1       2.277   1.222   7.641  1.00  0.00     0.182 C 
ATOM     12  O   UNL     1       2.481   0.375   8.784  1.00  0.00    -0.374 OA
BRANCH   8  13
ATOM     13  C   UNL     1       0.636  -1.241   5.352  1.00  0.00     0.231 C 
ATOM     14  O   UNL     1      -0.405  -1.821   5.657  1.00  0.00    -0.274 OA
BRANCH  13  15
ATOM     15  C   UNL     1       1.129  -1.173   3.910  1.00  0.00     0.130 C 
ATOM     16  C   UNL     1       2.623  -1.490   3.826  1.00  0.00     0.024 C 
BRANCH  15  17
ATOM     17  C   UNL     1       0.748   0.180   3.297  1.00  0.00     0.273 C 
BRANCH  17  18
ATOM     18  N   UNL     1       1.166   0.415   1.912  1.00  0.00    -0.346 N 
ATOM     19  H   UNL     1       0.933   1.376   1.662  1.00  0.00     0.346 HD
ATOM     20  H   UNL     1       2.170   0.239   1.865  1.00  0.00     0.346 HD
BRANCH  18  21
ATOM     21  C   UNL     1       0.522  -0.483   0.957  1.00  0.00     0.257 C 
ATOM     22  C   UNL     1       0.930  -0.073  -0.450  1.00  0.00     0.071 C 
ENDBRANCH  18  21
ENDBRANCH  17  18
ENDBRANCH  15  17
ENDBRANCH  13  15
ENDBRANCH   8  13
ENDBRANCH   6   7
ENDBRANCH   3   6
ENDBRANCH   1   2
BRANCH   1  23
ATOM     23  C   UNL     1       0.337  -4.367   7.889  1.00  0.00     0.023 C 
BRANCH  23  24
ATOM     24  C   UNL     1       0.078  -5.798   7.452  1.00  0.00     0.023 C 
BRANCH  24  25
ATOM     25  C   UNL     1      -1.091  -6.459   8.156  1.00  0.00     0.116 C 
BRANCH  25  26
ATOM     26  N   UNL     1      -2.368  -5.794   7.927  1.00  0.00    -0.352 N 
ATOM     27  C   UNL     1      -3.600  -6.363   7.678  1.00  0.00     0.251 C 
ATOM     28  H   UNL     1      -2.349  -4.810   7.954  1.00  0.00     0.163 HD
ATOM     29  O   UNL     1      -4.576  -5.669   7.445  1.00  0.00    -0.269 OA
BRANCH  27  30
ATOM     30  C   UNL     1      -3.696  -7.838   7.641  1.00  0.00     0.039 A 
ATOM     31  C   UNL     1      -4.281  -8.448   6.530  1.00  0.00     0.014 A 
ATOM     32  C   UNL     1      -3.103  -8.605   8.645  1.00  0.00     0.014 A 
ATOM     33  C   UNL     1      -4.186  -9.833   6.383  1.00  0.00     0.010 A 
ATOM     34  C   UNL     1      -2.912  -9.963   8.440  1.00  0.00     0.010 A 
ATOM     35  C   UNL     1      -3.454 -10.593   7.309  1.00  0.00    -0.014 A 
BRANCH  35  36
ATOM     36  C   UNL     1      -3.248 -12.052   7.134  1.00  0.00     0.031 A 
ATOM     37  C   UNL     1      -3.743 -13.002   8.191  1.00  0.00     0.074 A 
ATOM     38  C   UNL     1      -2.542 -12.514   6.082  1.00  0.00     0.049 A 
ATOM     39  N   UNL     1      -3.568 -14.294   8.288  1.00  0.00    -0.248 NA
ATOM     40  C   UNL     1      -4.496 -12.414   9.312  1.00  0.00     0.031 C 
ATOM     41  C   UNL     1      -1.954 -11.690   5.021  1.00  0.00     0.029 A 
ATOM     42  N   UNL     1      -2.190 -13.794   5.736  1.00  0.00    -0.354 N 
ATOM     43  C   UNL     1      -4.153 -14.663   9.493  1.00  0.00     0.074 A 
ATOM     44  C   UNL     1      -4.637 -13.454  10.119  1.00  0.00     0.031 C 
ATOM     45  C   UNL     1      -1.348 -12.489   4.127  1.00  0.00     0.029 A 
ATOM     46  C   UNL     1      -1.468 -13.874   4.568  1.00  0.00     0.049 A 
ATOM     47  H   UNL     1      -2.433 -14.583   6.273  1.00  0.00     0.167 HD
ATOM     48  C   UNL     1      -4.301 -15.900  10.021  1.00  0.00     0.031 A 
ATOM     49  C   UNL     1      -0.961 -14.944   3.925  1.00  0.00     0.031 A 
ATOM     50  C   UNL     1      -3.860 -17.104   9.373  1.00  0.00     0.049 A 
ATOM     51  C   UNL     1      -1.179 -16.314   4.504  1.00  0.00     0.074 A 
ATOM     52  C   UNL     1      -4.025 -18.414   9.785  1.00  0.00     0.029 A 
ATOM     53  N   UNL     1      -3.178 -17.144   8.166  1.00  0.00    -0.354 N 
ATOM     54  N   UNL     1      -1.789 -16.649   5.616  1.00  0.00    -0.248 NA
ATOM     55  C   UNL     1      -0.655 -17.451   3.735  1.00  0.00     0.031 C 
ATOM     56  C   UNL     1      -3.413 -19.246   8.841  1.00  0.00     0.029 A 
ATOM     57  C   UNL     1      -2.908 -18.456   7.821  1.00  0.00     0.049 A 
ATOM     58  H   UNL     1      -2.924 -16.356   7.634  1.00  0.00     0.167 HD
ATOM     59  C   UNL     1      -1.745 -18.037   5.668  1.00  0.00     0.074 A 
ATOM     60  C   UNL     1      -1.058 -18.479   4.471  1.00  0.00     0.031 C 
ATOM     61  C   UNL     1      -2.230 -18.872   6.620  1.00  0.00     0.031 A 
BRANCH  48  62
ATOM     62  C   UNL     1      -4.975 -16.002  11.363  1.00  0.00    -0.014 A 
ATOM     63  C   UNL     1      -6.348 -15.729  11.507  1.00  0.00     0.010 A 
ATOM     64  C   UNL     1      -4.230 -16.379  12.494  1.00  0.00     0.010 A 
ATOM     65  C   UNL     1      -6.952 -15.777  12.765  1.00  0.00     0.020 A 
ATOM     66  C   UNL     1      -4.837 -16.458  13.751  1.00  0.00     0.020 A 
ATOM     67  C   UNL     1      -6.190 -16.135  13.881  1.00  0.00     0.054 A 
BRANCH  67  68
ATOM     68  S   UNL     1      -6.998 -16.196  15.504  1.00  0.00     0.124 S 
ATOM     69  O   UNL     1      -7.107 -14.778  15.837  1.00  0.00    -0.237 OA
ATOM     70  O   UNL     1      -8.260 -16.870  15.210  1.00  0.00    -0.237 OA
ATOM     71  O   UNL     1      -6.064 -16.960  16.327  1.00  0.00    -0.744 OA
ENDBRANCH  67  68
ENDBRANCH  48  62
BRANCH  49  72
ATOM     72  C   UNL     1      -0.231 -14.761   2.640  1.00  0.00    -0.014 A 
ATOM     73  C   UNL     1      -0.834 -15.131   1.425  1.00  0.00     0.010 A 
ATOM     74  C   UNL     1       1.056 -14.197   2.621  1.00  0.00     0.010 A 
ATOM     75  C   UNL     1      -0.157 -14.953   0.214  1.00  0.00     0.020 A 
ATOM     76  C   UNL     1       1.727 -13.995   1.410  1.00  0.00     0.020 A 
ATOM     77  C   UNL     1       1.119 -14.384   0.214  1.00  0.00     0.054 A 
BRANCH  77  78
ATOM     78  S   UNL     1       1.954 -14.104  -1.373  1.00  0.00     0.124 S 
ATOM     79  O   UNL     1       2.390 -15.451  -1.727  1.00  0.00    -0.237 OA
ATOM     80  O   UNL     1       0.887 -13.546  -2.199  1.00  0.00    -0.237 OA
ATOM     81  O   UNL     1       3.023 -13.167  -1.034  1.00  0.00    -0.744 OA
ENDBRANCH  77  78
ENDBRANCH  49  72
BRANCH  61  82
ATOM     82  C   UNL     1      -2.071 -20.349   6.391  1.00  0.00    -0.014 A 
ATOM     83  C   UNL     1      -0.827 -20.980   6.558  1.00  0.00     0.010 A 
ATOM     84  C   UNL     1      -3.200 -21.124   6.071  1.00  0.00     0.010 A 
ATOM     85  C   UNL     1      -0.710 -22.362   6.386  1.00  0.00     0.020 A 
ATOM     86  C   UNL     1      -3.092 -22.508   5.921  1.00  0.00     0.020 A 
ATOM     87  C   UNL     1      -1.844 -23.116   6.068  1.00  0.00     0.054 A 
BRANCH  87  88
ATOM     88  S   UNL     1      -1.679 -24.915   5.902  1.00  0.00     0.124 S 
ATOM     89  O   UNL     1      -1.048 -25.042   4.592  1.00  0.00    -0.237 OA
ATOM     90  O   UNL     1      -0.837 -25.268   7.043  1.00  0.00    -0.237 OA
ATOM     91  O   UNL     1      -3.057 -25.397   5.981  1.00  0.00    -0.744 OA
ENDBRANCH  87  88
ENDBRANCH  61  82
ENDBRANCH  35  36
ENDBRANCH  27  30
ENDBRANCH  25  26
ENDBRANCH  24  25
ENDBRANCH  23  24
ENDBRANCH   1  23
TORSDOF 20
