REMARK SMILES O=C(NCCCCNC(=O)c1ccc(Br)c(NC(=S)NC(=O)c2ccc(F)cc2)c1)c1ccc(-c2c3nc(c(-c4ccc(S(=O)(=O)[O-])cc4)c4ccc([nH]4)c(-c4ccc(S(=O)(=O)[O-])cc4)c4nc(c(-c5ccc(S(=O)(=O)[O-])cc5)c5ccc2[nH]5)C=C4)C=C3)cc1
REMARK SMILES IDX 6 1 5 2 4 3 3 4 1 5 2 6 31 8 32 9 90 10 33 11 89 12 34 13
REMARK SMILES IDX 35 14 36 15 83 16 37 17 88 18 82 19 84 20 38 21 87 22 81 23
REMARK SMILES IDX 80 24 39 26 69 27 50 28 68 29 51 30 54 31 67 32 85 33 52 34
REMARK SMILES IDX 53 35 66 37 86 38 55 39 40 40 41 41 49 42 42 43 48 44 43 45
REMARK SMILES IDX 44 46 45 47 46 48 47 49 70 50 71 51 79 52 72 53 78 54 73 55
REMARK SMILES IDX 74 56 75 57 76 58 77 59 56 60 57 61 65 62 58 63 64 64 59 65
REMARK SMILES IDX 60 66 61 67 62 68 63 69 7 70 8 71 9 72 10 74 11 75 12 76
REMARK SMILES IDX 30 77 13 78 16 79 14 80 15 81 17 82 18 84 19 85 20 86 21 87
REMARK SMILES IDX 22 89 23 90 24 91 29 92 25 93 28 94 26 95 27 96
REMARK H PARENT 3 7 84 25 54 36 8 73 17 83 20 88
REMARK Flexibility Score: inf
ROOT
ATOM      1  C   UNL     1       4.016   3.714   0.050  1.00  0.00     0.023 C 
ENDROOT
BRANCH   1   2
ATOM      2  C   UNL     1       4.731   2.545  -0.618  1.00  0.00     0.023 C 
BRANCH   2   3
ATOM      3  C   UNL     1       4.402   1.192  -0.007  1.00  0.00     0.116 C 
BRANCH   3   4
ATOM      4  N   UNL     1       2.970   0.997   0.199  1.00  0.00    -0.352 N 
ATOM      5  O   UNL     1       0.998  -0.097   0.054  1.00  0.00    -0.269 OA
ATOM      6  C   UNL     1       2.218  -0.120  -0.052  1.00  0.00     0.251 C 
ATOM      7  H   UNL     1       2.481   1.769   0.567  1.00  0.00     0.163 HD
BRANCH   6   8
ATOM      8  C   UNL     1       2.926  -1.336  -0.478  1.00  0.00     0.039 A 
ATOM      9  C   UNL     1       4.038  -1.766   0.250  1.00  0.00     0.014 A 
ATOM     10  C   UNL     1       2.528  -1.986  -1.645  1.00  0.00     0.014 A 
ATOM     11  C   UNL     1       4.836  -2.771  -0.266  1.00  0.00     0.010 A 
ATOM     12  C   UNL     1       3.275  -3.068  -2.105  1.00  0.00     0.010 A 
ATOM     13  C   UNL     1       4.440  -3.457  -1.425  1.00  0.00    -0.014 A 
BRANCH  13  14
ATOM     14  C   UNL     1       5.194  -4.665  -1.824  1.00  0.00     0.031 A 
ATOM     15  C   UNL     1       5.936  -4.734  -3.125  1.00  0.00     0.074 A 
ATOM     16  C   UNL     1       5.196  -5.702  -0.963  1.00  0.00     0.049 A 
ATOM     17  N   UNL     1       6.630  -5.729  -3.612  1.00  0.00    -0.248 NA
ATOM     18  C   UNL     1       5.893  -3.547  -3.996  1.00  0.00     0.031 C 
ATOM     19  C   UNL     1       4.492  -5.730   0.326  1.00  0.00     0.029 A 
ATOM     20  N   UNL     1       5.815  -6.920  -1.024  1.00  0.00    -0.354 N 
ATOM     21  C   UNL     1       7.085  -5.304  -4.854  1.00  0.00     0.074 A 
ATOM     22  C   UNL     1       6.580  -3.963  -5.053  1.00  0.00     0.031 C 
ATOM     23  C   UNL     1       4.760  -6.883   0.951  1.00  0.00     0.029 A 
ATOM     24  C   UNL     1       5.579  -7.709   0.076  1.00  0.00     0.049 A 
ATOM     25  H   UNL     1       6.376  -7.204  -1.782  1.00  0.00     0.167 HD
ATOM     26  C   UNL     1       7.851  -5.982  -5.741  1.00  0.00     0.031 A 
ATOM     27  C   UNL     1       5.948  -8.974   0.340  1.00  0.00     0.031 A 
ATOM     28  C   UNL     1       8.348  -7.317  -5.517  1.00  0.00     0.049 A 
ATOM     29  C   UNL     1       6.767  -9.705  -0.681  1.00  0.00     0.074 A 
ATOM     30  C   UNL     1       9.171  -8.073  -6.333  1.00  0.00     0.029 A 
ATOM     31  N   UNL     1       8.063  -8.096  -4.405  1.00  0.00    -0.354 N 
ATOM     32  N   UNL     1       7.229  -9.268  -1.829  1.00  0.00    -0.248 NA
ATOM     33  C   UNL     1       7.112 -11.098  -0.375  1.00  0.00     0.031 C 
ATOM     34  C   UNL     1       9.330  -9.332  -5.747  1.00  0.00     0.029 A 
ATOM     35  C   UNL     1       8.663  -9.338  -4.532  1.00  0.00     0.049 A 
ATOM     36  H   UNL     1       7.516  -7.808  -3.639  1.00  0.00     0.167 HD
ATOM     37  C   UNL     1       7.933 -10.331  -2.377  1.00  0.00     0.074 A 
ATOM     38  C   UNL     1       7.862 -11.418  -1.420  1.00  0.00     0.031 C 
ATOM     39  C   UNL     1       8.575 -10.406  -3.568  1.00  0.00     0.031 A 
BRANCH  26  40
ATOM     40  C   UNL     1       8.186  -5.321  -7.052  1.00  0.00    -0.014 A 
ATOM     41  C   UNL     1       9.122  -4.274  -7.127  1.00  0.00     0.010 A 
ATOM     42  C   UNL     1       7.635  -5.831  -8.243  1.00  0.00     0.010 A 
ATOM     43  C   UNL     1       9.495  -3.747  -8.368  1.00  0.00     0.020 A 
ATOM     44  C   UNL     1       8.022  -5.322  -9.486  1.00  0.00     0.020 A 
ATOM     45  C   UNL     1       8.947  -4.279  -9.540  1.00  0.00     0.054 A 
BRANCH  45  46
ATOM     46  S   UNL     1       9.505  -3.623 -11.138  1.00  0.00     0.124 S 
ATOM     47  O   UNL     1       8.900  -2.293 -11.146  1.00  0.00    -0.237 OA
ATOM     48  O   UNL     1      10.959  -3.650 -11.003  1.00  0.00    -0.237 OA
ATOM     49  O   UNL     1       8.955  -4.562 -12.112  1.00  0.00    -0.744 OA
ENDBRANCH  45  46
ENDBRANCH  26  40
BRANCH  27  50
ATOM     50  C   UNL     1       5.497  -9.635   1.593  1.00  0.00    -0.014 A 
ATOM     51  C   UNL     1       6.420 -10.009   2.584  1.00  0.00     0.010 A 
ATOM     52  C   UNL     1       4.129  -9.897   1.799  1.00  0.00     0.010 A 
ATOM     53  C   UNL     1       5.988 -10.666   3.739  1.00  0.00     0.020 A 
ATOM     54  C   UNL     1       3.689 -10.519   2.967  1.00  0.00     0.020 A 
ATOM     55  C   UNL     1       4.625 -10.921   3.920  1.00  0.00     0.054 A 
BRANCH  55  56
ATOM     56  S   UNL     1       4.085 -11.769   5.429  1.00  0.00     0.124 S 
ATOM     57  O   UNL     1       4.508 -13.142   5.170  1.00  0.00    -0.237 OA
ATOM     58  O   UNL     1       4.825 -11.063   6.471  1.00  0.00    -0.237 OA
ATOM     59  O   UNL     1       2.640 -11.551   5.444  1.00  0.00    -0.744 OA
ENDBRANCH  55  56
ENDBRANCH  27  50
BRANCH  39  60
ATOM     60  C   UNL     1       9.271 -11.700  -3.886  1.00  0.00    -0.014 A 
ATOM     61  C   UNL     1       8.541 -12.863  -4.189  1.00  0.00     0.010 A 
ATOM     62  C   UNL     1      10.677 -11.744  -3.911  1.00  0.00     0.010 A 
ATOM     63  C   UNL     1       9.205 -14.057  -4.476  1.00  0.00     0.020 A 
ATOM     64  C   UNL     1      11.344 -12.928  -4.230  1.00  0.00     0.020 A 
ATOM     65  C   UNL     1      10.603 -14.081  -4.495  1.00  0.00     0.054 A 
BRANCH  65  66
ATOM     66  S   UNL     1      11.441 -15.635  -4.908  1.00  0.00     0.124 S 
ATOM     67  O   UNL     1      11.224 -16.427  -3.700  1.00  0.00    -0.237 OA
ATOM     68  O   UNL     1      10.715 -16.085  -6.093  1.00  0.00    -0.237 OA
ATOM     69  O   UNL     1      12.824 -15.230  -5.148  1.00  0.00    -0.744 OA
ENDBRANCH  65  66
ENDBRANCH  39  60
ENDBRANCH  13  14
ENDBRANCH   6   8
ENDBRANCH   3   4
ENDBRANCH   2   3
ENDBRANCH   1   2
BRANCH   1  70
ATOM     70  C   UNL     1       4.164   3.731   1.573  1.00  0.00     0.116 C 
BRANCH  70  71
ATOM     71  N   UNL     1       5.510   4.217   1.943  1.00  0.00    -0.352 N 
ATOM     72  C   UNL     1       6.268   5.448   2.351  1.00  0.00     0.251 C 
ATOM     73  H   UNL     1       6.138   3.459   1.909  1.00  0.00     0.163 HD
ATOM     74  O   UNL     1       7.368   4.881   2.010  1.00  0.00    -0.269 OA
BRANCH  72  75
ATOM     75  C   UNL     1       5.787   7.358   3.194  1.00  0.00     0.041 A 
ATOM     76  C   UNL     1       5.178   7.775   4.530  1.00  0.00     0.015 A 
ATOM     77  C   UNL     1       6.053   8.704   2.635  1.00  0.00     0.041 A 
ATOM     78  C   UNL     1       5.104   9.072   5.114  1.00  0.00     0.018 A 
ATOM     79  C   UNL     1       6.342   9.884   3.297  1.00  0.00     0.055 A 
ATOM     80  C   UNL     1       5.752  10.126   4.512  1.00  0.00     0.041 A 
ATOM     81  Br  UNL     1       5.814  11.810   5.354  1.00  0.00    -0.049 Br
BRANCH  79  82
ATOM     82  N   UNL     1       7.240  10.750   2.667  1.00  0.00    -0.331 N 
ATOM     83  H   UNL     1       7.164  11.691   2.947  1.00  0.00     0.169 HD
BRANCH  82  84
ATOM     84  C   UNL     1       8.199  10.516   1.736  1.00  0.00     0.177 C 
ATOM     85  S   UNL     1       8.976  11.867   1.107  1.00  0.00    -0.040 S 
BRANCH  84  86
ATOM     86  N   UNL     1       8.676   9.273   1.312  1.00  0.00    -0.299 N 
ATOM     87  C   UNL     1       8.656   7.840   1.350  1.00  0.00     0.257 C 
ATOM     88  H   UNL     1       9.380   9.491   0.658  1.00  0.00     0.172 HD
ATOM     89  O   UNL     1       9.619   7.233   0.885  1.00  0.00    -0.269 OA
BRANCH  87  90
ATOM     90  C   UNL     1       7.542   7.059   1.914  1.00  0.00     0.040 A 
ATOM     91  C   UNL     1       5.944   6.951   1.022  1.00  0.00     0.017 A 
ATOM     92  C   UNL     1       7.679   6.398   3.603  1.00  0.00     0.017 A 
ATOM     93  C   UNL     1       4.461   6.377   1.898  1.00  0.00     0.040 A 
ATOM     94  C   UNL     1       6.260   5.583   4.386  1.00  0.00     0.040 A 
ATOM     95  C   UNL     1       4.626   5.624   3.563  1.00  0.00     0.123 A 
ATOM     96  F   UNL     1       3.549   5.144   4.200  1.00  0.00    -0.207 F 
ENDBRANCH  87  90
ENDBRANCH  84  86
ENDBRANCH  82  84
ENDBRANCH  79  82
ENDBRANCH  72  75
ENDBRANCH  70  71
ENDBRANCH   1  70
TORSDOF 18
