REMARK SMILES O=C(CN1C(=O)/C(=C\c2cccs2)SC1=S)Nc1ccccc1C(=O)NCCCCNC(=O)c1ccc(-c2c3nc(c(-c4ccc(S(=O)(=O)[O-])cc4)c4ccc([nH]4)c(-c4ccc(S(=O)(=O)[O-])cc4)c4nc(c(-c5ccc(S(=O)(=O)[O-])cc5)c5ccc2[nH]5)C=C4)C=C3)cc1
REMARK SMILES IDX 28 1 27 2 26 3 24 4 25 5 23 7 18 8 19 9 20 10 22 11 21 12
REMARK SMILES IDX 17 13 1 14 2 15 3 17 4 18 5 19 15 20 6 21 7 22 14 23 16 24
REMARK SMILES IDX 8 25 9 26 10 27 13 28 11 29 12 30 29 31 30 32 31 33 32 34
REMARK SMILES IDX 33 36 34 37 35 38 93 39 36 40 92 41 37 42 38 43 39 44 86 45
REMARK SMILES IDX 40 46 91 47 85 48 87 49 41 50 90 51 84 52 83 53 42 55 72 56
REMARK SMILES IDX 53 57 71 58 54 59 57 60 70 61 88 62 55 63 56 64 69 66 89 67
REMARK SMILES IDX 58 68 43 69 44 70 52 71 45 72 51 73 46 74 47 75 48 76 49 77
REMARK SMILES IDX 50 78 73 79 74 80 82 81 75 82 81 83 76 84 77 85 78 86 79 87
REMARK SMILES IDX 80 88 59 89 60 90 68 91 61 92 67 93 62 94 63 95 64 96 65 97
REMARK SMILES IDX 66 98
REMARK H PARENT 26 6 17 16 31 35 87 54 57 65
REMARK Flexibility Score: inf
ROOT
ATOM      1  C   UNL     1       3.760  -0.449  -2.765  1.00  0.00     0.023 C 
ENDROOT
BRANCH   1   2
ATOM      2  C   UNL     1       2.890  -0.812  -1.571  1.00  0.00     0.116 C 
BRANCH   2   3
ATOM      3  N   UNL     1       1.557  -1.289  -1.805  1.00  0.00    -0.352 N 
ATOM      4  C   UNL     1       0.713  -1.966  -0.943  1.00  0.00     0.253 C 
ATOM      5  O   UNL     1      -0.477  -2.030  -1.264  1.00  0.00    -0.269 OA
ATOM      6  H   UNL     1       1.193  -1.110  -2.702  1.00  0.00     0.163 HD
BRANCH   4   7
ATOM      7  C   UNL     1       1.176  -2.787   0.228  1.00  0.00     0.063 A 
ATOM      8  C   UNL     1       2.121  -2.494   1.233  1.00  0.00     0.054 A 
ATOM      9  C   UNL     1       2.548  -3.525   2.099  1.00  0.00     0.027 A 
ATOM     10  C   UNL     1       1.986  -4.800   2.054  1.00  0.00     0.002 A 
ATOM     11  C   UNL     1       0.612  -4.088   0.217  1.00  0.00     0.016 A 
ATOM     12  C   UNL     1       1.001  -5.078   1.122  1.00  0.00     0.001 A 
BRANCH   8  13
ATOM     13  N   UNL     1       2.755  -1.259   1.473  1.00  0.00    -0.324 N 
ATOM     14  O   UNL     1       0.970   0.197   1.607  1.00  0.00    -0.273 OA
ATOM     15  C   UNL     1       2.164  -0.011   1.436  1.00  0.00     0.244 C 
ATOM     16  H   UNL     1       3.715  -1.288   1.689  1.00  0.00     0.170 HD
BRANCH  15  17
ATOM     17  C   UNL     1       3.181   1.097   1.123  1.00  0.00     0.227 C 
BRANCH  17  18
ATOM     18  N   UNL     1       3.886   1.812   2.167  1.00  0.00    -0.283 N 
ATOM     19  C   UNL     1       3.633   3.169   2.279  1.00  0.00     0.266 C 
ATOM     20  C   UNL     1       4.993   1.333   2.829  1.00  0.00     0.148 C 
ATOM     21  O   UNL     1       2.680   3.736   1.759  1.00  0.00    -0.268 OA
ATOM     22  C   UNL     1       4.716   3.834   3.057  1.00  0.00     0.081 C 
ATOM     23  S   UNL     1       5.736   2.621   3.757  1.00  0.00    -0.054 SA
ATOM     24  S   UNL     1       5.618  -0.216   2.798  1.00  0.00    -0.052 S 
ATOM     25  C   UNL     1       5.012   5.139   3.149  1.00  0.00     0.040 C 
BRANCH  25  26
ATOM     26  C   UNL     1       4.283   6.178   2.509  1.00  0.00     0.028 A 
ATOM     27  C   UNL     1       2.932   6.474   2.529  1.00  0.00     0.020 A 
ATOM     28  S   UNL     1       5.135   7.338   1.560  1.00  0.00    -0.144 S 
ATOM     29  C   UNL     1       2.590   7.590   1.714  1.00  0.00     0.012 A 
ATOM     30  C   UNL     1       3.698   8.153   1.127  1.00  0.00     0.065 A 
ENDBRANCH  25  26
ENDBRANCH  17  18
ENDBRANCH  15  17
ENDBRANCH   8  13
ENDBRANCH   4   7
ENDBRANCH   2   3
ENDBRANCH   1   2
BRANCH   1  31
ATOM     31  C   UNL     1       3.463   0.881  -3.471  1.00  0.00     0.023 C 
BRANCH  31  32
ATOM     32  C   UNL     1       3.322   2.156  -2.632  1.00  0.00     0.116 C 
BRANCH  32  33
ATOM     33  N   UNL     1       4.439   2.462  -1.743  1.00  0.00    -0.352 N 
ATOM     34  C   UNL     1       4.923   3.699  -1.355  1.00  0.00     0.251 C 
ATOM     35  H   UNL     1       4.911   1.683  -1.370  1.00  0.00     0.163 HD
ATOM     36  O   UNL     1       5.779   3.764  -0.476  1.00  0.00    -0.269 OA
BRANCH  34  37
ATOM     37  C   UNL     1       4.490   4.912  -2.093  1.00  0.00     0.039 A 
ATOM     38  C   UNL     1       5.456   5.623  -2.812  1.00  0.00     0.014 A 
ATOM     39  C   UNL     1       3.139   5.239  -2.221  1.00  0.00     0.014 A 
ATOM     40  C   UNL     1       5.057   6.547  -3.784  1.00  0.00     0.010 A 
ATOM     41  C   UNL     1       2.741   6.116  -3.234  1.00  0.00     0.010 A 
ATOM     42  C   UNL     1       3.693   6.729  -4.067  1.00  0.00    -0.014 A 
BRANCH  42  43
ATOM     43  C   UNL     1       3.252   7.425  -5.310  1.00  0.00     0.031 A 
ATOM     44  C   UNL     1       2.450   8.692  -5.254  1.00  0.00     0.074 A 
ATOM     45  C   UNL     1       3.500   6.851  -6.507  1.00  0.00     0.049 A 
ATOM     46  N   UNL     1       1.927   9.379  -6.238  1.00  0.00    -0.248 NA
ATOM     47  C   UNL     1       2.192   9.254  -3.921  1.00  0.00     0.031 C 
ATOM     48  C   UNL     1       4.247   5.606  -6.713  1.00  0.00     0.029 A 
ATOM     49  N   UNL     1       3.146   7.233  -7.779  1.00  0.00    -0.354 N 
ATOM     50  C   UNL     1       1.271  10.451  -5.647  1.00  0.00     0.074 A 
ATOM     51  C   UNL     1       1.430  10.299  -4.214  1.00  0.00     0.031 C 
ATOM     52  C   UNL     1       4.322   5.348  -8.027  1.00  0.00     0.029 A 
ATOM     53  C   UNL     1       3.587   6.373  -8.759  1.00  0.00     0.049 A 
ATOM     54  H   UNL     1       2.626   8.046  -7.972  1.00  0.00     0.167 HD
ATOM     55  C   UNL     1       0.606  11.475  -6.238  1.00  0.00     0.031 A 
ATOM     56  C   UNL     1       3.414   6.393 -10.096  1.00  0.00     0.031 A 
ATOM     57  C   UNL     1       0.424  11.619  -7.659  1.00  0.00     0.049 A 
ATOM     58  C   UNL     1       2.607   7.494 -10.723  1.00  0.00     0.074 A 
ATOM     59  C   UNL     1      -0.198  12.646  -8.348  1.00  0.00     0.029 A 
ATOM     60  N   UNL     1       0.846  10.702  -8.610  1.00  0.00    -0.354 N 
ATOM     61  N   UNL     1       2.045   8.530 -10.149  1.00  0.00    -0.248 NA
ATOM     62  C   UNL     1       2.404   7.425 -12.177  1.00  0.00     0.031 C 
ATOM     63  C   UNL     1      -0.199  12.324  -9.711  1.00  0.00     0.029 A 
ATOM     64  C   UNL     1       0.466  11.120  -9.876  1.00  0.00     0.049 A 
ATOM     65  H   UNL     1       1.343   9.874  -8.415  1.00  0.00     0.167 HD
ATOM     66  C   UNL     1       1.437   9.246 -11.173  1.00  0.00     0.074 A 
ATOM     67  C   UNL     1       1.707   8.531 -12.404  1.00  0.00     0.031 C 
ATOM     68  C   UNL     1       0.724  10.396 -11.096  1.00  0.00     0.031 A 
BRANCH  55  69
ATOM     69  C   UNL     1       0.003  12.511  -5.327  1.00  0.00    -0.014 A 
ATOM     70  C   UNL     1       0.819  13.410  -4.615  1.00  0.00     0.010 A 
ATOM     71  C   UNL     1      -1.393  12.583  -5.173  1.00  0.00     0.010 A 
ATOM     72  C   UNL     1       0.254  14.315  -3.714  1.00  0.00     0.020 A 
ATOM     73  C   UNL     1      -1.964  13.506  -4.291  1.00  0.00     0.020 A 
ATOM     74  C   UNL     1      -1.134  14.346  -3.546  1.00  0.00     0.054 A 
BRANCH  74  75
ATOM     75  S   UNL     1      -1.840  15.502  -2.340  1.00  0.00     0.124 S 
ATOM     76  O   UNL     1      -1.542  14.833  -1.076  1.00  0.00    -0.237 OA
ATOM     77  O   UNL     1      -1.090  16.730  -2.591  1.00  0.00    -0.237 OA
ATOM     78  O   UNL     1      -3.255  15.556  -2.699  1.00  0.00    -0.744 OA
ENDBRANCH  74  75
ENDBRANCH  55  69
BRANCH  56  79
ATOM     79  C   UNL     1       4.035   5.333 -10.937  1.00  0.00    -0.014 A 
ATOM     80  C   UNL     1       5.154   5.632 -11.732  1.00  0.00     0.010 A 
ATOM     81  C   UNL     1       3.537   4.017 -10.921  1.00  0.00     0.010 A 
ATOM     82  C   UNL     1       5.768   4.635 -12.495  1.00  0.00     0.020 A 
ATOM     83  C   UNL     1       4.162   3.012 -11.665  1.00  0.00     0.020 A 
ATOM     84  C   UNL     1       5.272   3.328 -12.451  1.00  0.00     0.054 A 
BRANCH  84  85
ATOM     85  S   UNL     1       6.138   2.033 -13.382  1.00  0.00     0.124 S 
ATOM     86  O   UNL     1       5.741   2.329 -14.755  1.00  0.00    -0.237 OA
ATOM     87  O   UNL     1       7.538   2.293 -13.057  1.00  0.00    -0.237 OA
ATOM     88  O   UNL     1       5.598   0.795 -12.825  1.00  0.00    -0.744 OA
ENDBRANCH  84  85
ENDBRANCH  56  79
BRANCH  68  89
ATOM     89  C   UNL     1       0.185  10.967 -12.380  1.00  0.00    -0.014 A 
ATOM     90  C   UNL     1      -0.931  10.394 -13.015  1.00  0.00     0.010 A 
ATOM     91  C   UNL     1       0.759  12.132 -12.922  1.00  0.00     0.010 A 
ATOM     92  C   UNL     1      -1.457  10.971 -14.175  1.00  0.00     0.020 A 
ATOM     93  C   UNL     1       0.223  12.723 -14.069  1.00  0.00     0.020 A 
ATOM     94  C   UNL     1      -0.879  12.134 -14.693  1.00  0.00     0.054 A 
BRANCH  94  95
ATOM     95  S   UNL     1      -1.625  12.904 -16.157  1.00  0.00     0.124 S 
ATOM     96  O   UNL     1      -1.196  12.006 -17.225  1.00  0.00    -0.237 OA
ATOM     97  O   UNL     1      -3.052  12.873 -15.845  1.00  0.00    -0.237 OA
ATOM     98  O   UNL     1      -1.029  14.238 -16.188  1.00  0.00    -0.744 OA
ENDBRANCH  94  95
ENDBRANCH  68  89
ENDBRANCH  42  43
ENDBRANCH  34  37
ENDBRANCH  32  33
ENDBRANCH  31  32
ENDBRANCH   1  31
TORSDOF 18
