REMARK SMILES CCC[N@H+]1CCC[C@H]([C@@H](C)Nc2cccc(C(=O)NCCCCNC(=O)c3ccc(-c4c5nc(c(-c6ccc(S(=O)(=O)[O-])cc6)c6ccc([nH]6)c(-c6ccc(S(=O)(=O)[O-])cc6)c6nc(c(-c7ccc(S(=O)(=O)[O-])cc7)c7ccc4[nH]7)C=C6)C=C5)cc3)c2)C1
REMARK SMILES IDX 20 1 19 2 17 3 18 4 16 6 12 7 13 8 87 9 14 10 15 11 11 12
REMARK SMILES IDX 9 14 10 15 8 16 4 17 5 18 88 19 6 21 7 22 3 23 2 24 1 25
REMARK SMILES IDX 21 26 22 27 23 28 24 29 25 30 26 32 27 33 28 34 86 35 29 36
REMARK SMILES IDX 85 37 30 38 31 39 32 40 79 41 33 42 84 43 78 44 80 45 34 46
REMARK SMILES IDX 83 47 77 48 76 49 35 51 65 52 46 53 64 54 47 55 50 56 63 57
REMARK SMILES IDX 81 58 48 59 49 60 62 62 82 63 51 64 36 65 37 66 45 67 38 68
REMARK SMILES IDX 44 69 39 70 40 71 41 72 42 73 43 74 66 75 67 76 75 77 68 78
REMARK SMILES IDX 74 79 69 80 70 81 71 82 72 83 73 84 52 85 53 86 61 87 54 88
REMARK SMILES IDX 60 89 55 90 56 91 57 92 58 93 59 94
REMARK H PARENT 19 5 11 13 4 20 24 31 80 50 50 61
REMARK Flexibility Score: inf
ROOT
ATOM      1  C   UNL     1      -4.955   1.878  -3.327  1.00  0.00     0.116 C 
ENDROOT
BRANCH   1   2
ATOM      2  N   UNL     1      -5.507   2.155  -2.007  1.00  0.00    -0.352 N 
ATOM      3  C   UNL     1      -5.101   1.719  -0.759  1.00  0.00     0.251 C 
ATOM      4  O   UNL     1      -5.719   2.081   0.240  1.00  0.00    -0.269 OA
ATOM      5  H   UNL     1      -6.293   2.748  -2.003  1.00  0.00     0.163 HD
BRANCH   3   6
ATOM      6  C   UNL     1      -3.979   0.756  -0.613  1.00  0.00     0.041 A 
ATOM      7  C   UNL     1      -1.987  -0.247  -1.584  1.00  0.00     0.035 A 
ATOM      8  C   UNL     1      -2.125  -1.303  -0.674  1.00  0.00     0.026 A 
ATOM      9  C   UNL     1      -2.849   0.837  -1.427  1.00  0.00     0.039 A 
ATOM     10  C   UNL     1      -3.140  -1.307   0.291  1.00  0.00     0.003 A 
ATOM     11  C   UNL     1      -4.094  -0.293   0.297  1.00  0.00     0.014 A 
BRANCH   7  12
ATOM     12  N   UNL     1      -1.039  -0.324  -2.589  1.00  0.00    -0.382 N 
ATOM     13  H   UNL     1      -0.472  -1.128  -2.622  1.00  0.00     0.160 HD
BRANCH  12  14
ATOM     14  C   UNL     1      -0.816   0.707  -3.608  1.00  0.00     0.084 C 
ATOM     15  C   UNL     1      -1.479   0.248  -4.911  1.00  0.00     0.031 C 
BRANCH  14  16
ATOM     16  C   UNL     1       0.704   0.983  -3.783  1.00  0.00     0.066 C 
ATOM     17  N   UNL     1       0.885   2.329  -1.706  1.00  0.00    -0.335 N 
ATOM     18  C   UNL     1       1.191   3.559  -2.458  1.00  0.00     0.262 C 
ATOM     19  C   UNL     1       1.416   1.168  -2.428  1.00  0.00     0.267 C 
ATOM     20  H   UNL     1      -0.126   2.211  -1.636  1.00  0.00     0.348 HD
ATOM     21  C   UNL     1       0.615   3.525  -3.879  1.00  0.00     0.062 C 
ATOM     22  C   UNL     1       0.981   2.242  -4.628  1.00  0.00     0.017 C 
BRANCH  17  23
ATOM     23  C   UNL     1       1.378   2.422  -0.323  1.00  0.00     0.261 C 
BRANCH  23  24
ATOM     24  C   UNL     1       0.735   1.451   0.686  1.00  0.00     0.058 C 
ATOM     25  C   UNL     1       1.298   0.037   0.706  1.00  0.00     0.010 C 
ENDBRANCH  23  24
ENDBRANCH  17  23
ENDBRANCH  14  16
ENDBRANCH  12  14
ENDBRANCH   7  12
ENDBRANCH   3   6
ENDBRANCH   1   2
BRANCH   1  26
ATOM     26  C   UNL     1      -5.967   1.445  -4.378  1.00  0.00     0.023 C 
BRANCH  26  27
ATOM     27  C   UNL     1      -7.012   2.475  -4.778  1.00  0.00     0.023 C 
BRANCH  27  28
ATOM     28  C   UNL     1      -6.488   3.862  -5.126  1.00  0.00     0.116 C 
BRANCH  28  29
ATOM     29  N   UNL     1      -5.487   3.875  -6.184  1.00  0.00    -0.352 N 
ATOM     30  C   UNL     1      -5.427   4.644  -7.328  1.00  0.00     0.251 C 
ATOM     31  H   UNL     1      -4.743   3.241  -6.064  1.00  0.00     0.163 HD
ATOM     32  O   UNL     1      -4.525   4.472  -8.134  1.00  0.00    -0.269 OA
BRANCH  30  33
ATOM     33  C   UNL     1      -6.489   5.641  -7.596  1.00  0.00     0.039 A 
ATOM     34  C   UNL     1      -7.103   5.648  -8.851  1.00  0.00     0.014 A 
ATOM     35  C   UNL     1      -6.913   6.526  -6.602  1.00  0.00     0.014 A 
ATOM     36  C   UNL     1      -8.210   6.472  -9.075  1.00  0.00     0.010 A 
ATOM     37  C   UNL     1      -8.063   7.284  -6.800  1.00  0.00     0.010 A 
ATOM     38  C   UNL     1      -8.732   7.257  -8.034  1.00  0.00    -0.014 A 
BRANCH  38  39
ATOM     39  C   UNL     1      -9.986   8.036  -8.202  1.00  0.00     0.031 A 
ATOM     40  C   UNL     1      -9.969   9.535  -8.075  1.00  0.00     0.074 A 
ATOM     41  C   UNL     1     -11.156   7.389  -8.383  1.00  0.00     0.049 A 
ATOM     42  N   UNL     1     -10.971  10.376  -8.103  1.00  0.00    -0.248 NA
ATOM     43  C   UNL     1      -8.658  10.169  -7.858  1.00  0.00     0.031 C 
ATOM     44  C   UNL     1     -11.319   5.935  -8.470  1.00  0.00     0.029 A 
ATOM     45  N   UNL     1     -12.435   7.872  -8.514  1.00  0.00    -0.354 N 
ATOM     46  C   UNL     1     -10.416  11.632  -7.883  1.00  0.00     0.074 A 
ATOM     47  C   UNL     1      -8.997  11.437  -7.680  1.00  0.00     0.031 C 
ATOM     48  C   UNL     1     -12.616   5.648  -8.664  1.00  0.00     0.029 A 
ATOM     49  C   UNL     1     -13.383   6.889  -8.676  1.00  0.00     0.049 A 
ATOM     50  H   UNL     1     -12.652   8.832  -8.493  1.00  0.00     0.167 HD
ATOM     51  C   UNL     1     -11.028  12.840  -7.871  1.00  0.00     0.031 A 
ATOM     52  C   UNL     1     -14.721   6.974  -8.813  1.00  0.00     0.031 A 
ATOM     53  C   UNL     1     -12.435  13.036  -8.094  1.00  0.00     0.049 A 
ATOM     54  C   UNL     1     -15.376   8.327  -8.812  1.00  0.00     0.074 A 
ATOM     55  C   UNL     1     -13.138  14.227  -8.164  1.00  0.00     0.029 A 
ATOM     56  N   UNL     1     -13.355  12.017  -8.287  1.00  0.00    -0.354 N 
ATOM     57  N   UNL     1     -14.824   9.508  -8.669  1.00  0.00    -0.248 NA
ATOM     58  C   UNL     1     -16.833   8.361  -9.004  1.00  0.00     0.031 C 
ATOM     59  C   UNL     1     -14.490  13.925  -8.360  1.00  0.00     0.029 A 
ATOM     60  C   UNL     1     -14.621  12.549  -8.459  1.00  0.00     0.049 A 
ATOM     61  H   UNL     1     -13.140  11.056  -8.298  1.00  0.00     0.167 HD
ATOM     62  C   UNL     1     -15.862  10.427  -8.777  1.00  0.00     0.074 A 
ATOM     63  C   UNL     1     -17.072   9.665  -9.011  1.00  0.00     0.031 C 
ATOM     64  C   UNL     1     -15.816  11.779  -8.693  1.00  0.00     0.031 A 
BRANCH  51  65
ATOM     65  C   UNL     1     -10.169  14.047  -7.604  1.00  0.00    -0.014 A 
ATOM     66  C   UNL     1      -9.242  14.503  -8.560  1.00  0.00     0.010 A 
ATOM     67  C   UNL     1     -10.307  14.752  -6.394  1.00  0.00     0.010 A 
ATOM     68  C   UNL     1      -8.436  15.612  -8.292  1.00  0.00     0.020 A 
ATOM     69  C   UNL     1      -9.521  15.879  -6.134  1.00  0.00     0.020 A 
ATOM     70  C   UNL     1      -8.577  16.289  -7.077  1.00  0.00     0.054 A 
BRANCH  70  71
ATOM     71  S   UNL     1      -7.526  17.733  -6.760  1.00  0.00     0.124 S 
ATOM     72  O   UNL     1      -6.239  17.108  -6.464  1.00  0.00    -0.237 OA
ATOM     73  O   UNL     1      -7.592  18.463  -8.024  1.00  0.00    -0.237 OA
ATOM     74  O   UNL     1      -8.174  18.392  -5.629  1.00  0.00    -0.744 OA
ENDBRANCH  70  71
ENDBRANCH  51  65
BRANCH  52  75
ATOM     75  C   UNL     1     -15.530   5.736  -8.985  1.00  0.00    -0.014 A 
ATOM     76  C   UNL     1     -16.090   5.422 -10.236  1.00  0.00     0.010 A 
ATOM     77  C   UNL     1     -15.730   4.857  -7.905  1.00  0.00     0.010 A 
ATOM     78  C   UNL     1     -16.849   4.260 -10.401  1.00  0.00     0.020 A 
ATOM     79  C   UNL     1     -16.468   3.682  -8.073  1.00  0.00     0.020 A 
ATOM     80  C   UNL     1     -17.032   3.396  -9.318  1.00  0.00     0.054 A 
BRANCH  80  81
ATOM     81  S   UNL     1     -17.972   1.864  -9.569  1.00  0.00     0.124 S 
ATOM     82  O   UNL     1     -19.346   2.353  -9.604  1.00  0.00    -0.237 OA
ATOM     83  O   UNL     1     -17.442   1.370 -10.837  1.00  0.00    -0.237 OA
ATOM     84  O   UNL     1     -17.623   1.056  -8.402  1.00  0.00    -0.744 OA
ENDBRANCH  80  81
ENDBRANCH  52  75
BRANCH  64  85
ATOM     85  C   UNL     1     -17.106  12.529  -8.886  1.00  0.00    -0.014 A 
ATOM     86  C   UNL     1     -18.095  12.545  -7.887  1.00  0.00     0.010 A 
ATOM     87  C   UNL     1     -17.304  13.274 -10.063  1.00  0.00     0.010 A 
ATOM     88  C   UNL     1     -19.273  13.273  -8.074  1.00  0.00     0.020 A 
ATOM     89  C   UNL     1     -18.470  14.022 -10.242  1.00  0.00     0.020 A 
ATOM     90  C   UNL     1     -19.453  14.006  -9.251  1.00  0.00     0.054 A 
BRANCH  90  91
ATOM     91  S   UNL     1     -20.970  14.982  -9.451  1.00  0.00     0.124 S 
ATOM     92  O   UNL     1     -21.955  13.951  -9.763  1.00  0.00    -0.237 OA
ATOM     93  O   UNL     1     -21.118  15.619  -8.145  1.00  0.00    -0.237 OA
ATOM     94  O   UNL     1     -20.652  15.893 -10.548  1.00  0.00    -0.744 OA
ENDBRANCH  90  91
ENDBRANCH  64  85
ENDBRANCH  38  39
ENDBRANCH  30  33
ENDBRANCH  28  29
ENDBRANCH  27  28
ENDBRANCH  26  27
ENDBRANCH   1  26
TORSDOF 19
