REMARK SMILES Nc1c(C(=O)NCCCCNC(=O)c2ccc(-c3c4nc(c(-c5ccc(S(=O)(=O)[O-])cc5)c5ccc([nH]5)c(-c5ccc(S(=O)(=O)[O-])cc5)c5nc(c(-c6ccc(S(=O)(=O)[O-])cc6)c6ccc3[nH]6)C=C5)C=C4)cc2)cccc1-c1cc(F)c(F)c(F)c1
REMARK SMILES IDX 9 1 8 2 7 3 6 4 4 5 5 6 3 8 2 9 77 10 74 11 76 12 75 13 1 14
REMARK SMILES IDX 78 17 79 18 86 19 80 20 84 21 81 22 82 23 85 24 83 25 10 26
REMARK SMILES IDX 11 27 12 28 13 30 14 31 15 32 73 33 16 34 72 35 17 36 18 37
REMARK SMILES IDX 19 38 66 39 20 40 71 41 65 42 67 43 21 44 70 45 64 46 63 47
REMARK SMILES IDX 22 49 52 50 33 51 51 52 34 53 37 54 50 55 68 56 35 57 36 58
REMARK SMILES IDX 49 60 69 61 38 62 23 63 24 64 32 65 25 66 31 67 26 68 27 69
REMARK SMILES IDX 28 70 29 71 30 72 53 73 54 74 62 75 55 76 61 77 56 78 57 79
REMARK SMILES IDX 58 80 59 81 60 82 39 83 40 84 48 85 41 86 47 87 42 88 43 89
REMARK SMILES IDX 44 90 45 91 46 92
REMARK H PARENT 6 7 1 15 1 16 11 29 67 48 37 59
REMARK Flexibility Score: inf
ROOT
ATOM      1  C   UNL     1       5.180  -2.742   1.623  1.00  0.00     0.023 C 
ENDROOT
BRANCH   1   2
ATOM      2  C   UNL     1       4.147  -1.688   2.023  1.00  0.00     0.023 C 
BRANCH   2   3
ATOM      3  C   UNL     1       3.157  -1.268   0.943  1.00  0.00     0.116 C 
BRANCH   3   4
ATOM      4  N   UNL     1       2.351  -2.341   0.381  1.00  0.00    -0.352 N 
ATOM      5  C   UNL     1       1.104  -2.282  -0.211  1.00  0.00     0.253 C 
ATOM      6  O   UNL     1       0.599  -3.318  -0.641  1.00  0.00    -0.269 OA
ATOM      7  H   UNL     1       2.752  -3.239   0.429  1.00  0.00     0.163 HD
BRANCH   5   8
ATOM      8  C   UNL     1       0.316  -1.016  -0.262  1.00  0.00     0.063 A 
ATOM      9  C   UNL     1       0.857   0.238  -0.624  1.00  0.00     0.052 A 
ATOM     10  C   UNL     1       0.095   1.411  -0.364  1.00  0.00     0.006 A 
ATOM     11  C   UNL     1      -1.027  -1.124   0.134  1.00  0.00     0.016 A 
ATOM     12  C   UNL     1      -1.249   1.267   0.044  1.00  0.00     0.011 A 
ATOM     13  C   UNL     1      -1.817   0.013   0.254  1.00  0.00     0.002 A 
BRANCH   9  14
ATOM     14  N   UNL     1       2.090   0.316  -1.273  1.00  0.00    -0.398 N 
ATOM     15  H   UNL     1       2.607  -0.503  -1.447  1.00  0.00     0.156 HD
ATOM     16  H   UNL     1       2.442   1.191  -1.557  1.00  0.00     0.156 HD
ENDBRANCH   9  14
BRANCH  10  17
ATOM     17  C   UNL     1       0.688   2.769  -0.397  1.00  0.00    -0.010 A 
ATOM     18  C   UNL     1       0.620   3.586   0.751  1.00  0.00     0.051 A 
ATOM     19  C   UNL     1       1.391   3.265  -1.508  1.00  0.00     0.051 A 
ATOM     20  C   UNL     1       1.265   4.821   0.792  1.00  0.00     0.162 A 
ATOM     21  C   UNL     1       2.057   4.489  -1.439  1.00  0.00     0.162 A 
ATOM     22  F   UNL     1       1.183   5.563   1.905  1.00  0.00    -0.204 F 
ATOM     23  C   UNL     1       2.000   5.267  -0.293  1.00  0.00     0.194 A 
ATOM     24  F   UNL     1       2.778   4.898  -2.492  1.00  0.00    -0.204 F 
ATOM     25  F   UNL     1       2.652   6.436  -0.232  1.00  0.00    -0.200 F 
ENDBRANCH  10  17
ENDBRANCH   5   8
ENDBRANCH   3   4
ENDBRANCH   2   3
ENDBRANCH   1   2
BRANCH   1  26
ATOM     26  C   UNL     1       5.877  -2.549   0.279  1.00  0.00     0.116 C 
BRANCH  26  27
ATOM     27  N   UNL     1       6.672  -1.332   0.191  1.00  0.00    -0.352 N 
ATOM     28  C   UNL     1       8.028  -1.163   0.026  1.00  0.00     0.251 C 
ATOM     29  H   UNL     1       6.157  -0.496   0.262  1.00  0.00     0.163 HD
ATOM     30  O   UNL     1       8.505  -0.030   0.058  1.00  0.00    -0.269 OA
BRANCH  28  31
ATOM     31  C   UNL     1       8.919  -2.333  -0.141  1.00  0.00     0.039 A 
ATOM     32  C   UNL     1      10.089  -2.404   0.621  1.00  0.00     0.014 A 
ATOM     33  C   UNL     1       8.601  -3.368  -1.022  1.00  0.00     0.014 A 
ATOM     34  C   UNL     1      10.879  -3.558   0.579  1.00  0.00     0.010 A 
ATOM     35  C   UNL     1       9.338  -4.551  -0.997  1.00  0.00     0.010 A 
ATOM     36  C   UNL     1      10.478  -4.666  -0.187  1.00  0.00    -0.014 A 
BRANCH  36  37
ATOM     37  C   UNL     1      11.217  -5.957  -0.134  1.00  0.00     0.031 A 
ATOM     38  C   UNL     1      11.842  -6.529  -1.380  1.00  0.00     0.074 A 
ATOM     39  C   UNL     1      11.255  -6.660   1.017  1.00  0.00     0.049 A 
ATOM     40  N   UNL     1      12.445  -7.678  -1.547  1.00  0.00    -0.248 NA
ATOM     41  C   UNL     1      11.752  -5.715  -2.603  1.00  0.00     0.031 C 
ATOM     42  C   UNL     1      10.651  -6.246   2.287  1.00  0.00     0.029 A 
ATOM     43  N   UNL     1      11.820  -7.879   1.306  1.00  0.00    -0.354 N 
ATOM     44  C   UNL     1      12.785  -7.736  -2.894  1.00  0.00     0.074 A 
ATOM     45  C   UNL     1      12.279  -6.528  -3.509  1.00  0.00     0.031 C 
ATOM     46  C   UNL     1      10.899  -7.179   3.220  1.00  0.00     0.029 A 
ATOM     47  C   UNL     1      11.641  -8.278   2.611  1.00  0.00     0.049 A 
ATOM     48  H   UNL     1      12.307  -8.417   0.641  1.00  0.00     0.167 HD
ATOM     49  C   UNL     1      13.473  -8.696  -3.558  1.00  0.00     0.031 A 
ATOM     50  C   UNL     1      12.020  -9.404   3.247  1.00  0.00     0.031 A 
ATOM     51  C   UNL     1      13.993  -9.888  -2.943  1.00  0.00     0.049 A 
ATOM     52  C   UNL     1      12.784 -10.455   2.489  1.00  0.00     0.074 A 
ATOM     53  C   UNL     1      14.755 -10.890  -3.521  1.00  0.00     0.029 A 
ATOM     54  N   UNL     1      13.809 -10.241  -1.616  1.00  0.00    -0.354 N 
ATOM     55  N   UNL     1      13.151 -10.459   1.230  1.00  0.00    -0.248 NA
ATOM     56  C   UNL     1      13.196 -11.649   3.241  1.00  0.00     0.031 C 
ATOM     57  C   UNL     1      14.991 -11.872  -2.553  1.00  0.00     0.029 A 
ATOM     58  C   UNL     1      14.426 -11.454  -1.359  1.00  0.00     0.049 A 
ATOM     59  H   UNL     1      13.313  -9.708  -0.953  1.00  0.00     0.167 HD
ATOM     60  C   UNL     1      13.863 -11.639   1.047  1.00  0.00     0.074 A 
ATOM     61  C   UNL     1      13.886 -12.318   2.326  1.00  0.00     0.031 C 
ATOM     62  C   UNL     1      14.447 -12.117  -0.080  1.00  0.00     0.031 A 
BRANCH  49  63
ATOM     63  C   UNL     1      13.704  -8.494  -5.033  1.00  0.00    -0.014 A 
ATOM     64  C   UNL     1      14.582  -7.500  -5.501  1.00  0.00     0.010 A 
ATOM     65  C   UNL     1      13.070  -9.338  -5.963  1.00  0.00     0.010 A 
ATOM     66  C   UNL     1      14.789  -7.325  -6.871  1.00  0.00     0.020 A 
ATOM     67  C   UNL     1      13.297  -9.186  -7.334  1.00  0.00     0.020 A 
ATOM     68  C   UNL     1      14.143  -8.169  -7.780  1.00  0.00     0.054 A 
BRANCH  68  69
ATOM     69  S   UNL     1      14.450  -7.934  -9.552  1.00  0.00     0.124 S 
ATOM     70  O   UNL     1      13.706  -6.707  -9.826  1.00  0.00    -0.237 OA
ATOM     71  O   UNL     1      15.904  -7.812  -9.612  1.00  0.00    -0.237 OA
ATOM     72  O   UNL     1      13.903  -9.144 -10.162  1.00  0.00    -0.744 OA
ENDBRANCH  68  69
ENDBRANCH  49  63
BRANCH  50  73
ATOM     73  C   UNL     1      11.697  -9.591   4.689  1.00  0.00    -0.014 A 
ATOM     74  C   UNL     1      12.713  -9.544   5.660  1.00  0.00     0.010 A 
ATOM     75  C   UNL     1      10.370  -9.814   5.101  1.00  0.00     0.010 A 
ATOM     76  C   UNL     1      12.413  -9.738   7.011  1.00  0.00     0.020 A 
ATOM     77  C   UNL     1      10.062  -9.979   6.454  1.00  0.00     0.020 A 
ATOM     78  C   UNL     1      11.088  -9.953   7.400  1.00  0.00     0.054 A 
BRANCH  78  79
ATOM     79  S   UNL     1      10.715 -10.155   9.165  1.00  0.00     0.124 S 
ATOM     80  O   UNL     1      11.210 -11.502   9.428  1.00  0.00    -0.237 OA
ATOM     81  O   UNL     1      11.478  -9.069   9.775  1.00  0.00    -0.237 OA
ATOM     82  O   UNL     1       9.264  -9.996   9.227  1.00  0.00    -0.744 OA
ENDBRANCH  78  79
ENDBRANCH  50  73
BRANCH  62  83
ATOM     83  C   UNL     1      15.199 -13.416   0.024  1.00  0.00    -0.014 A 
ATOM     84  C   UNL     1      14.526 -14.643   0.163  1.00  0.00     0.010 A 
ATOM     85  C   UNL     1      16.602 -13.413  -0.082  1.00  0.00     0.010 A 
ATOM     86  C   UNL     1      15.245 -15.839   0.224  1.00  0.00     0.020 A 
ATOM     87  C   UNL     1      17.323 -14.609  -0.049  1.00  0.00     0.020 A 
ATOM     88  C   UNL     1      16.639 -15.815   0.118  1.00  0.00     0.054 A 
BRANCH  88  89
ATOM     89  S   UNL     1      17.546 -17.386   0.151  1.00  0.00     0.124 S 
ATOM     90  O   UNL     1      17.468 -17.751   1.563  1.00  0.00    -0.237 OA
ATOM     91  O   UNL     1      16.769 -18.224  -0.759  1.00  0.00    -0.237 OA
ATOM     92  O   UNL     1      18.879 -17.027  -0.327  1.00  0.00    -0.744 OA
ENDBRANCH  88  89
ENDBRANCH  62  83
ENDBRANCH  36  37
ENDBRANCH  28  31
ENDBRANCH  26  27
ENDBRANCH   1  26
TORSDOF 16
