REMARK SMILES C[NH+](C)CCc1nc(Nc2ccc(O)c(C(=O)NCCCCNC(=O)c3ccc(-c4c5nc(c(-c6ccc(S(=O)(=O)[O-])cc6)c6ccc([nH]6)c(-c6ccc(S(=O)(=O)[O-])cc6)c6nc(c(-c7ccc(S(=O)(=O)[O-])cc7)c7ccc4[nH]7)C=C6)C=C5)cc3)c2)c2ccccc2n1
REMARK SMILES IDX 19 1 18 2 16 3 17 4 15 6 10 7 11 8 86 9 12 10 13 11 9 12
REMARK SMILES IDX 8 14 6 15 7 16 93 17 92 18 87 19 91 20 88 21 90 22 89 23
REMARK SMILES IDX 5 24 4 25 2 26 1 27 3 28 14 30 20 32 21 33 22 34 23 35 24 36
REMARK SMILES IDX 25 38 26 39 27 40 85 41 28 42 84 43 29 44 30 45 31 46 78 47
REMARK SMILES IDX 32 48 83 49 77 50 79 51 33 52 82 53 76 54 75 55 34 57 64 58
REMARK SMILES IDX 45 59 63 60 46 61 49 62 62 63 80 64 47 65 48 66 61 68 81 69
REMARK SMILES IDX 50 70 35 71 36 72 44 73 37 74 43 75 38 76 39 77 40 78 41 79
REMARK SMILES IDX 42 80 65 81 66 82 74 83 67 84 73 85 68 86 69 87 70 88 71 89
REMARK SMILES IDX 72 90 51 91 52 92 60 93 53 94 59 95 54 96 55 97 56 98 57 99
REMARK SMILES IDX 58 100
REMARK H PARENT 18 5 9 13 2 29 14 31 23 37 79 56 49 67
REMARK Flexibility Score: inf
ROOT
ATOM      1  C   UNL     1       8.292   2.667  -0.881  1.00  0.00     0.116 C 
ENDROOT
BRANCH   1   2
ATOM      2  N   UNL     1       8.031   1.337  -1.384  1.00  0.00    -0.352 N 
ATOM      3  C   UNL     1       7.461   0.230  -0.815  1.00  0.00     0.255 C 
ATOM      4  O   UNL     1       7.471  -0.793  -1.510  1.00  0.00    -0.269 OA
ATOM      5  H   UNL     1       8.318   1.202  -2.316  1.00  0.00     0.163 HD
BRANCH   3   6
ATOM      6  C   UNL     1       6.767   0.170   0.513  1.00  0.00     0.083 A 
ATOM      7  C   UNL     1       5.017  -1.069   1.734  1.00  0.00     0.041 A 
ATOM      8  C   UNL     1       5.228  -0.255   2.844  1.00  0.00     0.030 A 
ATOM      9  C   UNL     1       5.776  -0.835   0.582  1.00  0.00     0.043 A 
ATOM     10  C   UNL     1       6.215   0.725   2.821  1.00  0.00     0.049 A 
ATOM     11  C   UNL     1       6.995   0.920   1.673  1.00  0.00     0.128 A 
BRANCH   7  12
ATOM     12  N   UNL     1       4.020  -2.059   1.724  1.00  0.00    -0.340 N 
ATOM     13  H   UNL     1       4.273  -2.941   1.368  1.00  0.00     0.168 HD
BRANCH  12  14
ATOM     14  C   UNL     1       2.692  -1.912   2.174  1.00  0.00     0.142 A 
ATOM     15  C   UNL     1       0.946  -0.496   2.647  1.00  0.00     0.137 A 
ATOM     16  N   UNL     1       2.245  -0.663   2.386  1.00  0.00    -0.215 NA
ATOM     17  N   UNL     1       0.073  -1.500   2.822  1.00  0.00    -0.233 NA
ATOM     18  C   UNL     1       0.537  -2.746   2.677  1.00  0.00     0.076 A 
ATOM     19  C   UNL     1       1.866  -3.032   2.338  1.00  0.00     0.043 A 
ATOM     20  C   UNL     1      -0.345  -3.806   2.840  1.00  0.00     0.029 A 
ATOM     21  C   UNL     1       2.277  -4.381   2.180  1.00  0.00     0.014 A 
ATOM     22  C   UNL     1       0.054  -5.136   2.675  1.00  0.00     0.002 A 
ATOM     23  C   UNL     1       1.371  -5.425   2.345  1.00  0.00     0.001 A 
BRANCH  15  24
ATOM     24  C   UNL     1       0.429   0.912   2.658  1.00  0.00     0.138 C 
BRANCH  24  25
ATOM     25  C   UNL     1       0.850   1.737   1.423  1.00  0.00     0.269 C 
BRANCH  25  26
ATOM     26  N   UNL     1       0.304   1.411   0.092  1.00  0.00    -0.339 N 
ATOM     27  C   UNL     1       0.892   0.210  -0.496  1.00  0.00     0.332 C 
ATOM     28  C   UNL     1      -1.151   1.354   0.061  1.00  0.00     0.332 C 
ATOM     29  H   UNL     1       0.583   2.198  -0.494  1.00  0.00     0.347 HD
ENDBRANCH  25  26
ENDBRANCH  24  25
ENDBRANCH  15  24
ENDBRANCH  12  14
ENDBRANCH   7  12
BRANCH  11  30
ATOM     30  O   UNL     1       8.002   1.829   1.783  1.00  0.00    -0.507 OA
ATOM     31  H   UNL     1       8.116   2.308   2.580  1.00  0.00     0.293 HD
ENDBRANCH  11  30
ENDBRANCH   3   6
ENDBRANCH   1   2
BRANCH   1  32
ATOM     32  C   UNL     1       9.678   2.720  -0.230  1.00  0.00     0.023 C 
BRANCH  32  33
ATOM     33  C   UNL     1      10.834   2.943  -1.202  1.00  0.00     0.023 C 
BRANCH  33  34
ATOM     34  C   UNL     1      10.855   4.319  -1.853  1.00  0.00     0.116 C 
BRANCH  34  35
ATOM     35  N   UNL     1      10.909   5.412  -0.894  1.00  0.00    -0.352 N 
ATOM     36  C   UNL     1      11.484   6.653  -1.048  1.00  0.00     0.251 C 
ATOM     37  H   UNL     1      10.479   5.242  -0.025  1.00  0.00     0.163 HD
ATOM     38  O   UNL     1      11.525   7.441  -0.111  1.00  0.00    -0.269 OA
BRANCH  36  39
ATOM     39  C   UNL     1      12.095   6.993  -2.348  1.00  0.00     0.039 A 
ATOM     40  C   UNL     1      13.414   7.452  -2.370  1.00  0.00     0.014 A 
ATOM     41  C   UNL     1      11.390   6.794  -3.537  1.00  0.00     0.014 A 
ATOM     42  C   UNL     1      14.053   7.641  -3.596  1.00  0.00     0.010 A 
ATOM     43  C   UNL     1      12.050   6.916  -4.755  1.00  0.00     0.010 A 
ATOM     44  C   UNL     1      13.388   7.336  -4.795  1.00  0.00    -0.014 A 
BRANCH  44  45
ATOM     45  C   UNL     1      14.074   7.443  -6.105  1.00  0.00     0.031 A 
ATOM     46  C   UNL     1      13.603   8.449  -7.117  1.00  0.00     0.074 A 
ATOM     47  C   UNL     1      15.072   6.589  -6.407  1.00  0.00     0.049 A 
ATOM     48  N   UNL     1      14.023   8.646  -8.340  1.00  0.00    -0.248 NA
ATOM     49  C   UNL     1      12.498   9.333  -6.711  1.00  0.00     0.031 C 
ATOM     50  C   UNL     1      15.589   5.540  -5.523  1.00  0.00     0.029 A 
ATOM     51  N   UNL     1      15.825   6.462  -7.547  1.00  0.00    -0.354 N 
ATOM     52  C   UNL     1      13.225   9.660  -8.854  1.00  0.00     0.074 A 
ATOM     53  C   UNL     1      12.265  10.005  -7.828  1.00  0.00     0.031 C 
ATOM     54  C   UNL     1      16.591   4.897  -6.144  1.00  0.00     0.029 A 
ATOM     55  C   UNL     1      16.763   5.460  -7.480  1.00  0.00     0.049 A 
ATOM     56  H   UNL     1      15.704   7.035  -8.338  1.00  0.00     0.167 HD
ATOM     57  C   UNL     1      13.297  10.264 -10.063  1.00  0.00     0.031 A 
ATOM     58  C   UNL     1      17.659   5.039  -8.393  1.00  0.00     0.031 A 
ATOM     59  C   UNL     1      14.262   9.929 -11.075  1.00  0.00     0.049 A 
ATOM     60  C   UNL     1      17.721   5.727  -9.729  1.00  0.00     0.074 A 
ATOM     61  C   UNL     1      14.448  10.514 -12.315  1.00  0.00     0.029 A 
ATOM     62  N   UNL     1      15.207   8.921 -10.961  1.00  0.00    -0.354 N 
ATOM     63  N   UNL     1      16.992   6.721 -10.177  1.00  0.00    -0.248 NA
ATOM     64  C   UNL     1      18.732   5.243 -10.678  1.00  0.00     0.031 C 
ATOM     65  C   UNL     1      15.484   9.836 -12.966  1.00  0.00     0.029 A 
ATOM     66  C   UNL     1      15.972   8.858 -12.113  1.00  0.00     0.049 A 
ATOM     67  H   UNL     1      15.318   8.336 -10.177  1.00  0.00     0.167 HD
ATOM     68  C   UNL     1      17.474   6.999 -11.451  1.00  0.00     0.074 A 
ATOM     69  C   UNL     1      18.564   6.076 -11.697  1.00  0.00     0.031 C 
ATOM     70  C   UNL     1      17.055   7.935 -12.337  1.00  0.00     0.031 A 
BRANCH  57  71
ATOM     71  C   UNL     1      12.300  11.354 -10.350  1.00  0.00    -0.014 A 
ATOM     72  C   UNL     1      12.386  12.600  -9.703  1.00  0.00     0.010 A 
ATOM     73  C   UNL     1      11.277  11.140 -11.292  1.00  0.00     0.010 A 
ATOM     74  C   UNL     1      11.441  13.597  -9.957  1.00  0.00     0.020 A 
ATOM     75  C   UNL     1      10.345  12.145 -11.569  1.00  0.00     0.020 A 
ATOM     76  C   UNL     1      10.422  13.360 -10.885  1.00  0.00     0.054 A 
BRANCH  76  77
ATOM     77  S   UNL     1       9.215  14.675 -11.207  1.00  0.00     0.124 S 
ATOM     78  O   UNL     1       8.373  14.607 -10.014  1.00  0.00    -0.237 OA
ATOM     79  O   UNL     1      10.056  15.865 -11.314  1.00  0.00    -0.237 OA
ATOM     80  O   UNL     1       8.571  14.257 -12.449  1.00  0.00    -0.744 OA
ENDBRANCH  76  77
ENDBRANCH  57  71
BRANCH  58  81
ATOM     81  C   UNL     1      18.589   3.925  -8.066  1.00  0.00    -0.014 A 
ATOM     82  C   UNL     1      19.952   4.184  -7.834  1.00  0.00     0.010 A 
ATOM     83  C   UNL     1      18.119   2.603  -7.977  1.00  0.00     0.010 A 
ATOM     84  C   UNL     1      20.831   3.139  -7.538  1.00  0.00     0.020 A 
ATOM     85  C   UNL     1      18.991   1.558  -7.658  1.00  0.00     0.020 A 
ATOM     86  C   UNL     1      20.345   1.832  -7.453  1.00  0.00     0.054 A 
BRANCH  86  87
ATOM     87  S   UNL     1      21.495   0.496  -7.022  1.00  0.00     0.124 S 
ATOM     88  O   UNL     1      22.212   0.297  -8.277  1.00  0.00    -0.237 OA
ATOM     89  O   UNL     1      22.272   1.084  -5.934  1.00  0.00    -0.237 OA
ATOM     90  O   UNL     1      20.611  -0.598  -6.624  1.00  0.00    -0.744 OA
ENDBRANCH  86  87
ENDBRANCH  58  81
BRANCH  70  91
ATOM     91  C   UNL     1      17.797   8.033 -13.641  1.00  0.00    -0.014 A 
ATOM     92  C   UNL     1      17.616   7.076 -14.653  1.00  0.00     0.010 A 
ATOM     93  C   UNL     1      18.642   9.134 -13.876  1.00  0.00     0.010 A 
ATOM     94  C   UNL     1      18.289   7.203 -15.871  1.00  0.00     0.020 A 
ATOM     95  C   UNL     1      19.297   9.277 -15.100  1.00  0.00     0.020 A 
ATOM     96  C   UNL     1      19.126   8.303 -16.087  1.00  0.00     0.054 A 
BRANCH  96  97
ATOM     97  S   UNL     1      19.949   8.475 -17.694  1.00  0.00     0.124 S 
ATOM     98  O   UNL     1      21.027   7.496 -17.590  1.00  0.00    -0.237 OA
ATOM     99  O   UNL     1      18.886   8.141 -18.638  1.00  0.00    -0.237 OA
ATOM    100  O   UNL     1      20.375   9.873 -17.716  1.00  0.00    -0.744 OA
ENDBRANCH  96  97
ENDBRANCH  70  91
ENDBRANCH  44  45
ENDBRANCH  36  39
ENDBRANCH  34  35
ENDBRANCH  33  34
ENDBRANCH  32  33
ENDBRANCH   1  32
TORSDOF 20
