REMARK SMILES C/C(=C(\C#N)C(=O)NCCCCNC(=O)c1ccc(-c2c3nc(c(-c4ccc(S(=O)(=O)[O-])cc4)c4ccc([nH]4)c(-c4ccc(S(=O)(=O)[O-])cc4)c4nc(c(-c5ccc(S(=O)(=O)[O-])cc5)c5ccc2[nH]5)C=C4)C=C3)cc1)c1cccc2ccccc12
REMARK SMILES IDX 11 1 10 2 9 3 8 4 6 5 7 6 3 8 1 9 2 10 76 11 77 12 85 13
REMARK SMILES IDX 78 14 80 15 84 16 79 17 81 18 83 19 82 20 4 21 5 22 12 23
REMARK SMILES IDX 13 24 14 25 15 27 16 28 17 29 75 30 18 31 74 32 19 33 20 34
REMARK SMILES IDX 21 35 68 36 22 37 73 38 67 39 69 40 23 41 72 42 66 43 65 44
REMARK SMILES IDX 24 46 54 47 35 48 53 49 36 50 39 51 52 52 70 53 37 54 38 55
REMARK SMILES IDX 51 57 71 58 40 59 25 60 26 61 34 62 27 63 33 64 28 65 29 66
REMARK SMILES IDX 30 67 31 68 32 69 55 70 56 71 64 72 57 73 63 74 58 75 59 76
REMARK SMILES IDX 60 77 61 78 62 79 41 80 42 81 50 82 43 83 49 84 44 85 45 86
REMARK SMILES IDX 46 87 47 88 48 89
REMARK H PARENT 8 7 13 26 69 45 39 56
REMARK Flexibility Score: inf
ROOT
ATOM      1  C   UNL     1      -4.386  -3.873  -3.410  1.00  0.00     0.023 C 
ENDROOT
BRANCH   1   2
ATOM      2  C   UNL     1      -3.409  -3.598  -2.262  1.00  0.00     0.023 C 
BRANCH   2   3
ATOM      3  C   UNL     1      -1.953  -3.866  -2.629  1.00  0.00     0.116 C 
BRANCH   3   4
ATOM      4  N   UNL     1      -1.361  -2.765  -3.367  1.00  0.00    -0.351 N 
ATOM      5  C   UNL     1      -0.582  -1.694  -3.050  1.00  0.00     0.262 C 
ATOM      6  O   UNL     1      -0.114  -1.125  -4.037  1.00  0.00    -0.268 OA
ATOM      7  H   UNL     1      -1.574  -2.802  -4.328  1.00  0.00     0.163 HD
BRANCH   5   8
ATOM      8  C   UNL     1      -0.271  -1.247  -1.627  1.00  0.00     0.120 C 
ATOM      9  C   UNL     1       0.890   0.172   0.096  1.00  0.00     0.046 C 
ATOM     10  C   UNL     1       0.432  -0.109  -1.316  1.00  0.00    -0.020 C 
BRANCH  10  11
ATOM     11  C   UNL     1       0.795   0.951  -2.338  1.00  0.00    -0.013 A 
ATOM     12  C   UNL     1      -0.284   1.437  -3.105  1.00  0.00     0.009 A 
ATOM     13  C   UNL     1       2.116   1.448  -2.641  1.00  0.00    -0.011 A 
ATOM     14  C   UNL     1      -0.076   2.147  -4.283  1.00  0.00     0.001 A 
ATOM     15  C   UNL     1       2.306   2.124  -3.883  1.00  0.00    -0.018 A 
ATOM     16  C   UNL     1       3.274   1.367  -1.819  1.00  0.00     0.009 A 
ATOM     17  C   UNL     1       1.216   2.419  -4.704  1.00  0.00     0.009 A 
ATOM     18  C   UNL     1       3.581   2.540  -4.305  1.00  0.00     0.009 A 
ATOM     19  C   UNL     1       4.517   1.898  -2.202  1.00  0.00     0.001 A 
ATOM     20  C   UNL     1       4.680   2.447  -3.462  1.00  0.00     0.001 A 
ENDBRANCH  10  11
BRANCH   8  21
ATOM     21  C   UNL     1      -0.638  -2.251  -0.546  1.00  0.00     0.105 C 
ATOM     22  N   UNL     1      -0.943  -3.084   0.350  1.00  0.00    -0.192 NA
ENDBRANCH   8  21
ENDBRANCH   5   8
ENDBRANCH   3   4
ENDBRANCH   2   3
ENDBRANCH   1   2
BRANCH   1  23
ATOM     23  C   UNL     1      -4.263  -5.260  -4.035  1.00  0.00     0.116 C 
BRANCH  23  24
ATOM     24  N   UNL     1      -4.315  -6.337  -3.059  1.00  0.00    -0.352 N 
ATOM     25  C   UNL     1      -4.795  -7.614  -3.228  1.00  0.00     0.251 C 
ATOM     26  H   UNL     1      -3.963  -6.124  -2.164  1.00  0.00     0.163 HD
ATOM     27  O   UNL     1      -4.898  -8.369  -2.274  1.00  0.00    -0.269 OA
BRANCH  25  28
ATOM     28  C   UNL     1      -5.210  -8.043  -4.579  1.00  0.00     0.039 A 
ATOM     29  C   UNL     1      -6.441  -8.681  -4.733  1.00  0.00     0.014 A 
ATOM     30  C   UNL     1      -4.395  -7.794  -5.686  1.00  0.00     0.014 A 
ATOM     31  C   UNL     1      -6.867  -9.045  -6.010  1.00  0.00     0.010 A 
ATOM     32  C   UNL     1      -4.863  -8.071  -6.964  1.00  0.00     0.010 A 
ATOM     33  C   UNL     1      -6.089  -8.728  -7.137  1.00  0.00    -0.014 A 
BRANCH  33  34
ATOM     34  C   UNL     1      -6.522  -9.135  -8.496  1.00  0.00     0.031 A 
ATOM     35  C   UNL     1      -5.695 -10.119  -9.281  1.00  0.00     0.074 A 
ATOM     36  C   UNL     1      -7.644  -8.610  -9.027  1.00  0.00     0.049 A 
ATOM     37  N   UNL     1      -5.918 -10.620 -10.469  1.00  0.00    -0.248 NA
ATOM     38  C   UNL     1      -4.440 -10.583  -8.665  1.00  0.00     0.031 C 
ATOM     39  C   UNL     1      -8.500  -7.611  -8.382  1.00  0.00     0.029 A 
ATOM     40  N   UNL     1      -8.262  -8.852 -10.226  1.00  0.00    -0.354 N 
ATOM     41  C   UNL     1      -4.832 -11.443 -10.742  1.00  0.00     0.074 A 
ATOM     42  C   UNL     1      -3.917 -11.322  -9.631  1.00  0.00     0.031 C 
ATOM     43  C   UNL     1      -9.556  -7.361  -9.173  1.00  0.00     0.029 A 
ATOM     44  C   UNL     1      -9.434  -8.152 -10.394  1.00  0.00     0.049 A 
ATOM     45  H   UNL     1      -7.902  -9.469 -10.904  1.00  0.00     0.167 HD
ATOM     46  C   UNL     1      -4.626 -12.252 -11.808  1.00  0.00     0.031 A 
ATOM     47  C   UNL     1     -10.314  -8.154 -11.414  1.00  0.00     0.031 A 
ATOM     48  C   UNL     1      -5.547 -12.378 -12.905  1.00  0.00     0.049 A 
ATOM     49  C   UNL     1     -10.067  -9.066 -12.586  1.00  0.00     0.074 A 
ATOM     50  C   UNL     1      -5.460 -13.204 -14.012  1.00  0.00     0.029 A 
ATOM     51  N   UNL     1      -6.725 -11.656 -13.034  1.00  0.00    -0.354 N 
ATOM     52  N   UNL     1      -9.066  -9.888 -12.796  1.00  0.00    -0.248 NA
ATOM     53  C   UNL     1     -11.083  -9.068 -13.646  1.00  0.00     0.031 C 
ATOM     54  C   UNL     1      -6.557 -12.940 -14.838  1.00  0.00     0.029 A 
ATOM     55  C   UNL     1      -7.366 -12.005 -14.210  1.00  0.00     0.049 A 
ATOM     56  H   UNL     1      -7.056 -10.994 -12.385  1.00  0.00     0.167 HD
ATOM     57  C   UNL     1      -9.354 -10.536 -13.993  1.00  0.00     0.074 A 
ATOM     58  C   UNL     1     -10.627 -10.017 -14.451  1.00  0.00     0.031 C 
ATOM     59  C   UNL     1      -8.634 -11.480 -14.650  1.00  0.00     0.031 A 
BRANCH  46  60
ATOM     60  C   UNL     1      -3.354 -13.060 -11.834  1.00  0.00    -0.014 A 
ATOM     61  C   UNL     1      -3.131 -14.102 -10.914  1.00  0.00     0.010 A 
ATOM     62  C   UNL     1      -2.378 -12.795 -12.811  1.00  0.00     0.010 A 
ATOM     63  C   UNL     1      -1.940 -14.832 -10.942  1.00  0.00     0.020 A 
ATOM     64  C   UNL     1      -1.199 -13.544 -12.865  1.00  0.00     0.020 A 
ATOM     65  C   UNL     1      -0.980 -14.547 -11.918  1.00  0.00     0.054 A 
BRANCH  65  66
ATOM     66  S   UNL     1       0.545 -15.527 -11.947  1.00  0.00     0.124 S 
ATOM     67  O   UNL     1       1.239 -15.040 -10.758  1.00  0.00    -0.237 OA
ATOM     68  O   UNL     1       0.046 -16.897 -11.865  1.00  0.00    -0.237 OA
ATOM     69  O   UNL     1       1.165 -15.168 -13.220  1.00  0.00    -0.744 OA
ENDBRANCH  65  66
ENDBRANCH  46  60
BRANCH  47  70
ATOM     70  C   UNL     1     -11.527  -7.291 -11.353  1.00  0.00    -0.014 A 
ATOM     71  C   UNL     1     -12.807  -7.857 -11.214  1.00  0.00     0.010 A 
ATOM     72  C   UNL     1     -11.406  -5.891 -11.429  1.00  0.00     0.010 A 
ATOM     73  C   UNL     1     -13.943  -7.043 -11.180  1.00  0.00     0.020 A 
ATOM     74  C   UNL     1     -12.536  -5.072 -11.362  1.00  0.00     0.020 A 
ATOM     75  C   UNL     1     -13.800  -5.655 -11.252  1.00  0.00     0.054 A 
BRANCH  75  76
ATOM     76  S   UNL     1     -15.285  -4.616 -11.164  1.00  0.00     0.124 S 
ATOM     77  O   UNL     1     -15.906  -4.863 -12.461  1.00  0.00    -0.237 OA
ATOM     78  O   UNL     1     -15.987  -5.169 -10.009  1.00  0.00    -0.237 OA
ATOM     79  O   UNL     1     -14.749  -3.270 -10.972  1.00  0.00    -0.744 OA
ENDBRANCH  75  76
ENDBRANCH  47  70
BRANCH  59  80
ATOM     80  C   UNL     1      -9.236 -12.060 -15.904  1.00  0.00    -0.014 A 
ATOM     81  C   UNL     1      -9.372 -11.301 -17.079  1.00  0.00     0.010 A 
ATOM     82  C   UNL     1      -9.643 -13.407 -15.907  1.00  0.00     0.010 A 
ATOM     83  C   UNL     1      -9.956 -11.864 -18.218  1.00  0.00     0.020 A 
ATOM     84  C   UNL     1     -10.194 -13.983 -17.053  1.00  0.00     0.020 A 
ATOM     85  C   UNL     1     -10.367 -13.200 -18.195  1.00  0.00     0.054 A 
BRANCH  85  86
ATOM     86  S   UNL     1     -11.112 -13.911 -19.688  1.00  0.00     0.124 S 
ATOM     87  O   UNL     1     -12.427 -13.275 -19.703  1.00  0.00    -0.237 OA
ATOM     88  O   UNL     1     -10.194 -13.481 -20.740  1.00  0.00    -0.237 OA
ATOM     89  O   UNL     1     -11.118 -15.347 -19.423  1.00  0.00    -0.744 OA
ENDBRANCH  85  86
ENDBRANCH  59  80
ENDBRANCH  33  34
ENDBRANCH  25  28
ENDBRANCH  23  24
ENDBRANCH   1  23
TORSDOF 16
