REMARK SMILES O=C(NCCCCNC(=O)c1cc(Cl)ccc1N1C(=O)CC2(CCCC2)C1=O)c1ccc(-c2c3nc(c(-c4ccc(S(=O)(=O)[O-])cc4)c4ccc([nH]4)c(-c4ccc(S(=O)(=O)[O-])cc4)c4nc(c(-c5ccc(S(=O)(=O)[O-])cc5)c5ccc2[nH]5)C=C4)C=C3)cc1
REMARK SMILES IDX 4 1 3 2 1 3 2 4 29 6 30 7 88 8 31 9 87 10 32 11 33 12 34 13
REMARK SMILES IDX 81 14 35 15 86 16 80 17 82 18 36 19 85 20 79 21 78 22 37 24
REMARK SMILES IDX 67 25 48 26 66 27 49 28 52 29 65 30 83 31 50 32 51 33 64 35
REMARK SMILES IDX 84 36 53 37 38 38 39 39 47 40 40 41 46 42 41 43 42 44 43 45
REMARK SMILES IDX 44 46 45 47 68 48 69 49 77 50 70 51 76 52 71 53 72 54 73 55
REMARK SMILES IDX 74 56 75 57 54 58 55 59 63 60 56 61 62 62 57 63 58 64 59 65
REMARK SMILES IDX 60 66 61 67 5 68 6 69 7 70 8 71 9 72 10 74 11 75 12 76 17 77
REMARK SMILES IDX 13 78 16 79 14 80 15 81 18 82 19 83 27 84 20 85 21 86 22 87
REMARK SMILES IDX 28 88 23 89 26 90 24 91 25 92
REMARK H PARENT 3 5 82 23 52 34 8 73
REMARK Flexibility Score: inf
ROOT
ATOM      1  C   UNL     1       4.611  -0.863   0.743  1.00  0.00     0.116 C 
ENDROOT
BRANCH   1   2
ATOM      2  N   UNL     1       3.179  -0.899   0.492  1.00  0.00    -0.352 N 
ATOM      3  O   UNL     1       1.158  -0.143  -0.149  1.00  0.00    -0.269 OA
ATOM      4  C   UNL     1       2.376   0.013  -0.149  1.00  0.00     0.251 C 
ATOM      5  H   UNL     1       2.715  -1.697   0.834  1.00  0.00     0.163 HD
BRANCH   4   6
ATOM      6  C   UNL     1       2.973   1.194  -0.808  1.00  0.00     0.039 A 
ATOM      7  C   UNL     1       4.089   1.071  -1.641  1.00  0.00     0.014 A 
ATOM      8  C   UNL     1       2.394   2.447  -0.590  1.00  0.00     0.014 A 
ATOM      9  C   UNL     1       4.706   2.213  -2.145  1.00  0.00     0.010 A 
ATOM     10  C   UNL     1       2.975   3.586  -1.152  1.00  0.00     0.010 A 
ATOM     11  C   UNL     1       4.155   3.482  -1.906  1.00  0.00    -0.014 A 
BRANCH  11  12
ATOM     12  C   UNL     1       4.798   4.695  -2.469  1.00  0.00     0.031 A 
ATOM     13  C   UNL     1       5.408   5.730  -1.566  1.00  0.00     0.074 A 
ATOM     14  C   UNL     1       4.816   4.868  -3.804  1.00  0.00     0.049 A 
ATOM     15  N   UNL     1       5.958   6.875  -1.880  1.00  0.00    -0.248 NA
ATOM     16  C   UNL     1       5.392   5.447  -0.122  1.00  0.00     0.031 C 
ATOM     17  C   UNL     1       4.261   3.932  -4.784  1.00  0.00     0.029 A 
ATOM     18  N   UNL     1       5.317   5.892  -4.567  1.00  0.00    -0.354 N 
ATOM     19  C   UNL     1       6.329   7.463  -0.676  1.00  0.00     0.074 A 
ATOM     20  C   UNL     1       5.926   6.553   0.377  1.00  0.00     0.031 C 
ATOM     21  C   UNL     1       4.466   4.417  -6.018  1.00  0.00     0.029 A 
ATOM     22  C   UNL     1       5.115   5.720  -5.915  1.00  0.00     0.049 A 
ATOM     23  H   UNL     1       5.776   6.675  -4.185  1.00  0.00     0.167 HD
ATOM     24  C   UNL     1       6.948   8.650  -0.467  1.00  0.00     0.031 A 
ATOM     25  C   UNL     1       5.395   6.528  -6.955  1.00  0.00     0.031 A 
ATOM     26  C   UNL     1       7.343   9.552  -1.517  1.00  0.00     0.049 A 
ATOM     27  C   UNL     1       6.056   7.850  -6.700  1.00  0.00     0.074 A 
ATOM     28  C   UNL     1       7.998  10.767  -1.408  1.00  0.00     0.029 A 
ATOM     29  N   UNL     1       7.115   9.341  -2.869  1.00  0.00    -0.354 N 
ATOM     30  N   UNL     1       6.420   8.378  -5.556  1.00  0.00    -0.248 NA
ATOM     31  C   UNL     1       6.348   8.684  -7.872  1.00  0.00     0.031 C 
ATOM     32  C   UNL     1       8.128  11.310  -2.691  1.00  0.00     0.029 A 
ATOM     33  C   UNL     1       7.599  10.411  -3.603  1.00  0.00     0.049 A 
ATOM     34  H   UNL     1       6.674   8.548  -3.250  1.00  0.00     0.167 HD
ATOM     35  C   UNL     1       7.003   9.599  -5.872  1.00  0.00     0.074 A 
ATOM     36  C   UNL     1       6.950   9.727  -7.314  1.00  0.00     0.031 C 
ATOM     37  C   UNL     1       7.539  10.525  -5.040  1.00  0.00     0.031 A 
BRANCH  24  38
ATOM     38  C   UNL     1       7.198   9.056   0.962  1.00  0.00    -0.014 A 
ATOM     39  C   UNL     1       8.180   8.419   1.742  1.00  0.00     0.010 A 
ATOM     40  C   UNL     1       6.446  10.101   1.529  1.00  0.00     0.010 A 
ATOM     41  C   UNL     1       8.366   8.781   3.079  1.00  0.00     0.020 A 
ATOM     42  C   UNL     1       6.646  10.483   2.859  1.00  0.00     0.020 A 
ATOM     43  C   UNL     1       7.588   9.803   3.633  1.00  0.00     0.054 A 
BRANCH  43  44
ATOM     44  S   UNL     1       7.834  10.243   5.376  1.00  0.00     0.124 S 
ATOM     45  O   UNL     1       7.152   9.147   6.060  1.00  0.00    -0.237 OA
ATOM     46  O   UNL     1       9.289  10.254   5.505  1.00  0.00    -0.237 OA
ATOM     47  O   UNL     1       7.192  11.550   5.497  1.00  0.00    -0.744 OA
ENDBRANCH  43  44
ENDBRANCH  24  38
BRANCH  25  48
ATOM     48  C   UNL     1       5.034   6.089  -8.328  1.00  0.00    -0.014 A 
ATOM     49  C   UNL     1       6.025   5.646  -9.219  1.00  0.00     0.010 A 
ATOM     50  C   UNL     1       3.683   6.038  -8.720  1.00  0.00     0.010 A 
ATOM     51  C   UNL     1       5.671   5.152 -10.478  1.00  0.00     0.020 A 
ATOM     52  C   UNL     1       3.325   5.522  -9.968  1.00  0.00     0.020 A 
ATOM     53  C   UNL     1       4.322   5.085 -10.841  1.00  0.00     0.054 A 
BRANCH  53  54
ATOM     54  S   UNL     1       3.880   4.347 -12.438  1.00  0.00     0.124 S 
ATOM     55  O   UNL     1       4.223   5.416 -13.371  1.00  0.00    -0.237 OA
ATOM     56  O   UNL     1       4.735   3.164 -12.489  1.00  0.00    -0.237 OA
ATOM     57  O   UNL     1       2.453   4.067 -12.301  1.00  0.00    -0.744 OA
ENDBRANCH  53  54
ENDBRANCH  25  48
BRANCH  37  58
ATOM     58  C   UNL     1       8.147  11.749  -5.666  1.00  0.00    -0.014 A 
ATOM     59  C   UNL     1       7.343  12.786  -6.170  1.00  0.00     0.010 A 
ATOM     60  C   UNL     1       9.547  11.893  -5.683  1.00  0.00     0.010 A 
ATOM     61  C   UNL     1       7.929  13.941  -6.695  1.00  0.00     0.020 A 
ATOM     62  C   UNL     1      10.136  13.055  -6.188  1.00  0.00     0.020 A 
ATOM     63  C   UNL     1       9.322  14.069  -6.699  1.00  0.00     0.054 A 
BRANCH  63  64
ATOM     64  S   UNL     1      10.060  15.604  -7.324  1.00  0.00     0.124 S 
ATOM     65  O   UNL     1       9.926  15.439  -8.769  1.00  0.00    -0.237 OA
ATOM     66  O   UNL     1       9.213  16.635  -6.728  1.00  0.00    -0.237 OA
ATOM     67  O   UNL     1      11.429  15.562  -6.816  1.00  0.00    -0.744 OA
ENDBRANCH  63  64
ENDBRANCH  37  58
ENDBRANCH  11  12
ENDBRANCH   4   6
ENDBRANCH   1   2
BRANCH   1  68
ATOM     68  C   UNL     1       4.964  -1.029   2.217  1.00  0.00     0.023 C 
BRANCH  68  69
ATOM     69  C   UNL     1       4.438  -2.300   2.881  1.00  0.00     0.023 C 
BRANCH  69  70
ATOM     70  C   UNL     1       4.734  -3.600   2.139  1.00  0.00     0.116 C 
BRANCH  70  71
ATOM     71  N   UNL     1       6.156  -3.850   1.966  1.00  0.00    -0.352 N 
ATOM     72  C   UNL     1       6.947  -4.810   2.545  1.00  0.00     0.253 C 
ATOM     73  H   UNL     1       6.618  -3.243   1.344  1.00  0.00     0.163 HD
ATOM     74  O   UNL     1       8.167  -4.792   2.395  1.00  0.00    -0.269 OA
BRANCH  72  75
ATOM     75  C   UNL     1       6.338  -5.899   3.341  1.00  0.00     0.065 A 
ATOM     76  C   UNL     1       5.360  -6.689   2.711  1.00  0.00     0.036 A 
ATOM     77  C   UNL     1       6.851  -6.268   4.603  1.00  0.00     0.065 A 
ATOM     78  C   UNL     1       4.823  -7.788   3.369  1.00  0.00     0.041 A 
ATOM     79  C   UNL     1       6.317  -7.409   5.226  1.00  0.00     0.029 A 
ATOM     80  Cl  UNL     1       3.581  -8.711   2.619  1.00  0.00    -0.084 Cl
ATOM     81  C   UNL     1       5.293  -8.148   4.627  1.00  0.00     0.023 A 
BRANCH  77  82
ATOM     82  N   UNL     1       7.883  -5.540   5.253  1.00  0.00    -0.249 N 
ATOM     83  C   UNL     1       8.941  -6.124   5.903  1.00  0.00     0.234 C 
ATOM     84  C   UNL     1       7.894  -4.169   5.366  1.00  0.00     0.240 C 
ATOM     85  O   UNL     1       9.139  -7.314   6.121  1.00  0.00    -0.274 OA
ATOM     86  C   UNL     1       9.924  -5.054   6.281  1.00  0.00     0.118 C 
ATOM     87  C   UNL     1       9.134  -3.759   6.129  1.00  0.00     0.059 C 
ATOM     88  O   UNL     1       6.996  -3.395   5.060  1.00  0.00    -0.273 OA
ATOM     89  C   UNL     1       8.777  -3.130   7.480  1.00  0.00     0.017 C 
ATOM     90  C   UNL     1       9.911  -2.638   5.444  1.00  0.00     0.017 C 
ATOM     91  C   UNL     1      10.001  -2.302   7.860  1.00  0.00     0.001 C 
ATOM     92  C   UNL     1      10.748  -2.017   6.558  1.00  0.00     0.001 C 
ENDBRANCH  77  82
ENDBRANCH  72  75
ENDBRANCH  70  71
ENDBRANCH  69  70
ENDBRANCH  68  69
ENDBRANCH   1  68
TORSDOF 15
