REMARK SMILES Cc1cc(-c2cncc(C(=O)NCCCCNC(=O)c3ccc(-c4c5nc(c(-c6ccc(S(=O)(=O)[O-])cc6)c6ccc([nH]6)c(-c6ccc(S(=O)(=O)[O-])cc6)c6nc(c(-c7ccc(S(=O)(=O)[O-])cc7)c7ccc4[nH]7)C=C6)C=C5)cc3)c2)ccc1F
REMARK SMILES IDX 15 1 14 2 13 3 12 4 10 5 11 6 9 8 5 9 6 10 80 11 7 12 8 13
REMARK SMILES IDX 4 14 1 15 2 16 3 17 83 18 82 19 84 20 81 21 16 22 17 23
REMARK SMILES IDX 18 24 19 26 20 27 21 28 79 29 22 30 78 31 23 32 24 33 25 34
REMARK SMILES IDX 72 35 26 36 77 37 71 38 73 39 27 40 76 41 70 42 69 43 28 45
REMARK SMILES IDX 58 46 39 47 57 48 40 49 43 50 56 51 74 52 41 53 42 54 55 56
REMARK SMILES IDX 75 57 44 58 29 59 30 60 38 61 31 62 37 63 32 64 33 65 34 66
REMARK SMILES IDX 35 67 36 68 59 69 60 70 68 71 61 72 67 73 62 74 63 75 64 76
REMARK SMILES IDX 65 77 66 78 45 79 46 80 54 81 47 82 53 83 48 84 49 85 50 86
REMARK SMILES IDX 51 87 52 88
REMARK H PARENT 12 7 17 25 73 44 43 55
REMARK Flexibility Score: inf
ROOT
ATOM      1  C   UNL     1      -3.326   2.862  -5.789  1.00  0.00     0.023 C 
ENDROOT
BRANCH   1   2
ATOM      2  C   UNL     1      -3.081   2.496  -4.322  1.00  0.00     0.023 C 
BRANCH   2   3
ATOM      3  C   UNL     1      -3.532   3.564  -3.323  1.00  0.00     0.116 C 
BRANCH   3   4
ATOM      4  N   UNL     1      -4.965   3.496  -3.095  1.00  0.00    -0.352 N 
ATOM      5  C   UNL     1      -5.720   2.909  -2.110  1.00  0.00     0.252 C 
ATOM      6  O   UNL     1      -6.938   3.085  -2.142  1.00  0.00    -0.269 OA
ATOM      7  H   UNL     1      -5.498   3.960  -3.780  1.00  0.00     0.163 HD
BRANCH   5   8
ATOM      8  C   UNL     1      -5.150   2.119  -0.991  1.00  0.00     0.058 A 
ATOM      9  C   UNL     1      -3.443   0.804   0.137  1.00  0.00     0.001 A 
ATOM     10  C   UNL     1      -4.279   0.774   1.248  1.00  0.00     0.119 A 
ATOM     11  C   UNL     1      -3.927   1.453  -1.008  1.00  0.00     0.025 A 
ATOM     12  N   UNL     1      -5.502   1.349   1.292  1.00  0.00    -0.263 NA
ATOM     13  C   UNL     1      -5.902   2.014   0.175  1.00  0.00     0.124 A 
BRANCH   9  14
ATOM     14  C   UNL     1      -2.082   0.266   0.160  1.00  0.00    -0.016 A 
ATOM     15  C   UNL     1       1.491   1.630   0.063  1.00  0.00     0.047 C 
ATOM     16  C   UNL     1       0.332   0.682   0.109  1.00  0.00    -0.015 A 
ATOM     17  C   UNL     1      -0.987   1.152   0.124  1.00  0.00     0.015 A 
ATOM     18  C   UNL     1       0.545  -0.695   0.132  1.00  0.00     0.126 A 
ATOM     19  C   UNL     1      -0.520  -1.591   0.171  1.00  0.00     0.040 A 
ATOM     20  F   UNL     1       1.797  -1.176   0.115  1.00  0.00    -0.207 F 
ATOM     21  C   UNL     1      -1.832  -1.113   0.187  1.00  0.00     0.012 A 
ENDBRANCH   9  14
ENDBRANCH   5   8
ENDBRANCH   3   4
ENDBRANCH   2   3
ENDBRANCH   1   2
BRANCH   1  22
ATOM     22  C   UNL     1      -2.522   4.053  -6.304  1.00  0.00     0.116 C 
BRANCH  22  23
ATOM     23  N   UNL     1      -1.082   3.872  -6.189  1.00  0.00    -0.352 N 
ATOM     24  C   UNL     1      -0.093   4.349  -7.019  1.00  0.00     0.251 C 
ATOM     25  H   UNL     1      -0.776   3.340  -5.419  1.00  0.00     0.163 HD
ATOM     26  O   UNL     1       1.076   4.038  -6.837  1.00  0.00    -0.269 OA
BRANCH  24  27
ATOM     27  C   UNL     1      -0.475   5.202  -8.163  1.00  0.00     0.039 A 
ATOM     28  C   UNL     1      -0.087   4.816  -9.448  1.00  0.00     0.014 A 
ATOM     29  C   UNL     1      -1.273   6.332  -7.969  1.00  0.00     0.014 A 
ATOM     30  C   UNL     1      -0.580   5.513 -10.553  1.00  0.00     0.010 A 
ATOM     31  C   UNL     1      -1.803   6.994  -9.072  1.00  0.00     0.010 A 
ATOM     32  C   UNL     1      -1.481   6.575 -10.373  1.00  0.00    -0.014 A 
BRANCH  32  33
ATOM     33  C   UNL     1      -2.156   7.219 -11.527  1.00  0.00     0.031 A 
ATOM     34  C   UNL     1      -1.889   8.660 -11.855  1.00  0.00     0.074 A 
ATOM     35  C   UNL     1      -3.089   6.529 -12.212  1.00  0.00     0.049 A 
ATOM     36  N   UNL     1      -2.467   9.418 -12.750  1.00  0.00    -0.248 NA
ATOM     37  C   UNL     1      -0.856   9.341 -11.060  1.00  0.00     0.031 C 
ATOM     38  C   UNL     1      -3.468   5.135 -11.960  1.00  0.00     0.029 A 
ATOM     39  N   UNL     1      -3.905   6.911 -13.247  1.00  0.00    -0.354 N 
ATOM     40  C   UNL     1      -1.884  10.672 -12.615  1.00  0.00     0.074 A 
ATOM     41  C   UNL     1      -0.929  10.579 -11.531  1.00  0.00     0.031 C 
ATOM     42  C   UNL     1      -4.434   4.779 -12.821  1.00  0.00     0.029 A 
ATOM     43  C   UNL     1      -4.772   5.926 -13.658  1.00  0.00     0.049 A 
ATOM     44  H   UNL     1      -3.872   7.806 -13.656  1.00  0.00     0.167 HD
ATOM     45  C   UNL     1      -2.115  11.794 -13.336  1.00  0.00     0.031 A 
ATOM     46  C   UNL     1      -5.744   5.947 -14.590  1.00  0.00     0.031 A 
ATOM     47  C   UNL     1      -3.058  11.881 -14.419  1.00  0.00     0.049 A 
ATOM     48  C   UNL     1      -5.994   7.209 -15.365  1.00  0.00     0.074 A 
ATOM     49  C   UNL     1      -3.311  12.955 -15.255  1.00  0.00     0.029 A 
ATOM     50  N   UNL     1      -3.909  10.859 -14.811  1.00  0.00    -0.354 N 
ATOM     51  N   UNL     1      -5.381   8.365 -15.270  1.00  0.00    -0.248 NA
ATOM     52  C   UNL     1      -7.064   7.171 -16.371  1.00  0.00     0.031 C 
ATOM     53  C   UNL     1      -4.347  12.596 -16.124  1.00  0.00     0.029 A 
ATOM     54  C   UNL     1      -4.709  11.285 -15.857  1.00  0.00     0.049 A 
ATOM     55  H   UNL     1      -3.940   9.963 -14.405  1.00  0.00     0.167 HD
ATOM     56  C   UNL     1      -5.984   9.189 -16.213  1.00  0.00     0.074 A 
ATOM     57  C   UNL     1      -6.998   8.395 -16.878  1.00  0.00     0.031 C 
ATOM     58  C   UNL     1      -5.720  10.487 -16.501  1.00  0.00     0.031 A 
BRANCH  45  59
ATOM     59  C   UNL     1      -1.336  13.027 -12.965  1.00  0.00    -0.014 A 
ATOM     60  C   UNL     1       0.034  13.133 -13.264  1.00  0.00     0.010 A 
ATOM     61  C   UNL     1      -1.988  14.104 -12.338  1.00  0.00     0.010 A 
ATOM     62  C   UNL     1       0.749  14.278 -12.903  1.00  0.00     0.020 A 
ATOM     63  C   UNL     1      -1.281  15.260 -11.996  1.00  0.00     0.020 A 
ATOM     64  C   UNL     1       0.088  15.331 -12.264  1.00  0.00     0.054 A 
BRANCH  64  65
ATOM     65  S   UNL     1       1.036  16.810 -11.813  1.00  0.00     0.124 S 
ATOM     66  O   UNL     1       1.768  16.349 -10.636  1.00  0.00    -0.237 OA
ATOM     67  O   UNL     1       1.849  17.047 -13.004  1.00  0.00    -0.237 OA
ATOM     68  O   UNL     1       0.008  17.815 -11.555  1.00  0.00    -0.744 OA
ENDBRANCH  64  65
ENDBRANCH  45  59
BRANCH  46  69
ATOM     69  C   UNL     1      -6.557   4.726 -14.834  1.00  0.00    -0.014 A 
ATOM     70  C   UNL     1      -6.352   3.957 -15.992  1.00  0.00     0.010 A 
ATOM     71  C   UNL     1      -7.521   4.313 -13.896  1.00  0.00     0.010 A 
ATOM     72  C   UNL     1      -7.101   2.798 -16.212  1.00  0.00     0.020 A 
ATOM     73  C   UNL     1      -8.256   3.143 -14.103  1.00  0.00     0.020 A 
ATOM     74  C   UNL     1      -8.048   2.397 -15.264  1.00  0.00     0.054 A 
BRANCH  74  75
ATOM     75  S   UNL     1      -8.961   0.852 -15.535  1.00  0.00     0.124 S 
ATOM     76  O   UNL     1      -9.956   1.258 -16.523  1.00  0.00    -0.237 OA
ATOM     77  O   UNL     1      -7.921  -0.052 -16.019  1.00  0.00    -0.237 OA
ATOM     78  O   UNL     1      -9.486   0.532 -14.210  1.00  0.00    -0.744 OA
ENDBRANCH  74  75
ENDBRANCH  46  69
BRANCH  58  79
ATOM     79  C   UNL     1      -6.535  11.133 -17.587  1.00  0.00    -0.014 A 
ATOM     80  C   UNL     1      -7.860  11.537 -17.349  1.00  0.00     0.010 A 
ATOM     81  C   UNL     1      -5.946  11.401 -18.836  1.00  0.00     0.010 A 
ATOM     82  C   UNL     1      -8.589  12.187 -18.348  1.00  0.00     0.020 A 
ATOM     83  C   UNL     1      -6.665  12.069 -19.830  1.00  0.00     0.020 A 
ATOM     84  C   UNL     1      -7.986  12.450 -19.582  1.00  0.00     0.054 A 
BRANCH  84  85
ATOM     85  S   UNL     1      -8.929  13.354 -20.841  1.00  0.00     0.124 S 
ATOM     86  O   UNL     1      -9.830  12.320 -21.345  1.00  0.00    -0.237 OA
ATOM     87  O   UNL     1      -9.564  14.418 -20.067  1.00  0.00    -0.237 OA
ATOM     88  O   UNL     1      -7.906  13.803 -21.782  1.00  0.00    -0.744 OA
ENDBRANCH  84  85
ENDBRANCH  58  79
ENDBRANCH  32  33
ENDBRANCH  24  27
ENDBRANCH  22  23
ENDBRANCH   1  22
TORSDOF 15
