REMARK SMILES Cc1ccc(C)c(S(=O)(=O)N[C@H](CC2=c3ccccc3=NC2)C(=O)NCCCCNC(=O)c2ccc(-c3c4nc(c(-c5ccc(S(=O)(=O)[O-])cc5)c5ccc([nH]5)c(-c5ccc(S(=O)(=O)[O-])cc5)c5nc(c(-c6ccc(S(=O)(=O)[O-])cc6)c6ccc3[nH]6)C=C5)C=C4)cc2)c1
REMARK SMILES IDX 27 1 26 2 25 3 23 4 24 5 12 7 11 8 8 10 9 11 10 12 7 13 1 14
REMARK SMILES IDX 2 15 3 16 93 17 4 18 5 19 6 20 13 21 14 22 15 23 22 24 16 25
REMARK SMILES IDX 20 26 21 27 17 28 19 29 18 30 28 31 29 32 30 33 31 34 32 36
REMARK SMILES IDX 33 37 34 38 92 39 35 40 91 41 36 42 37 43 38 44 85 45 39 46
REMARK SMILES IDX 90 47 84 48 86 49 40 50 89 51 83 52 82 53 41 55 71 56 52 57
REMARK SMILES IDX 70 58 53 59 56 60 69 61 87 62 54 63 55 64 68 66 88 67 57 68
REMARK SMILES IDX 42 69 43 70 51 71 44 72 50 73 45 74 46 75 47 76 48 77 49 78
REMARK SMILES IDX 72 79 73 80 81 81 74 82 80 83 75 84 76 85 77 86 78 87 79 88
REMARK SMILES IDX 58 89 59 90 67 91 60 92 66 93 61 94 62 95 63 96 64 97 65 98
REMARK H PARENT 25 6 11 9 30 35 86 54 56 65
REMARK Flexibility Score: inf
ROOT
ATOM      1  C   UNL     1      -1.603   8.043  -0.821  1.00  0.00     0.023 C 
ENDROOT
BRANCH   1   2
ATOM      2  C   UNL     1      -0.975   6.992  -1.782  1.00  0.00     0.116 C 
BRANCH   2   3
ATOM      3  N   UNL     1       0.445   6.673  -1.683  1.00  0.00    -0.355 N 
ATOM      4  C   UNL     1       1.181   5.546  -1.407  1.00  0.00     0.238 C 
ATOM      5  O   UNL     1       2.407   5.707  -1.364  1.00  0.00    -0.273 OA
ATOM      6  H   UNL     1       1.015   7.457  -1.855  1.00  0.00     0.163 HD
BRANCH   4   7
ATOM      7  C   UNL     1       0.588   4.156  -1.075  1.00  0.00     0.163 C 
BRANCH   7   8
ATOM      8  N   UNL     1      -0.457   3.806  -2.094  1.00  0.00    -0.198 NA
ATOM      9  H   UNL     1      -1.250   3.417  -1.584  1.00  0.00     0.142 HD
BRANCH   8  10
ATOM     10  S   UNL     1      -0.079   2.706  -3.333  1.00  0.00     0.241 S 
ATOM     11  O   UNL     1       1.334   2.797  -3.578  1.00  0.00    -0.207 OA
ATOM     12  O   UNL     1      -1.072   2.974  -4.355  1.00  0.00    -0.207 OA
BRANCH  10  13
ATOM     13  C   UNL     1      -0.456   1.105  -2.658  1.00  0.00     0.085 A 
ATOM     14  C   UNL     1      -1.718  -0.184   0.690  1.00  0.00     0.044 C 
ATOM     15  C   UNL     1      -1.194  -0.165  -0.714  1.00  0.00    -0.050 A 
ATOM     16  C   UNL     1      -0.818  -1.341  -1.361  1.00  0.00     0.004 A 
ATOM     17  C   UNL     1      -1.053   1.045  -1.392  1.00  0.00     0.025 A 
ATOM     18  C   UNL     1      -0.302  -1.299  -2.660  1.00  0.00     0.005 A 
ATOM     19  C   UNL     1      -0.105  -0.077  -3.330  1.00  0.00    -0.031 A 
ATOM     20  C   UNL     1       0.444  -0.133  -4.731  1.00  0.00     0.046 C 
ENDBRANCH  10  13
ENDBRANCH   8  10
ENDBRANCH   7   8
BRANCH   7  21
ATOM     21  C   UNL     1       0.057   3.884   0.392  1.00  0.00     0.063 C 
BRANCH  21  22
ATOM     22  C   UNL     1       0.299   4.839   1.542  1.00  0.00    -0.037 C 
ATOM     23  C   UNL     1       0.714   4.748   2.810  1.00  0.00     0.001 A 
ATOM     24  C   UNL     1      -0.142   6.229   1.304  1.00  0.00     0.174 C 
ATOM     25  C   UNL     1       1.135   3.733   3.722  1.00  0.00     0.010 A 
ATOM     26  C   UNL     1       0.554   6.137   3.308  1.00  0.00     0.065 A 
ATOM     27  N   UNL     1      -0.002   7.006   2.532  1.00  0.00    -0.280 NA
ATOM     28  C   UNL     1       1.466   4.087   4.980  1.00  0.00     0.001 A 
ATOM     29  C   UNL     1       1.016   6.469   4.658  1.00  0.00     0.028 A 
ATOM     30  C   UNL     1       1.458   5.470   5.430  1.00  0.00     0.002 A 
ENDBRANCH  21  22
ENDBRANCH   7  21
ENDBRANCH   4   7
ENDBRANCH   2   3
ENDBRANCH   1   2
BRANCH   1  31
ATOM     31  C   UNL     1      -0.738   8.947   0.086  1.00  0.00     0.023 C 
BRANCH  31  32
ATOM     32  C   UNL     1      -0.647  10.448  -0.181  1.00  0.00     0.116 C 
BRANCH  32  33
ATOM     33  N   UNL     1      -1.939  11.083  -0.457  1.00  0.00    -0.352 N 
ATOM     34  C   UNL     1      -2.464  11.672  -1.597  1.00  0.00     0.251 C 
ATOM     35  H   UNL     1      -2.551  11.092   0.314  1.00  0.00     0.163 HD
ATOM     36  O   UNL     1      -3.519  12.295  -1.532  1.00  0.00    -0.269 OA
BRANCH  34  37
ATOM     37  C   UNL     1      -1.766  11.526  -2.891  1.00  0.00     0.039 A 
ATOM     38  C   UNL     1      -2.203  12.009  -4.125  1.00  0.00     0.014 A 
ATOM     39  C   UNL     1      -0.725  10.631  -2.928  1.00  0.00     0.014 A 
ATOM     40  C   UNL     1      -1.602  11.471  -5.282  1.00  0.00     0.010 A 
ATOM     41  C   UNL     1       0.166  10.706  -3.928  1.00  0.00     0.010 A 
ATOM     42  C   UNL     1      -0.487  10.637  -5.125  1.00  0.00    -0.014 A 
BRANCH  42  43
ATOM     43  C   UNL     1       0.338  10.047  -6.152  1.00  0.00     0.031 A 
ATOM     44  C   UNL     1       1.269  11.045  -6.714  1.00  0.00     0.074 A 
ATOM     45  C   UNL     1       0.545   8.726  -6.325  1.00  0.00     0.049 A 
ATOM     46  N   UNL     1       0.973  11.852  -7.674  1.00  0.00    -0.248 NA
ATOM     47  C   UNL     1       2.474  11.434  -5.950  1.00  0.00     0.031 C 
ATOM     48  C   UNL     1       0.037   7.563  -5.596  1.00  0.00     0.029 A 
ATOM     49  N   UNL     1       1.354   8.156  -7.250  1.00  0.00    -0.354 N 
ATOM     50  C   UNL     1       2.085  12.657  -7.811  1.00  0.00     0.074 A 
ATOM     51  C   UNL     1       2.769  12.591  -6.548  1.00  0.00     0.031 C 
ATOM     52  C   UNL     1       0.692   6.441  -6.002  1.00  0.00     0.029 A 
ATOM     53  C   UNL     1       1.540   6.785  -7.132  1.00  0.00     0.049 A 
ATOM     54  H   UNL     1       1.784   8.681  -7.963  1.00  0.00     0.167 HD
ATOM     55  C   UNL     1       2.527  13.031  -9.041  1.00  0.00     0.031 A 
ATOM     56  C   UNL     1       2.311   6.017  -7.949  1.00  0.00     0.031 A 
ATOM     57  C   UNL     1       1.597  12.610 -10.067  1.00  0.00     0.049 A 
ATOM     58  C   UNL     1       2.455   6.789  -9.218  1.00  0.00     0.074 A 
ATOM     59  C   UNL     1       0.272  12.887 -10.338  1.00  0.00     0.029 A 
ATOM     60  N   UNL     1       1.871  11.404 -10.679  1.00  0.00    -0.354 N 
ATOM     61  N   UNL     1       1.454   7.074 -10.007  1.00  0.00    -0.248 NA
ATOM     62  C   UNL     1       3.617   7.655  -9.349  1.00  0.00     0.031 C 
ATOM     63  C   UNL     1      -0.300  11.635 -10.709  1.00  0.00     0.029 A 
ATOM     64  C   UNL     1       0.712  10.670 -10.748  1.00  0.00     0.049 A 
ATOM     65  H   UNL     1       2.752  11.116 -11.011  1.00  0.00     0.167 HD
ATOM     66  C   UNL     1       1.677   8.385 -10.410  1.00  0.00     0.074 A 
ATOM     67  C   UNL     1       3.066   8.660 -10.036  1.00  0.00     0.031 C 
ATOM     68  C   UNL     1       0.645   9.214 -10.748  1.00  0.00     0.031 A 
BRANCH  55  69
ATOM     69  C   UNL     1       3.946  13.422  -9.345  1.00  0.00    -0.014 A 
ATOM     70  C   UNL     1       5.031  13.227  -8.467  1.00  0.00     0.010 A 
ATOM     71  C   UNL     1       4.253  13.862 -10.646  1.00  0.00     0.010 A 
ATOM     72  C   UNL     1       6.347  13.492  -8.839  1.00  0.00     0.020 A 
ATOM     73  C   UNL     1       5.575  14.091 -11.046  1.00  0.00     0.020 A 
ATOM     74  C   UNL     1       6.612  13.920 -10.132  1.00  0.00     0.054 A 
BRANCH  74  75
ATOM     75  S   UNL     1       8.333  14.212 -10.589  1.00  0.00     0.124 S 
ATOM     76  O   UNL     1       8.671  15.364  -9.756  1.00  0.00    -0.237 OA
ATOM     77  O   UNL     1       8.973  12.954 -10.216  1.00  0.00    -0.237 OA
ATOM     78  O   UNL     1       8.265  14.477 -12.024  1.00  0.00    -0.744 OA
ENDBRANCH  74  75
ENDBRANCH  55  69
BRANCH  56  79
ATOM     79  C   UNL     1       3.312   4.976  -7.574  1.00  0.00    -0.014 A 
ATOM     80  C   UNL     1       3.921   5.003  -6.305  1.00  0.00     0.010 A 
ATOM     81  C   UNL     1       3.925   4.189  -8.574  1.00  0.00     0.010 A 
ATOM     82  C   UNL     1       5.149   4.362  -6.072  1.00  0.00     0.020 A 
ATOM     83  C   UNL     1       5.153   3.540  -8.346  1.00  0.00     0.020 A 
ATOM     84  C   UNL     1       5.779   3.669  -7.106  1.00  0.00     0.054 A 
BRANCH  84  85
ATOM     85  S   UNL     1       7.462   3.031  -6.832  1.00  0.00     0.124 S 
ATOM     86  O   UNL     1       8.240   4.262  -6.715  1.00  0.00    -0.237 OA
ATOM     87  O   UNL     1       7.319   2.261  -5.599  1.00  0.00    -0.237 OA
ATOM     88  O   UNL     1       7.733   2.236  -8.027  1.00  0.00    -0.744 OA
ENDBRANCH  84  85
ENDBRANCH  56  79
BRANCH  68  89
ATOM     89  C   UNL     1      -0.740   8.621 -10.958  1.00  0.00    -0.014 A 
ATOM     90  C   UNL     1      -1.389   8.946 -12.163  1.00  0.00     0.010 A 
ATOM     91  C   UNL     1      -1.485   7.954  -9.962  1.00  0.00     0.010 A 
ATOM     92  C   UNL     1      -2.745   8.678 -12.354  1.00  0.00     0.020 A 
ATOM     93  C   UNL     1      -2.847   7.654 -10.160  1.00  0.00     0.020 A 
ATOM     94  C   UNL     1      -3.474   8.047 -11.346  1.00  0.00     0.054 A 
BRANCH  94  95
ATOM     95  S   UNL     1      -5.250   7.792 -11.619  1.00  0.00     0.124 S 
ATOM     96  O   UNL     1      -5.773   9.155 -11.556  1.00  0.00    -0.237 OA
ATOM     97  O   UNL     1      -5.287   7.173 -12.943  1.00  0.00    -0.237 OA
ATOM     98  O   UNL     1      -5.659   6.921 -10.519  1.00  0.00    -0.744 OA
ENDBRANCH  94  95
ENDBRANCH  68  89
ENDBRANCH  42  43
ENDBRANCH  34  37
ENDBRANCH  32  33
ENDBRANCH  31  32
ENDBRANCH   1  31
TORSDOF 19
