REMARK SMILES Cc1ccc(-c2c(C(=O)NCCCCNC(=O)c3ccc(-c4c5nc(c(-c6ccc(S(=O)(=O)[O-])cc6)c6ccc([nH]6)c(-c6ccc(S(=O)(=O)[O-])cc6)c6nc(c(-c7ccc(S(=O)(=O)[O-])cc7)c7ccc4[nH]7)C=C6)C=C5)cc3)nnn2Cc2c(F)cccc2Cl)cc1
REMARK SMILES IDX 13 1 12 2 11 3 10 4 8 5 9 6 7 8 6 9 80 10 78 11 79 12 5 13
REMARK SMILES IDX 1 14 2 15 3 16 91 17 4 18 90 19 81 20 82 21 83 22 88 23
REMARK SMILES IDX 84 24 85 25 87 26 89 27 86 28 14 29 15 30 16 31 17 33 18 34
REMARK SMILES IDX 19 35 77 36 20 37 76 38 21 39 22 40 23 41 70 42 24 43 75 44
REMARK SMILES IDX 69 45 71 46 25 47 74 48 68 49 67 50 26 52 56 53 37 54 55 55
REMARK SMILES IDX 38 56 41 57 54 58 72 59 39 60 40 61 53 63 73 64 42 65 27 66
REMARK SMILES IDX 28 67 36 68 29 69 35 70 30 71 31 72 32 73 33 74 34 75 57 76
REMARK SMILES IDX 58 77 66 78 59 79 65 80 60 81 61 82 62 83 63 84 64 85 43 86
REMARK SMILES IDX 44 87 52 88 45 89 51 90 46 91 47 92 48 93 49 94 50 95
REMARK H PARENT 10 7 15 32 71 51 41 62
REMARK Flexibility Score: inf
ROOT
ATOM      1  C   UNL     1      -0.517   0.009   4.612  1.00  0.00     0.023 C 
ENDROOT
BRANCH   1   2
ATOM      2  C   UNL     1      -0.908   0.077   3.129  1.00  0.00     0.023 C 
BRANCH   2   3
ATOM      3  C   UNL     1      -1.716  -1.136   2.650  1.00  0.00     0.116 C 
BRANCH   3   4
ATOM      4  N   UNL     1      -3.111  -1.035   3.006  1.00  0.00    -0.351 N 
ATOM      5  C   UNL     1      -4.253  -0.711   2.324  1.00  0.00     0.274 C 
ATOM      6  O   UNL     1      -5.278  -0.846   3.006  1.00  0.00    -0.267 OA
ATOM      7  H   UNL     1      -3.279  -1.246   3.953  1.00  0.00     0.163 HD
BRANCH   5   8
ATOM      8  C   UNL     1      -4.358  -0.260   0.929  1.00  0.00     0.178 A 
ATOM      9  C   UNL     1      -3.498   0.183  -0.082  1.00  0.00     0.102 A 
ATOM     10  N   UNL     1      -4.349   0.405  -1.153  1.00  0.00    -0.239 N 
ATOM     11  N   UNL     1      -5.657  -0.175   0.434  1.00  0.00    -0.124 NA
ATOM     12  N   UNL     1      -5.635   0.266  -0.805  1.00  0.00    -0.066 NA
BRANCH   9  13
ATOM     13  C   UNL     1      -2.072   0.454  -0.202  1.00  0.00     0.002 A 
ATOM     14  C   UNL     1       2.129   1.312  -0.676  1.00  0.00     0.044 C 
ATOM     15  C   UNL     1       0.660   1.026  -0.556  1.00  0.00    -0.051 A 
ATOM     16  C   UNL     1       0.172  -0.262  -0.795  1.00  0.00     0.004 A 
ATOM     17  C   UNL     1      -0.226   2.023  -0.134  1.00  0.00     0.004 A 
ATOM     18  C   UNL     1      -1.187  -0.540  -0.640  1.00  0.00     0.011 A 
ATOM     19  C   UNL     1      -1.583   1.741   0.039  1.00  0.00     0.011 A 
ENDBRANCH   9  13
BRANCH  10  20
ATOM     20  C   UNL     1      -4.064   0.879  -2.504  1.00  0.00     0.187 C 
BRANCH  20  21
ATOM     21  C   UNL     1      -3.115   0.039  -3.320  1.00  0.00     0.028 A 
ATOM     22  C   UNL     1      -2.201   0.722  -4.138  1.00  0.00     0.129 A 
ATOM     23  C   UNL     1      -3.102  -1.363  -3.382  1.00  0.00     0.049 A 
ATOM     24  F   UNL     1      -2.234   2.062  -4.192  1.00  0.00    -0.207 F 
ATOM     25  C   UNL     1      -1.261   0.058  -4.922  1.00  0.00     0.040 A 
ATOM     26  C   UNL     1      -2.137  -2.038  -4.143  1.00  0.00     0.021 A 
ATOM     27  Cl  UNL     1      -4.257  -2.351  -2.564  1.00  0.00    -0.084 Cl
ATOM     28  C   UNL     1      -1.212  -1.330  -4.907  1.00  0.00     0.005 A 
ENDBRANCH  20  21
ENDBRANCH  10  20
ENDBRANCH   5   8
ENDBRANCH   3   4
ENDBRANCH   2   3
ENDBRANCH   1   2
BRANCH   1  29
ATOM     29  C   UNL     1       0.468  -1.117   4.912  1.00  0.00     0.116 C 
BRANCH  29  30
ATOM     30  N   UNL     1       1.848  -0.712   5.092  1.00  0.00    -0.352 N 
ATOM     31  C   UNL     1       2.891  -1.518   5.535  1.00  0.00     0.251 C 
ATOM     32  H   UNL     1       2.069   0.223   4.880  1.00  0.00     0.163 HD
ATOM     33  O   UNL     1       3.874  -1.063   6.090  1.00  0.00    -0.269 OA
BRANCH  31  34
ATOM     34  C   UNL     1       2.834  -2.951   5.150  1.00  0.00     0.039 A 
ATOM     35  C   UNL     1       3.804  -3.415   4.251  1.00  0.00     0.014 A 
ATOM     36  C   UNL     1       1.720  -3.727   5.452  1.00  0.00     0.014 A 
ATOM     37  C   UNL     1       3.571  -4.582   3.524  1.00  0.00     0.010 A 
ATOM     38  C   UNL     1       1.442  -4.822   4.659  1.00  0.00     0.010 A 
ATOM     39  C   UNL     1       2.349  -5.235   3.672  1.00  0.00    -0.014 A 
BRANCH  39  40
ATOM     40  C   UNL     1       1.883  -6.325   2.821  1.00  0.00     0.031 A 
ATOM     41  C   UNL     1       1.828  -7.709   3.352  1.00  0.00     0.074 A 
ATOM     42  C   UNL     1       1.345  -6.053   1.611  1.00  0.00     0.049 A 
ATOM     43  N   UNL     1       1.778  -8.773   2.620  1.00  0.00    -0.248 NA
ATOM     44  C   UNL     1       1.861  -7.999   4.784  1.00  0.00     0.031 C 
ATOM     45  C   UNL     1       0.489  -6.933   0.818  1.00  0.00     0.029 A 
ATOM     46  N   UNL     1       1.634  -4.996   0.744  1.00  0.00    -0.354 N 
ATOM     47  C   UNL     1       1.457  -9.824   3.452  1.00  0.00     0.074 A 
ATOM     48  C   UNL     1       1.600  -9.309   4.793  1.00  0.00     0.031 C 
ATOM     49  C   UNL     1       0.559  -6.556  -0.468  1.00  0.00     0.029 A 
ATOM     50  C   UNL     1       1.591  -5.536  -0.552  1.00  0.00     0.049 A 
ATOM     51  H   UNL     1       1.829  -4.063   0.992  1.00  0.00     0.167 HD
ATOM     52  C   UNL     1       0.948 -10.978   2.935  1.00  0.00     0.031 A 
ATOM     53  C   UNL     1       2.655  -5.570  -1.408  1.00  0.00     0.031 A 
ATOM     54  C   UNL     1       0.885 -10.944   1.478  1.00  0.00     0.049 A 
ATOM     55  C   UNL     1       2.982  -6.959  -1.904  1.00  0.00     0.074 A 
ATOM     56  C   UNL     1      -0.146 -10.690   0.589  1.00  0.00     0.029 A 
ATOM     57  N   UNL     1       2.062 -10.912   0.742  1.00  0.00    -0.354 N 
ATOM     58  N   UNL     1       2.565  -8.051  -1.331  1.00  0.00    -0.248 NA
ATOM     59  C   UNL     1       3.853  -7.224  -3.046  1.00  0.00     0.031 C 
ATOM     60  C   UNL     1       0.425 -10.435  -0.682  1.00  0.00     0.029 A 
ATOM     61  C   UNL     1       1.799 -10.555  -0.567  1.00  0.00     0.049 A 
ATOM     62  H   UNL     1       2.956 -11.114   1.101  1.00  0.00     0.167 HD
ATOM     63  C   UNL     1       3.108  -9.137  -1.964  1.00  0.00     0.074 A 
ATOM     64  C   UNL     1       3.889  -8.569  -3.047  1.00  0.00     0.031 C 
ATOM     65  C   UNL     1       2.884 -10.409  -1.525  1.00  0.00     0.031 A 
BRANCH  52  66
ATOM     66  C   UNL     1       0.219 -12.001   3.776  1.00  0.00    -0.014 A 
ATOM     67  C   UNL     1      -0.869 -12.707   3.221  1.00  0.00     0.010 A 
ATOM     68  C   UNL     1       0.519 -12.278   5.123  1.00  0.00     0.010 A 
ATOM     69  C   UNL     1      -1.677 -13.556   3.989  1.00  0.00     0.020 A 
ATOM     70  C   UNL     1      -0.303 -13.097   5.915  1.00  0.00     0.020 A 
ATOM     71  C   UNL     1      -1.406 -13.723   5.343  1.00  0.00     0.054 A 
BRANCH  71  72
ATOM     72  S   UNL     1      -2.516 -14.755   6.337  1.00  0.00     0.124 S 
ATOM     73  O   UNL     1      -3.819 -14.141   6.095  1.00  0.00    -0.237 OA
ATOM     74  O   UNL     1      -2.323 -16.077   5.748  1.00  0.00    -0.237 OA
ATOM     75  O   UNL     1      -2.006 -14.600   7.698  1.00  0.00    -0.744 OA
ENDBRANCH  71  72
ENDBRANCH  52  66
BRANCH  53  76
ATOM     76  C   UNL     1       3.676  -4.518  -1.167  1.00  0.00    -0.014 A 
ATOM     77  C   UNL     1       3.318  -3.189  -1.458  1.00  0.00     0.010 A 
ATOM     78  C   UNL     1       4.753  -4.766  -0.295  1.00  0.00     0.010 A 
ATOM     79  C   UNL     1       3.902  -2.139  -0.752  1.00  0.00     0.020 A 
ATOM     80  C   UNL     1       5.344  -3.707   0.408  1.00  0.00     0.020 A 
ATOM     81  C   UNL     1       4.858  -2.411   0.225  1.00  0.00     0.054 A 
BRANCH  81  82
ATOM     82  S   UNL     1       5.281  -1.075   1.381  1.00  0.00     0.124 S 
ATOM     83  O   UNL     1       5.731  -0.016   0.483  1.00  0.00    -0.237 OA
ATOM     84  O   UNL     1       3.995  -0.836   2.035  1.00  0.00    -0.237 OA
ATOM     85  O   UNL     1       6.311  -1.673   2.224  1.00  0.00    -0.744 OA
ENDBRANCH  81  82
ENDBRANCH  53  76
BRANCH  65  86
ATOM     86  C   UNL     1       3.605 -11.646  -1.999  1.00  0.00    -0.014 A 
ATOM     87  C   UNL     1       4.873 -11.634  -2.599  1.00  0.00     0.010 A 
ATOM     88  C   UNL     1       3.042 -12.915  -1.717  1.00  0.00     0.010 A 
ATOM     89  C   UNL     1       5.518 -12.824  -2.965  1.00  0.00     0.020 A 
ATOM     90  C   UNL     1       3.696 -14.108  -2.036  1.00  0.00     0.020 A 
ATOM     91  C   UNL     1       4.923 -14.054  -2.686  1.00  0.00     0.054 A 
BRANCH  91  92
ATOM     92  S   UNL     1       5.790 -15.585  -3.110  1.00  0.00     0.124 S 
ATOM     93  O   UNL     1       5.341 -15.814  -4.481  1.00  0.00    -0.237 OA
ATOM     94  O   UNL     1       7.198 -15.217  -2.967  1.00  0.00    -0.237 OA
ATOM     95  O   UNL     1       5.301 -16.540  -2.119  1.00  0.00    -0.744 OA
ENDBRANCH  91  92
ENDBRANCH  65  86
ENDBRANCH  39  40
ENDBRANCH  31  34
ENDBRANCH  29  30
ENDBRANCH   1  29
TORSDOF 17
