REMARK SMILES O=C(NCCCCNC(=O)c1ccc(-c2c3nc(c(-c4ccc(S(=O)(=O)[O-])cc4)c4ccc([nH]4)c(-c4ccc(S(=O)(=O)[O-])cc4)c4nc(c(-c5ccc(S(=O)(=O)[O-])cc5)c5ccc2[nH]5)C=C4)C=C3)cc1)C1=NN(c2ccc([N+](=O)[O-])cc2)[C@H](c2ccccc2)C1
REMARK SMILES IDX 6 1 5 2 4 3 3 4 1 5 2 6 71 8 72 9 90 10 73 11 83 12 74 13
REMARK SMILES IDX 75 14 82 15 76 16 81 17 77 18 78 19 79 20 80 21 84 22 85 23
REMARK SMILES IDX 89 24 86 25 88 26 87 27 7 28 8 29 9 30 10 32 11 33 12 34
REMARK SMILES IDX 70 35 13 36 69 37 14 38 15 39 16 40 63 41 17 42 68 43 62 44
REMARK SMILES IDX 64 45 18 46 67 47 61 48 60 49 19 51 49 52 30 53 48 54 31 55
REMARK SMILES IDX 34 56 47 57 65 58 32 59 33 60 46 62 66 63 35 64 20 65 21 66
REMARK SMILES IDX 29 67 22 68 28 69 23 70 24 71 25 72 26 73 27 74 50 75 51 76
REMARK SMILES IDX 59 77 52 78 58 79 53 80 54 81 55 82 56 83 57 84 36 85 37 86
REMARK SMILES IDX 45 87 38 88 44 89 39 90 40 91 41 92 42 93 43 94
REMARK H PARENT 3 7 8 31 64 50 34 61
REMARK Flexibility Score: inf
ROOT
ATOM      1  C   UNL     1       4.474  -0.093   3.773  1.00  0.00     0.023 C 
ENDROOT
BRANCH   1   2
ATOM      2  C   UNL     1       4.935   0.440   2.418  1.00  0.00     0.023 C 
BRANCH   2   3
ATOM      3  C   UNL     1       4.523  -0.404   1.217  1.00  0.00     0.116 C 
BRANCH   3   4
ATOM      4  N   UNL     1       3.083  -0.407   0.997  1.00  0.00    -0.351 N 
ATOM      5  O   UNL     1       1.178  -0.057  -0.215  1.00  0.00    -0.268 OA
ATOM      6  C   UNL     1       2.400  -0.015  -0.130  1.00  0.00     0.267 C 
ATOM      7  H   UNL     1       2.531  -0.730   1.746  1.00  0.00     0.163 HD
BRANCH   6   8
ATOM      8  C   UNL     1       3.179   0.547  -1.284  1.00  0.00     0.128 C 
ATOM      9  N   UNL     1       4.257  -0.007  -1.738  1.00  0.00    -0.171 NA
ATOM     10  C   UNL     1       2.711   1.773  -1.990  1.00  0.00     0.096 C 
ATOM     11  N   UNL     1       4.801   0.887  -2.598  1.00  0.00    -0.257 N 
ATOM     12  C   UNL     1       3.962   2.075  -2.836  1.00  0.00     0.144 C 
BRANCH  11  13
ATOM     13  C   UNL     1       5.907   0.488  -3.327  1.00  0.00     0.061 A 
ATOM     14  C   UNL     1       5.842  -0.635  -4.165  1.00  0.00     0.035 A 
ATOM     15  C   UNL     1       7.144   1.127  -3.171  1.00  0.00     0.035 A 
ATOM     16  C   UNL     1       6.964  -1.081  -4.870  1.00  0.00     0.088 A 
ATOM     17  C   UNL     1       8.277   0.698  -3.867  1.00  0.00     0.088 A 
ATOM     18  C   UNL     1       8.179  -0.403  -4.723  1.00  0.00     0.269 A 
BRANCH  18  19
ATOM     19  N   UNL     1       9.360  -0.851  -5.468  1.00  0.00     0.062 N 
ATOM     20  O   UNL     1       9.264  -1.892  -6.134  1.00  0.00    -0.258 OA
ATOM     21  O   UNL     1      10.381  -0.151  -5.405  1.00  0.00    -0.258 OA
ENDBRANCH  18  19
ENDBRANCH  11  13
BRANCH  12  22
ATOM     22  C   UNL     1       4.676   3.389  -2.542  1.00  0.00    -0.023 A 
ATOM     23  C   UNL     1       4.538   4.109  -1.344  1.00  0.00     0.006 A 
ATOM     24  C   UNL     1       5.527   3.925  -3.528  1.00  0.00     0.006 A 
ATOM     25  C   UNL     1       5.212   5.320  -1.149  1.00  0.00     0.000 A 
ATOM     26  C   UNL     1       6.232   5.112  -3.318  1.00  0.00     0.000 A 
ATOM     27  C   UNL     1       6.065   5.816  -2.130  1.00  0.00     0.000 A 
ENDBRANCH  12  22
ENDBRANCH   6   8
ENDBRANCH   3   4
ENDBRANCH   2   3
ENDBRANCH   1   2
BRANCH   1  28
ATOM     28  C   UNL     1       4.872  -1.533   4.081  1.00  0.00     0.116 C 
BRANCH  28  29
ATOM     29  N   UNL     1       6.309  -1.752   4.049  1.00  0.00    -0.352 N 
ATOM     30  C   UNL     1       7.108  -2.424   4.943  1.00  0.00     0.251 C 
ATOM     31  H   UNL     1       6.777  -1.364   3.275  1.00  0.00     0.163 HD
ATOM     32  O   UNL     1       8.328  -2.398   4.804  1.00  0.00    -0.269 OA
BRANCH  30  33
ATOM     33  C   UNL     1       6.507  -3.149   6.087  1.00  0.00     0.039 A 
ATOM     34  C   UNL     1       7.107  -3.034   7.344  1.00  0.00     0.014 A 
ATOM     35  C   UNL     1       5.369  -3.944   5.928  1.00  0.00     0.014 A 
ATOM     36  C   UNL     1       6.534  -3.668   8.449  1.00  0.00     0.010 A 
ATOM     37  C   UNL     1       4.756  -4.514   7.043  1.00  0.00     0.010 A 
ATOM     38  C   UNL     1       5.337  -4.390   8.314  1.00  0.00    -0.014 A 
BRANCH  38  39
ATOM     39  C   UNL     1       4.697  -5.042   9.487  1.00  0.00     0.031 A 
ATOM     40  C   UNL     1       4.574  -6.542   9.543  1.00  0.00     0.074 A 
ATOM     41  C   UNL     1       4.189  -4.287  10.482  1.00  0.00     0.049 A 
ATOM     42  N   UNL     1       4.009  -7.290  10.456  1.00  0.00    -0.248 NA
ATOM     43  C   UNL     1       5.140  -7.299   8.414  1.00  0.00     0.031 C 
ATOM     44  C   UNL     1       4.201  -2.823  10.529  1.00  0.00     0.029 A 
ATOM     45  N   UNL     1       3.559  -4.650  11.646  1.00  0.00    -0.354 N 
ATOM     46  C   UNL     1       4.144  -8.600  10.010  1.00  0.00     0.074 A 
ATOM     47  C   UNL     1       4.791  -8.541   8.717  1.00  0.00     0.031 C 
ATOM     48  C   UNL     1       3.626  -2.415  11.673  1.00  0.00     0.029 A 
ATOM     49  C   UNL     1       3.179  -3.583  12.426  1.00  0.00     0.049 A 
ATOM     50  H   UNL     1       3.394  -5.587  11.899  1.00  0.00     0.167 HD
ATOM     51  C   UNL     1       3.789  -9.752  10.628  1.00  0.00     0.031 A 
ATOM     52  C   UNL     1       2.544  -3.547  13.613  1.00  0.00     0.031 A 
ATOM     53  C   UNL     1       3.155  -9.816  11.918  1.00  0.00     0.049 A 
ATOM     54  C   UNL     1       2.175  -4.841  14.288  1.00  0.00     0.074 A 
ATOM     55  C   UNL     1       2.770 -10.935  12.636  1.00  0.00     0.029 A 
ATOM     56  N   UNL     1       2.826  -8.713  12.691  1.00  0.00    -0.354 N 
ATOM     57  N   UNL     1       2.344  -6.070  13.863  1.00  0.00    -0.248 NA
ATOM     58  C   UNL     1       1.551  -4.741  15.614  1.00  0.00     0.031 C 
ATOM     59  C   UNL     1       2.184 -10.508  13.833  1.00  0.00     0.029 A 
ATOM     60  C   UNL     1       2.248  -9.125  13.880  1.00  0.00     0.049 A 
ATOM     61  H   UNL     1       2.981  -7.776  12.433  1.00  0.00     0.167 HD
ATOM     62  C   UNL     1       1.878  -6.890  14.885  1.00  0.00     0.074 A 
ATOM     63  C   UNL     1       1.436  -6.018  15.953  1.00  0.00     0.031 C 
ATOM     64  C   UNL     1       1.823  -8.244  14.937  1.00  0.00     0.031 A 
BRANCH  51  65
ATOM     65  C   UNL     1       4.099 -11.042   9.916  1.00  0.00    -0.014 A 
ATOM     66  C   UNL     1       5.427 -11.489   9.787  1.00  0.00     0.010 A 
ATOM     67  C   UNL     1       3.057 -11.833   9.399  1.00  0.00     0.010 A 
ATOM     68  C   UNL     1       5.711 -12.683   9.120  1.00  0.00     0.020 A 
ATOM     69  C   UNL     1       3.336 -13.042   8.755  1.00  0.00     0.020 A 
ATOM     70  C   UNL     1       4.663 -13.450   8.604  1.00  0.00     0.054 A 
BRANCH  70  71
ATOM     71  S   UNL     1       5.059 -15.008   7.763  1.00  0.00     0.124 S 
ATOM     72  O   UNL     1       5.591 -14.534   6.488  1.00  0.00    -0.237 OA
ATOM     73  O   UNL     1       6.035 -15.619   8.662  1.00  0.00    -0.237 OA
ATOM     74  O   UNL     1       3.773 -15.696   7.685  1.00  0.00    -0.744 OA
ENDBRANCH  70  71
ENDBRANCH  51  65
BRANCH  52  75
ATOM     75  C   UNL     1       2.231  -2.242  14.256  1.00  0.00    -0.014 A 
ATOM     76  C   UNL     1       2.918  -1.829  15.412  1.00  0.00     0.010 A 
ATOM     77  C   UNL     1       1.228  -1.411  13.724  1.00  0.00     0.010 A 
ATOM     78  C   UNL     1       2.583  -0.629  16.045  1.00  0.00     0.020 A 
ATOM     79  C   UNL     1       0.910  -0.197  14.338  1.00  0.00     0.020 A 
ATOM     80  C   UNL     1       1.577   0.178  15.506  1.00  0.00     0.054 A 
BRANCH  80  81
ATOM     81  S   UNL     1       1.171   1.744  16.327  1.00  0.00     0.124 S 
ATOM     82  O   UNL     1       0.376   1.292  17.464  1.00  0.00    -0.237 OA
ATOM     83  O   UNL     1       2.489   2.286  16.650  1.00  0.00    -0.237 OA
ATOM     84  O   UNL     1       0.437   2.484  15.302  1.00  0.00    -0.744 OA
ENDBRANCH  80  81
ENDBRANCH  52  75
BRANCH  64  85
ATOM     85  C   UNL     1       1.317  -8.864  16.212  1.00  0.00    -0.014 A 
ATOM     86  C   UNL     1      -0.043  -8.806  16.566  1.00  0.00     0.010 A 
ATOM     87  C   UNL     1       2.219  -9.533  17.059  1.00  0.00     0.010 A 
ATOM     88  C   UNL     1      -0.482  -9.364  17.770  1.00  0.00     0.020 A 
ATOM     89  C   UNL     1       1.779 -10.115  18.250  1.00  0.00     0.020 A 
ATOM     90  C   UNL     1       0.434 -10.008  18.608  1.00  0.00     0.054 A 
BRANCH  90  91
ATOM     91  S   UNL     1      -0.159 -10.736  20.160  1.00  0.00     0.124 S 
ATOM     92  O   UNL     1      -0.309  -9.557  21.009  1.00  0.00    -0.237 OA
ATOM     93  O   UNL     1      -1.405 -11.384  19.758  1.00  0.00    -0.237 OA
ATOM     94  O   UNL     1       0.914 -11.649  20.545  1.00  0.00    -0.744 OA
ENDBRANCH  90  91
ENDBRANCH  64  85
ENDBRANCH  38  39
ENDBRANCH  30  33
ENDBRANCH  28  29
ENDBRANCH   1  28
TORSDOF 17
