REMARK SMILES C[C@@H]1[C@H](C(=O)NCCCCNC(=O)c2ccc(-c3c4nc(c(-c5ccc(S(=O)(=O)[O-])cc5)c5ccc([nH]5)c(-c5ccc(S(=O)(=O)[O-])cc5)c5nc(c(-c6ccc(S(=O)(=O)[O-])cc6)c6ccc3[nH]6)C=C5)C=C4)cc2)CCN1C(=O)c1c(Cl)cccc1[N+](=O)[O-]
REMARK SMILES IDX 8 1 7 2 6 3 4 4 5 5 3 7 1 8 2 9 76 10 74 11 75 12 77 13
REMARK SMILES IDX 78 14 79 15 80 16 85 17 81 18 82 19 84 20 83 21 86 22 87 23
REMARK SMILES IDX 88 24 9 25 10 26 11 27 12 28 13 30 14 31 15 32 73 33 16 34
REMARK SMILES IDX 72 35 17 36 18 37 19 38 66 39 20 40 71 41 65 42 67 43 21 44
REMARK SMILES IDX 70 45 64 46 63 47 22 49 52 50 33 51 51 52 34 53 37 54 50 55
REMARK SMILES IDX 68 56 35 57 36 58 49 60 69 61 38 62 23 63 24 64 32 65 25 66
REMARK SMILES IDX 31 67 26 68 27 69 28 70 29 71 30 72 53 73 54 74 62 75 55 76
REMARK SMILES IDX 61 77 56 78 57 79 58 80 59 81 60 82 39 83 40 84 48 85 41 86
REMARK SMILES IDX 47 87 42 88 43 89 44 90 45 91 46 92
REMARK H PARENT 6 6 11 29 67 48 37 59
REMARK Flexibility Score: inf
ROOT
ATOM      1  C   UNL     1       2.826   1.114   2.388  1.00  0.00     0.023 C 
ENDROOT
BRANCH   1   2
ATOM      2  C   UNL     1       1.369   1.449   2.066  1.00  0.00     0.116 C 
BRANCH   2   3
ATOM      3  N   UNL     1       1.247   2.419   0.991  1.00  0.00    -0.356 N 
ATOM      4  C   UNL     1       0.617   2.366  -0.211  1.00  0.00     0.225 C 
ATOM      5  O   UNL     1       0.717   3.358  -0.942  1.00  0.00    -0.275 OA
ATOM      6  H   UNL     1       1.705   3.272   1.167  1.00  0.00     0.163 HD
BRANCH   4   7
ATOM      7  C   UNL     1      -0.176   1.161  -0.699  1.00  0.00     0.102 C 
ATOM      8  C   UNL     1       2.103  -0.089  -0.860  1.00  0.00     0.032 C 
ATOM      9  C   UNL     1       0.599  -0.124  -1.073  1.00  0.00     0.094 C 
ATOM     10  N   UNL     1      -0.125  -1.212  -0.387  1.00  0.00    -0.335 N 
ATOM     11  C   UNL     1      -1.316   0.745   0.231  1.00  0.00     0.037 C 
ATOM     12  C   UNL     1      -1.425  -0.755   0.066  1.00  0.00     0.121 C 
BRANCH  10  13
ATOM     13  C   UNL     1       0.079  -2.585  -0.424  1.00  0.00     0.262 C 
ATOM     14  O   UNL     1      -0.761  -3.410  -0.073  1.00  0.00    -0.269 OA
BRANCH  13  15
ATOM     15  C   UNL     1       1.356  -3.125  -0.898  1.00  0.00     0.136 A 
ATOM     16  C   UNL     1       1.477  -3.540  -2.230  1.00  0.00     0.060 A 
ATOM     17  C   UNL     1       2.447  -3.293  -0.035  1.00  0.00     0.283 A 
ATOM     18  Cl  UNL     1       0.182  -3.400  -3.366  1.00  0.00    -0.083 Cl
ATOM     19  C   UNL     1       2.687  -4.073  -2.694  1.00  0.00     0.022 A 
ATOM     20  C   UNL     1       3.667  -3.810  -0.504  1.00  0.00     0.086 A 
ATOM     21  C   UNL     1       3.782  -4.198  -1.837  1.00  0.00     0.009 A 
BRANCH  17  22
ATOM     22  N   UNL     1       2.384  -2.884   1.363  1.00  0.00     0.063 N 
ATOM     23  O   UNL     1       3.377  -2.293   1.812  1.00  0.00    -0.258 OA
ATOM     24  O   UNL     1       1.374  -3.160   2.015  1.00  0.00    -0.258 OA
ENDBRANCH  17  22
ENDBRANCH  13  15
ENDBRANCH  10  13
ENDBRANCH   4   7
ENDBRANCH   2   3
ENDBRANCH   1   2
BRANCH   1  25
ATOM     25  C   UNL     1       3.659   2.247   2.970  1.00  0.00     0.023 C 
BRANCH  25  26
ATOM     26  C   UNL     1       3.148   2.815   4.282  1.00  0.00     0.116 C 
BRANCH  26  27
ATOM     27  N   UNL     1       3.034   1.817   5.336  1.00  0.00    -0.352 N 
ATOM     28  C   UNL     1       3.519   1.854   6.624  1.00  0.00     0.251 C 
ATOM     29  H   UNL     1       2.541   1.001   5.093  1.00  0.00     0.163 HD
ATOM     30  O   UNL     1       3.432   0.872   7.346  1.00  0.00    -0.269 OA
BRANCH  28  31
ATOM     31  C   UNL     1       4.180   3.085   7.111  1.00  0.00     0.039 A 
ATOM     32  C   UNL     1       5.402   2.981   7.779  1.00  0.00     0.014 A 
ATOM     33  C   UNL     1       3.614   4.337   6.864  1.00  0.00     0.014 A 
ATOM     34  C   UNL     1       6.093   4.141   8.133  1.00  0.00     0.010 A 
ATOM     35  C   UNL     1       4.348   5.486   7.127  1.00  0.00     0.010 A 
ATOM     36  C   UNL     1       5.590   5.402   7.775  1.00  0.00    -0.014 A 
BRANCH  36  37
ATOM     37  C   UNL     1       6.320   6.654   8.095  1.00  0.00     0.031 A 
ATOM     38  C   UNL     1       5.680   7.676   8.997  1.00  0.00     0.074 A 
ATOM     39  C   UNL     1       7.511   6.907   7.519  1.00  0.00     0.049 A 
ATOM     40  N   UNL     1       6.102   8.870   9.323  1.00  0.00    -0.248 NA
ATOM     41  C   UNL     1       4.373   7.322   9.579  1.00  0.00     0.031 C 
ATOM     42  C   UNL     1       8.213   6.019   6.589  1.00  0.00     0.029 A 
ATOM     43  N   UNL     1       8.341   7.995   7.626  1.00  0.00    -0.354 N 
ATOM     44  C   UNL     1       5.102   9.418  10.118  1.00  0.00     0.074 A 
ATOM     45  C   UNL     1       4.029   8.451  10.178  1.00  0.00     0.031 C 
ATOM     46  C   UNL     1       9.381   6.583   6.238  1.00  0.00     0.029 A 
ATOM     47  C   UNL     1       9.494   7.887   6.884  1.00  0.00     0.049 A 
ATOM     48  H   UNL     1       8.132   8.779   8.183  1.00  0.00     0.167 HD
ATOM     49  C   UNL     1       5.086  10.608  10.764  1.00  0.00     0.031 A 
ATOM     50  C   UNL     1      10.525   8.741   6.741  1.00  0.00     0.031 A 
ATOM     51  C   UNL     1       6.169  11.552  10.727  1.00  0.00     0.049 A 
ATOM     52  C   UNL     1      10.501  10.047   7.489  1.00  0.00     0.074 A 
ATOM     53  C   UNL     1       6.281  12.761  11.391  1.00  0.00     0.029 A 
ATOM     54  N   UNL     1       7.334  11.387   9.993  1.00  0.00    -0.354 N 
ATOM     55  N   UNL     1       9.569  10.525   8.279  1.00  0.00    -0.248 NA
ATOM     56  C   UNL     1      11.673  10.919   7.339  1.00  0.00     0.031 C 
ATOM     57  C   UNL     1       7.500  13.344  11.029  1.00  0.00     0.029 A 
ATOM     58  C   UNL     1       8.168  12.475  10.181  1.00  0.00     0.049 A 
ATOM     59  H   UNL     1       7.538  10.610   9.424  1.00  0.00     0.167 HD
ATOM     60  C   UNL     1      10.056  11.741   8.746  1.00  0.00     0.074 A 
ATOM     61  C   UNL     1      11.368  11.918   8.157  1.00  0.00     0.031 C 
ATOM     62  C   UNL     1       9.473  12.628   9.590  1.00  0.00     0.031 A 
BRANCH  49  63
ATOM     63  C   UNL     1       3.855  10.944  11.563  1.00  0.00    -0.014 A 
ATOM     64  C   UNL     1       3.540  10.241  12.741  1.00  0.00     0.010 A 
ATOM     65  C   UNL     1       3.003  11.979  11.136  1.00  0.00     0.010 A 
ATOM     66  C   UNL     1       2.369  10.529  13.446  1.00  0.00     0.020 A 
ATOM     67  C   UNL     1       1.847  12.291  11.857  1.00  0.00     0.020 A 
ATOM     68  C   UNL     1       1.526  11.548  12.995  1.00  0.00     0.054 A 
BRANCH  68  69
ATOM     69  S   UNL     1       0.014  11.905  13.932  1.00  0.00     0.124 S 
ATOM     70  O   UNL     1      -0.843  10.784  13.555  1.00  0.00    -0.237 OA
ATOM     71  O   UNL     1       0.483  11.899  15.315  1.00  0.00    -0.237 OA
ATOM     72  O   UNL     1      -0.407  13.209  13.426  1.00  0.00    -0.744 OA
ENDBRANCH  68  69
ENDBRANCH  49  63
BRANCH  50  73
ATOM     73  C   UNL     1      11.685   8.371   5.886  1.00  0.00    -0.014 A 
ATOM     74  C   UNL     1      12.918   8.029   6.470  1.00  0.00     0.010 A 
ATOM     75  C   UNL     1      11.561   8.336   4.485  1.00  0.00     0.010 A 
ATOM     76  C   UNL     1      14.009   7.676   5.671  1.00  0.00     0.020 A 
ATOM     77  C   UNL     1      12.642   7.958   3.683  1.00  0.00     0.020 A 
ATOM     78  C   UNL     1      13.864   7.640   4.281  1.00  0.00     0.054 A 
BRANCH  78  79
ATOM     79  S   UNL     1      15.276   7.122   3.266  1.00  0.00     0.124 S 
ATOM     80  O   UNL     1      16.139   8.297   3.324  1.00  0.00    -0.237 OA
ATOM     81  O   UNL     1      15.762   5.943   3.979  1.00  0.00    -0.237 OA
ATOM     82  O   UNL     1      14.676   6.847   1.962  1.00  0.00    -0.744 OA
ENDBRANCH  78  79
ENDBRANCH  50  73
BRANCH  62  83
ATOM     83  C   UNL     1      10.267  13.850   9.964  1.00  0.00    -0.014 A 
ATOM     84  C   UNL     1      10.462  14.902   9.054  1.00  0.00     0.010 A 
ATOM     85  C   UNL     1      10.775  13.967  11.271  1.00  0.00     0.010 A 
ATOM     86  C   UNL     1      11.179  16.039   9.435  1.00  0.00     0.020 A 
ATOM     87  C   UNL     1      11.469  15.113  11.664  1.00  0.00     0.020 A 
ATOM     88  C   UNL     1      11.679  16.137  10.738  1.00  0.00     0.054 A 
BRANCH  88  89
ATOM     89  S   UNL     1      12.569  17.641  11.223  1.00  0.00     0.124 S 
ATOM     90  O   UNL     1      13.859  17.455  10.566  1.00  0.00    -0.237 OA
ATOM     91  O   UNL     1      11.730  18.703  10.672  1.00  0.00    -0.237 OA
ATOM     92  O   UNL     1      12.595  17.571  12.682  1.00  0.00    -0.744 OA
ENDBRANCH  88  89
ENDBRANCH  62  83
ENDBRANCH  36  37
ENDBRANCH  28  31
ENDBRANCH  26  27
ENDBRANCH  25  26
ENDBRANCH   1  25
TORSDOF 17
