REMARK SMILES CCc1ccc2[nH]c(C(=O)c3cc(C)ccn3)c(CC(=O)NCCCCNC(=O)c3ccc(-c4c5nc(c(-c6ccc(S(=O)(=O)[O-])cc6)c6ccc([nH]6)c(-c6ccc(S(=O)(=O)[O-])cc6)c6nc(c(-c7ccc(S(=O)(=O)[O-])cc7)c7ccc4[nH]7)C=C6)C=C5)cc3)c2c1
REMARK SMILES IDX 24 1 23 2 22 3 20 4 21 5 19 7 18 8 3 9 4 10 91 11 5 12 90 13
REMARK SMILES IDX 6 14 7 15 8 16 2 18 1 19 9 20 10 21 11 22 12 23 17 24 13 25
REMARK SMILES IDX 16 26 14 27 15 28 25 29 26 30 27 31 28 32 29 34 30 35 31 36
REMARK SMILES IDX 89 37 32 38 88 39 33 40 34 41 35 42 82 43 36 44 87 45 81 46
REMARK SMILES IDX 83 47 37 48 86 49 80 50 79 51 38 53 68 54 49 55 67 56 50 57
REMARK SMILES IDX 53 58 66 59 84 60 51 61 52 62 65 64 85 65 54 66 39 67 40 68
REMARK SMILES IDX 48 69 41 70 47 71 42 72 43 73 44 74 45 75 46 76 69 77 70 78
REMARK SMILES IDX 78 79 71 80 77 81 72 82 73 83 74 84 75 85 76 86 55 87 56 88
REMARK SMILES IDX 64 89 57 90 63 91 58 92 59 93 60 94 61 95 62 96
REMARK H PARENT 22 6 7 17 27 33 83 52 53 63
REMARK Flexibility Score: inf
ROOT
ATOM      1  C   UNL     1      -1.700   4.525   4.194  1.00  0.00     0.023 C 
ENDROOT
BRANCH   1   2
ATOM      2  C   UNL     1      -2.538   4.389   2.924  1.00  0.00     0.116 C 
BRANCH   2   3
ATOM      3  N   UNL     1      -2.834   5.665   2.310  1.00  0.00    -0.356 N 
ATOM      4  C   UNL     1      -2.298   6.242   1.193  1.00  0.00     0.224 C 
ATOM      5  O   UNL     1      -2.872   7.242   0.752  1.00  0.00    -0.275 OA
ATOM      6  H   UNL     1      -3.526   6.198   2.764  1.00  0.00     0.163 HD
BRANCH   4   7
ATOM      7  C   UNL     1      -1.136   5.601   0.440  1.00  0.00     0.138 C 
BRANCH   7   8
ATOM      8  C   UNL     1       0.105   5.353   1.257  1.00  0.00    -0.002 A 
ATOM      9  C   UNL     1       1.033   1.651   1.719  1.00  0.00    -0.048 A 
ATOM     10  C   UNL     1       2.107   1.891   2.581  1.00  0.00     0.006 A 
ATOM     11  C   UNL     1       0.319   2.739   1.189  1.00  0.00     0.014 A 
ATOM     12  C   UNL     1       2.480   3.192   2.938  1.00  0.00     0.027 A 
ATOM     13  C   UNL     1       0.663   4.061   1.547  1.00  0.00     0.004 A 
ATOM     14  C   UNL     1       1.738   4.252   2.406  1.00  0.00     0.046 A 
ATOM     15  N   UNL     1       1.858   5.606   2.603  1.00  0.00    -0.352 N 
ATOM     16  C   UNL     1       0.942   6.306   1.842  1.00  0.00     0.093 A 
ATOM     17  H   UNL     1       2.512   6.024   3.208  1.00  0.00     0.167 HD
BRANCH   9  18
ATOM     18  C   UNL     1       0.625   0.242   1.365  1.00  0.00     0.032 C 
ATOM     19  C   UNL     1       1.062  -0.153  -0.037  1.00  0.00     0.009 C 
ENDBRANCH   9  18
BRANCH  16  20
ATOM     20  C   UNL     1       0.878   7.760   1.731  1.00  0.00     0.227 C 
ATOM     21  O   UNL     1       0.066   8.346   1.015  1.00  0.00    -0.285 OA
BRANCH  20  22
ATOM     22  C   UNL     1       1.887   8.588   2.442  1.00  0.00     0.113 A 
ATOM     23  C   UNL     1       3.229   8.504   2.079  1.00  0.00     0.036 A 
ATOM     24  N   UNL     1       1.417   9.415   3.408  1.00  0.00    -0.253 NA
ATOM     25  C   UNL     1       4.150   9.311   2.750  1.00  0.00    -0.047 A 
ATOM     26  C   UNL     1       2.321  10.206   4.019  1.00  0.00     0.112 A 
ATOM     27  C   UNL     1       5.608   9.274   2.410  1.00  0.00     0.044 C 
ATOM     28  C   UNL     1       3.678  10.188   3.731  1.00  0.00     0.023 A 
ENDBRANCH  20  22
ENDBRANCH  16  20
ENDBRANCH   7   8
ENDBRANCH   4   7
ENDBRANCH   2   3
ENDBRANCH   1   2
BRANCH   1  29
ATOM     29  C   UNL     1      -2.423   5.155   5.388  1.00  0.00     0.023 C 
BRANCH  29  30
ATOM     30  C   UNL     1      -3.718   4.471   5.817  1.00  0.00     0.116 C 
BRANCH  30  31
ATOM     31  N   UNL     1      -3.552   3.060   6.124  1.00  0.00    -0.352 N 
ATOM     32  C   UNL     1      -4.183   2.299   7.078  1.00  0.00     0.251 C 
ATOM     33  H   UNL     1      -2.894   2.582   5.569  1.00  0.00     0.163 HD
ATOM     34  O   UNL     1      -3.837   1.132   7.249  1.00  0.00    -0.269 OA
BRANCH  32  35
ATOM     35  C   UNL     1      -5.243   2.888   7.928  1.00  0.00     0.039 A 
ATOM     36  C   UNL     1      -5.213   2.633   9.302  1.00  0.00     0.014 A 
ATOM     37  C   UNL     1      -6.258   3.683   7.388  1.00  0.00     0.014 A 
ATOM     38  C   UNL     1      -6.159   3.228  10.141  1.00  0.00     0.010 A 
ATOM     39  C   UNL     1      -7.165   4.323   8.232  1.00  0.00     0.010 A 
ATOM     40  C   UNL     1      -7.121   4.107   9.618  1.00  0.00    -0.014 A 
BRANCH  40  41
ATOM     41  C   UNL     1      -8.062   4.827  10.514  1.00  0.00     0.031 A 
ATOM     42  C   UNL     1      -9.538   4.545  10.464  1.00  0.00     0.074 A 
ATOM     43  C   UNL     1      -7.587   5.783  11.337  1.00  0.00     0.049 A 
ATOM     44  N   UNL     1     -10.503   5.090  11.161  1.00  0.00    -0.248 NA
ATOM     45  C   UNL     1      -9.993   3.538   9.493  1.00  0.00     0.031 C 
ATOM     46  C   UNL     1      -6.184   6.195  11.437  1.00  0.00     0.029 A 
ATOM     47  N   UNL     1      -8.233   6.588  12.242  1.00  0.00    -0.354 N 
ATOM     48  C   UNL     1     -11.678   4.507  10.703  1.00  0.00     0.074 A 
ATOM     49  C   UNL     1     -11.310   3.593   9.643  1.00  0.00     0.031 C 
ATOM     50  C   UNL     1      -6.074   7.159  12.366  1.00  0.00     0.029 A 
ATOM     51  C   UNL     1      -7.397   7.452  12.908  1.00  0.00     0.049 A 
ATOM     52  H   UNL     1      -9.204   6.549  12.399  1.00  0.00     0.167 HD
ATOM     53  C   UNL     1     -12.948   4.703  11.134  1.00  0.00     0.031 A 
ATOM     54  C   UNL     1      -7.662   8.378  13.850  1.00  0.00     0.031 A 
ATOM     55  C   UNL     1     -13.314   5.598  12.200  1.00  0.00     0.049 A 
ATOM     56  C   UNL     1      -9.073   8.552  14.335  1.00  0.00     0.074 A 
ATOM     57  C   UNL     1     -14.565   5.810  12.754  1.00  0.00     0.029 A 
ATOM     58  N   UNL     1     -12.434   6.433  12.871  1.00  0.00    -0.354 N 
ATOM     59  N   UNL     1     -10.160   7.931  13.944  1.00  0.00    -0.248 NA
ATOM     60  C   UNL     1      -9.290   9.540  15.401  1.00  0.00     0.031 C 
ATOM     61  C   UNL     1     -14.447   6.801  13.736  1.00  0.00     0.029 A 
ATOM     62  C   UNL     1     -13.116   7.174  13.822  1.00  0.00     0.049 A 
ATOM     63  H   UNL     1     -11.467   6.490  12.697  1.00  0.00     0.167 HD
ATOM     64  C   UNL     1     -11.188   8.441  14.728  1.00  0.00     0.074 A 
ATOM     65  C   UNL     1     -10.590   9.406  15.628  1.00  0.00     0.031 C 
ATOM     66  C   UNL     1     -12.509   8.137  14.704  1.00  0.00     0.031 A 
BRANCH  53  67
ATOM     67  C   UNL     1     -14.041   3.927  10.449  1.00  0.00    -0.014 A 
ATOM     68  C   UNL     1     -14.193   2.546  10.666  1.00  0.00     0.010 A 
ATOM     69  C   UNL     1     -14.953   4.594   9.611  1.00  0.00     0.010 A 
ATOM     70  C   UNL     1     -15.215   1.838  10.028  1.00  0.00     0.020 A 
ATOM     71  C   UNL     1     -15.990   3.893   8.988  1.00  0.00     0.020 A 
ATOM     72  C   UNL     1     -16.104   2.516   9.188  1.00  0.00     0.054 A 
BRANCH  72  73
ATOM     73  S   UNL     1     -17.436   1.578   8.390  1.00  0.00     0.124 S 
ATOM     74  O   UNL     1     -16.718   0.885   7.324  1.00  0.00    -0.237 OA
ATOM     75  O   UNL     1     -17.926   0.727   9.472  1.00  0.00    -0.237 OA
ATOM     76  O   UNL     1     -18.368   2.611   7.945  1.00  0.00    -0.744 OA
ENDBRANCH  72  73
ENDBRANCH  53  67
BRANCH  54  77
ATOM     77  C   UNL     1      -6.557   9.197  14.414  1.00  0.00    -0.014 A 
ATOM     78  C   UNL     1      -6.080   8.950  15.713  1.00  0.00     0.010 A 
ATOM     79  C   UNL     1      -5.966  10.217  13.648  1.00  0.00     0.010 A 
ATOM     80  C   UNL     1      -5.042   9.722  16.243  1.00  0.00     0.020 A 
ATOM     81  C   UNL     1      -4.912  10.975  14.166  1.00  0.00     0.020 A 
ATOM     82  C   UNL     1      -4.464  10.730  15.466  1.00  0.00     0.054 A 
BRANCH  82  83
ATOM     83  S   UNL     1      -3.079  11.682  16.149  1.00  0.00     0.124 S 
ATOM     84  O   UNL     1      -3.763  12.622  17.031  1.00  0.00    -0.237 OA
ATOM     85  O   UNL     1      -2.282  10.654  16.814  1.00  0.00    -0.237 OA
ATOM     86  O   UNL     1      -2.455  12.271  14.966  1.00  0.00    -0.744 OA
ENDBRANCH  82  83
ENDBRANCH  54  77
BRANCH  66  87
ATOM     87  C   UNL     1     -13.392   8.844  15.696  1.00  0.00    -0.014 A 
ATOM     88  C   UNL     1     -13.734  10.197  15.527  1.00  0.00     0.010 A 
ATOM     89  C   UNL     1     -13.908   8.136  16.797  1.00  0.00     0.010 A 
ATOM     90  C   UNL     1     -14.544  10.842  16.465  1.00  0.00     0.020 A 
ATOM     91  C   UNL     1     -14.737   8.773  17.725  1.00  0.00     0.020 A 
ATOM     92  C   UNL     1     -15.035  10.127  17.562  1.00  0.00     0.054 A 
BRANCH  92  93
ATOM     93  S   UNL     1     -16.103  10.977  18.757  1.00  0.00     0.124 S 
ATOM     94  O   UNL     1     -15.133  11.725  19.552  1.00  0.00    -0.237 OA
ATOM     95  O   UNL     1     -16.971  11.783  17.902  1.00  0.00    -0.237 OA
ATOM     96  O   UNL     1     -16.773   9.884  19.458  1.00  0.00    -0.744 OA
ENDBRANCH  92  93
ENDBRANCH  66  87
ENDBRANCH  40  41
ENDBRANCH  32  35
ENDBRANCH  30  31
ENDBRANCH  29  30
ENDBRANCH   1  29
TORSDOF 18
