REMARK SMILES Cc1ccccc1C(=O)Nc1cc(C(=O)NCCCCNC(=O)c2ccc(-c3c4nc(c(-c5ccc(S(=O)(=O)[O-])cc5)c5ccc([nH]5)c(-c5ccc(S(=O)(=O)[O-])cc5)c5nc(c(-c6ccc(S(=O)(=O)[O-])cc6)c6ccc3[nH]6)C=C5)C=C4)cc2)ccc1N1CC[NH+](CC(=O)Nc2ccc(F)cc2)CC1
REMARK SMILES IDX 18 1 17 2 16 3 14 4 15 5 13 7 11 8 12 9 86 10 85 11 84 12
REMARK SMILES IDX 10 13 8 14 9 15 7 17 1 18 2 19 3 20 4 21 6 22 5 23 87 24
REMARK SMILES IDX 88 25 103 26 89 27 102 28 90 29 91 31 92 32 93 33 94 34
REMARK SMILES IDX 95 36 96 37 101 38 97 39 100 40 98 41 99 42 19 43 20 44
REMARK SMILES IDX 21 45 22 46 23 48 24 49 25 50 83 51 26 52 82 53 27 54 28 55
REMARK SMILES IDX 29 56 76 57 30 58 81 59 75 60 77 61 31 62 80 63 74 64 73 65
REMARK SMILES IDX 32 67 62 68 43 69 61 70 44 71 47 72 60 73 78 74 45 75 46 76
REMARK SMILES IDX 59 78 79 79 48 80 33 81 34 82 42 83 35 84 41 85 36 86 37 87
REMARK SMILES IDX 38 88 39 89 40 90 63 91 64 92 72 93 65 94 71 95 66 96 67 97
REMARK SMILES IDX 68 98 69 99 70 100 49 101 50 102 58 103 51 104 57 105 52 106
REMARK SMILES IDX 53 107 54 108 55 109 56 110
REMARK H PARENT 16 6 10 16 90 30 94 35 21 47 77 66 47 77
REMARK Flexibility Score: inf
ROOT
ATOM      1  C   UNL     1       1.511  -0.111  -4.267  1.00  0.00     0.023 C 
ENDROOT
BRANCH   1   2
ATOM      2  C   UNL     1       1.419  -1.227  -3.207  1.00  0.00     0.116 C 
BRANCH   2   3
ATOM      3  N   UNL     1       2.616  -2.055  -3.120  1.00  0.00    -0.352 N 
ATOM      4  C   UNL     1       3.804  -1.941  -2.434  1.00  0.00     0.251 C 
ATOM      5  O   UNL     1       4.580  -2.898  -2.492  1.00  0.00    -0.269 OA
ATOM      6  H   UNL     1       2.564  -2.870  -3.670  1.00  0.00     0.163 HD
BRANCH   4   7
ATOM      7  C   UNL     1       4.208  -0.755  -1.619  1.00  0.00     0.042 A 
ATOM      8  C   UNL     1       3.834   1.448  -0.681  1.00  0.00     0.065 A 
ATOM      9  C   UNL     1       3.472   0.409  -1.535  1.00  0.00     0.042 A 
ATOM     10  C   UNL     1       5.038   1.437   0.069  1.00  0.00     0.061 A 
ATOM     11  C   UNL     1       5.817   0.280  -0.074  1.00  0.00     0.029 A 
ATOM     12  C   UNL     1       5.398  -0.805  -0.876  1.00  0.00     0.016 A 
BRANCH   8  13
ATOM     13  N   UNL     1       2.936   2.522  -0.590  1.00  0.00    -0.320 N 
ATOM     14  C   UNL     1       1.633   2.475  -0.113  1.00  0.00     0.255 C 
ATOM     15  O   UNL     1       1.105   3.529   0.251  1.00  0.00    -0.269 OA
ATOM     16  H   UNL     1       3.263   3.399  -0.895  1.00  0.00     0.170 HD
BRANCH  14  17
ATOM     17  C   UNL     1       0.844   1.218  -0.018  1.00  0.00     0.043 A 
ATOM     18  C   UNL     1       2.295  -0.088   1.690  1.00  0.00     0.045 C 
ATOM     19  C   UNL     1       1.133   0.069   0.755  1.00  0.00    -0.038 A 
ATOM     20  C   UNL     1       0.277  -1.047   0.652  1.00  0.00     0.004 A 
ATOM     21  C   UNL     1      -0.864  -1.006  -0.145  1.00  0.00     0.000 A 
ATOM     22  C   UNL     1      -0.330   1.256  -0.784  1.00  0.00     0.014 A 
ATOM     23  C   UNL     1      -1.169   0.151  -0.850  1.00  0.00     0.001 A 
ENDBRANCH  14  17
ENDBRANCH   8  13
BRANCH  10  24
ATOM     24  N   UNL     1       5.394   2.464   0.938  1.00  0.00    -0.359 N 
ATOM     25  C   UNL     1       6.737   2.630   1.547  1.00  0.00     0.178 C 
ATOM     26  C   UNL     1       4.367   3.093   1.765  1.00  0.00     0.178 C 
ATOM     27  C   UNL     1       6.953   4.073   2.171  1.00  0.00     0.284 C 
ATOM     28  C   UNL     1       4.653   4.593   1.772  1.00  0.00     0.284 C 
ATOM     29  N   UNL     1       5.791   4.871   2.641  1.00  0.00    -0.324 N 
ATOM     30  H   UNL     1       6.096   5.841   2.563  1.00  0.00     0.348 HD
BRANCH  29  31
ATOM     31  C   UNL     1       5.441   4.846   4.082  1.00  0.00     0.364 C 
BRANCH  31  32
ATOM     32  C   UNL     1       5.269   3.489   4.763  1.00  0.00     0.279 C 
ATOM     33  O   UNL     1       6.268   2.780   4.963  1.00  0.00    -0.268 OA
ATOM     34  N   UNL     1       4.086   3.000   5.251  1.00  0.00    -0.321 N 
ATOM     35  H   UNL     1       4.244   2.284   5.907  1.00  0.00     0.170 HD
BRANCH  34  36
ATOM     36  C   UNL     1       2.702   3.232   5.079  1.00  0.00     0.041 A 
ATOM     37  C   UNL     1       1.839   2.444   5.863  1.00  0.00     0.029 A 
ATOM     38  C   UNL     1       2.117   4.072   4.136  1.00  0.00     0.029 A 
ATOM     39  C   UNL     1       0.449   2.467   5.678  1.00  0.00     0.041 A 
ATOM     40  C   UNL     1       0.731   4.057   3.902  1.00  0.00     0.041 A 
ATOM     41  C   UNL     1      -0.092   3.257   4.678  1.00  0.00     0.123 A 
ATOM     42  F   UNL     1      -1.414   3.255   4.469  1.00  0.00    -0.207 F 
ENDBRANCH  34  36
ENDBRANCH  31  32
ENDBRANCH  29  31
ENDBRANCH  10  24
ENDBRANCH   4   7
ENDBRANCH   2   3
ENDBRANCH   1   2
BRANCH   1  43
ATOM     43  C   UNL     1       1.347  -0.591  -5.710  1.00  0.00     0.023 C 
BRANCH  43  44
ATOM     44  C   UNL     1      -0.058  -1.082  -6.009  1.00  0.00     0.116 C 
BRANCH  44  45
ATOM     45  N   UNL     1      -0.947  -0.142  -6.671  1.00  0.00    -0.352 N 
ATOM     46  C   UNL     1      -2.065  -0.620  -7.362  1.00  0.00     0.251 C 
ATOM     47  H   UNL     1      -0.763   0.824  -6.634  1.00  0.00     0.163 HD
ATOM     48  O   UNL     1      -2.243  -0.503  -8.557  1.00  0.00    -0.269 OA
BRANCH  46  49
ATOM     49  C   UNL     1      -3.042  -1.336  -6.506  1.00  0.00     0.039 A 
ATOM     50  C   UNL     1      -4.237  -0.719  -6.130  1.00  0.00     0.014 A 
ATOM     51  C   UNL     1      -2.630  -2.525  -5.909  1.00  0.00     0.014 A 
ATOM     52  C   UNL     1      -4.943  -1.215  -5.032  1.00  0.00     0.010 A 
ATOM     53  C   UNL     1      -3.250  -2.934  -4.754  1.00  0.00     0.010 A 
ATOM     54  C   UNL     1      -4.393  -2.267  -4.302  1.00  0.00    -0.014 A 
BRANCH  54  55
ATOM     55  C   UNL     1      -4.892  -2.769  -3.031  1.00  0.00     0.031 A 
ATOM     56  C   UNL     1      -5.543  -4.093  -2.985  1.00  0.00     0.074 A 
ATOM     57  C   UNL     1      -4.520  -2.143  -1.895  1.00  0.00     0.049 A 
ATOM     58  N   UNL     1      -6.170  -4.564  -1.963  1.00  0.00    -0.248 NA
ATOM     59  C   UNL     1      -5.582  -4.985  -4.141  1.00  0.00     0.031 C 
ATOM     60  C   UNL     1      -4.493  -2.686  -0.541  1.00  0.00     0.029 A 
ATOM     61  N   UNL     1      -4.276  -0.786  -1.717  1.00  0.00    -0.354 N 
ATOM     62  C   UNL     1      -6.393  -5.902  -2.200  1.00  0.00     0.074 A 
ATOM     63  C   UNL     1      -6.130  -6.079  -3.606  1.00  0.00     0.031 C 
ATOM     64  C   UNL     1      -4.540  -1.667   0.331  1.00  0.00     0.029 A 
ATOM     65  C   UNL     1      -4.758  -0.456  -0.443  1.00  0.00     0.049 A 
ATOM     66  H   UNL     1      -3.847  -0.176  -2.360  1.00  0.00     0.167 HD
ATOM     67  C   UNL     1      -6.618  -6.728  -1.139  1.00  0.00     0.031 A 
ATOM     68  C   UNL     1      -5.760   0.447  -0.232  1.00  0.00     0.031 A 
ATOM     69  C   UNL     1      -6.811  -5.957   0.093  1.00  0.00     0.049 A 
ATOM     70  C   UNL     1      -6.944  -0.210   0.442  1.00  0.00     0.074 A 
ATOM     71  C   UNL     1      -6.006  -5.707   1.192  1.00  0.00     0.029 A 
ATOM     72  N   UNL     1      -7.864  -5.046   0.163  1.00  0.00    -0.354 N 
ATOM     73  N   UNL     1      -7.150  -1.501   0.432  1.00  0.00    -0.248 NA
ATOM     74  C   UNL     1      -7.968   0.509   1.194  1.00  0.00     0.031 C 
ATOM     75  C   UNL     1      -6.518  -4.554   1.851  1.00  0.00     0.029 A 
ATOM     76  C   UNL     1      -7.659  -4.138   1.184  1.00  0.00     0.049 A 
ATOM     77  H   UNL     1      -8.648  -5.050  -0.434  1.00  0.00     0.167 HD
ATOM     78  C   UNL     1      -8.239  -1.801   1.202  1.00  0.00     0.074 A 
ATOM     79  C   UNL     1      -8.736  -0.505   1.635  1.00  0.00     0.031 C 
ATOM     80  C   UNL     1      -8.634  -3.085   1.446  1.00  0.00     0.031 A 
BRANCH  67  81
ATOM     81  C   UNL     1      -6.395  -8.232  -1.169  1.00  0.00    -0.014 A 
ATOM     82  C   UNL     1      -6.304  -8.950   0.043  1.00  0.00     0.010 A 
ATOM     83  C   UNL     1      -6.174  -8.987  -2.338  1.00  0.00     0.010 A 
ATOM     84  C   UNL     1      -5.957 -10.314   0.082  1.00  0.00     0.020 A 
ATOM     85  C   UNL     1      -5.822 -10.344  -2.317  1.00  0.00     0.020 A 
ATOM     86  C   UNL     1      -5.701 -11.000  -1.103  1.00  0.00     0.054 A 
BRANCH  86  87
ATOM     87  S   UNL     1      -5.208 -12.742  -1.051  1.00  0.00     0.124 S 
ATOM     88  O   UNL     1      -3.956 -12.691  -0.301  1.00  0.00    -0.237 OA
ATOM     89  O   UNL     1      -6.333 -13.368  -0.362  1.00  0.00    -0.237 OA
ATOM     90  O   UNL     1      -5.068 -13.106  -2.460  1.00  0.00    -0.744 OA
ENDBRANCH  86  87
ENDBRANCH  67  81
BRANCH  68  91
ATOM     91  C   UNL     1      -5.785   1.556  -1.233  1.00  0.00    -0.014 A 
ATOM     92  C   UNL     1      -4.701   2.463  -1.176  1.00  0.00     0.010 A 
ATOM     93  C   UNL     1      -6.471   1.402  -2.452  1.00  0.00     0.010 A 
ATOM     94  C   UNL     1      -4.167   3.010  -2.346  1.00  0.00     0.020 A 
ATOM     95  C   UNL     1      -5.942   1.964  -3.627  1.00  0.00     0.020 A 
ATOM     96  C   UNL     1      -4.743   2.684  -3.573  1.00  0.00     0.054 A 
BRANCH  96  97
ATOM     97  S   UNL     1      -3.788   3.029  -5.087  1.00  0.00     0.124 S 
ATOM     98  O   UNL     1      -3.477   4.447  -4.949  1.00  0.00    -0.237 OA
ATOM     99  O   UNL     1      -2.652   2.114  -4.949  1.00  0.00    -0.237 OA
ATOM    100  O   UNL     1      -4.724   2.691  -6.155  1.00  0.00    -0.744 OA
ENDBRANCH  96  97
ENDBRANCH  68  91
BRANCH  80 101
ATOM    101  C   UNL     1      -9.959  -3.482   2.047  1.00  0.00    -0.014 A 
ATOM    102  C   UNL     1     -11.113  -2.687   1.976  1.00  0.00     0.010 A 
ATOM    103  C   UNL     1     -10.107  -4.790   2.569  1.00  0.00     0.010 A 
ATOM    104  C   UNL     1     -12.345  -3.153   2.453  1.00  0.00     0.020 A 
ATOM    105  C   UNL     1     -11.340  -5.281   3.002  1.00  0.00     0.020 A 
ATOM    106  C   UNL     1     -12.451  -4.448   2.962  1.00  0.00     0.054 A 
BRANCH 106 107
ATOM    107  S   UNL     1     -14.065  -5.072   3.490  1.00  0.00     0.124 S 
ATOM    108  O   UNL     1     -14.111  -4.638   4.884  1.00  0.00    -0.237 OA
ATOM    109  O   UNL     1     -14.991  -4.388   2.591  1.00  0.00    -0.237 OA
ATOM    110  O   UNL     1     -13.958  -6.513   3.282  1.00  0.00    -0.744 OA
ENDBRANCH 106 107
ENDBRANCH  80 101
ENDBRANCH  54  55
ENDBRANCH  46  49
ENDBRANCH  44  45
ENDBRANCH  43  44
ENDBRANCH   1  43
TORSDOF 20
