REMARK SMILES CCNC(=O)N1CC[C@H](Cc2cccc(C(=O)NCCCCNC(=O)c3ccc(-c4c5nc(c(-c6ccc(S(=O)(=O)[O-])cc6)c6ccc([nH]6)c(-c6ccc(S(=O)(=O)[O-])cc6)c6nc(c(-c7ccc(S(=O)(=O)[O-])cc7)c7ccc4[nH]7)C=C6)C=C5)cc3)c2)C1
REMARK SMILES IDX 20 1 19 2 18 3 16 4 17 5 15 7 11 8 12 9 86 10 13 11 14 12
REMARK SMILES IDX 10 13 9 14 6 15 7 16 87 17 8 18 4 19 3 20 5 22 2 23 1 24
REMARK SMILES IDX 21 25 22 26 23 27 24 28 25 30 26 31 27 32 85 33 28 34 84 35
REMARK SMILES IDX 29 36 30 37 31 38 78 39 32 40 83 41 77 42 79 43 33 44 82 45
REMARK SMILES IDX 76 46 75 47 34 49 64 50 45 51 63 52 46 53 49 54 62 55 80 56
REMARK SMILES IDX 47 57 48 58 61 60 81 61 50 62 35 63 36 64 44 65 37 66 43 67
REMARK SMILES IDX 38 68 39 69 40 70 41 71 42 72 65 73 66 74 74 75 67 76 73 77
REMARK SMILES IDX 68 78 69 79 70 80 71 81 72 82 51 83 52 84 60 85 53 86 59 87
REMARK SMILES IDX 54 88 55 89 56 90 57 91 58 92
REMARK H PARENT 18 6 3 21 23 29 79 48 49 59
REMARK Flexibility Score: inf
ROOT
ATOM      1  C   UNL     1      -8.239   0.604   5.454  1.00  0.00     0.023 C 
ENDROOT
BRANCH   1   2
ATOM      2  C   UNL     1      -7.637  -0.160   4.284  1.00  0.00     0.116 C 
BRANCH   2   3
ATOM      3  N   UNL     1      -8.599  -0.655   3.308  1.00  0.00    -0.352 N 
ATOM      4  C   UNL     1      -8.608  -0.586   1.928  1.00  0.00     0.251 C 
ATOM      5  O   UNL     1      -9.554  -1.072   1.311  1.00  0.00    -0.269 OA
ATOM      6  H   UNL     1      -9.375  -1.117   3.699  1.00  0.00     0.163 HD
BRANCH   4   7
ATOM      7  C   UNL     1      -7.534   0.112   1.172  1.00  0.00     0.040 A 
ATOM      8  C   UNL     1      -5.263   0.981   1.070  1.00  0.00    -0.047 A 
ATOM      9  C   UNL     1      -5.619   1.729  -0.059  1.00  0.00     0.004 A 
ATOM     10  C   UNL     1      -6.210   0.102   1.606  1.00  0.00     0.017 A 
ATOM     11  C   UNL     1      -6.899   1.619  -0.609  1.00  0.00     0.001 A 
ATOM     12  C   UNL     1      -7.865   0.832   0.022  1.00  0.00     0.014 A 
BRANCH   8  13
ATOM     13  C   UNL     1      -3.951   1.252   1.775  1.00  0.00     0.041 C 
BRANCH  13  14
ATOM     14  C   UNL     1      -3.404   0.115   2.650  1.00  0.00     0.015 C 
ATOM     15  N   UNL     1      -1.144  -0.484   2.941  1.00  0.00    -0.325 N 
ATOM     16  C   UNL     1      -1.833  -1.691   2.530  1.00  0.00     0.121 C 
ATOM     17  C   UNL     1      -2.101   0.510   3.365  1.00  0.00     0.125 C 
ATOM     18  C   UNL     1      -3.039  -1.129   1.813  1.00  0.00     0.027 C 
BRANCH  15  19
ATOM     19  C   UNL     1       0.187  -0.329   3.161  1.00  0.00     0.317 C 
ATOM     20  N   UNL     1       1.050  -0.940   2.308  1.00  0.00    -0.338 N 
ATOM     21  H   UNL     1       1.881  -1.300   2.696  1.00  0.00     0.165 HD
ATOM     22  O   UNL     1       0.639   0.388   4.051  1.00  0.00    -0.249 OA
BRANCH  20  23
ATOM     23  C   UNL     1       0.861  -1.113   0.878  1.00  0.00     0.114 C 
ATOM     24  C   UNL     1       1.468   0.049   0.110  1.00  0.00     0.027 C 
ENDBRANCH  20  23
ENDBRANCH  15  19
ENDBRANCH  13  14
ENDBRANCH   8  13
ENDBRANCH   4   7
ENDBRANCH   2   3
ENDBRANCH   1   2
BRANCH   1  25
ATOM     25  C   UNL     1      -9.141  -0.188   6.390  1.00  0.00     0.023 C 
BRANCH  25  26
ATOM     26  C   UNL     1      -8.572  -1.496   6.926  1.00  0.00     0.116 C 
BRANCH  26  27
ATOM     27  N   UNL     1      -7.302  -1.352   7.624  1.00  0.00    -0.352 N 
ATOM     28  C   UNL     1      -6.917  -1.845   8.853  1.00  0.00     0.251 C 
ATOM     29  H   UNL     1      -6.619  -0.826   7.149  1.00  0.00     0.163 HD
ATOM     30  O   UNL     1      -5.816  -1.565   9.305  1.00  0.00    -0.269 OA
BRANCH  28  31
ATOM     31  C   UNL     1      -7.858  -2.675   9.640  1.00  0.00     0.039 A 
ATOM     32  C   UNL     1      -8.058  -2.371  10.989  1.00  0.00     0.014 A 
ATOM     33  C   UNL     1      -8.569  -3.719   9.044  1.00  0.00     0.014 A 
ATOM     34  C   UNL     1      -9.037  -3.055  11.716  1.00  0.00     0.010 A 
ATOM     35  C   UNL     1      -9.599  -4.340   9.744  1.00  0.00     0.010 A 
ATOM     36  C   UNL     1      -9.847  -4.013  11.086  1.00  0.00    -0.014 A 
BRANCH  36  37
ATOM     37  C   UNL     1     -10.958  -4.687  11.808  1.00  0.00     0.031 A 
ATOM     38  C   UNL     1     -10.930  -6.179  12.008  1.00  0.00     0.074 A 
ATOM     39  C   UNL     1     -12.026  -3.972  12.215  1.00  0.00     0.049 A 
ATOM     40  N   UNL     1     -11.838  -6.957  12.538  1.00  0.00    -0.248 NA
ATOM     41  C   UNL     1      -9.737  -6.892  11.522  1.00  0.00     0.031 C 
ATOM     42  C   UNL     1     -12.201  -2.528  12.039  1.00  0.00     0.029 A 
ATOM     43  N   UNL     1     -13.175  -4.367  12.855  1.00  0.00    -0.354 N 
ATOM     44  C   UNL     1     -11.340  -8.250  12.424  1.00  0.00     0.074 A 
ATOM     45  C   UNL     1     -10.073  -8.156  11.733  1.00  0.00     0.031 C 
ATOM     46  C   UNL     1     -13.372  -2.156  12.582  1.00  0.00     0.029 A 
ATOM     47  C   UNL     1     -14.049  -3.336  13.111  1.00  0.00     0.049 A 
ATOM     48  H   UNL     1     -13.357  -5.301  13.108  1.00  0.00     0.167 HD
ATOM     49  C   UNL     1     -11.875  -9.411  12.873  1.00  0.00     0.031 A 
ATOM     50  C   UNL     1     -15.259  -3.338  13.704  1.00  0.00     0.031 A 
ATOM     51  C   UNL     1     -13.123  -9.502  13.582  1.00  0.00     0.049 A 
ATOM     52  C   UNL     1     -15.823  -4.635  14.216  1.00  0.00     0.074 A 
ATOM     53  C   UNL     1     -13.725 -10.623  14.126  1.00  0.00     0.029 A 
ATOM     54  N   UNL     1     -13.958  -8.428  13.853  1.00  0.00    -0.354 N 
ATOM     55  N   UNL     1     -15.309  -5.840  14.149  1.00  0.00    -0.248 NA
ATOM     56  C   UNL     1     -17.123  -4.570  14.899  1.00  0.00     0.031 C 
ATOM     57  C   UNL     1     -14.942 -10.233  14.695  1.00  0.00     0.029 A 
ATOM     58  C   UNL     1     -15.074  -8.861  14.549  1.00  0.00     0.049 A 
ATOM     59  H   UNL     1     -13.783  -7.496  13.589  1.00  0.00     0.167 HD
ATOM     60  C   UNL     1     -16.208  -6.672  14.809  1.00  0.00     0.074 A 
ATOM     61  C   UNL     1     -17.291  -5.831  15.275  1.00  0.00     0.031 C 
ATOM     62  C   UNL     1     -16.139  -8.010  15.013  1.00  0.00     0.031 A 
BRANCH  49  63
ATOM     63  C   UNL     1     -11.104 -10.676  12.607  1.00  0.00    -0.014 A 
ATOM     64  C   UNL     1      -9.893 -10.941  13.273  1.00  0.00     0.010 A 
ATOM     65  C   UNL     1     -11.605 -11.624  11.697  1.00  0.00     0.010 A 
ATOM     66  C   UNL     1      -9.173 -12.105  12.997  1.00  0.00     0.020 A 
ATOM     67  C   UNL     1     -10.902 -12.805  11.439  1.00  0.00     0.020 A 
ATOM     68  C   UNL     1      -9.679 -13.027  12.076  1.00  0.00     0.054 A 
BRANCH  68  69
ATOM     69  S   UNL     1      -8.729 -14.536  11.744  1.00  0.00     0.124 S 
ATOM     70  O   UNL     1      -7.644 -14.029  10.907  1.00  0.00    -0.237 OA
ATOM     71  O   UNL     1      -8.337 -14.972  13.082  1.00  0.00    -0.237 OA
ATOM     72  O   UNL     1      -9.686 -15.405  11.065  1.00  0.00    -0.744 OA
ENDBRANCH  68  69
ENDBRANCH  49  63
BRANCH  50  73
ATOM     73  C   UNL     1     -16.006  -2.062  13.877  1.00  0.00    -0.014 A 
ATOM     74  C   UNL     1     -16.130  -1.478  15.151  1.00  0.00     0.010 A 
ATOM     75  C   UNL     1     -16.589  -1.419  12.771  1.00  0.00     0.010 A 
ATOM     76  C   UNL     1     -16.839  -0.286  15.318  1.00  0.00     0.020 A 
ATOM     77  C   UNL     1     -17.277  -0.213  12.931  1.00  0.00     0.020 A 
ATOM     78  C   UNL     1     -17.408   0.340  14.206  1.00  0.00     0.054 A 
BRANCH  78  79
ATOM     79  S   UNL     1     -18.281   1.914  14.438  1.00  0.00     0.124 S 
ATOM     80  O   UNL     1     -19.539   1.478  15.037  1.00  0.00    -0.237 OA
ATOM     81  O   UNL     1     -17.380   2.649  15.322  1.00  0.00    -0.237 OA
ATOM     82  O   UNL     1     -18.384   2.450  13.083  1.00  0.00    -0.744 OA
ENDBRANCH  78  79
ENDBRANCH  50  73
BRANCH  62  83
ATOM     83  C   UNL     1     -17.242  -8.645  15.816  1.00  0.00    -0.014 A 
ATOM     84  C   UNL     1     -18.526  -8.831  15.276  1.00  0.00     0.010 A 
ATOM     85  C   UNL     1     -16.969  -9.107  17.117  1.00  0.00     0.010 A 
ATOM     86  C   UNL     1     -19.529  -9.440  16.036  1.00  0.00     0.020 A 
ATOM     87  C   UNL     1     -17.961  -9.739  17.870  1.00  0.00     0.020 A 
ATOM     88  C   UNL     1     -19.240  -9.888  17.329  1.00  0.00     0.054 A 
BRANCH  88  89
ATOM     89  S   UNL     1     -20.545 -10.712  18.283  1.00  0.00     0.124 S 
ATOM     90  O   UNL     1     -21.375  -9.584  18.697  1.00  0.00    -0.237 OA
ATOM     91  O   UNL     1     -21.147 -11.608  17.299  1.00  0.00    -0.237 OA
ATOM     92  O   UNL     1     -19.818 -11.379  19.360  1.00  0.00    -0.744 OA
ENDBRANCH  88  89
ENDBRANCH  62  83
ENDBRANCH  36  37
ENDBRANCH  28  31
ENDBRANCH  26  27
ENDBRANCH  25  26
ENDBRANCH   1  25
TORSDOF 18
