REMARK SMILES O=C(NCCCCNC(=O)c1cccc(CS(=O)(=O)NCc2ccccc2)c1)c1ccc(-c2c3nc(c(-c4ccc(S(=O)(=O)[O-])cc4)c4ccc([nH]4)c(-c4ccc(S(=O)(=O)[O-])cc4)c4nc(c(-c5ccc(S(=O)(=O)[O-])cc5)c5ccc2[nH]5)C=C4)C=C3)cc1
REMARK SMILES IDX 6 1 5 2 4 3 3 4 1 5 2 6 29 8 30 9 88 10 31 11 87 12 32 13
REMARK SMILES IDX 33 14 34 15 81 16 35 17 86 18 80 19 82 20 36 21 85 22 79 23
REMARK SMILES IDX 78 24 37 26 67 27 48 28 66 29 49 30 52 31 65 32 83 33 50 34
REMARK SMILES IDX 51 35 64 37 84 38 53 39 38 40 39 41 47 42 40 43 46 44 41 45
REMARK SMILES IDX 42 46 43 47 44 48 45 49 68 50 69 51 77 52 70 53 76 54 71 55
REMARK SMILES IDX 72 56 73 57 74 58 75 59 54 60 55 61 63 62 56 63 62 64 57 65
REMARK SMILES IDX 58 66 59 67 60 68 61 69 7 70 8 71 9 72 10 74 11 75 12 76
REMARK SMILES IDX 28 77 13 78 15 79 14 80 16 81 17 82 18 83 19 84 20 85 21 87
REMARK SMILES IDX 22 88 23 89 27 90 24 91 26 92 25 93
REMARK H PARENT 3 7 82 25 52 36 8 73 20 86
REMARK Flexibility Score: inf
ROOT
ATOM      1  C   UNL     1       4.548   3.034  -2.160  1.00  0.00     0.023 C 
ENDROOT
BRANCH   1   2
ATOM      2  C   UNL     1       5.016   1.613  -1.880  1.00  0.00     0.023 C 
BRANCH   2   3
ATOM      3  C   UNL     1       4.657   1.089  -0.498  1.00  0.00     0.116 C 
BRANCH   3   4
ATOM      4  N   UNL     1       3.220   1.029  -0.267  1.00  0.00    -0.352 N 
ATOM      5  O   UNL     1       1.225   0.027   0.085  1.00  0.00    -0.269 OA
ATOM      6  C   UNL     1       2.448  -0.060   0.070  1.00  0.00     0.251 C 
ATOM      7  H   UNL     1       2.736   1.881  -0.365  1.00  0.00     0.163 HD
BRANCH   6   8
ATOM      8  C   UNL     1       3.117  -1.339   0.384  1.00  0.00     0.039 A 
ATOM      9  C   UNL     1       4.226  -1.354   1.231  1.00  0.00     0.014 A 
ATOM     10  C   UNL     1       2.667  -2.519  -0.212  1.00  0.00     0.014 A 
ATOM     11  C   UNL     1       4.988  -2.507   1.341  1.00  0.00     0.010 A 
ATOM     12  C   UNL     1       3.372  -3.708  -0.004  1.00  0.00     0.010 A 
ATOM     13  C   UNL     1       4.556  -3.706   0.749  1.00  0.00    -0.014 A 
BRANCH  13  14
ATOM     14  C   UNL     1       5.317  -4.951   1.021  1.00  0.00     0.031 A 
ATOM     15  C   UNL     1       5.989  -5.724  -0.080  1.00  0.00     0.074 A 
ATOM     16  C   UNL     1       5.422  -5.359   2.302  1.00  0.00     0.049 A 
ATOM     17  N   UNL     1       6.710  -6.813   0.009  1.00  0.00    -0.248 NA
ATOM     18  C   UNL     1       5.830  -5.223  -1.454  1.00  0.00     0.031 C 
ATOM     19  C   UNL     1       4.807  -4.688   3.453  1.00  0.00     0.029 A 
ATOM     20  N   UNL     1       6.099  -6.412   2.860  1.00  0.00    -0.354 N 
ATOM     21  C   UNL     1       7.078  -7.138  -1.292  1.00  0.00     0.074 A 
ATOM     22  C   UNL     1       6.478  -6.144  -2.156  1.00  0.00     0.031 C 
ATOM     23  C   UNL     1       5.182  -5.309   4.579  1.00  0.00     0.029 A 
ATOM     24  C   UNL     1       5.991  -6.468   4.229  1.00  0.00     0.049 A 
ATOM     25  H   UNL     1       6.612  -7.065   2.331  1.00  0.00     0.167 HD
ATOM     26  C   UNL     1       7.846  -8.169  -1.721  1.00  0.00     0.031 A 
ATOM     27  C   UNL     1       6.466  -7.366   5.111  1.00  0.00     0.031 A 
ATOM     28  C   UNL     1       8.432  -9.157  -0.849  1.00  0.00     0.049 A 
ATOM     29  C   UNL     1       7.274  -8.522   4.600  1.00  0.00     0.074 A 
ATOM     30  C   UNL     1       9.248 -10.225  -1.185  1.00  0.00     0.029 A 
ATOM     31  N   UNL     1       8.261  -9.207   0.527  1.00  0.00    -0.354 N 
ATOM     32  N   UNL     1       7.638  -8.790   3.369  1.00  0.00    -0.248 NA
ATOM     33  C   UNL     1       7.735  -9.495   5.597  1.00  0.00     0.031 C 
ATOM     34  C   UNL     1       9.516 -10.955  -0.023  1.00  0.00     0.029 A 
ATOM     35  C   UNL     1       8.929 -10.303   1.050  1.00  0.00     0.049 A 
ATOM     36  H   UNL     1       7.741  -8.558   1.055  1.00  0.00     0.167 HD
ATOM     37  C   UNL     1       8.389  -9.956   3.446  1.00  0.00     0.074 A 
ATOM     38  C   UNL     1       8.449 -10.323   4.846  1.00  0.00     0.031 C 
ATOM     39  C   UNL     1       8.973 -10.661   2.446  1.00  0.00     0.031 A 
BRANCH  26  40
ATOM     40  C   UNL     1       8.082  -8.307  -3.205  1.00  0.00    -0.014 A 
ATOM     41  C   UNL     1       8.905  -7.404  -3.902  1.00  0.00     0.010 A 
ATOM     42  C   UNL     1       7.531  -9.401  -3.899  1.00  0.00     0.010 A 
ATOM     43  C   UNL     1       9.147  -7.574  -5.269  1.00  0.00     0.020 A 
ATOM     44  C   UNL     1       7.793  -9.591  -5.260  1.00  0.00     0.020 A 
ATOM     45  C   UNL     1       8.590  -8.668  -5.939  1.00  0.00     0.054 A 
BRANCH  45  46
ATOM     46  S   UNL     1       8.950  -8.882  -7.705  1.00  0.00     0.124 S 
ATOM     47  O   UNL     1       8.194  -7.784  -8.302  1.00  0.00    -0.237 OA
ATOM     48  O   UNL     1      10.403  -8.741  -7.753  1.00  0.00    -0.237 OA
ATOM     49  O   UNL     1       8.446 -10.219  -8.004  1.00  0.00    -0.744 OA
ENDBRANCH  45  46
ENDBRANCH  26  40
BRANCH  27  50
ATOM     50  C   UNL     1       6.156  -7.217   6.559  1.00  0.00    -0.014 A 
ATOM     51  C   UNL     1       7.171  -6.934   7.488  1.00  0.00     0.010 A 
ATOM     52  C   UNL     1       4.829  -7.345   7.013  1.00  0.00     0.010 A 
ATOM     53  C   UNL     1       6.869  -6.808   8.847  1.00  0.00     0.020 A 
ATOM     54  C   UNL     1       4.518  -7.183   8.364  1.00  0.00     0.020 A 
ATOM     55  C   UNL     1       5.544  -6.932   9.275  1.00  0.00     0.054 A 
BRANCH  55  56
ATOM     56  S   UNL     1       5.172  -6.731  11.038  1.00  0.00     0.124 S 
ATOM     57  O   UNL     1       5.709  -7.965  11.603  1.00  0.00    -0.237 OA
ATOM     58  O   UNL     1       5.899  -5.510  11.376  1.00  0.00    -0.237 OA
ATOM     59  O   UNL     1       3.716  -6.609  11.069  1.00  0.00    -0.744 OA
ENDBRANCH  55  56
ENDBRANCH  27  50
BRANCH  39  60
ATOM     60  C   UNL     1       9.755 -11.886   2.839  1.00  0.00    -0.014 A 
ATOM     61  C   UNL     1       9.112 -13.042   3.315  1.00  0.00     0.010 A 
ATOM     62  C   UNL     1      11.156 -11.887   2.703  1.00  0.00     0.010 A 
ATOM     63  C   UNL     1       9.859 -14.163   3.687  1.00  0.00     0.020 A 
ATOM     64  C   UNL     1      11.903 -13.017   3.041  1.00  0.00     0.020 A 
ATOM     65  C   UNL     1      11.250 -14.143   3.547  1.00  0.00     0.054 A 
BRANCH  65  66
ATOM     66  S   UNL     1      12.193 -15.622   4.005  1.00  0.00     0.124 S 
ATOM     67  O   UNL     1      12.106 -15.599   5.463  1.00  0.00    -0.237 OA
ATOM     68  O   UNL     1      11.448 -16.693   3.348  1.00  0.00    -0.237 OA
ATOM     69  O   UNL     1      13.524 -15.369   3.457  1.00  0.00    -0.744 OA
ENDBRANCH  65  66
ENDBRANCH  39  60
ENDBRANCH  13  14
ENDBRANCH   6   8
ENDBRANCH   3   4
ENDBRANCH   2   3
ENDBRANCH   1   2
BRANCH   1  70
ATOM     70  C   UNL     1       4.956   4.051  -1.103  1.00  0.00     0.116 C 
BRANCH  70  71
ATOM     71  N   UNL     1       6.401   4.189  -0.985  1.00  0.00    -0.352 N 
ATOM     72  C   UNL     1       7.168   5.311  -1.185  1.00  0.00     0.251 C 
ATOM     73  H   UNL     1       6.891   3.375  -0.728  1.00  0.00     0.163 HD
ATOM     74  O   UNL     1       8.392   5.260  -1.192  1.00  0.00    -0.269 OA
BRANCH  72  75
ATOM     75  C   UNL     1       6.485   6.600  -1.391  1.00  0.00     0.040 A 
ATOM     76  C   UNL     1       6.777   7.364  -2.518  1.00  0.00     0.014 A 
ATOM     77  C   UNL     1       5.524   7.023  -0.467  1.00  0.00     0.018 A 
ATOM     78  C   UNL     1       6.045   8.527  -2.754  1.00  0.00     0.001 A 
ATOM     79  C   UNL     1       4.772   8.177  -0.706  1.00  0.00    -0.031 A 
ATOM     80  C   UNL     1       5.037   8.920  -1.866  1.00  0.00     0.005 A 
BRANCH  79  81
ATOM     81  C   UNL     1       3.677   8.539   0.255  1.00  0.00     0.189 C 
BRANCH  81  82
ATOM     82  S   UNL     1       4.020  10.040   1.171  1.00  0.00     0.216 S 
ATOM     83  O   UNL     1       4.059  11.156   0.257  1.00  0.00    -0.212 OA
ATOM     84  O   UNL     1       3.074  10.070   2.274  1.00  0.00    -0.212 OA
BRANCH  82  85
ATOM     85  N   UNL     1       5.486   9.844   1.927  1.00  0.00    -0.211 NA
ATOM     86  H   UNL     1       5.411   8.951   2.416  1.00  0.00     0.141 HD
BRANCH  85  87
ATOM     87  C   UNL     1       6.809   9.819   1.300  1.00  0.00     0.134 C 
BRANCH  87  88
ATOM     88  C   UNL     1       7.162  10.905   0.320  1.00  0.00    -0.033 A 
ATOM     89  C   UNL     1       7.976  10.608  -0.785  1.00  0.00     0.005 A 
ATOM     90  C   UNL     1       6.732  12.226   0.494  1.00  0.00     0.005 A 
ATOM     91  C   UNL     1       8.260  11.581  -1.745  1.00  0.00     0.000 A 
ATOM     92  C   UNL     1       6.999  13.194  -0.474  1.00  0.00     0.000 A 
ATOM     93  C   UNL     1       7.753  12.869  -1.599  1.00  0.00     0.000 A 
ENDBRANCH  87  88
ENDBRANCH  85  87
ENDBRANCH  82  85
ENDBRANCH  81  82
ENDBRANCH  79  81
ENDBRANCH  72  75
ENDBRANCH  70  71
ENDBRANCH   1  70
TORSDOF 19
