REMARK SMILES Cc1cc(C)c(C(N)=O)c(N[C@H]2C=C[C@H](C(=O)NCCCCNC(=O)c3ccc(-c4c5nc(c(-c6ccc(S(=O)(=O)[O-])cc6)c6ccc([nH]6)c(-c6ccc(S(=O)(=O)[O-])cc6)c6nc(c(-c7ccc(S(=O)(=O)[O-])cc7)c7ccc4[nH]7)C=C6)C=C5)cc3)C2)n1
REMARK SMILES IDX 20 1 19 2 18 3 16 4 17 5 15 7 12 8 13 9 86 10 14 11 11 12
REMARK SMILES IDX 10 14 1 15 2 16 3 17 87 18 4 19 5 20 6 21 7 22 8 23 9 24
REMARK SMILES IDX 21 27 22 28 23 29 24 30 25 32 26 33 27 34 85 35 28 36 84 37
REMARK SMILES IDX 29 38 30 39 31 40 78 41 32 42 83 43 77 44 79 45 33 46 82 47
REMARK SMILES IDX 76 48 75 49 34 51 64 52 45 53 63 54 46 55 49 56 62 57 80 58
REMARK SMILES IDX 47 59 48 60 61 62 81 63 50 64 35 65 36 66 44 67 37 68 43 69
REMARK SMILES IDX 38 70 39 71 40 72 41 73 42 74 65 75 66 76 74 77 67 78 73 79
REMARK SMILES IDX 68 80 69 81 70 82 71 83 72 84 51 85 52 86 60 87 53 88 59 89
REMARK SMILES IDX 54 90 55 91 56 92 57 93 58 94
REMARK H PARENT 18 6 11 13 8 25 8 26 23 31 79 50 49 61
REMARK Flexibility Score: inf
ROOT
ATOM      1  C   UNL     1      -7.827  -2.229  -1.015  1.00  0.00     0.023 C 
ENDROOT
BRANCH   1   2
ATOM      2  C   UNL     1      -6.638  -2.833  -0.277  1.00  0.00     0.116 C 
BRANCH   2   3
ATOM      3  N   UNL     1      -6.028  -3.934  -0.998  1.00  0.00    -0.356 N 
ATOM      4  C   UNL     1      -4.700  -4.182  -1.212  1.00  0.00     0.227 C 
ATOM      5  O   UNL     1      -4.381  -5.260  -1.715  1.00  0.00    -0.274 OA
ATOM      6  H   UNL     1      -6.652  -4.590  -1.385  1.00  0.00     0.163 HD
BRANCH   4   7
ATOM      7  C   UNL     1      -3.680  -3.117  -0.812  1.00  0.00     0.103 C 
ATOM      8  C   UNL     1      -1.387  -3.791  -0.258  1.00  0.00     0.104 C 
ATOM      9  C   UNL     1      -2.190  -3.535   0.971  1.00  0.00    -0.006 C 
ATOM     10  C   UNL     1      -2.291  -3.375  -1.422  1.00  0.00     0.046 C 
ATOM     11  C   UNL     1      -3.440  -3.170   0.672  1.00  0.00    -0.016 C 
BRANCH   8  12
ATOM     12  N   UNL     1      -0.108  -3.101  -0.238  1.00  0.00    -0.363 N 
ATOM     13  H   UNL     1       0.708  -3.646  -0.314  1.00  0.00     0.162 HD
BRANCH  12  14
ATOM     14  C   UNL     1       0.042  -1.720  -0.117  1.00  0.00     0.139 A 
ATOM     15  C   UNL     1      -2.278   1.140   0.072  1.00  0.00     0.067 C 
ATOM     16  C   UNL     1      -0.992   0.372   0.049  1.00  0.00     0.040 A 
ATOM     17  C   UNL     1       0.225   1.029   0.090  1.00  0.00     0.028 A 
ATOM     18  N   UNL     1      -1.081  -0.970  -0.039  1.00  0.00    -0.236 NA
ATOM     19  C   UNL     1       1.410   0.282   0.058  1.00  0.00    -0.033 A 
ATOM     20  C   UNL     1       2.705   1.044   0.103  1.00  0.00     0.045 C 
ATOM     21  C   UNL     1       1.317  -1.122  -0.057  1.00  0.00     0.084 A 
BRANCH  21  22
ATOM     22  C   UNL     1       2.552  -1.954  -0.155  1.00  0.00     0.252 C 
ATOM     23  N   UNL     1       2.538  -3.170   0.471  1.00  0.00    -0.365 N 
ATOM     24  O   UNL     1       3.548  -1.587  -0.768  1.00  0.00    -0.269 OA
ATOM     25  H   UNL     1       1.736  -3.461   0.963  1.00  0.00     0.159 HD
ATOM     26  H   UNL     1       3.330  -3.754   0.430  1.00  0.00     0.159 HD
ENDBRANCH  21  22
ENDBRANCH  12  14
ENDBRANCH   8  12
ENDBRANCH   4   7
ENDBRANCH   2   3
ENDBRANCH   1   2
BRANCH   1  27
ATOM     27  C   UNL     1      -8.970  -3.197  -1.322  1.00  0.00     0.023 C 
BRANCH  27  28
ATOM     28  C   UNL     1      -9.485  -4.006  -0.135  1.00  0.00     0.116 C 
BRANCH  28  29
ATOM     29  N   UNL     1     -10.000  -3.173   0.942  1.00  0.00    -0.352 N 
ATOM     30  C   UNL     1     -11.246  -3.163   1.525  1.00  0.00     0.251 C 
ATOM     31  H   UNL     1      -9.361  -2.519   1.308  1.00  0.00     0.163 HD
ATOM     32  O   UNL     1     -11.535  -2.292   2.336  1.00  0.00    -0.269 OA
BRANCH  30  33
ATOM     33  C   UNL     1     -12.247  -4.183   1.139  1.00  0.00     0.039 A 
ATOM     34  C   UNL     1     -13.534  -3.765   0.791  1.00  0.00     0.014 A 
ATOM     35  C   UNL     1     -11.908  -5.537   1.083  1.00  0.00     0.014 A 
ATOM     36  C   UNL     1     -14.449  -4.693   0.288  1.00  0.00     0.010 A 
ATOM     37  C   UNL     1     -12.796  -6.447   0.516  1.00  0.00     0.010 A 
ATOM     38  C   UNL     1     -14.067  -6.030   0.093  1.00  0.00    -0.014 A 
BRANCH  38  39
ATOM     39  C   UNL     1     -14.953  -6.992  -0.614  1.00  0.00     0.031 A 
ATOM     40  C   UNL     1     -15.484  -8.206   0.093  1.00  0.00     0.074 A 
ATOM     41  C   UNL     1     -15.204  -6.813  -1.926  1.00  0.00     0.049 A 
ATOM     42  N   UNL     1     -16.203  -9.189  -0.387  1.00  0.00    -0.248 NA
ATOM     43  C   UNL     1     -15.148  -8.344   1.518  1.00  0.00     0.031 C 
ATOM     44  C   UNL     1     -14.720  -5.692  -2.736  1.00  0.00     0.029 A 
ATOM     45  N   UNL     1     -15.921  -7.576  -2.814  1.00  0.00    -0.354 N 
ATOM     46  C   UNL     1     -16.395 -10.068   0.671  1.00  0.00     0.074 A 
ATOM     47  C   UNL     1     -15.678  -9.524   1.805  1.00  0.00     0.031 C 
ATOM     48  C   UNL     1     -15.176  -5.826  -3.991  1.00  0.00     0.029 A 
ATOM     49  C   UNL     1     -15.941  -7.065  -4.090  1.00  0.00     0.049 A 
ATOM     50  H   UNL     1     -16.377  -8.411  -2.561  1.00  0.00     0.167 HD
ATOM     51  C   UNL     1     -17.114 -11.217   0.701  1.00  0.00     0.031 A 
ATOM     52  C   UNL     1     -16.497  -7.543  -5.220  1.00  0.00     0.031 A 
ATOM     53  C   UNL     1     -17.817 -11.760  -0.432  1.00  0.00     0.049 A 
ATOM     54  C   UNL     1     -17.241  -8.848  -5.178  1.00  0.00     0.074 A 
ATOM     55  C   UNL     1     -18.622 -12.885  -0.487  1.00  0.00     0.029 A 
ATOM     56  N   UNL     1     -17.785 -11.229  -1.713  1.00  0.00    -0.354 N 
ATOM     57  N   UNL     1     -17.473  -9.629  -4.150  1.00  0.00    -0.248 NA
ATOM     58  C   UNL     1     -17.794  -9.338  -6.448  1.00  0.00     0.031 C 
ATOM     59  C   UNL     1     -19.026 -13.068  -1.815  1.00  0.00     0.029 A 
ATOM     60  C   UNL     1     -18.519 -12.027  -2.576  1.00  0.00     0.049 A 
ATOM     61  H   UNL     1     -17.309 -10.407  -1.971  1.00  0.00     0.167 HD
ATOM     62  C   UNL     1     -18.208 -10.699  -4.647  1.00  0.00     0.074 A 
ATOM     63  C   UNL     1     -18.398 -10.454  -6.063  1.00  0.00     0.031 C 
ATOM     64  C   UNL     1     -18.681 -11.786  -3.989  1.00  0.00     0.031 A 
BRANCH  51  65
ATOM     65  C   UNL     1     -17.152 -11.971   2.005  1.00  0.00    -0.014 A 
ATOM     66  C   UNL     1     -17.833 -11.456   3.124  1.00  0.00     0.010 A 
ATOM     67  C   UNL     1     -16.501 -13.213   2.114  1.00  0.00     0.010 A 
ATOM     68  C   UNL     1     -17.809 -12.137   4.343  1.00  0.00     0.020 A 
ATOM     69  C   UNL     1     -16.500 -13.913   3.325  1.00  0.00     0.020 A 
ATOM     70  C   UNL     1     -17.132 -13.357   4.439  1.00  0.00     0.054 A 
BRANCH  70  71
ATOM     71  S   UNL     1     -17.098 -14.210   6.039  1.00  0.00     0.124 S 
ATOM     72  O   UNL     1     -16.150 -13.394   6.793  1.00  0.00    -0.237 OA
ATOM     73  O   UNL     1     -18.488 -14.124   6.479  1.00  0.00    -0.237 OA
ATOM     74  O   UNL     1     -16.636 -15.555   5.706  1.00  0.00    -0.744 OA
ENDBRANCH  70  71
ENDBRANCH  51  65
BRANCH  52  75
ATOM     75  C   UNL     1     -16.375  -6.768  -6.484  1.00  0.00    -0.014 A 
ATOM     76  C   UNL     1     -17.488  -6.088  -7.007  1.00  0.00     0.010 A 
ATOM     77  C   UNL     1     -15.135  -6.663  -7.143  1.00  0.00     0.010 A 
ATOM     78  C   UNL     1     -17.364  -5.311  -8.162  1.00  0.00     0.020 A 
ATOM     79  C   UNL     1     -15.002  -5.867  -8.284  1.00  0.00     0.020 A 
ATOM     80  C   UNL     1     -16.119  -5.198  -8.788  1.00  0.00     0.054 A 
BRANCH  80  81
ATOM     81  S   UNL     1     -15.965  -4.111 -10.233  1.00  0.00     0.124 S 
ATOM     82  O   UNL     1     -16.649  -4.880 -11.267  1.00  0.00    -0.237 OA
ATOM     83  O   UNL     1     -16.649  -2.899  -9.789  1.00  0.00    -0.237 OA
ATOM     84  O   UNL     1     -14.520  -3.974 -10.405  1.00  0.00    -0.744 OA
ENDBRANCH  80  81
ENDBRANCH  52  75
BRANCH  64  85
ATOM     85  C   UNL     1     -19.446 -12.803  -4.792  1.00  0.00    -0.014 A 
ATOM     86  C   UNL     1     -18.781 -13.668  -5.679  1.00  0.00     0.010 A 
ATOM     87  C   UNL     1     -20.834 -12.938  -4.612  1.00  0.00     0.010 A 
ATOM     88  C   UNL     1     -19.494 -14.641  -6.384  1.00  0.00     0.020 A 
ATOM     89  C   UNL     1     -21.547 -13.927  -5.296  1.00  0.00     0.020 A 
ATOM     90  C   UNL     1     -20.873 -14.767  -6.185  1.00  0.00     0.054 A 
BRANCH  90  91
ATOM     91  S   UNL     1     -21.764 -16.080  -7.065  1.00  0.00     0.124 S 
ATOM     92  O   UNL     1     -21.792 -15.566  -8.431  1.00  0.00    -0.237 OA
ATOM     93  O   UNL     1     -20.910 -17.246  -6.850  1.00  0.00    -0.237 OA
ATOM     94  O   UNL     1     -23.059 -16.131  -6.391  1.00  0.00    -0.744 OA
ENDBRANCH  90  91
ENDBRANCH  64  85
ENDBRANCH  38  39
ENDBRANCH  30  33
ENDBRANCH  28  29
ENDBRANCH  27  28
ENDBRANCH   1  27
TORSDOF 17
