REMARK SMILES Cc1ccc(C)c(-n2nc(C)c(/C=C(/C#N)C(=O)NCCCCNC(=O)c3ccc(-c4c5nc(c(-c6ccc(S(=O)(=O)[O-])cc6)c6ccc([nH]6)c(-c6ccc(S(=O)(=O)[O-])cc6)c6nc(c(-c7ccc(S(=O)(=O)[O-])cc7)c7ccc4[nH]7)C=C6)C=C5)cc3)c2Cl)c1
REMARK SMILES IDX 22 1 21 2 20 3 19 4 17 5 18 6 14 8 13 9 12 10 8 11 9 12
REMARK SMILES IDX 87 13 10 14 88 15 11 16 7 17 1 18 2 19 3 20 89 21 4 22 5 23
REMARK SMILES IDX 6 24 15 25 16 26 23 27 24 28 25 29 26 31 27 32 28 33 86 34
REMARK SMILES IDX 29 35 85 36 30 37 31 38 32 39 79 40 33 41 84 42 78 43 80 44
REMARK SMILES IDX 34 45 83 46 77 47 76 48 35 50 65 51 46 52 64 53 47 54 50 55
REMARK SMILES IDX 63 56 81 57 48 58 49 59 62 61 82 62 51 63 36 64 37 65 45 66
REMARK SMILES IDX 38 67 44 68 39 69 40 70 41 71 42 72 43 73 66 74 67 75 75 76
REMARK SMILES IDX 68 77 74 78 69 79 70 80 71 81 72 82 73 83 52 84 53 85 61 86
REMARK SMILES IDX 54 87 60 88 55 89 56 90 57 91 58 92 59 93
REMARK H PARENT 19 7 24 30 80 49 50 60
REMARK Flexibility Score: inf
ROOT
ATOM      1  C   UNL     1      -7.677   9.337  -0.941  1.00  0.00     0.023 C 
ENDROOT
BRANCH   1   2
ATOM      2  C   UNL     1      -6.215   9.368  -1.433  1.00  0.00     0.023 C 
BRANCH   2   3
ATOM      3  C   UNL     1      -5.145   8.981  -0.393  1.00  0.00     0.116 C 
BRANCH   3   4
ATOM      4  N   UNL     1      -5.105   7.537  -0.212  1.00  0.00    -0.351 N 
ATOM      5  C   UNL     1      -4.367   6.551  -0.801  1.00  0.00     0.261 C 
ATOM      6  O   UNL     1      -4.862   5.424  -0.804  1.00  0.00    -0.268 OA
ATOM      7  H   UNL     1      -5.734   7.207   0.469  1.00  0.00     0.163 HD
BRANCH   5   8
ATOM      8  C   UNL     1      -3.024   6.816  -1.421  1.00  0.00     0.117 C 
ATOM      9  C   UNL     1      -1.987   5.966  -1.290  1.00  0.00     0.038 C 
BRANCH   9  10
ATOM     10  C   UNL     1      -1.924   4.711  -0.576  1.00  0.00     0.036 A 
ATOM     11  N   UNL     1      -1.399   2.577  -0.134  1.00  0.00    -0.221 N 
ATOM     12  N   UNL     1      -2.383   2.889   0.741  1.00  0.00    -0.171 NA
ATOM     13  C   UNL     1      -1.164   3.637  -0.991  1.00  0.00     0.140 A 
ATOM     14  C   UNL     1      -2.549   4.214   0.610  1.00  0.00     0.069 A 
ATOM     15  Cl  UNL     1      -0.205   3.443  -2.399  1.00  0.00    -0.061 Cl
ATOM     16  C   UNL     1      -3.343   4.895   1.666  1.00  0.00     0.069 C 
BRANCH  11  17
ATOM     17  C   UNL     1      -0.766   1.306  -0.088  1.00  0.00     0.069 A 
ATOM     18  C   UNL     1       2.839   0.069   0.049  1.00  0.00     0.044 C 
ATOM     19  C   UNL     1       1.341   0.078  -0.009  1.00  0.00    -0.049 A 
ATOM     20  C   UNL     1       0.624  -1.119   0.050  1.00  0.00     0.004 A 
ATOM     21  C   UNL     1       0.640   1.286  -0.081  1.00  0.00     0.032 A 
ATOM     22  C   UNL     1      -0.773  -1.105   0.063  1.00  0.00     0.006 A 
ATOM     23  C   UNL     1      -1.494   0.102  -0.002  1.00  0.00    -0.025 A 
ATOM     24  C   UNL     1      -2.994   0.002   0.007  1.00  0.00     0.047 C 
ENDBRANCH  11  17
ENDBRANCH   9  10
BRANCH   8  25
ATOM     25  C   UNL     1      -3.058   7.979  -2.401  1.00  0.00     0.105 C 
ATOM     26  N   UNL     1      -3.086   8.943  -3.213  1.00  0.00    -0.192 NA
ENDBRANCH   8  25
ENDBRANCH   5   8
ENDBRANCH   3   4
ENDBRANCH   2   3
ENDBRANCH   1   2
BRANCH   1  27
ATOM     27  C   UNL     1      -8.200  10.554  -0.157  1.00  0.00     0.116 C 
BRANCH  27  28
ATOM     28  N   UNL     1      -8.071  11.834  -0.875  1.00  0.00    -0.352 N 
ATOM     29  C   UNL     1      -7.519  13.086  -0.583  1.00  0.00     0.251 C 
ATOM     30  H   UNL     1      -8.467  11.799  -1.776  1.00  0.00     0.163 HD
ATOM     31  O   UNL     1      -7.803  14.031  -1.275  1.00  0.00    -0.269 OA
BRANCH  29  32
ATOM     32  C   UNL     1      -6.568  13.267   0.546  1.00  0.00     0.039 A 
ATOM     33  C   UNL     1      -5.987  14.484   0.920  1.00  0.00     0.014 A 
ATOM     34  C   UNL     1      -6.135  12.151   1.196  1.00  0.00     0.014 A 
ATOM     35  C   UNL     1      -4.895  14.472   1.815  1.00  0.00     0.010 A 
ATOM     36  C   UNL     1      -5.455  12.245   2.361  1.00  0.00     0.010 A 
ATOM     37  C   UNL     1      -4.584  13.293   2.486  1.00  0.00    -0.014 A 
BRANCH  37  38
ATOM     38  C   UNL     1      -3.403  13.010   3.295  1.00  0.00     0.031 A 
ATOM     39  C   UNL     1      -3.602  13.114   4.759  1.00  0.00     0.074 A 
ATOM     40  C   UNL     1      -2.393  12.221   2.855  1.00  0.00     0.049 A 
ATOM     41  N   UNL     1      -3.284  14.096   5.534  1.00  0.00    -0.248 NA
ATOM     42  C   UNL     1      -4.431  12.081   5.407  1.00  0.00     0.031 C 
ATOM     43  C   UNL     1      -2.271  11.502   1.579  1.00  0.00     0.029 A 
ATOM     44  N   UNL     1      -1.304  11.780   3.549  1.00  0.00    -0.354 N 
ATOM     45  C   UNL     1      -3.702  13.699   6.799  1.00  0.00     0.074 A 
ATOM     46  C   UNL     1      -4.671  12.659   6.581  1.00  0.00     0.031 C 
ATOM     47  C   UNL     1      -1.280  10.581   1.673  1.00  0.00     0.029 A 
ATOM     48  C   UNL     1      -0.619  10.725   2.961  1.00  0.00     0.049 A 
ATOM     49  H   UNL     1      -1.025  12.181   4.404  1.00  0.00     0.167 HD
ATOM     50  C   UNL     1      -3.005  13.993   7.934  1.00  0.00     0.031 A 
ATOM     51  C   UNL     1       0.377   9.996   3.529  1.00  0.00     0.031 A 
ATOM     52  C   UNL     1      -1.892  14.870   7.651  1.00  0.00     0.049 A 
ATOM     53  C   UNL     1       0.866  10.755   4.712  1.00  0.00     0.074 A 
ATOM     54  C   UNL     1      -1.746  16.110   7.062  1.00  0.00     0.029 A 
ATOM     55  N   UNL     1      -0.643  14.287   7.625  1.00  0.00    -0.354 N 
ATOM     56  N   UNL     1       1.472  11.907   4.639  1.00  0.00    -0.248 NA
ATOM     57  C   UNL     1       0.316  10.428   6.019  1.00  0.00     0.031 C 
ATOM     58  C   UNL     1      -0.538  16.023   6.308  1.00  0.00     0.029 A 
ATOM     59  C   UNL     1       0.017  14.758   6.519  1.00  0.00     0.049 A 
ATOM     60  H   UNL     1      -0.288  13.646   8.282  1.00  0.00     0.167 HD
ATOM     61  C   UNL     1       1.034  12.618   5.749  1.00  0.00     0.074 A 
ATOM     62  C   UNL     1       0.419  11.619   6.617  1.00  0.00     0.031 C 
ATOM     63  C   UNL     1       0.953  13.982   5.728  1.00  0.00     0.031 A 
BRANCH  50  64
ATOM     64  C   UNL     1      -3.054  13.177   9.210  1.00  0.00    -0.014 A 
ATOM     65  C   UNL     1      -2.316  13.631  10.322  1.00  0.00     0.010 A 
ATOM     66  C   UNL     1      -3.594  11.878   9.303  1.00  0.00     0.010 A 
ATOM     67  C   UNL     1      -2.049  12.794  11.414  1.00  0.00     0.020 A 
ATOM     68  C   UNL     1      -3.381  11.053  10.408  1.00  0.00     0.020 A 
ATOM     69  C   UNL     1      -2.567  11.500  11.435  1.00  0.00     0.054 A 
BRANCH  69  70
ATOM     70  S   UNL     1      -2.100  10.371  12.766  1.00  0.00     0.124 S 
ATOM     71  O   UNL     1      -0.684  10.155  12.484  1.00  0.00    -0.237 OA
ATOM     72  O   UNL     1      -2.399  11.156  13.960  1.00  0.00    -0.237 OA
ATOM     73  O   UNL     1      -2.967   9.214  12.551  1.00  0.00    -0.744 OA
ENDBRANCH  69  70
ENDBRANCH  50  64
BRANCH  51  74
ATOM     74  C   UNL     1       0.767   8.584   3.281  1.00  0.00    -0.014 A 
ATOM     75  C   UNL     1       2.008   8.083   3.723  1.00  0.00     0.010 A 
ATOM     76  C   UNL     1      -0.190   7.651   2.836  1.00  0.00     0.010 A 
ATOM     77  C   UNL     1       2.265   6.700   3.761  1.00  0.00     0.020 A 
ATOM     78  C   UNL     1       0.063   6.274   2.862  1.00  0.00     0.020 A 
ATOM     79  C   UNL     1       1.283   5.803   3.339  1.00  0.00     0.054 A 
BRANCH  79  80
ATOM     80  S   UNL     1       1.539   4.013   3.541  1.00  0.00     0.124 S 
ATOM     81  O   UNL     1       2.373   3.692   2.386  1.00  0.00    -0.237 OA
ATOM     82  O   UNL     1       2.193   3.925   4.843  1.00  0.00    -0.237 OA
ATOM     83  O   UNL     1       0.181   3.478   3.497  1.00  0.00    -0.744 OA
ENDBRANCH  79  80
ENDBRANCH  51  74
BRANCH  63  84
ATOM     84  C   UNL     1       1.671  14.733   4.631  1.00  0.00    -0.014 A 
ATOM     85  C   UNL     1       1.364  14.592   3.264  1.00  0.00     0.010 A 
ATOM     86  C   UNL     1       2.558  15.754   5.017  1.00  0.00     0.010 A 
ATOM     87  C   UNL     1       1.933  15.449   2.310  1.00  0.00     0.020 A 
ATOM     88  C   UNL     1       3.115  16.621   4.074  1.00  0.00     0.020 A 
ATOM     89  C   UNL     1       2.800  16.465   2.724  1.00  0.00     0.054 A 
BRANCH  89  90
ATOM     90  S   UNL     1       3.452  17.634   1.498  1.00  0.00     0.124 S 
ATOM     91  O   UNL     1       4.409  16.816   0.760  1.00  0.00    -0.237 OA
ATOM     92  O   UNL     1       2.256  18.027   0.756  1.00  0.00    -0.237 OA
ATOM     93  O   UNL     1       4.042  18.697   2.311  1.00  0.00    -0.744 OA
ENDBRANCH  89  90
ENDBRANCH  63  84
ENDBRANCH  37  38
ENDBRANCH  29  32
ENDBRANCH  27  28
ENDBRANCH   1  27
TORSDOF 17
