REMARK SMILES O=C(NCCCCNC(=O)c1cc(Cl)c2c(c1)[C@H]1C=CC[C@H]1[C@H](c1ccc(S(=O)(=O)N3CCOCC3)cc1)N2)c1ccc(-c2c3nc(c(-c4ccc(S(=O)(=O)[O-])cc4)c4ccc([nH]4)c(-c4ccc(S(=O)(=O)[O-])cc4)c4nc(c(-c5ccc(S(=O)(=O)[O-])cc5)c5ccc2[nH]5)C=C4)C=C3)cc1
REMARK SMILES IDX 5 1 4 2 3 3 1 4 2 5 40 7 41 8 99 9 42 10 98 11 43 12 44 13
REMARK SMILES IDX 45 14 92 15 46 16 97 17 91 18 93 19 47 20 96 21 90 22 89 23
REMARK SMILES IDX 48 25 78 26 59 27 77 28 60 29 63 30 76 31 94 32 61 33 62 34
REMARK SMILES IDX 75 36 95 37 64 38 49 39 50 40 58 41 51 42 57 43 52 44 53 45
REMARK SMILES IDX 54 46 55 47 56 48 79 49 80 50 88 51 81 52 87 53 82 54 83 55
REMARK SMILES IDX 84 56 85 57 86 58 65 59 66 60 74 61 67 62 73 63 68 64 69 65
REMARK SMILES IDX 70 66 71 67 72 68 6 69 7 70 8 71 9 72 10 74 11 75 12 76
REMARK SMILES IDX 17 77 13 78 16 79 14 80 15 81 18 82 39 83 19 84 22 85 23 86
REMARK SMILES IDX 20 88 21 89 24 90 25 91 38 92 26 93 37 94 27 95 28 96 29 97
REMARK SMILES IDX 30 98 31 99 32 100 36 101 33 102 35 103 34 104
REMARK H PARENT 3 6 93 24 63 35 8 73 39 87
REMARK Flexibility Score: inf
ROOT
ATOM      1  C   UNL     1       5.096   2.284   0.962  1.00  0.00     0.023 C 
ENDROOT
BRANCH   1   2
ATOM      2  C   UNL     1       4.730   0.806   0.875  1.00  0.00     0.116 C 
BRANCH   2   3
ATOM      3  N   UNL     1       3.295   0.578   0.922  1.00  0.00    -0.352 N 
ATOM      4  O   UNL     1       1.273  -0.058   0.151  1.00  0.00    -0.269 OA
ATOM      5  C   UNL     1       2.492  -0.077   0.019  1.00  0.00     0.251 C 
ATOM      6  H   UNL     1       2.833   0.943   1.711  1.00  0.00     0.163 HD
BRANCH   5   7
ATOM      7  C   UNL     1       3.108  -0.774  -1.128  1.00  0.00     0.039 A 
ATOM      8  C   UNL     1       4.147  -1.689  -0.931  1.00  0.00     0.014 A 
ATOM      9  C   UNL     1       2.649  -0.488  -2.416  1.00  0.00     0.014 A 
ATOM     10  C   UNL     1       4.808  -2.227  -2.031  1.00  0.00     0.010 A 
ATOM     11  C   UNL     1       3.283  -1.066  -3.518  1.00  0.00     0.010 A 
ATOM     12  C   UNL     1       4.387  -1.913  -3.333  1.00  0.00    -0.014 A 
BRANCH  12  13
ATOM     13  C   UNL     1       5.096  -2.491  -4.497  1.00  0.00     0.031 A 
ATOM     14  C   UNL     1       5.976  -1.634  -5.362  1.00  0.00     0.074 A 
ATOM     15  C   UNL     1       4.966  -3.806  -4.755  1.00  0.00     0.049 A 
ATOM     16  N   UNL     1       6.662  -1.972  -6.424  1.00  0.00    -0.248 NA
ATOM     17  C   UNL     1       6.109  -0.218  -4.986  1.00  0.00     0.031 C 
ATOM     18  C   UNL     1       4.162  -4.743  -3.967  1.00  0.00     0.029 A 
ATOM     19  N   UNL     1       5.520  -4.583  -5.739  1.00  0.00    -0.354 N 
ATOM     20  C   UNL     1       7.305  -0.816  -6.846  1.00  0.00     0.074 A 
ATOM     21  C   UNL     1       6.913   0.241  -5.937  1.00  0.00     0.031 C 
ATOM     22  C   UNL     1       4.302  -5.975  -4.479  1.00  0.00     0.029 A 
ATOM     23  C   UNL     1       5.167  -5.907  -5.654  1.00  0.00     0.049 A 
ATOM     24  H   UNL     1       6.113  -4.226  -6.439  1.00  0.00     0.167 HD
ATOM     25  C   UNL     1       8.149  -0.652  -7.891  1.00  0.00     0.031 A 
ATOM     26  C   UNL     1       5.493  -6.952  -6.437  1.00  0.00     0.031 A 
ATOM     27  C   UNL     1       8.531  -1.701  -8.799  1.00  0.00     0.049 A 
ATOM     28  C   UNL     1       6.389  -6.735  -7.620  1.00  0.00     0.074 A 
ATOM     29  C   UNL     1       9.367  -1.623  -9.900  1.00  0.00     0.029 A 
ATOM     30  N   UNL     1       8.110  -3.018  -8.709  1.00  0.00    -0.354 N 
ATOM     31  N   UNL     1       6.957  -5.625  -8.024  1.00  0.00    -0.248 NA
ATOM     32  C   UNL     1       6.685  -7.908  -8.453  1.00  0.00     0.031 C 
ATOM     33  C   UNL     1       9.429  -2.889 -10.493  1.00  0.00     0.029 A 
ATOM     34  C   UNL     1       8.662  -3.762  -9.738  1.00  0.00     0.049 A 
ATOM     35  H   UNL     1       7.506  -3.372  -8.017  1.00  0.00     0.167 HD
ATOM     36  C   UNL     1       7.689  -5.967  -9.154  1.00  0.00     0.074 A 
ATOM     37  C   UNL     1       7.497  -7.388  -9.365  1.00  0.00     0.031 C 
ATOM     38  C   UNL     1       8.454  -5.172  -9.941  1.00  0.00     0.031 A 
BRANCH  25  39
ATOM     39  C   UNL     1       8.713   0.722  -8.123  1.00  0.00    -0.014 A 
ATOM     40  C   UNL     1       9.775   1.204  -7.337  1.00  0.00     0.010 A 
ATOM     41  C   UNL     1       8.222   1.513  -9.177  1.00  0.00     0.010 A 
ATOM     42  C   UNL     1      10.325   2.463  -7.591  1.00  0.00     0.020 A 
ATOM     43  C   UNL     1       8.780   2.767  -9.443  1.00  0.00     0.020 A 
ATOM     44  C   UNL     1       9.824   3.236  -8.643  1.00  0.00     0.054 A 
BRANCH  44  45
ATOM     45  S   UNL     1      10.573   4.859  -8.957  1.00  0.00     0.124 S 
ATOM     46  O   UNL     1      10.252   5.584  -7.729  1.00  0.00    -0.237 OA
ATOM     47  O   UNL     1      11.983   4.526  -9.138  1.00  0.00    -0.237 OA
ATOM     48  O   UNL     1       9.886   5.335 -10.155  1.00  0.00    -0.744 OA
ENDBRANCH  44  45
ENDBRANCH  25  39
BRANCH  26  49
ATOM     49  C   UNL     1       4.964  -8.297  -6.101  1.00  0.00    -0.014 A 
ATOM     50  C   UNL     1       5.785  -9.240  -5.462  1.00  0.00     0.010 A 
ATOM     51  C   UNL     1       3.613  -8.607  -6.342  1.00  0.00     0.010 A 
ATOM     52  C   UNL     1       5.260 -10.468  -5.053  1.00  0.00     0.020 A 
ATOM     53  C   UNL     1       3.080  -9.827  -5.919  1.00  0.00     0.020 A 
ATOM     54  C   UNL     1       3.907 -10.748  -5.272  1.00  0.00     0.054 A 
BRANCH  54  55
ATOM     55  S   UNL     1       3.234 -12.312  -4.648  1.00  0.00     0.124 S 
ATOM     56  O   UNL     1       3.963 -13.298  -5.440  1.00  0.00    -0.237 OA
ATOM     57  O   UNL     1       3.584 -12.255  -3.231  1.00  0.00    -0.237 OA
ATOM     58  O   UNL     1       1.805 -12.212  -4.935  1.00  0.00    -0.744 OA
ENDBRANCH  54  55
ENDBRANCH  26  49
BRANCH  38  59
ATOM     59  C   UNL     1       9.158  -5.819 -11.099  1.00  0.00    -0.014 A 
ATOM     60  C   UNL     1       8.469  -6.117 -12.287  1.00  0.00     0.010 A 
ATOM     61  C   UNL     1      10.541  -6.066 -11.021  1.00  0.00     0.010 A 
ATOM     62  C   UNL     1       9.152  -6.664 -13.377  1.00  0.00     0.020 A 
ATOM     63  C   UNL     1      11.229  -6.598 -12.114  1.00  0.00     0.020 A 
ATOM     64  C   UNL     1      10.528  -6.898 -13.284  1.00  0.00     0.054 A 
BRANCH  64  65
ATOM     65  S   UNL     1      11.391  -7.571 -14.730  1.00  0.00     0.124 S 
ATOM     66  O   UNL     1      10.792  -8.897 -14.855  1.00  0.00    -0.237 OA
ATOM     67  O   UNL     1      11.037  -6.619 -15.780  1.00  0.00    -0.237 OA
ATOM     68  O   UNL     1      12.797  -7.560 -14.333  1.00  0.00    -0.744 OA
ENDBRANCH  64  65
ENDBRANCH  38  59
ENDBRANCH  12  13
ENDBRANCH   5   7
ENDBRANCH   2   3
ENDBRANCH   1   2
BRANCH   1  69
ATOM     69  C   UNL     1       4.609   3.009   2.216  1.00  0.00     0.023 C 
BRANCH  69  70
ATOM     70  C   UNL     1       4.915   2.311   3.538  1.00  0.00     0.116 C 
BRANCH  70  71
ATOM     71  N   UNL     1       6.338   2.122   3.767  1.00  0.00    -0.352 N 
ATOM     72  C   UNL     1       7.098   2.521   4.838  1.00  0.00     0.251 C 
ATOM     73  H   UNL     1       6.823   1.643   3.057  1.00  0.00     0.163 HD
ATOM     74  O   UNL     1       8.311   2.356   4.856  1.00  0.00    -0.269 OA
BRANCH  72  75
ATOM     75  C   UNL     1       6.441   3.212   5.960  1.00  0.00     0.041 A 
ATOM     76  C   UNL     1       5.436   2.597   6.700  1.00  0.00     0.036 A 
ATOM     77  C   UNL     1       6.827   4.520   6.242  1.00  0.00     0.020 A 
ATOM     78  C   UNL     1       4.749   3.349   7.652  1.00  0.00     0.065 A 
ATOM     79  C   UNL     1       6.142   5.267   7.216  1.00  0.00    -0.015 A 
ATOM     80  Cl  UNL     1       3.457   2.578   8.512  1.00  0.00    -0.082 Cl
ATOM     81  C   UNL     1       5.057   4.709   7.890  1.00  0.00     0.057 A 
ATOM     82  C   UNL     1       6.577   6.671   7.491  1.00  0.00     0.049 C 
ATOM     83  N   UNL     1       4.348   5.449   8.820  1.00  0.00    -0.376 N 
ATOM     84  C   UNL     1       6.254   7.621   6.370  1.00  0.00    -0.023 C 
ATOM     85  C   UNL     1       5.952   7.360   8.730  1.00  0.00     0.031 C 
ATOM     86  C   UNL     1       4.500   6.890   9.023  1.00  0.00     0.114 C 
ATOM     87  H   UNL     1       3.697   4.973   9.384  1.00  0.00     0.161 HD
ATOM     88  C   UNL     1       5.980   8.838   6.840  1.00  0.00    -0.030 C 
ATOM     89  C   UNL     1       6.053   8.854   8.330  1.00  0.00     0.034 C 
BRANCH  86  90
ATOM     90  C   UNL     1       3.981   7.249  10.441  1.00  0.00    -0.025 A 
ATOM     91  C   UNL     1       3.498   6.269  11.335  1.00  0.00     0.007 A 
ATOM     92  C   UNL     1       3.868   8.587  10.862  1.00  0.00     0.007 A 
ATOM     93  C   UNL     1       2.827   6.615  12.513  1.00  0.00     0.022 A 
ATOM     94  C   UNL     1       3.263   8.941  12.072  1.00  0.00     0.022 A 
ATOM     95  C   UNL     1       2.676   7.957  12.855  1.00  0.00     0.082 A 
BRANCH  95  96
ATOM     96  S   UNL     1       1.551   8.404  14.160  1.00  0.00     0.243 S 
ATOM     97  O   UNL     1       0.715   7.241  14.404  1.00  0.00    -0.207 OA
ATOM     98  O   UNL     1       2.322   9.013  15.215  1.00  0.00    -0.207 OA
BRANCH  96  99
ATOM     99  N   UNL     1       0.532   9.568  13.474  1.00  0.00    -0.193 NA
ATOM    100  C   UNL     1       0.747  10.999  13.792  1.00  0.00     0.131 C 
ATOM    101  C   UNL     1       0.017   9.351  12.094  1.00  0.00     0.131 C 
ATOM    102  C   UNL     1      -0.548  11.768  13.494  1.00  0.00     0.177 C 
ATOM    103  C   UNL     1      -1.212  10.226  11.839  1.00  0.00     0.177 C 
ATOM    104  O   UNL     1      -0.936  11.609  12.120  1.00  0.00    -0.379 OA
ENDBRANCH  96  99
ENDBRANCH  95  96
ENDBRANCH  86  90
ENDBRANCH  72  75
ENDBRANCH  70  71
ENDBRANCH  69  70
ENDBRANCH   1  69
TORSDOF 17
