REMARK SMILES Cc1c(NC(=O)[C@@H]2CC=CC[C@@H]2C(=O)NCCCCNC(=O)c2ccc(-c3c4nc(c(-c5ccc(S(=O)(=O)[O-])cc5)c5ccc([nH]5)c(-c5ccc(S(=O)(=O)[O-])cc5)c5nc(c(-c6ccc(S(=O)(=O)[O-])cc6)c6ccc3[nH]6)C=C5)C=C4)cc2)cccc1C(=O)N1CCOCC1
REMARK SMILES IDX 17 1 16 2 15 3 13 4 14 5 12 7 7 8 8 9 9 10 11 11 10 12 5 13
REMARK SMILES IDX 4 14 6 16 3 17 1 18 2 19 86 20 83 21 85 22 84 23 87 24 88 25
REMARK SMILES IDX 89 26 90 27 94 28 91 29 93 30 92 31 18 32 19 33 20 34 21 35
REMARK SMILES IDX 22 37 23 38 24 39 82 40 25 41 81 42 26 43 27 44 28 45 75 46
REMARK SMILES IDX 29 47 80 48 74 49 76 50 30 51 79 52 73 53 72 54 31 56 61 57
REMARK SMILES IDX 42 58 60 59 43 60 46 61 59 62 77 63 44 64 45 65 58 67 78 68
REMARK SMILES IDX 47 69 32 70 33 71 41 72 34 73 40 74 35 75 36 76 37 77 38 78
REMARK SMILES IDX 39 79 62 80 63 81 71 82 64 83 70 84 65 85 66 86 67 87 68 88
REMARK SMILES IDX 69 89 48 90 49 91 57 92 50 93 56 94 51 95 52 96 53 97 54 98
REMARK SMILES IDX 55 99
REMARK H PARENT 15 6 4 15 20 36 76 55 46 66
REMARK Flexibility Score: inf
ROOT
ATOM      1  C   UNL     1      -3.940  -4.069   2.786  1.00  0.00     0.023 C 
ENDROOT
BRANCH   1   2
ATOM      2  C   UNL     1      -3.584  -4.127   1.248  1.00  0.00     0.116 C 
BRANCH   2   3
ATOM      3  N   UNL     1      -3.895  -2.951   0.409  1.00  0.00    -0.356 N 
ATOM      4  C   UNL     1      -3.306  -2.383  -0.684  1.00  0.00     0.224 C 
ATOM      5  O   UNL     1      -4.064  -1.765  -1.453  1.00  0.00    -0.275 OA
ATOM      6  H   UNL     1      -4.704  -2.472   0.703  1.00  0.00     0.163 HD
BRANCH   4   7
ATOM      7  C   UNL     1      -1.793  -2.313  -1.011  1.00  0.00     0.095 C 
ATOM      8  C   UNL     1      -0.748  -3.121  -0.218  1.00  0.00     0.095 C 
ATOM      9  C   UNL     1      -0.759  -2.663   1.250  1.00  0.00     0.041 C 
ATOM     10  C   UNL     1      -0.644  -1.175   1.377  1.00  0.00    -0.030 C 
ATOM     11  C   UNL     1      -1.354  -0.824  -0.996  1.00  0.00     0.041 C 
ATOM     12  C   UNL     1      -0.904  -0.343   0.358  1.00  0.00    -0.030 C 
BRANCH   8  13
ATOM     13  C   UNL     1      -0.838  -4.597  -0.578  1.00  0.00     0.228 C 
ATOM     14  N   UNL     1      -0.073  -5.581  -0.049  1.00  0.00    -0.326 N 
ATOM     15  H   UNL     1      -0.381  -6.469  -0.345  1.00  0.00     0.169 HD
ATOM     16  O   UNL     1      -1.632  -4.989  -1.443  1.00  0.00    -0.274 OA
BRANCH  14  17
ATOM     17  C   UNL     1       1.038  -5.688   0.805  1.00  0.00     0.044 A 
ATOM     18  C   UNL     1       0.195  -7.980   1.350  1.00  0.00     0.047 C 
ATOM     19  C   UNL     1       1.290  -6.961   1.401  1.00  0.00    -0.015 A 
ATOM     20  C   UNL     1       2.458  -7.191   2.152  1.00  0.00     0.045 A 
ATOM     21  C   UNL     1       1.897  -4.632   1.081  1.00  0.00     0.026 A 
ATOM     22  C   UNL     1       3.258  -6.080   2.462  1.00  0.00     0.014 A 
ATOM     23  C   UNL     1       2.965  -4.812   1.956  1.00  0.00     0.003 A 
BRANCH  20  24
ATOM     24  C   UNL     1       2.799  -8.479   2.849  1.00  0.00     0.254 C 
ATOM     25  O   UNL     1       3.393  -8.396   3.927  1.00  0.00    -0.269 OA
ATOM     26  N   UNL     1       2.385  -9.718   2.361  1.00  0.00    -0.334 N 
ATOM     27  C   UNL     1       2.427 -10.180   0.964  1.00  0.00     0.148 C 
ATOM     28  C   UNL     1       2.158 -10.788   3.333  1.00  0.00     0.148 C 
ATOM     29  C   UNL     1       1.285 -11.168   0.636  1.00  0.00     0.181 C 
ATOM     30  C   UNL     1       0.938 -11.618   2.929  1.00  0.00     0.181 C 
ATOM     31  O   UNL     1       1.149 -12.195   1.632  1.00  0.00    -0.378 OA
ENDBRANCH  20  24
ENDBRANCH  14  17
ENDBRANCH   8  13
ENDBRANCH   4   7
ENDBRANCH   2   3
ENDBRANCH   1   2
BRANCH   1  32
ATOM     32  C   UNL     1      -5.069  -4.863   3.651  1.00  0.00     0.023 C 
BRANCH  32  33
ATOM     33  C   UNL     1      -4.935  -6.412   4.057  1.00  0.00     0.116 C 
BRANCH  33  34
ATOM     34  N   UNL     1      -6.072  -7.209   4.796  1.00  0.00    -0.352 N 
ATOM     35  C   UNL     1      -6.731  -8.492   4.704  1.00  0.00     0.251 C 
ATOM     36  H   UNL     1      -6.444  -6.679   5.537  1.00  0.00     0.163 HD
ATOM     37  O   UNL     1      -6.652  -9.178   5.739  1.00  0.00    -0.269 OA
BRANCH  35  38
ATOM     38  C   UNL     1      -7.572  -9.165   3.573  1.00  0.00     0.039 A 
ATOM     39  C   UNL     1      -7.314 -10.504   3.173  1.00  0.00     0.014 A 
ATOM     40  C   UNL     1      -8.522  -8.524   2.791  1.00  0.00     0.014 A 
ATOM     41  C   UNL     1      -7.527 -10.917   1.809  1.00  0.00     0.010 A 
ATOM     42  C   UNL     1      -8.718  -8.921   1.433  1.00  0.00     0.010 A 
ATOM     43  C   UNL     1      -8.061 -10.024   0.868  1.00  0.00    -0.014 A 
BRANCH  43  44
ATOM     44  C   UNL     1      -7.806 -10.109  -0.624  1.00  0.00     0.031 A 
ATOM     45  C   UNL     1      -8.836 -10.470  -1.591  1.00  0.00     0.074 A 
ATOM     46  C   UNL     1      -6.695  -9.709  -1.304  1.00  0.00     0.049 A 
ATOM     47  N   UNL     1      -8.695 -11.361  -2.521  1.00  0.00    -0.248 NA
ATOM     48  C   UNL     1     -10.049  -9.679  -1.675  1.00  0.00     0.031 C 
ATOM     49  C   UNL     1      -6.334  -9.620  -2.732  1.00  0.00     0.029 A 
ATOM     50  N   UNL     1      -5.546  -9.211  -0.760  1.00  0.00    -0.354 N 
ATOM     51  C   UNL     1      -9.603 -11.010  -3.497  1.00  0.00     0.074 A 
ATOM     52  C   UNL     1     -10.530 -10.098  -2.846  1.00  0.00     0.031 C 
ATOM     53  C   UNL     1      -4.990  -9.530  -2.858  1.00  0.00     0.029 A 
ATOM     54  C   UNL     1      -4.434  -9.543  -1.528  1.00  0.00     0.049 A 
ATOM     55  H   UNL     1      -5.509  -8.684   0.071  1.00  0.00     0.167 HD
ATOM     56  C   UNL     1      -9.372 -11.245  -4.826  1.00  0.00     0.031 A 
ATOM     57  C   UNL     1      -3.491 -10.349  -0.951  1.00  0.00     0.031 A 
ATOM     58  C   UNL     1      -7.986 -11.668  -5.106  1.00  0.00     0.049 A 
ATOM     59  C   UNL     1      -3.567 -11.720  -1.541  1.00  0.00     0.074 A 
ATOM     60  C   UNL     1      -6.941 -11.056  -5.790  1.00  0.00     0.029 A 
ATOM     61  N   UNL     1      -7.404 -12.728  -4.408  1.00  0.00    -0.354 N 
ATOM     62  N   UNL     1      -4.494 -12.006  -2.405  1.00  0.00    -0.248 NA
ATOM     63  C   UNL     1      -2.680 -12.855  -1.307  1.00  0.00     0.031 C 
ATOM     64  C   UNL     1      -5.724 -11.688  -5.413  1.00  0.00     0.029 A 
ATOM     65  C   UNL     1      -6.024 -12.712  -4.531  1.00  0.00     0.049 A 
ATOM     66  H   UNL     1      -7.910 -13.399  -3.895  1.00  0.00     0.167 HD
ATOM     67  C   UNL     1      -4.347 -13.257  -2.886  1.00  0.00     0.074 A 
ATOM     68  C   UNL     1      -3.196 -13.769  -2.159  1.00  0.00     0.031 C 
ATOM     69  C   UNL     1      -5.193 -13.712  -3.852  1.00  0.00     0.031 A 
BRANCH  56  70
ATOM     70  C   UNL     1     -10.341 -10.759  -5.898  1.00  0.00    -0.014 A 
ATOM     71  C   UNL     1      -9.938 -10.565  -7.234  1.00  0.00     0.010 A 
ATOM     72  C   UNL     1     -11.707 -10.520  -5.634  1.00  0.00     0.010 A 
ATOM     73  C   UNL     1     -10.820 -10.074  -8.215  1.00  0.00     0.020 A 
ATOM     74  C   UNL     1     -12.579  -9.964  -6.578  1.00  0.00     0.020 A 
ATOM     75  C   UNL     1     -12.133  -9.754  -7.874  1.00  0.00     0.054 A 
BRANCH  75  76
ATOM     76  S   UNL     1     -13.271  -9.137  -9.142  1.00  0.00     0.124 S 
ATOM     77  O   UNL     1     -12.563  -7.976  -9.674  1.00  0.00    -0.237 OA
ATOM     78  O   UNL     1     -13.376 -10.280 -10.046  1.00  0.00    -0.237 OA
ATOM     79  O   UNL     1     -14.490  -8.827  -8.397  1.00  0.00    -0.744 OA
ENDBRANCH  75  76
ENDBRANCH  56  70
BRANCH  57  80
ATOM     80  C   UNL     1      -3.150  -9.873   0.459  1.00  0.00    -0.014 A 
ATOM     81  C   UNL     1      -2.665  -8.548   0.379  1.00  0.00     0.010 A 
ATOM     82  C   UNL     1      -4.086 -10.090   1.460  1.00  0.00     0.010 A 
ATOM     83  C   UNL     1      -3.485  -7.445   0.711  1.00  0.00     0.020 A 
ATOM     84  C   UNL     1      -4.885  -8.970   1.808  1.00  0.00     0.020 A 
ATOM     85  C   UNL     1      -4.713  -7.680   1.280  1.00  0.00     0.054 A 
BRANCH  85  86
ATOM     86  S   UNL     1      -6.296  -6.536   1.020  1.00  0.00     0.124 S 
ATOM     87  O   UNL     1      -5.859  -5.191   0.711  1.00  0.00    -0.237 OA
ATOM     88  O   UNL     1      -6.957  -7.152  -0.125  1.00  0.00    -0.237 OA
ATOM     89  O   UNL     1      -6.984  -6.587   2.276  1.00  0.00    -0.744 OA
ENDBRANCH  85  86
ENDBRANCH  57  80
BRANCH  69  90
ATOM     90  C   UNL     1      -5.241 -15.121  -4.341  1.00  0.00    -0.014 A 
ATOM     91  C   UNL     1      -4.827 -16.220  -3.578  1.00  0.00     0.010 A 
ATOM     92  C   UNL     1      -5.848 -15.375  -5.591  1.00  0.00     0.010 A 
ATOM     93  C   UNL     1      -4.947 -17.519  -4.077  1.00  0.00     0.020 A 
ATOM     94  C   UNL     1      -6.019 -16.668  -6.074  1.00  0.00     0.020 A 
ATOM     95  C   UNL     1      -5.537 -17.732  -5.324  1.00  0.00     0.054 A 
BRANCH  95  96
ATOM     96  S   UNL     1      -5.715 -19.420  -5.936  1.00  0.00     0.124 S 
ATOM     97  O   UNL     1      -4.382 -19.683  -6.473  1.00  0.00    -0.237 OA
ATOM     98  O   UNL     1      -6.062 -20.167  -4.729  1.00  0.00    -0.237 OA
ATOM     99  O   UNL     1      -6.782 -19.318  -6.928  1.00  0.00    -0.744 OA
ENDBRANCH  95  96
ENDBRANCH  69  90
ENDBRANCH  43  44
ENDBRANCH  35  38
ENDBRANCH  33  34
ENDBRANCH  32  33
ENDBRANCH   1  32
TORSDOF 17
