REMARK SMILES Cc1nccn1CCC[NH+]1CCC2(CC1)[C@@H](C(=O)NCCCCNC(=O)c1ccc(-c3c4nc(c(-c5ccc(S(=O)(=O)[O-])cc5)c5ccc([nH]5)c(-c5ccc(S(=O)(=O)[O-])cc5)c5nc(c(-c6ccc(S(=O)(=O)[O-])cc6)c6ccc3[nH]6)C=C5)C=C4)cc1)CC(=O)N2C
REMARK SMILES IDX 21 1 20 2 19 3 17 4 18 5 16 7 10 8 11 9 15 10 12 12 14 13
REMARK SMILES IDX 13 14 90 15 87 16 88 17 91 18 89 19 9 20 8 21 7 22 6 23 1 24
REMARK SMILES IDX 2 25 3 26 4 27 5 28 22 29 23 30 24 31 25 32 26 34 27 35
REMARK SMILES IDX 28 36 86 37 29 38 85 39 30 40 31 41 32 42 79 43 33 44 84 45
REMARK SMILES IDX 78 46 80 47 34 48 83 49 77 50 76 51 35 53 65 54 46 55 64 56
REMARK SMILES IDX 47 57 50 58 63 59 81 60 48 61 49 62 62 64 82 65 51 66 36 67
REMARK SMILES IDX 37 68 45 69 38 70 44 71 39 72 40 73 41 74 42 75 43 76 66 77
REMARK SMILES IDX 67 78 75 79 68 80 74 81 69 82 70 83 71 84 72 85 73 86 52 87
REMARK SMILES IDX 53 88 61 89 54 90 60 91 55 92 56 93 57 94 58 95 59 96
REMARK H PARENT 19 6 10 11 24 33 80 52 50 63
REMARK Flexibility Score: inf
ROOT
ATOM      1  C   UNL     1      -2.587   3.936   1.228  1.00  0.00     0.023 C 
ENDROOT
BRANCH   1   2
ATOM      2  C   UNL     1      -2.095   3.804   2.694  1.00  0.00     0.116 C 
BRANCH   2   3
ATOM      3  N   UNL     1      -0.876   3.027   2.937  1.00  0.00    -0.356 N 
ATOM      4  C   UNL     1       0.438   3.328   3.195  1.00  0.00     0.226 C 
ATOM      5  O   UNL     1       1.185   2.392   3.491  1.00  0.00    -0.275 OA
ATOM      6  H   UNL     1      -1.039   2.056   2.908  1.00  0.00     0.163 HD
BRANCH   4   7
ATOM      7  C   UNL     1       0.980   4.756   3.168  1.00  0.00     0.114 C 
ATOM      8  N   UNL     1       2.925   5.167  -0.835  1.00  0.00    -0.335 N 
ATOM      9  C   UNL     1       2.284   6.325  -0.204  1.00  0.00     0.264 C 
ATOM     10  C   UNL     1       3.604   4.308   0.120  1.00  0.00     0.264 C 
ATOM     11  H   UNL     1       3.750   5.438  -1.370  1.00  0.00     0.348 HD
ATOM     12  C   UNL     1       1.432   5.993   1.022  1.00  0.00     0.091 C 
ATOM     13  C   UNL     1       2.874   3.958   1.437  1.00  0.00     0.091 C 
ATOM     14  C   UNL     1       2.119   5.128   2.111  1.00  0.00     0.065 C 
ATOM     15  N   UNL     1       3.045   5.953   2.933  1.00  0.00    -0.339 N 
ATOM     16  C   UNL     1       1.605   5.028   4.544  1.00  0.00     0.116 C 
ATOM     17  C   UNL     1       2.749   5.952   4.287  1.00  0.00     0.223 C 
ATOM     18  C   UNL     1       4.369   6.394   2.531  1.00  0.00     0.147 C 
ATOM     19  O   UNL     1       3.368   6.548   5.155  1.00  0.00    -0.275 OA
BRANCH   8  20
ATOM     20  C   UNL     1       2.140   4.632  -1.946  1.00  0.00     0.264 C 
BRANCH  20  21
ATOM     21  C   UNL     1       2.466   3.329  -2.732  1.00  0.00     0.083 C 
BRANCH  21  22
ATOM     22  C   UNL     1       2.369   1.922  -2.102  1.00  0.00     0.129 C 
BRANCH  22  23
ATOM     23  N   UNL     1       1.106   1.547  -1.487  1.00  0.00    -0.335 N 
ATOM     24  C   UNL     1       1.462  -0.743  -0.439  1.00  0.00     0.087 C 
ATOM     25  C   UNL     1       1.018   0.664  -0.424  1.00  0.00     0.105 A 
ATOM     26  N   UNL     1       0.533   1.310   0.611  1.00  0.00    -0.242 NA
ATOM     27  C   UNL     1       0.141   2.500   0.090  1.00  0.00     0.131 A 
ATOM     28  C   UNL     1       0.108   2.454  -1.275  1.00  0.00     0.107 A 
ENDBRANCH  22  23
ENDBRANCH  21  22
ENDBRANCH  20  21
ENDBRANCH   8  20
ENDBRANCH   4   7
ENDBRANCH   2   3
ENDBRANCH   1   2
BRANCH   1  29
ATOM     29  C   UNL     1      -2.837   2.672   0.375  1.00  0.00     0.023 C 
BRANCH  29  30
ATOM     30  C   UNL     1      -4.033   1.812   0.682  1.00  0.00     0.116 C 
BRANCH  30  31
ATOM     31  N   UNL     1      -5.306   2.465   0.407  1.00  0.00    -0.352 N 
ATOM     32  C   UNL     1      -6.568   1.999   0.747  1.00  0.00     0.251 C 
ATOM     33  H   UNL     1      -5.267   3.326  -0.069  1.00  0.00     0.163 HD
ATOM     34  O   UNL     1      -7.555   2.337   0.119  1.00  0.00    -0.269 OA
BRANCH  32  35
ATOM     35  C   UNL     1      -6.667   1.082   1.900  1.00  0.00     0.039 A 
ATOM     36  C   UNL     1      -7.545  -0.003   1.930  1.00  0.00     0.014 A 
ATOM     37  C   UNL     1      -5.771   1.302   2.940  1.00  0.00     0.014 A 
ATOM     38  C   UNL     1      -7.455  -0.893   2.999  1.00  0.00     0.010 A 
ATOM     39  C   UNL     1      -5.499   0.289   3.809  1.00  0.00     0.010 A 
ATOM     40  C   UNL     1      -6.411  -0.742   3.927  1.00  0.00    -0.014 A 
BRANCH  40  41
ATOM     41  C   UNL     1      -6.168  -1.691   5.001  1.00  0.00     0.031 A 
ATOM     42  C   UNL     1      -5.992  -3.083   4.528  1.00  0.00     0.074 A 
ATOM     43  C   UNL     1      -5.898  -1.297   6.268  1.00  0.00     0.049 A 
ATOM     44  N   UNL     1      -6.862  -4.034   4.588  1.00  0.00    -0.248 NA
ATOM     45  C   UNL     1      -4.811  -3.407   3.708  1.00  0.00     0.031 C 
ATOM     46  C   UNL     1      -5.716   0.069   6.786  1.00  0.00     0.029 A 
ATOM     47  N   UNL     1      -5.604  -2.053   7.356  1.00  0.00    -0.354 N 
ATOM     48  C   UNL     1      -6.222  -5.153   4.074  1.00  0.00     0.074 A 
ATOM     49  C   UNL     1      -5.092  -4.657   3.330  1.00  0.00     0.031 C 
ATOM     50  C   UNL     1      -5.103   0.024   7.991  1.00  0.00     0.029 A 
ATOM     51  C   UNL     1      -5.017  -1.361   8.412  1.00  0.00     0.049 A 
ATOM     52  H   UNL     1      -5.793  -3.018   7.395  1.00  0.00     0.167 HD
ATOM     53  C   UNL     1      -6.489  -6.395   4.566  1.00  0.00     0.031 A 
ATOM     54  C   UNL     1      -4.477  -1.897   9.539  1.00  0.00     0.031 A 
ATOM     55  C   UNL     1      -7.653  -6.377   5.421  1.00  0.00     0.049 A 
ATOM     56  C   UNL     1      -5.053  -3.259   9.675  1.00  0.00     0.074 A 
ATOM     57  C   UNL     1      -8.975  -6.012   5.258  1.00  0.00     0.029 A 
ATOM     58  N   UNL     1      -7.415  -6.356   6.777  1.00  0.00    -0.354 N 
ATOM     59  N   UNL     1      -6.320  -3.477   9.892  1.00  0.00    -0.248 NA
ATOM     60  C   UNL     1      -4.325  -4.365   9.073  1.00  0.00     0.031 C 
ATOM     61  C   UNL     1      -9.321  -5.337   6.466  1.00  0.00     0.029 A 
ATOM     62  C   UNL     1      -8.235  -5.412   7.340  1.00  0.00     0.049 A 
ATOM     63  H   UNL     1      -6.769  -6.921   7.259  1.00  0.00     0.167 HD
ATOM     64  C   UNL     1      -6.645  -4.533   9.052  1.00  0.00     0.074 A 
ATOM     65  C   UNL     1      -5.357  -5.098   8.643  1.00  0.00     0.031 C 
ATOM     66  C   UNL     1      -7.905  -4.662   8.536  1.00  0.00     0.031 A 
BRANCH  53  67
ATOM     67  C   UNL     1      -5.468  -7.504   4.652  1.00  0.00    -0.014 A 
ATOM     68  C   UNL     1      -5.880  -8.754   5.157  1.00  0.00     0.010 A 
ATOM     69  C   UNL     1      -4.080  -7.293   4.522  1.00  0.00     0.010 A 
ATOM     70  C   UNL     1      -4.949  -9.711   5.578  1.00  0.00     0.020 A 
ATOM     71  C   UNL     1      -3.143  -8.257   4.898  1.00  0.00     0.020 A 
ATOM     72  C   UNL     1      -3.585  -9.449   5.454  1.00  0.00     0.054 A 
BRANCH  72  73
ATOM     73  S   UNL     1      -2.393 -10.658   6.075  1.00  0.00     0.124 S 
ATOM     74  O   UNL     1      -2.650 -10.624   7.511  1.00  0.00    -0.237 OA
ATOM     75  O   UNL     1      -2.806 -11.877   5.384  1.00  0.00    -0.237 OA
ATOM     76  O   UNL     1      -1.104 -10.115   5.653  1.00  0.00    -0.744 OA
ENDBRANCH  72  73
ENDBRANCH  53  67
BRANCH  54  77
ATOM     77  C   UNL     1      -3.260  -1.465  10.279  1.00  0.00    -0.014 A 
ATOM     78  C   UNL     1      -2.933  -2.027  11.530  1.00  0.00     0.010 A 
ATOM     79  C   UNL     1      -2.257  -0.727   9.617  1.00  0.00     0.010 A 
ATOM     80  C   UNL     1      -1.631  -1.925  12.056  1.00  0.00     0.020 A 
ATOM     81  C   UNL     1      -0.960  -0.617  10.138  1.00  0.00     0.020 A 
ATOM     82  C   UNL     1      -0.644  -1.241  11.342  1.00  0.00     0.054 A 
BRANCH  82  83
ATOM     83  S   UNL     1       1.082  -1.290  11.921  1.00  0.00     0.124 S 
ATOM     84  O   UNL     1       1.038  -0.439  13.106  1.00  0.00    -0.237 OA
ATOM     85  O   UNL     1       1.294  -2.713  12.173  1.00  0.00    -0.237 OA
ATOM     86  O   UNL     1       1.837  -0.746  10.794  1.00  0.00    -0.744 OA
ENDBRANCH  82  83
ENDBRANCH  54  77
BRANCH  66  87
ATOM     87  C   UNL     1      -9.018  -3.828   9.134  1.00  0.00    -0.014 A 
ATOM     88  C   UNL     1      -9.045  -2.419   9.158  1.00  0.00     0.010 A 
ATOM     89  C   UNL     1     -10.153  -4.523   9.585  1.00  0.00     0.010 A 
ATOM     90  C   UNL     1     -10.163  -1.732   9.662  1.00  0.00     0.020 A 
ATOM     91  C   UNL     1     -11.274  -3.848  10.067  1.00  0.00     0.020 A 
ATOM     92  C   UNL     1     -11.269  -2.455  10.121  1.00  0.00     0.054 A 
BRANCH  92  93
ATOM     93  S   UNL     1     -12.712  -1.575  10.782  1.00  0.00     0.124 S 
ATOM     94  O   UNL     1     -12.185  -0.975  12.005  1.00  0.00    -0.237 OA
ATOM     95  O   UNL     1     -13.040  -0.636   9.712  1.00  0.00    -0.237 OA
ATOM     96  O   UNL     1     -13.700  -2.633  10.991  1.00  0.00    -0.744 OA
ENDBRANCH  92  93
ENDBRANCH  66  87
ENDBRANCH  40  41
ENDBRANCH  32  35
ENDBRANCH  30  31
ENDBRANCH  29  30
ENDBRANCH   1  29
TORSDOF 18
