REMARK SMILES CC[C@H](C(=O)NCCCCNC(=O)c1ccc(-c2c3nc(c(-c4ccc(S(=O)(=O)[O-])cc4)c4ccc([nH]4)c(-c4ccc(S(=O)(=O)[O-])cc4)c4nc(c(-c5ccc(S(=O)(=O)[O-])cc5)c5ccc2[nH]5)C=C4)C=C3)cc1)[N@@H+](C)[C@H]1CC[C@@H]([NH2+]C)CC1
REMARK SMILES IDX 8 1 7 2 6 3 4 4 5 5 3 7 2 8 1 9 74 10 75 11 76 13 83 14
REMARK SMILES IDX 77 15 82 16 78 17 79 18 80 19 81 20 9 23 10 24 11 25 12 26
REMARK SMILES IDX 13 28 14 29 15 30 73 31 16 32 72 33 17 34 18 35 19 36 66 37
REMARK SMILES IDX 20 38 71 39 65 40 67 41 21 42 70 43 64 44 63 45 22 47 52 48
REMARK SMILES IDX 33 49 51 50 34 51 37 52 50 53 68 54 35 55 36 56 49 58 69 59
REMARK SMILES IDX 38 60 23 61 24 62 32 63 25 64 31 65 26 66 27 67 28 68 29 69
REMARK SMILES IDX 30 70 53 71 54 72 62 73 55 74 61 75 56 76 57 77 58 78 59 79
REMARK SMILES IDX 60 80 39 81 40 82 48 83 41 84 47 85 42 86 43 87 44 88 45 89
REMARK SMILES IDX 46 90
REMARK H PARENT 6 6 74 12 80 21 80 22 11 27 67 46 37 57
REMARK Flexibility Score: inf
ROOT
ATOM      1  C   UNL     1       3.895   0.050   0.699  1.00  0.00     0.023 C 
ENDROOT
BRANCH   1   2
ATOM      2  C   UNL     1       2.776  -0.216  -0.306  1.00  0.00     0.116 C 
BRANCH   2   3
ATOM      3  N   UNL     1       1.551   0.480   0.023  1.00  0.00    -0.351 N 
ATOM      4  C   UNL     1       0.694   1.206  -0.753  1.00  0.00     0.278 C 
ATOM      5  O   UNL     1      -0.223   1.755  -0.136  1.00  0.00    -0.268 OA
ATOM      6  H   UNL     1       1.290   0.419   0.971  1.00  0.00     0.163 HD
BRANCH   4   7
ATOM      7  C   UNL     1       0.931   1.341  -2.290  1.00  0.00     0.273 C 
BRANCH   7   8
ATOM      8  C   UNL     1       0.999   0.009  -3.079  1.00  0.00     0.072 C 
ATOM      9  C   UNL     1      -0.177  -0.945  -2.991  1.00  0.00     0.011 C 
ENDBRANCH   7   8
BRANCH   7  10
ATOM     10  N   UNL     1       0.176   2.446  -2.929  1.00  0.00    -0.325 N 
ATOM     11  C   UNL     1       0.721   2.889  -4.205  1.00  0.00     0.333 C 
ATOM     12  H   UNL     1       0.397   3.065  -2.149  1.00  0.00     0.348 HD
BRANCH  10  13
ATOM     13  C   UNL     1      -1.271   2.682  -2.794  1.00  0.00     0.184 C 
ATOM     14  C   UNL     1      -2.179   1.505  -2.395  1.00  0.00     0.071 C 
ATOM     15  C   UNL     1      -1.462   3.966  -1.951  1.00  0.00     0.071 C 
ATOM     16  C   UNL     1      -3.596   1.911  -2.002  1.00  0.00     0.071 C 
ATOM     17  C   UNL     1      -2.919   4.254  -1.583  1.00  0.00     0.071 C 
ATOM     18  C   UNL     1      -3.628   3.039  -0.967  1.00  0.00     0.182 C 
BRANCH  18  19
ATOM     19  N   UNL     1      -3.011   2.724   0.326  1.00  0.00    -0.346 N 
ATOM     20  C   UNL     1      -3.592   1.577   1.003  1.00  0.00     0.331 C 
ATOM     21  H   UNL     1      -3.110   3.538   0.933  1.00  0.00     0.346 HD
ATOM     22  H   UNL     1      -2.038   2.487   0.134  1.00  0.00     0.346 HD
ENDBRANCH  18  19
ENDBRANCH  10  13
ENDBRANCH   7  10
ENDBRANCH   4   7
ENDBRANCH   2   3
ENDBRANCH   1   2
BRANCH   1  23
ATOM     23  C   UNL     1       3.572  -0.265   2.159  1.00  0.00     0.023 C 
BRANCH  23  24
ATOM     24  C   UNL     1       3.039  -1.668   2.426  1.00  0.00     0.116 C 
BRANCH  24  25
ATOM     25  N   UNL     1       3.999  -2.710   2.093  1.00  0.00    -0.352 N 
ATOM     26  C   UNL     1       4.489  -3.721   2.891  1.00  0.00     0.251 C 
ATOM     27  H   UNL     1       4.346  -2.690   1.172  1.00  0.00     0.163 HD
ATOM     28  O   UNL     1       5.400  -4.435   2.495  1.00  0.00    -0.269 OA
BRANCH  26  29
ATOM     29  C   UNL     1       3.922  -3.910   4.244  1.00  0.00     0.039 A 
ATOM     30  C   UNL     1       4.783  -3.974   5.342  1.00  0.00     0.014 A 
ATOM     31  C   UNL     1       2.539  -3.978   4.424  1.00  0.00     0.014 A 
ATOM     32  C   UNL     1       4.252  -4.022   6.635  1.00  0.00     0.010 A 
ATOM     33  C   UNL     1       2.013  -3.957   5.711  1.00  0.00     0.010 A 
ATOM     34  C   UNL     1       2.863  -3.972   6.830  1.00  0.00    -0.014 A 
BRANCH  34  35
ATOM     35  C   UNL     1       2.251  -3.945   8.183  1.00  0.00     0.031 A 
ATOM     36  C   UNL     1       1.348  -5.070   8.607  1.00  0.00     0.074 A 
ATOM     37  C   UNL     1       2.410  -2.868   8.979  1.00  0.00     0.049 A 
ATOM     38  N   UNL     1       0.558  -5.151   9.645  1.00  0.00    -0.248 NA
ATOM     39  C   UNL     1       1.304  -6.247   7.723  1.00  0.00     0.031 C 
ATOM     40  C   UNL     1       3.245  -1.703   8.679  1.00  0.00     0.029 A 
ATOM     41  N   UNL     1       1.851  -2.569  10.197  1.00  0.00    -0.354 N 
ATOM     42  C   UNL     1      -0.105  -6.365   9.520  1.00  0.00     0.074 A 
ATOM     43  C   UNL     1       0.351  -6.973   8.289  1.00  0.00     0.031 C 
ATOM     44  C   UNL     1       3.148  -0.821   9.688  1.00  0.00     0.029 A 
ATOM     45  C   UNL     1       2.207  -1.331  10.680  1.00  0.00     0.049 A 
ATOM     46  H   UNL     1       1.250  -3.182  10.680  1.00  0.00     0.167 HD
ATOM     47  C   UNL     1      -1.007  -6.928  10.358  1.00  0.00     0.031 A 
ATOM     48  C   UNL     1       1.804  -0.670  11.784  1.00  0.00     0.031 A 
ATOM     49  C   UNL     1      -1.436  -6.333  11.594  1.00  0.00     0.049 A 
ATOM     50  C   UNL     1       0.801  -1.314  12.702  1.00  0.00     0.074 A 
ATOM     51  C   UNL     1      -2.310  -6.845  12.537  1.00  0.00     0.029 A 
ATOM     52  N   UNL     1      -1.017  -5.098  12.063  1.00  0.00    -0.354 N 
ATOM     53  N   UNL     1       0.207  -2.478  12.583  1.00  0.00    -0.248 NA
ATOM     54  C   UNL     1       0.415  -0.561  13.905  1.00  0.00     0.031 C 
ATOM     55  C   UNL     1      -2.446  -5.903  13.561  1.00  0.00     0.029 A 
ATOM     56  C   UNL     1      -1.619  -4.827  13.279  1.00  0.00     0.049 A 
ATOM     57  H   UNL     1      -0.384  -4.502  11.601  1.00  0.00     0.167 HD
ATOM     58  C   UNL     1      -0.593  -2.611  13.713  1.00  0.00     0.074 A 
ATOM     59  C   UNL     1      -0.410  -1.411  14.503  1.00  0.00     0.031 C 
ATOM     60  C   UNL     1      -1.402  -3.639  14.065  1.00  0.00     0.031 A 
BRANCH  47  61
ATOM     61  C   UNL     1      -1.595  -8.254   9.958  1.00  0.00    -0.014 A 
ATOM     62  C   UNL     1      -0.821  -9.428   9.978  1.00  0.00     0.010 A 
ATOM     63  C   UNL     1      -2.949  -8.332   9.582  1.00  0.00     0.010 A 
ATOM     64  C   UNL     1      -1.377 -10.648   9.584  1.00  0.00     0.020 A 
ATOM     65  C   UNL     1      -3.516  -9.555   9.215  1.00  0.00     0.020 A 
ATOM     66  C   UNL     1      -2.719 -10.702   9.199  1.00  0.00     0.054 A 
BRANCH  66  67
ATOM     67  S   UNL     1      -3.418 -12.300   8.702  1.00  0.00     0.124 S 
ATOM     68  O   UNL     1      -2.845 -12.476   7.370  1.00  0.00    -0.237 OA
ATOM     69  O   UNL     1      -2.910 -13.207   9.728  1.00  0.00    -0.237 OA
ATOM     70  O   UNL     1      -4.861 -12.073   8.735  1.00  0.00    -0.744 OA
ENDBRANCH  66  67
ENDBRANCH  47  61
BRANCH  48  71
ATOM     71  C   UNL     1       2.358   0.678  12.088  1.00  0.00    -0.014 A 
ATOM     72  C   UNL     1       3.269   0.849  13.145  1.00  0.00     0.010 A 
ATOM     73  C   UNL     1       1.988   1.795  11.316  1.00  0.00     0.010 A 
ATOM     74  C   UNL     1       3.789   2.113  13.436  1.00  0.00     0.020 A 
ATOM     75  C   UNL     1       2.526   3.058  11.589  1.00  0.00     0.020 A 
ATOM     76  C   UNL     1       3.414   3.210  12.655  1.00  0.00     0.054 A 
BRANCH  76  77
ATOM     77  S   UNL     1       4.142   4.832  13.019  1.00  0.00     0.124 S 
ATOM     78  O   UNL     1       3.416   5.228  14.221  1.00  0.00    -0.237 OA
ATOM     79  O   UNL     1       5.554   4.510  13.210  1.00  0.00    -0.237 OA
ATOM     80  O   UNL     1       3.847   5.615  11.821  1.00  0.00    -0.744 OA
ENDBRANCH  76  77
ENDBRANCH  48  71
BRANCH  60  81
ATOM     81  C   UNL     1      -2.110  -3.558  15.390  1.00  0.00    -0.014 A 
ATOM     82  C   UNL     1      -3.250  -2.756  15.560  1.00  0.00     0.010 A 
ATOM     83  C   UNL     1      -1.690  -4.394  16.442  1.00  0.00     0.010 A 
ATOM     84  C   UNL     1      -3.961  -2.792  16.763  1.00  0.00     0.020 A 
ATOM     85  C   UNL     1      -2.410  -4.447  17.637  1.00  0.00     0.020 A 
ATOM     86  C   UNL     1      -3.542  -3.644  17.791  1.00  0.00     0.054 A 
BRANCH  86  87
ATOM     87  S   UNL     1      -4.538  -3.747  19.303  1.00  0.00     0.124 S 
ATOM     88  O   UNL     1      -4.202  -2.496  19.976  1.00  0.00    -0.237 OA
ATOM     89  O   UNL     1      -5.901  -3.836  18.785  1.00  0.00    -0.237 OA
ATOM     90  O   UNL     1      -4.049  -4.958  19.958  1.00  0.00    -0.744 OA
ENDBRANCH  86  87
ENDBRANCH  60  81
ENDBRANCH  34  35
ENDBRANCH  26  29
ENDBRANCH  24  25
ENDBRANCH  23  24
ENDBRANCH   1  23
TORSDOF 18
