REMARK SMILES C[C@H]1[C@@H](C(=O)NCCCCNC(=O)c2ccc(-c3c4nc(c(-c5ccc(S(=O)(=O)[O-])cc5)c5ccc([nH]5)c(-c5ccc(S(=O)(=O)[O-])cc5)c5nc(c(-c6ccc(S(=O)(=O)[O-])cc6)c6ccc3[nH]6)C=C5)C=C4)cc2)CCN1C(=O)N1CCn2cnnc2C1
REMARK SMILES IDX 9 1 8 2 7 3 6 4 4 5 5 6 3 8 1 9 2 10 76 11 74 12 75 13 77 14
REMARK SMILES IDX 78 15 79 16 80 17 87 18 81 19 86 20 82 21 85 22 83 23 84 24
REMARK SMILES IDX 10 25 11 26 12 27 13 29 14 30 15 31 73 32 16 33 72 34 17 35
REMARK SMILES IDX 18 36 19 37 66 38 20 39 71 40 65 41 67 42 21 43 70 44 64 45
REMARK SMILES IDX 63 46 22 48 52 49 33 50 51 51 34 52 37 53 50 54 68 55 35 56
REMARK SMILES IDX 36 57 49 59 69 60 38 61 23 62 24 63 32 64 25 65 31 66 26 67
REMARK SMILES IDX 27 68 28 69 29 70 30 71 53 72 54 73 62 74 55 75 61 76 56 77
REMARK SMILES IDX 57 78 58 79 59 80 60 81 39 82 40 83 48 84 41 85 47 86 42 87
REMARK SMILES IDX 43 88 44 89 45 90 46 91
REMARK H PARENT 6 7 11 28 67 47 37 58
REMARK Flexibility Score: inf
ROOT
ATOM      1  C   UNL     1       4.237   0.785  -3.255  1.00  0.00     0.023 C 
ENDROOT
BRANCH   1   2
ATOM      2  C   UNL     1       3.390   0.631  -2.002  1.00  0.00     0.023 C 
BRANCH   2   3
ATOM      3  C   UNL     1       2.721   1.920  -1.518  1.00  0.00     0.116 C 
BRANCH   3   4
ATOM      4  N   UNL     1       1.378   1.964  -2.034  1.00  0.00    -0.356 N 
ATOM      5  C   UNL     1       0.228   1.412  -1.579  1.00  0.00     0.225 C 
ATOM      6  O   UNL     1      -0.675   1.363  -2.423  1.00  0.00    -0.275 OA
ATOM      7  H   UNL     1       1.278   2.486  -2.863  1.00  0.00     0.163 HD
BRANCH   5   8
ATOM      8  C   UNL     1      -0.030   1.047  -0.099  1.00  0.00     0.102 C 
ATOM      9  C   UNL     1       2.040  -0.499   0.564  1.00  0.00     0.032 C 
ATOM     10  C   UNL     1       0.559  -0.196   0.627  1.00  0.00     0.096 C 
ATOM     11  N   UNL     1      -0.298  -1.311   0.206  1.00  0.00    -0.321 N 
ATOM     12  C   UNL     1      -1.532   0.653  -0.013  1.00  0.00     0.037 C 
ATOM     13  C   UNL     1      -1.497  -0.815  -0.439  1.00  0.00     0.122 C 
BRANCH  11  14
ATOM     14  C   UNL     1      -0.050  -2.659   0.284  1.00  0.00     0.320 C 
ATOM     15  O   UNL     1      -0.488  -3.460  -0.538  1.00  0.00    -0.248 OA
BRANCH  14  16
ATOM     16  N   UNL     1       0.711  -3.076   1.365  1.00  0.00    -0.315 N 
ATOM     17  C   UNL     1       1.437  -4.348   1.258  1.00  0.00     0.144 C 
ATOM     18  C   UNL     1       0.232  -2.722   2.707  1.00  0.00     0.199 C 
ATOM     19  C   UNL     1       0.868  -5.474   2.140  1.00  0.00     0.146 C 
ATOM     20  C   UNL     1      -0.686  -3.821   3.100  1.00  0.00     0.152 A 
ATOM     21  N   UNL     1      -0.385  -5.107   2.752  1.00  0.00    -0.314 N 
ATOM     22  N   UNL     1      -1.890  -3.792   3.627  1.00  0.00    -0.134 NA
ATOM     23  C   UNL     1      -1.492  -5.843   2.992  1.00  0.00     0.226 A 
ATOM     24  N   UNL     1      -2.398  -5.077   3.560  1.00  0.00    -0.139 NA
ENDBRANCH  14  16
ENDBRANCH  11  14
ENDBRANCH   5   8
ENDBRANCH   3   4
ENDBRANCH   2   3
ENDBRANCH   1   2
BRANCH   1  25
ATOM     25  C   UNL     1       5.545   1.513  -3.006  1.00  0.00     0.116 C 
BRANCH  25  26
ATOM     26  N   UNL     1       6.422   0.840  -2.051  1.00  0.00    -0.352 N 
ATOM     27  C   UNL     1       7.795   0.753  -2.083  1.00  0.00     0.251 C 
ATOM     28  H   UNL     1       5.977   0.394  -1.294  1.00  0.00     0.163 HD
ATOM     29  O   UNL     1       8.406   0.095  -1.247  1.00  0.00    -0.269 OA
BRANCH  27  30
ATOM     30  C   UNL     1       8.500   1.427  -3.187  1.00  0.00     0.039 A 
ATOM     31  C   UNL     1       9.328   0.676  -4.021  1.00  0.00     0.014 A 
ATOM     32  C   UNL     1       8.193   2.757  -3.485  1.00  0.00     0.014 A 
ATOM     33  C   UNL     1       9.775   1.238  -5.217  1.00  0.00     0.010 A 
ATOM     34  C   UNL     1       8.544   3.269  -4.724  1.00  0.00     0.010 A 
ATOM     35  C   UNL     1       9.340   2.517  -5.603  1.00  0.00    -0.014 A 
BRANCH  35  36
ATOM     36  C   UNL     1       9.707   3.103  -6.916  1.00  0.00     0.031 A 
ATOM     37  C   UNL     1      10.465   4.403  -6.958  1.00  0.00     0.074 A 
ATOM     38  C   UNL     1       9.285   2.523  -8.058  1.00  0.00     0.049 A 
ATOM     39  N   UNL     1      10.787   5.136  -7.991  1.00  0.00    -0.248 NA
ATOM     40  C   UNL     1      10.872   4.978  -5.664  1.00  0.00     0.031 C 
ATOM     41  C   UNL     1       8.484   1.299  -8.150  1.00  0.00     0.029 A 
ATOM     42  N   UNL     1       9.469   2.893  -9.367  1.00  0.00    -0.354 N 
ATOM     43  C   UNL     1      11.396   6.271  -7.468  1.00  0.00     0.074 A 
ATOM     44  C   UNL     1      11.343   6.159  -6.029  1.00  0.00     0.031 C 
ATOM     45  C   UNL     1       8.281   1.000  -9.444  1.00  0.00     0.029 A 
ATOM     46  C   UNL     1       8.903   2.027 -10.272  1.00  0.00     0.049 A 
ATOM     47  H   UNL     1       9.961   3.704  -9.632  1.00  0.00     0.167 HD
ATOM     48  C   UNL     1      11.975   7.302  -8.126  1.00  0.00     0.031 A 
ATOM     49  C   UNL     1       8.891   2.056 -11.619  1.00  0.00     0.031 A 
ATOM     50  C   UNL     1      12.074   7.384  -9.556  1.00  0.00     0.049 A 
ATOM     51  C   UNL     1       9.592   3.181 -12.330  1.00  0.00     0.074 A 
ATOM     52  C   UNL     1      12.710   8.344 -10.322  1.00  0.00     0.029 A 
ATOM     53  N   UNL     1      11.534   6.458 -10.436  1.00  0.00    -0.354 N 
ATOM     54  N   UNL     1      10.219   4.214 -11.818  1.00  0.00    -0.248 NA
ATOM     55  C   UNL     1       9.595   3.139 -13.799  1.00  0.00     0.031 C 
ATOM     56  C   UNL     1      12.529   8.013 -11.670  1.00  0.00     0.029 A 
ATOM     57  C   UNL     1      11.816   6.826 -11.739  1.00  0.00     0.049 A 
ATOM     58  H   UNL     1      11.025   5.658 -10.172  1.00  0.00     0.167 HD
ATOM     59  C   UNL     1      10.712   4.931 -12.902  1.00  0.00     0.074 A 
ATOM     60  C   UNL     1      10.323   4.207 -14.095  1.00  0.00     0.031 C 
ATOM     61  C   UNL     1      11.423   6.085 -12.910  1.00  0.00     0.031 A 
BRANCH  48  62
ATOM     62  C   UNL     1      12.558   8.410  -7.292  1.00  0.00    -0.014 A 
ATOM     63  C   UNL     1      13.712   8.200  -6.514  1.00  0.00     0.010 A 
ATOM     64  C   UNL     1      11.948   9.677  -7.285  1.00  0.00     0.010 A 
ATOM     65  C   UNL     1      14.212   9.220  -5.701  1.00  0.00     0.020 A 
ATOM     66  C   UNL     1      12.464  10.709  -6.495  1.00  0.00     0.020 A 
ATOM     67  C   UNL     1      13.580  10.466  -5.692  1.00  0.00     0.054 A 
BRANCH  67  68
ATOM     68  S   UNL     1      14.253  11.774  -4.632  1.00  0.00     0.124 S 
ATOM     69  O   UNL     1      13.786  11.359  -3.311  1.00  0.00    -0.237 OA
ATOM     70  O   UNL     1      15.692  11.660  -4.853  1.00  0.00    -0.237 OA
ATOM     71  O   UNL     1      13.640  12.993  -5.155  1.00  0.00    -0.744 OA
ENDBRANCH  67  68
ENDBRANCH  48  62
BRANCH  49  72
ATOM     72  C   UNL     1       8.230   0.964 -12.384  1.00  0.00    -0.014 A 
ATOM     73  C   UNL     1       9.004   0.005 -13.061  1.00  0.00     0.010 A 
ATOM     74  C   UNL     1       6.827   0.867 -12.430  1.00  0.00     0.010 A 
ATOM     75  C   UNL     1       8.389  -1.020 -13.785  1.00  0.00     0.020 A 
ATOM     76  C   UNL     1       6.209  -0.171 -13.135  1.00  0.00     0.020 A 
ATOM     77  C   UNL     1       6.995  -1.102 -13.818  1.00  0.00     0.054 A 
BRANCH  77  78
ATOM     78  S   UNL     1       6.218  -2.472 -14.720  1.00  0.00     0.124 S 
ATOM     79  O   UNL     1       6.370  -2.045 -16.107  1.00  0.00    -0.237 OA
ATOM     80  O   UNL     1       7.030  -3.618 -14.317  1.00  0.00    -0.237 OA
ATOM     81  O   UNL     1       4.848  -2.480 -14.212  1.00  0.00    -0.744 OA
ENDBRANCH  77  78
ENDBRANCH  49  72
BRANCH  61  82
ATOM     82  C   UNL     1      11.854   6.621 -14.246  1.00  0.00    -0.014 A 
ATOM     83  C   UNL     1      10.937   7.251 -15.104  1.00  0.00     0.010 A 
ATOM     84  C   UNL     1      13.210   6.550 -14.616  1.00  0.00     0.010 A 
ATOM     85  C   UNL     1      11.364   7.780 -16.324  1.00  0.00     0.020 A 
ATOM     86  C   UNL     1      13.644   7.099 -15.824  1.00  0.00     0.020 A 
ATOM     87  C   UNL     1      12.716   7.700 -16.676  1.00  0.00     0.054 A 
BRANCH  87  88
ATOM     88  S   UNL     1      13.257   8.441 -18.240  1.00  0.00     0.124 S 
ATOM     89  O   UNL     1      12.805   7.453 -19.216  1.00  0.00    -0.237 OA
ATOM     90  O   UNL     1      12.543   9.715 -18.258  1.00  0.00    -0.237 OA
ATOM     91  O   UNL     1      14.706   8.549 -18.087  1.00  0.00    -0.744 OA
ENDBRANCH  87  88
ENDBRANCH  61  82
ENDBRANCH  35  36
ENDBRANCH  27  30
ENDBRANCH  25  26
ENDBRANCH   1  25
TORSDOF 16
