REMARK SMILES O=C(NCCCCNC(=O)c1ccn(-c2cc(-c3ccncc3)nc(-c3ccccc3F)n2)n1)c1ccc(-c2c3nc(c(-c4ccc(S(=O)(=O)[O-])cc4)c4ccc([nH]4)c(-c4ccc(S(=O)(=O)[O-])cc4)c4nc(c(-c5ccc(S(=O)(=O)[O-])cc5)c5ccc2[nH]5)C=C4)C=C3)cc1
REMARK SMILES IDX 5 1 4 2 3 3 1 4 2 5 35 7 36 8 94 9 37 10 93 11 38 12 39 13
REMARK SMILES IDX 40 14 87 15 41 16 92 17 86 18 88 19 42 20 91 21 85 22 84 23
REMARK SMILES IDX 43 25 73 26 54 27 72 28 55 29 58 30 71 31 89 32 56 33 57 34
REMARK SMILES IDX 70 36 90 37 59 38 44 39 45 40 53 41 46 42 52 43 47 44 48 45
REMARK SMILES IDX 49 46 50 47 51 48 74 49 75 50 83 51 76 52 82 53 77 54 78 55
REMARK SMILES IDX 79 56 80 57 81 58 60 59 61 60 69 61 62 62 68 63 63 64 64 65
REMARK SMILES IDX 65 66 66 67 67 68 6 69 7 70 8 71 9 72 10 74 11 75 12 76
REMARK SMILES IDX 34 77 13 78 14 79 15 80 16 81 33 82 17 83 25 84 24 85 18 86
REMARK SMILES IDX 19 87 23 88 20 89 22 90 21 91 26 92 27 93 31 94 28 95 30 96
REMARK SMILES IDX 32 97 29 98
REMARK H PARENT 3 6 88 24 58 35 8 73
REMARK Flexibility Score: inf
ROOT
ATOM      1  C   UNL     1       4.884  -1.286   1.804  1.00  0.00     0.023 C 
ENDROOT
BRANCH   1   2
ATOM      2  C   UNL     1       4.633  -0.991   0.326  1.00  0.00     0.116 C 
BRANCH   2   3
ATOM      3  N   UNL     1       3.244  -1.026  -0.078  1.00  0.00    -0.352 N 
ATOM      4  O   UNL     1       1.193  -0.443  -0.646  1.00  0.00    -0.269 OA
ATOM      5  C   UNL     1       2.209  -0.133  -0.018  1.00  0.00     0.251 C 
ATOM      6  H   UNL     1       2.986  -1.883  -0.487  1.00  0.00     0.163 HD
BRANCH   5   7
ATOM      7  C   UNL     1       2.201   1.115   0.794  1.00  0.00     0.039 A 
ATOM      8  C   UNL     1       3.323   1.754   1.323  1.00  0.00     0.014 A 
ATOM      9  C   UNL     1       0.931   1.667   1.049  1.00  0.00     0.014 A 
ATOM     10  C   UNL     1       3.177   2.862   2.156  1.00  0.00     0.010 A 
ATOM     11  C   UNL     1       0.779   2.779   1.869  1.00  0.00     0.010 A 
ATOM     12  C   UNL     1       1.904   3.360   2.446  1.00  0.00    -0.014 A 
BRANCH  12  13
ATOM     13  C   UNL     1       1.801   4.624   3.174  1.00  0.00     0.031 A 
ATOM     14  C   UNL     1       2.305   5.798   2.409  1.00  0.00     0.074 A 
ATOM     15  C   UNL     1       1.155   4.781   4.347  1.00  0.00     0.049 A 
ATOM     16  N   UNL     1       3.320   6.553   2.678  1.00  0.00    -0.248 NA
ATOM     17  C   UNL     1       1.677   6.081   1.107  1.00  0.00     0.031 C 
ATOM     18  C   UNL     1       0.356   3.784   5.062  1.00  0.00     0.029 A 
ATOM     19  N   UNL     1       0.977   5.911   5.094  1.00  0.00    -0.354 N 
ATOM     20  C   UNL     1       3.315   7.548   1.703  1.00  0.00     0.074 A 
ATOM     21  C   UNL     1       2.418   7.098   0.670  1.00  0.00     0.031 C 
ATOM     22  C   UNL     1      -0.399   4.405   5.996  1.00  0.00     0.029 A 
ATOM     23  C   UNL     1      -0.048   5.816   6.032  1.00  0.00     0.049 A 
ATOM     24  H   UNL     1       1.524   6.721   4.979  1.00  0.00     0.167 HD
ATOM     25  C   UNL     1       3.825   8.789   1.941  1.00  0.00     0.031 A 
ATOM     26  C   UNL     1      -0.614   6.830   6.738  1.00  0.00     0.031 A 
ATOM     27  C   UNL     1       4.691   8.804   3.092  1.00  0.00     0.049 A 
ATOM     28  C   UNL     1       0.332   7.971   6.719  1.00  0.00     0.074 A 
ATOM     29  C   UNL     1       5.832   8.124   3.468  1.00  0.00     0.029 A 
ATOM     30  N   UNL     1       4.194   9.371   4.240  1.00  0.00    -0.354 N 
ATOM     31  N   UNL     1       1.482   7.964   7.329  1.00  0.00    -0.248 NA
ATOM     32  C   UNL     1       0.183   8.975   5.678  1.00  0.00     0.031 C 
ATOM     33  C   UNL     1       5.695   7.921   4.872  1.00  0.00     0.029 A 
ATOM     34  C   UNL     1       4.515   8.545   5.282  1.00  0.00     0.049 A 
ATOM     35  H   UNL     1       3.696  10.218   4.302  1.00  0.00     0.167 HD
ATOM     36  C   UNL     1       2.338   8.639   6.472  1.00  0.00     0.074 A 
ATOM     37  C   UNL     1       1.462   9.329   5.529  1.00  0.00     0.031 C 
ATOM     38  C   UNL     1       3.672   8.349   6.442  1.00  0.00     0.031 A 
BRANCH  25  39
ATOM     39  C   UNL     1       3.181  10.056   1.413  1.00  0.00    -0.014 A 
ATOM     40  C   UNL     1       3.769  11.299   1.725  1.00  0.00     0.010 A 
ATOM     41  C   UNL     1       1.871  10.087   0.890  1.00  0.00     0.010 A 
ATOM     42  C   UNL     1       3.047  12.495   1.611  1.00  0.00     0.020 A 
ATOM     43  C   UNL     1       1.161  11.277   0.724  1.00  0.00     0.020 A 
ATOM     44  C   UNL     1       1.740  12.471   1.125  1.00  0.00     0.054 A 
BRANCH  44  45
ATOM     45  S   UNL     1       0.776  14.000   1.083  1.00  0.00     0.124 S 
ATOM     46  O   UNL     1       0.608  14.284   2.504  1.00  0.00    -0.237 OA
ATOM     47  O   UNL     1       1.662  14.903   0.354  1.00  0.00    -0.237 OA
ATOM     48  O   UNL     1      -0.440  13.617   0.369  1.00  0.00    -0.744 OA
ENDBRANCH  44  45
ENDBRANCH  25  39
BRANCH  26  49
ATOM     49  C   UNL     1      -2.026   6.987   7.179  1.00  0.00    -0.014 A 
ATOM     50  C   UNL     1      -2.400   8.007   8.077  1.00  0.00     0.010 A 
ATOM     51  C   UNL     1      -3.057   6.315   6.492  1.00  0.00     0.010 A 
ATOM     52  C   UNL     1      -3.746   8.387   8.226  1.00  0.00     0.020 A 
ATOM     53  C   UNL     1      -4.400   6.681   6.643  1.00  0.00     0.020 A 
ATOM     54  C   UNL     1      -4.737   7.734   7.489  1.00  0.00     0.054 A 
BRANCH  54  55
ATOM     55  S   UNL     1      -6.448   8.350   7.537  1.00  0.00     0.124 S 
ATOM     56  O   UNL     1      -6.880   7.968   8.878  1.00  0.00    -0.237 OA
ATOM     57  O   UNL     1      -6.278   9.783   7.311  1.00  0.00    -0.237 OA
ATOM     58  O   UNL     1      -7.103   7.629   6.447  1.00  0.00    -0.744 OA
ENDBRANCH  54  55
ENDBRANCH  26  49
BRANCH  38  59
ATOM     59  C   UNL     1       4.271   7.567   7.585  1.00  0.00    -0.014 A 
ATOM     60  C   UNL     1       3.851   6.280   7.973  1.00  0.00     0.010 A 
ATOM     61  C   UNL     1       5.401   8.120   8.214  1.00  0.00     0.010 A 
ATOM     62  C   UNL     1       4.525   5.583   8.988  1.00  0.00     0.020 A 
ATOM     63  C   UNL     1       6.089   7.425   9.208  1.00  0.00     0.020 A 
ATOM     64  C   UNL     1       5.641   6.163   9.600  1.00  0.00     0.054 A 
BRANCH  64  65
ATOM     65  S   UNL     1       6.530   5.248  10.889  1.00  0.00     0.124 S 
ATOM     66  O   UNL     1       5.567   5.227  11.986  1.00  0.00    -0.237 OA
ATOM     67  O   UNL     1       6.788   3.959  10.251  1.00  0.00    -0.237 OA
ATOM     68  O   UNL     1       7.724   6.058  11.130  1.00  0.00    -0.744 OA
ENDBRANCH  64  65
ENDBRANCH  38  59
ENDBRANCH  12  13
ENDBRANCH   5   7
ENDBRANCH   2   3
ENDBRANCH   1   2
BRANCH   1  69
ATOM     69  C   UNL     1       4.353  -2.634   2.305  1.00  0.00     0.023 C 
BRANCH  69  70
ATOM     70  C   UNL     1       4.796  -3.854   1.504  1.00  0.00     0.116 C 
BRANCH  70  71
ATOM     71  N   UNL     1       6.236  -4.026   1.534  1.00  0.00    -0.351 N 
ATOM     72  C   UNL     1       6.958  -5.113   1.969  1.00  0.00     0.271 C 
ATOM     73  H   UNL     1       6.764  -3.267   1.198  1.00  0.00     0.163 HD
ATOM     74  O   UNL     1       8.179  -5.023   2.049  1.00  0.00    -0.267 OA
BRANCH  72  75
ATOM     75  C   UNL     1       6.241  -6.361   2.247  1.00  0.00     0.150 A 
ATOM     76  C   UNL     1       5.515  -7.146   1.315  1.00  0.00     0.056 A 
ATOM     77  N   UNL     1       6.239  -6.931   3.466  1.00  0.00    -0.161 NA
ATOM     78  C   UNL     1       5.193  -8.294   1.992  1.00  0.00     0.118 A 
ATOM     79  N   UNL     1       5.682  -8.150   3.270  1.00  0.00    -0.222 N 
BRANCH  79  80
ATOM     80  C   UNL     1       5.659  -9.147   4.282  1.00  0.00     0.158 A 
ATOM     81  C   UNL     1       5.702  -8.763   5.605  1.00  0.00     0.078 A 
ATOM     82  N   UNL     1       5.582 -10.437   3.887  1.00  0.00    -0.209 NA
ATOM     83  C   UNL     1       5.606  -9.783   6.530  1.00  0.00     0.077 A 
ATOM     84  C   UNL     1       5.592 -11.358   4.862  1.00  0.00     0.165 A 
ATOM     85  N   UNL     1       5.595 -11.088   6.178  1.00  0.00    -0.228 NA
BRANCH  83  86
ATOM     86  C   UNL     1       5.436  -9.507   7.959  1.00  0.00     0.003 A 
ATOM     87  C   UNL     1       4.302  -8.828   8.424  1.00  0.00     0.030 A 
ATOM     88  C   UNL     1       6.385  -9.919   8.899  1.00  0.00     0.030 A 
ATOM     89  C   UNL     1       4.171  -8.587   9.781  1.00  0.00     0.111 A 
ATOM     90  C   UNL     1       6.170  -9.623  10.236  1.00  0.00     0.111 A 
ATOM     91  N   UNL     1       5.083  -8.969  10.698  1.00  0.00    -0.265 NA
ENDBRANCH  83  86
BRANCH  84  92
ATOM     92  C   UNL     1       5.713 -12.746   4.436  1.00  0.00     0.055 A 
ATOM     93  C   UNL     1       6.842 -13.180   3.715  1.00  0.00     0.015 A 
ATOM     94  C   UNL     1       4.704 -13.677   4.692  1.00  0.00     0.134 A 
ATOM     95  C   UNL     1       6.951 -14.502   3.272  1.00  0.00     0.001 A 
ATOM     96  C   UNL     1       4.803 -14.996   4.246  1.00  0.00     0.040 A 
ATOM     97  F   UNL     1       3.591 -13.311   5.346  1.00  0.00    -0.206 F 
ATOM     98  C   UNL     1       5.928 -15.409   3.535  1.00  0.00     0.003 A 
ENDBRANCH  84  92
ENDBRANCH  79  80
ENDBRANCH  72  75
ENDBRANCH  70  71
ENDBRANCH  69  70
ENDBRANCH   1  69
TORSDOF 17
