REMARK SMILES O=C(NCCCCNC(=O)c1nnn(-c2ccc(C(F)(F)F)cc2)c1-c1cccc(Cl)c1)c1ccc(-c2c3nc(c(-c4ccc(S(=O)(=O)[O-])cc4)c4ccc([nH]4)c(-c4ccc(S(=O)(=O)[O-])cc4)c4nc(c(-c5ccc(S(=O)(=O)[O-])cc5)c5ccc2[nH]5)C=C4)C=C3)cc1
REMARK SMILES IDX 5 1 4 2 3 3 1 4 2 5 33 7 34 8 92 9 35 10 91 11 36 12 37 13
REMARK SMILES IDX 38 14 85 15 39 16 90 17 84 18 86 19 40 20 89 21 83 22 82 23
REMARK SMILES IDX 41 25 71 26 52 27 70 28 53 29 56 30 69 31 87 32 54 33 55 34
REMARK SMILES IDX 68 36 88 37 57 38 42 39 43 40 51 41 44 42 50 43 45 44 46 45
REMARK SMILES IDX 47 46 48 47 49 48 72 49 73 50 81 51 74 52 80 53 75 54 76 55
REMARK SMILES IDX 77 56 78 57 79 58 58 59 59 60 67 61 60 62 66 63 61 64 62 65
REMARK SMILES IDX 63 66 64 67 65 68 6 69 7 70 8 71 9 72 10 74 11 75 12 76
REMARK SMILES IDX 25 77 13 78 14 79 26 80 27 81 32 82 28 83 30 84 29 85 31 86
REMARK SMILES IDX 15 87 16 88 24 89 17 90 23 91 18 92 19 93 20 94 21 95 22 96
REMARK H PARENT 3 6 86 24 56 35 8 73
REMARK Flexibility Score: inf
ROOT
ATOM      1  C   UNL     1       5.035  -2.097  -0.674  1.00  0.00     0.023 C 
ENDROOT
BRANCH   1   2
ATOM      2  C   UNL     1       4.688  -0.634  -0.961  1.00  0.00     0.116 C 
BRANCH   2   3
ATOM      3  N   UNL     1       3.288  -0.360  -1.211  1.00  0.00    -0.352 N 
ATOM      4  O   UNL     1       1.245   0.447  -1.007  1.00  0.00    -0.269 OA
ATOM      5  C   UNL     1       2.230  -0.007  -0.417  1.00  0.00     0.251 C 
ATOM      6  H   UNL     1       3.043  -0.446  -2.161  1.00  0.00     0.163 HD
BRANCH   5   7
ATOM      7  C   UNL     1       2.154  -0.216   1.056  1.00  0.00     0.039 A 
ATOM      8  C   UNL     1       3.196  -0.659   1.871  1.00  0.00     0.014 A 
ATOM      9  C   UNL     1       0.882  -0.036   1.634  1.00  0.00     0.014 A 
ATOM     10  C   UNL     1       2.949  -1.048   3.184  1.00  0.00     0.010 A 
ATOM     11  C   UNL     1       0.633  -0.402   2.951  1.00  0.00     0.010 A 
ATOM     12  C   UNL     1       1.657  -0.963   3.707  1.00  0.00    -0.014 A 
BRANCH  12  13
ATOM     13  C   UNL     1       1.444  -1.354   5.096  1.00  0.00     0.031 A 
ATOM     14  C   UNL     1       2.112  -0.476   6.096  1.00  0.00     0.074 A 
ATOM     15  C   UNL     1       0.599  -2.335   5.472  1.00  0.00     0.049 A 
ATOM     16  N   UNL     1       3.060  -0.779   6.922  1.00  0.00    -0.248 NA
ATOM     17  C   UNL     1       1.763   0.954   6.085  1.00  0.00     0.031 C 
ATOM     18  C   UNL     1      -0.340  -3.086   4.634  1.00  0.00     0.029 A 
ATOM     19  N   UNL     1       0.317  -2.790   6.726  1.00  0.00    -0.354 N 
ATOM     20  C   UNL     1       3.286   0.367   7.683  1.00  0.00     0.074 A 
ATOM     21  C   UNL     1       2.584   1.436   7.018  1.00  0.00     0.031 C 
ATOM     22  C   UNL     1      -1.241  -3.713   5.426  1.00  0.00     0.029 A 
ATOM     23  C   UNL     1      -0.862  -3.523   6.816  1.00  0.00     0.049 A 
ATOM     24  H   UNL     1       0.898  -2.615   7.501  1.00  0.00     0.167 HD
ATOM     25  C   UNL     1       3.838   0.312   8.928  1.00  0.00     0.031 A 
ATOM     26  C   UNL     1      -1.514  -3.884   7.952  1.00  0.00     0.031 A 
ATOM     27  C   UNL     1       4.477  -0.953   9.178  1.00  0.00     0.049 A 
ATOM     28  C   UNL     1      -0.537  -3.811   9.065  1.00  0.00     0.074 A 
ATOM     29  C   UNL     1       5.516  -1.657   8.603  1.00  0.00     0.029 A 
ATOM     30  N   UNL     1       3.792  -1.858   9.953  1.00  0.00    -0.354 N 
ATOM     31  N   UNL     1       0.495  -4.601   9.165  1.00  0.00    -0.248 NA
ATOM     32  C   UNL     1      -0.451  -2.574   9.824  1.00  0.00     0.031 C 
ATOM     33  C   UNL     1       5.111  -3.022   8.668  1.00  0.00     0.029 A 
ATOM     34  C   UNL     1       3.883  -3.075   9.331  1.00  0.00     0.049 A 
ATOM     35  H   UNL     1       3.322  -1.667  10.797  1.00  0.00     0.167 HD
ATOM     36  C   UNL     1       1.520  -3.790   9.629  1.00  0.00     0.074 A 
ATOM     37  C   UNL     1       0.855  -2.578  10.106  1.00  0.00     0.031 C 
ATOM     38  C   UNL     1       2.825  -4.061   9.331  1.00  0.00     0.031 A 
BRANCH  25  39
ATOM     39  C   UNL     1       3.432   1.230  10.061  1.00  0.00    -0.014 A 
ATOM     40  C   UNL     1       4.054   1.067  11.318  1.00  0.00     0.010 A 
ATOM     41  C   UNL     1       2.265   2.020  10.026  1.00  0.00     0.010 A 
ATOM     42  C   UNL     1       3.473   1.573  12.488  1.00  0.00     0.020 A 
ATOM     43  C   UNL     1       1.704   2.568  11.181  1.00  0.00     0.020 A 
ATOM     44  C   UNL     1       2.286   2.300  12.411  1.00  0.00     0.054 A 
BRANCH  44  45
ATOM     45  S   UNL     1       1.463   2.819  13.936  1.00  0.00     0.124 S 
ATOM     46  O   UNL     1       1.070   1.537  14.513  1.00  0.00    -0.237 OA
ATOM     47  O   UNL     1       2.529   3.530  14.636  1.00  0.00    -0.237 OA
ATOM     48  O   UNL     1       0.365   3.659  13.463  1.00  0.00    -0.744 OA
ENDBRANCH  44  45
ENDBRANCH  25  39
BRANCH  26  49
ATOM     49  C   UNL     1      -2.982  -3.943   8.181  1.00  0.00    -0.014 A 
ATOM     50  C   UNL     1      -3.525  -4.561   9.324  1.00  0.00     0.010 A 
ATOM     51  C   UNL     1      -3.841  -3.134   7.409  1.00  0.00     0.010 A 
ATOM     52  C   UNL     1      -4.860  -4.331   9.709  1.00  0.00     0.020 A 
ATOM     53  C   UNL     1      -5.171  -2.905   7.782  1.00  0.00     0.020 A 
ATOM     54  C   UNL     1      -5.669  -3.487   8.944  1.00  0.00     0.054 A 
BRANCH  54  55
ATOM     55  S   UNL     1      -7.334  -3.054   9.534  1.00  0.00     0.124 S 
ATOM     56  O   UNL     1      -8.064  -4.306   9.354  1.00  0.00    -0.237 OA
ATOM     57  O   UNL     1      -7.090  -2.658  10.918  1.00  0.00    -0.237 OA
ATOM     58  O   UNL     1      -7.743  -1.967   8.645  1.00  0.00    -0.744 OA
ENDBRANCH  54  55
ENDBRANCH  26  49
BRANCH  38  59
ATOM     59  C   UNL     1       3.164  -5.405   8.730  1.00  0.00    -0.014 A 
ATOM     60  C   UNL     1       2.670  -5.854   7.489  1.00  0.00     0.010 A 
ATOM     61  C   UNL     1       4.146  -6.174   9.379  1.00  0.00     0.010 A 
ATOM     62  C   UNL     1       3.130  -7.055   6.928  1.00  0.00     0.020 A 
ATOM     63  C   UNL     1       4.621  -7.360   8.817  1.00  0.00     0.020 A 
ATOM     64  C   UNL     1       4.105  -7.801   7.598  1.00  0.00     0.054 A 
BRANCH  64  65
ATOM     65  S   UNL     1       4.734  -9.328   6.846  1.00  0.00     0.124 S 
ATOM     66  O   UNL     1       3.582 -10.221   6.928  1.00  0.00    -0.237 OA
ATOM     67  O   UNL     1       5.103  -8.899   5.499  1.00  0.00    -0.237 OA
ATOM     68  O   UNL     1       5.863  -9.697   7.700  1.00  0.00    -0.744 OA
ENDBRANCH  64  65
ENDBRANCH  38  59
ENDBRANCH  12  13
ENDBRANCH   5   7
ENDBRANCH   2   3
ENDBRANCH   1   2
BRANCH   1  69
ATOM     69  C   UNL     1       4.545  -3.124  -1.695  1.00  0.00     0.023 C 
BRANCH  69  70
ATOM     70  C   UNL     1       4.919  -2.851  -3.143  1.00  0.00     0.116 C 
BRANCH  70  71
ATOM     71  N   UNL     1       6.343  -2.900  -3.405  1.00  0.00    -0.351 N 
ATOM     72  C   UNL     1       7.006  -3.441  -4.492  1.00  0.00     0.274 C 
ATOM     73  H   UNL     1       6.918  -2.494  -2.717  1.00  0.00     0.163 HD
ATOM     74  O   UNL     1       8.226  -3.415  -4.506  1.00  0.00    -0.267 OA
BRANCH  72  75
ATOM     75  C   UNL     1       6.233  -4.015  -5.590  1.00  0.00     0.178 A 
ATOM     76  N   UNL     1       6.419  -5.316  -5.997  1.00  0.00    -0.124 NA
ATOM     77  C   UNL     1       5.233  -3.436  -6.360  1.00  0.00     0.108 A 
ATOM     78  N   UNL     1       5.517  -5.596  -6.929  1.00  0.00    -0.061 NA
ATOM     79  N   UNL     1       4.882  -4.450  -7.246  1.00  0.00    -0.212 N 
BRANCH  77  80
ATOM     80  C   UNL     1       4.516  -2.167  -6.233  1.00  0.00     0.004 A 
ATOM     81  C   UNL     1       3.132  -2.180  -5.974  1.00  0.00     0.010 A 
ATOM     82  C   UNL     1       5.182  -0.944  -6.331  1.00  0.00     0.031 A 
ATOM     83  C   UNL     1       2.421  -0.991  -5.826  1.00  0.00     0.002 A 
ATOM     84  C   UNL     1       4.461   0.244  -6.186  1.00  0.00     0.041 A 
ATOM     85  C   UNL     1       3.088   0.225  -5.934  1.00  0.00     0.020 A 
ATOM     86  Cl  UNL     1       5.277   1.752  -6.321  1.00  0.00    -0.084 Cl
ENDBRANCH  77  80
BRANCH  79  87
ATOM     87  C   UNL     1       3.927  -4.380  -8.285  1.00  0.00     0.067 A 
ATOM     88  C   UNL     1       2.974  -5.392  -8.417  1.00  0.00     0.029 A 
ATOM     89  C   UNL     1       3.859  -3.228  -9.080  1.00  0.00     0.029 A 
ATOM     90  C   UNL     1       1.884  -5.188  -9.270  1.00  0.00     0.015 A 
ATOM     91  C   UNL     1       2.788  -3.046  -9.949  1.00  0.00     0.015 A 
ATOM     92  C   UNL     1       1.769  -4.006 -10.025  1.00  0.00     0.056 A 
BRANCH  92  93
ATOM     93  C   UNL     1       0.547  -3.757 -10.875  1.00  0.00     0.416 C 
ATOM     94  F   UNL     1       0.345  -4.730 -11.804  1.00  0.00    -0.166 F 
ATOM     95  F   UNL     1      -0.595  -3.698 -10.135  1.00  0.00    -0.166 F 
ATOM     96  F   UNL     1       0.598  -2.584 -11.569  1.00  0.00    -0.166 F 
ENDBRANCH  92  93
ENDBRANCH  79  87
ENDBRANCH  72  75
ENDBRANCH  70  71
ENDBRANCH  69  70
ENDBRANCH   1  69
TORSDOF 17
