REMARK SMILES CCn1cccc1C(=O)N(C)c1snc(C)c1C(=O)NCCCCNC(=O)c1ccc(-c2c3nc(c(-c4ccc(S(=O)(=O)[O-])cc4)c4ccc([nH]4)c(-c4ccc(S(=O)(=O)[O-])cc4)c4nc(c(-c5ccc(S(=O)(=O)[O-])cc5)c5ccc2[nH]5)C=C4)C=C3)cc1
REMARK SMILES IDX 22 1 21 2 20 3 18 4 19 5 17 7 12 8 13 9 14 10 15 11 16 12
REMARK SMILES IDX 10 13 11 14 8 15 9 16 7 17 3 18 4 19 5 20 6 21 2 22 1 23
REMARK SMILES IDX 23 24 24 25 25 26 26 27 27 29 28 30 29 31 87 32 30 33 86 34
REMARK SMILES IDX 31 35 32 36 33 37 80 38 34 39 85 40 79 41 81 42 35 43 84 44
REMARK SMILES IDX 78 45 77 46 36 48 66 49 47 50 65 51 48 52 51 53 64 54 82 55
REMARK SMILES IDX 49 56 50 57 63 59 83 60 52 61 37 62 38 63 46 64 39 65 45 66
REMARK SMILES IDX 40 67 41 68 42 69 43 70 44 71 67 72 68 73 76 74 69 75 75 76
REMARK SMILES IDX 70 77 71 78 72 79 73 80 74 81 53 82 54 83 62 84 55 85 61 86
REMARK SMILES IDX 56 87 57 88 58 89 59 90 60 91
REMARK H PARENT 20 6 25 28 81 47 51 58
REMARK Flexibility Score: inf
ROOT
ATOM      1  C   UNL     1       4.178   2.232   1.508  1.00  0.00     0.023 C 
ENDROOT
BRANCH   1   2
ATOM      2  C   UNL     1       4.029   1.823   0.047  1.00  0.00     0.116 C 
BRANCH   2   3
ATOM      3  N   UNL     1       5.234   1.512  -0.664  1.00  0.00    -0.352 N 
ATOM      4  C   UNL     1       5.553   0.562  -1.617  1.00  0.00     0.256 C 
ATOM      5  O   UNL     1       6.681   0.719  -2.071  1.00  0.00    -0.269 OA
ATOM      6  H   UNL     1       5.991   2.095  -0.424  1.00  0.00     0.163 HD
BRANCH   4   7
ATOM      7  C   UNL     1       4.722  -0.588  -2.056  1.00  0.00     0.097 A 
ATOM      8  C   UNL     1       3.362  -0.873  -1.938  1.00  0.00     0.131 A 
ATOM      9  S   UNL     1       2.970  -2.344  -2.717  1.00  0.00    -0.017 S 
ATOM     10  N   UNL     1       4.501  -2.732  -3.135  1.00  0.00    -0.195 NA
ATOM     11  C   UNL     1       5.323  -1.744  -2.771  1.00  0.00     0.066 A 
ATOM     12  C   UNL     1       6.760  -1.998  -3.108  1.00  0.00     0.069 C 
BRANCH   8  13
ATOM     13  N   UNL     1       2.270  -0.285  -1.285  1.00  0.00    -0.300 N 
ATOM     14  C   UNL     1       1.920  -0.842   0.015  1.00  0.00     0.154 C 
BRANCH  13  15
ATOM     15  C   UNL     1       1.622   0.729  -2.016  1.00  0.00     0.275 C 
ATOM     16  O   UNL     1       1.897   0.838  -3.218  1.00  0.00    -0.267 OA
BRANCH  15  17
ATOM     17  C   UNL     1       0.739   1.758  -1.428  1.00  0.00     0.107 A 
ATOM     18  N   UNL     1      -0.126   1.866  -0.343  1.00  0.00    -0.344 N 
ATOM     19  C   UNL     1      -0.608   3.160  -0.254  1.00  0.00     0.086 A 
ATOM     20  C   UNL     1      -0.256   3.838  -1.385  1.00  0.00     0.020 A 
ATOM     21  C   UNL     1       0.606   2.989  -2.092  1.00  0.00     0.033 A 
BRANCH  18  22
ATOM     22  C   UNL     1      -0.692   0.864   0.540  1.00  0.00     0.119 C 
ATOM     23  C   UNL     1      -1.400  -0.261  -0.185  1.00  0.00     0.027 C 
ENDBRANCH  18  22
ENDBRANCH  15  17
ENDBRANCH  13  15
ENDBRANCH   8  13
ENDBRANCH   4   7
ENDBRANCH   2   3
ENDBRANCH   1   2
BRANCH   1  24
ATOM     24  C   UNL     1       4.680   3.648   1.787  1.00  0.00     0.023 C 
BRANCH  24  25
ATOM     25  C   UNL     1       3.833   4.771   1.185  1.00  0.00     0.116 C 
BRANCH  25  26
ATOM     26  N   UNL     1       2.478   4.798   1.714  1.00  0.00    -0.352 N 
ATOM     27  C   UNL     1       1.444   5.660   1.428  1.00  0.00     0.251 C 
ATOM     28  H   UNL     1       2.271   4.097   2.373  1.00  0.00     0.163 HD
ATOM     29  O   UNL     1       0.490   5.710   2.205  1.00  0.00    -0.269 OA
BRANCH  27  30
ATOM     30  C   UNL     1       1.463   6.547   0.237  1.00  0.00     0.039 A 
ATOM     31  C   UNL     1       0.922   7.834   0.353  1.00  0.00     0.014 A 
ATOM     32  C   UNL     1       1.923   6.107  -1.008  1.00  0.00     0.014 A 
ATOM     33  C   UNL     1       0.933   8.698  -0.744  1.00  0.00     0.010 A 
ATOM     34  C   UNL     1       1.904   6.952  -2.117  1.00  0.00     0.010 A 
ATOM     35  C   UNL     1       1.463   8.269  -1.970  1.00  0.00    -0.014 A 
BRANCH  35  36
ATOM     36  C   UNL     1       1.813   9.282  -2.998  1.00  0.00     0.031 A 
ATOM     37  C   UNL     1       3.169   9.942  -2.704  1.00  0.00     0.074 A 
ATOM     38  C   UNL     1       0.926   9.538  -4.003  1.00  0.00     0.049 A 
ATOM     39  N   UNL     1       3.580  11.143  -2.973  1.00  0.00    -0.248 NA
ATOM     40  C   UNL     1       4.181   9.194  -1.907  1.00  0.00     0.031 C 
ATOM     41  C   UNL     1      -0.344   8.813  -4.204  1.00  0.00     0.029 A 
ATOM     42  N   UNL     1       0.901  10.443  -5.047  1.00  0.00    -0.354 N 
ATOM     43  C   UNL     1       4.903  11.261  -2.491  1.00  0.00     0.074 A 
ATOM     44  C   UNL     1       5.188  10.058  -1.773  1.00  0.00     0.031 C 
ATOM     45  C   UNL     1      -1.035   9.337  -5.241  1.00  0.00     0.029 A 
ATOM     46  C   UNL     1      -0.290  10.444  -5.814  1.00  0.00     0.049 A 
ATOM     47  H   UNL     1       1.656  11.043  -5.244  1.00  0.00     0.167 HD
ATOM     48  C   UNL     1       5.729  12.306  -2.781  1.00  0.00     0.031 A 
ATOM     49  C   UNL     1      -0.681  11.304  -6.804  1.00  0.00     0.031 A 
ATOM     50  C   UNL     1       5.061  13.261  -3.595  1.00  0.00     0.049 A 
ATOM     51  C   UNL     1       0.433  12.246  -7.015  1.00  0.00     0.074 A 
ATOM     52  C   UNL     1       4.090  14.197  -3.353  1.00  0.00     0.029 A 
ATOM     53  N   UNL     1       5.196  13.100  -4.952  1.00  0.00    -0.354 N 
ATOM     54  N   UNL     1       1.553  11.974  -7.609  1.00  0.00    -0.248 NA
ATOM     55  C   UNL     1       0.297  13.613  -6.492  1.00  0.00     0.031 C 
ATOM     56  C   UNL     1       3.359  14.249  -4.560  1.00  0.00     0.029 A 
ATOM     57  C   UNL     1       3.985  13.431  -5.507  1.00  0.00     0.049 A 
ATOM     58  H   UNL     1       6.003  12.805  -5.432  1.00  0.00     0.167 HD
ATOM     59  C   UNL     1       2.365  13.007  -7.207  1.00  0.00     0.074 A 
ATOM     60  C   UNL     1       1.495  14.092  -6.816  1.00  0.00     0.031 C 
ATOM     61  C   UNL     1       3.598  12.738  -6.713  1.00  0.00     0.031 A 
BRANCH  48  62
ATOM     62  C   UNL     1       7.210  12.488  -2.586  1.00  0.00    -0.014 A 
ATOM     63  C   UNL     1       7.716  13.809  -2.702  1.00  0.00     0.010 A 
ATOM     64  C   UNL     1       8.136  11.436  -2.619  1.00  0.00     0.010 A 
ATOM     65  C   UNL     1       9.061  14.062  -2.972  1.00  0.00     0.020 A 
ATOM     66  C   UNL     1       9.501  11.686  -2.851  1.00  0.00     0.020 A 
ATOM     67  C   UNL     1       9.942  12.992  -3.080  1.00  0.00     0.054 A 
BRANCH  67  68
ATOM     68  S   UNL     1      11.644  13.334  -3.602  1.00  0.00     0.124 S 
ATOM     69  O   UNL     1      11.473  13.663  -5.014  1.00  0.00    -0.237 OA
ATOM     70  O   UNL     1      12.022  14.453  -2.741  1.00  0.00    -0.237 OA
ATOM     71  O   UNL     1      12.345  12.083  -3.326  1.00  0.00    -0.744 OA
ENDBRANCH  67  68
ENDBRANCH  48  62
BRANCH  49  72
ATOM     72  C   UNL     1      -1.945  11.613  -7.579  1.00  0.00    -0.014 A 
ATOM     73  C   UNL     1      -3.163  10.930  -7.481  1.00  0.00     0.010 A 
ATOM     74  C   UNL     1      -1.962  12.782  -8.395  1.00  0.00     0.010 A 
ATOM     75  C   UNL     1      -4.351  11.470  -8.029  1.00  0.00     0.020 A 
ATOM     76  C   UNL     1      -3.133  13.354  -8.897  1.00  0.00     0.020 A 
ATOM     77  C   UNL     1      -4.336  12.706  -8.684  1.00  0.00     0.054 A 
BRANCH  77  78
ATOM     78  S   UNL     1      -5.879  13.549  -9.132  1.00  0.00     0.124 S 
ATOM     79  O   UNL     1      -6.125  13.057 -10.484  1.00  0.00    -0.237 OA
ATOM     80  O   UNL     1      -6.815  13.085  -8.111  1.00  0.00    -0.237 OA
ATOM     81  O   UNL     1      -5.527  14.966  -9.036  1.00  0.00    -0.744 OA
ENDBRANCH  77  78
ENDBRANCH  49  72
BRANCH  61  82
ATOM     82  C   UNL     1       4.220  11.447  -7.212  1.00  0.00    -0.014 A 
ATOM     83  C   UNL     1       4.580  11.338  -8.566  1.00  0.00     0.010 A 
ATOM     84  C   UNL     1       4.389  10.312  -6.394  1.00  0.00     0.010 A 
ATOM     85  C   UNL     1       5.096  10.143  -9.086  1.00  0.00     0.020 A 
ATOM     86  C   UNL     1       4.910   9.111  -6.905  1.00  0.00     0.020 A 
ATOM     87  C   UNL     1       5.262   9.036  -8.253  1.00  0.00     0.054 A 
BRANCH  87  88
ATOM     88  S   UNL     1       5.935   7.505  -8.964  1.00  0.00     0.124 S 
ATOM     89  O   UNL     1       4.965   7.183 -10.008  1.00  0.00    -0.237 OA
ATOM     90  O   UNL     1       7.247   7.932  -9.444  1.00  0.00    -0.237 OA
ATOM     91  O   UNL     1       5.961   6.575  -7.837  1.00  0.00    -0.744 OA
ENDBRANCH  87  88
ENDBRANCH  61  82
ENDBRANCH  35  36
ENDBRANCH  27  30
ENDBRANCH  25  26
ENDBRANCH  24  25
ENDBRANCH   1  24
TORSDOF 18
