REMARK SMILES CCc1cc(Nc2ccc(C(=O)NCCCCNC(=O)c3ccc(-c4c5nc(c(-c6ccc(S(=O)(=O)[O-])cc6)c6ccc([nH]6)c(-c6ccc(S(=O)(=O)[O-])cc6)c6nc(c(-c7ccc(S(=O)(=O)[O-])cc7)c7ccc4[nH]7)C=C6)C=C5)cc3)cc2)nc(C(C)C)n1
REMARK SMILES IDX 15 1 14 2 13 3 11 4 12 5 10 7 7 8 8 9 82 10 9 11 81 12 6 13
REMARK SMILES IDX 5 15 3 16 4 17 88 18 84 19 83 20 2 21 1 22 85 23 86 24 87 25
REMARK SMILES IDX 16 26 17 27 18 28 19 29 20 31 21 32 22 33 80 34 23 35 79 36
REMARK SMILES IDX 24 37 25 38 26 39 73 40 27 41 78 42 72 43 74 44 28 45 77 46
REMARK SMILES IDX 71 47 70 48 29 50 59 51 40 52 58 53 41 54 44 55 57 56 75 57
REMARK SMILES IDX 42 58 43 59 56 61 76 62 45 63 30 64 31 65 39 66 32 67 38 68
REMARK SMILES IDX 33 69 34 70 35 71 36 72 37 73 60 74 61 75 69 76 62 77 68 78
REMARK SMILES IDX 63 79 64 80 65 81 66 82 67 83 46 84 47 85 55 86 48 87 54 88
REMARK SMILES IDX 49 89 50 90 51 91 52 92 53 93
REMARK H PARENT 13 6 6 14 18 30 74 49 44 60
REMARK Flexibility Score: inf
ROOT
ATOM      1  C   UNL     1       5.025   9.727   3.178  1.00  0.00     0.023 C 
ENDROOT
BRANCH   1   2
ATOM      2  C   UNL     1       4.092   9.400   4.347  1.00  0.00     0.116 C 
BRANCH   2   3
ATOM      3  N   UNL     1       2.871  10.175   4.244  1.00  0.00    -0.352 N 
ATOM      4  C   UNL     1       1.639   9.880   3.719  1.00  0.00     0.251 C 
ATOM      5  O   UNL     1       0.774  10.755   3.759  1.00  0.00    -0.269 OA
ATOM      6  H   UNL     1       2.939  11.082   4.621  1.00  0.00     0.163 HD
BRANCH   4   7
ATOM      7  C   UNL     1       1.284   8.542   3.163  1.00  0.00     0.039 A 
ATOM      8  C   UNL     1       0.452   5.991   2.277  1.00  0.00     0.040 A 
ATOM      9  C   UNL     1      -0.480   6.906   2.771  1.00  0.00     0.027 A 
ATOM     10  C   UNL     1       1.789   6.378   2.191  1.00  0.00     0.027 A 
ATOM     11  C   UNL     1      -0.066   8.165   3.223  1.00  0.00     0.016 A 
ATOM     12  C   UNL     1       2.192   7.656   2.582  1.00  0.00     0.016 A 
BRANCH   8  13
ATOM     13  N   UNL     1       0.056   4.711   1.876  1.00  0.00    -0.340 N 
ATOM     14  H   UNL     1      -0.676   4.668   1.220  1.00  0.00     0.168 HD
BRANCH  13  15
ATOM     15  C   UNL     1       0.583   3.480   2.302  1.00  0.00     0.134 A 
ATOM     16  C   UNL     1       0.794   1.146   2.024  1.00  0.00     0.046 A 
ATOM     17  C   UNL     1       0.245   2.340   1.601  1.00  0.00     0.071 A 
ATOM     18  N   UNL     1       1.609   1.071   3.093  1.00  0.00    -0.238 NA
ATOM     19  C   UNL     1       1.877   2.223   3.736  1.00  0.00     0.133 A 
ATOM     20  N   UNL     1       1.406   3.426   3.363  1.00  0.00    -0.216 NA
BRANCH  16  21
ATOM     21  C   UNL     1       0.485  -0.139   1.301  1.00  0.00     0.053 C 
ATOM     22  C   UNL     1       1.052  -0.163  -0.111  1.00  0.00     0.011 C 
ENDBRANCH  16  21
BRANCH  19  23
ATOM     23  C   UNL     1       2.714   2.167   4.997  1.00  0.00     0.051 C 
ATOM     24  C   UNL     1       2.009   1.344   6.076  1.00  0.00     0.016 C 
ATOM     25  C   UNL     1       4.112   1.621   4.718  1.00  0.00     0.016 C 
ENDBRANCH  19  23
ENDBRANCH  13  15
ENDBRANCH   8  13
ENDBRANCH   4   7
ENDBRANCH   2   3
ENDBRANCH   1   2
BRANCH   1  26
ATOM     26  C   UNL     1       5.770  11.056   3.333  1.00  0.00     0.023 C 
BRANCH  26  27
ATOM     27  C   UNL     1       6.713  11.117   4.527  1.00  0.00     0.116 C 
BRANCH  27  28
ATOM     28  N   UNL     1       7.725  10.075   4.504  1.00  0.00    -0.352 N 
ATOM     29  C   UNL     1       9.019  10.125   4.967  1.00  0.00     0.251 C 
ATOM     30  H   UNL     1       7.447   9.219   4.104  1.00  0.00     0.163 HD
ATOM     31  O   UNL     1       9.784   9.199   4.749  1.00  0.00    -0.269 OA
BRANCH  29  32
ATOM     32  C   UNL     1       9.479  11.325   5.699  1.00  0.00     0.039 A 
ATOM     33  C   UNL     1      10.718  11.876   5.371  1.00  0.00     0.014 A 
ATOM     34  C   UNL     1       8.692  11.903   6.699  1.00  0.00     0.014 A 
ATOM     35  C   UNL     1      11.154  13.029   6.025  1.00  0.00     0.010 A 
ATOM     36  C   UNL     1       9.088  13.099   7.288  1.00  0.00     0.010 A 
ATOM     37  C   UNL     1      10.334  13.660   6.976  1.00  0.00    -0.014 A 
BRANCH  37  38
ATOM     38  C   UNL     1      10.793  14.879   7.688  1.00  0.00     0.031 A 
ATOM     39  C   UNL     1      11.014  14.841   9.177  1.00  0.00     0.074 A 
ATOM     40  C   UNL     1      10.982  16.023   7.002  1.00  0.00     0.049 A 
ATOM     41  N   UNL     1      11.414  15.796   9.976  1.00  0.00    -0.248 NA
ATOM     42  C   UNL     1      10.721  13.571   9.864  1.00  0.00     0.031 C 
ATOM     43  C   UNL     1      10.754  16.200   5.566  1.00  0.00     0.029 A 
ATOM     44  N   UNL     1      11.415  17.255   7.423  1.00  0.00    -0.354 N 
ATOM     45  C   UNL     1      11.411  15.248  11.253  1.00  0.00     0.074 A 
ATOM     46  C   UNL     1      10.905  13.899  11.133  1.00  0.00     0.031 C 
ATOM     47  C   UNL     1      11.082  17.455   5.220  1.00  0.00     0.029 A 
ATOM     48  C   UNL     1      11.512  18.181   6.411  1.00  0.00     0.049 A 
ATOM     49  H   UNL     1      11.636  17.457   8.361  1.00  0.00     0.167 HD
ATOM     50  C   UNL     1      11.819  15.803  12.419  1.00  0.00     0.031 A 
ATOM     51  C   UNL     1      11.909  19.468   6.438  1.00  0.00     0.031 A 
ATOM     52  C   UNL     1      12.330  17.143  12.533  1.00  0.00     0.049 A 
ATOM     53  C   UNL     1      12.371  20.061   7.742  1.00  0.00     0.074 A 
ATOM     54  C   UNL     1      12.810  17.790  13.658  1.00  0.00     0.029 A 
ATOM     55  N   UNL     1      12.432  18.041  11.480  1.00  0.00    -0.354 N 
ATOM     56  N   UNL     1      12.417  19.507   8.930  1.00  0.00    -0.248 NA
ATOM     57  C   UNL     1      12.859  21.446   7.701  1.00  0.00     0.031 C 
ATOM     58  C   UNL     1      13.157  19.096  13.295  1.00  0.00     0.029 A 
ATOM     59  C   UNL     1      12.956  19.241  11.931  1.00  0.00     0.049 A 
ATOM     60  H   UNL     1      12.170  17.854  10.550  1.00  0.00     0.167 HD
ATOM     61  C   UNL     1      12.975  20.464   9.772  1.00  0.00     0.074 A 
ATOM     62  C   UNL     1      13.260  21.624   8.953  1.00  0.00     0.031 C 
ATOM     63  C   UNL     1      13.234  20.386  11.102  1.00  0.00     0.031 A 
BRANCH  50  64
ATOM     64  C   UNL     1      11.726  14.955  13.661  1.00  0.00    -0.014 A 
ATOM     65  C   UNL     1      12.550  13.826  13.834  1.00  0.00     0.010 A 
ATOM     66  C   UNL     1      10.821  15.299  14.681  1.00  0.00     0.010 A 
ATOM     67  C   UNL     1      12.436  13.032  14.977  1.00  0.00     0.020 A 
ATOM     68  C   UNL     1      10.726  14.526  15.842  1.00  0.00     0.020 A 
ATOM     69  C   UNL     1      11.521  13.385  15.973  1.00  0.00     0.054 A 
BRANCH  69  70
ATOM     70  S   UNL     1      11.405  12.345  17.454  1.00  0.00     0.124 S 
ATOM     71  O   UNL     1      10.735  11.155  16.934  1.00  0.00    -0.237 OA
ATOM     72  O   UNL     1      12.805  12.163  17.828  1.00  0.00    -0.237 OA
ATOM     73  O   UNL     1      10.615  13.149  18.383  1.00  0.00    -0.744 OA
ENDBRANCH  69  70
ENDBRANCH  50  64
BRANCH  51  74
ATOM     74  C   UNL     1      11.920  20.268   5.182  1.00  0.00    -0.014 A 
ATOM     75  C   UNL     1      13.134  20.645   4.581  1.00  0.00     0.010 A 
ATOM     76  C   UNL     1      10.710  20.645   4.571  1.00  0.00     0.010 A 
ATOM     77  C   UNL     1      13.139  21.401   3.405  1.00  0.00     0.020 A 
ATOM     78  C   UNL     1      10.711  21.375   3.379  1.00  0.00     0.020 A 
ATOM     79  C   UNL     1      11.926  21.760   2.810  1.00  0.00     0.054 A 
BRANCH  79  80
ATOM     80  S   UNL     1      11.957  22.698   1.257  1.00  0.00     0.124 S 
ATOM     81  O   UNL     1      12.378  24.020   1.709  1.00  0.00    -0.237 OA
ATOM     82  O   UNL     1      12.935  21.959   0.462  1.00  0.00    -0.237 OA
ATOM     83  O   UNL     1      10.580  22.608   0.777  1.00  0.00    -0.744 OA
ENDBRANCH  79  80
ENDBRANCH  51  74
BRANCH  63  84
ATOM     84  C   UNL     1      13.909  21.570  11.744  1.00  0.00    -0.014 A 
ATOM     85  C   UNL     1      13.240  22.793  11.926  1.00  0.00     0.010 A 
ATOM     86  C   UNL     1      15.234  21.440  12.200  1.00  0.00     0.010 A 
ATOM     87  C   UNL     1      13.902  23.880  12.504  1.00  0.00     0.020 A 
ATOM     88  C   UNL     1      15.888  22.514  12.809  1.00  0.00     0.020 A 
ATOM     89  C   UNL     1      15.224  23.735  12.937  1.00  0.00     0.054 A 
BRANCH  89  90
ATOM     90  S   UNL     1      16.058  25.155  13.694  1.00  0.00     0.124 S 
ATOM     91  O   UNL     1      16.320  26.005  12.536  1.00  0.00    -0.237 OA
ATOM     92  O   UNL     1      15.053  25.658  14.628  1.00  0.00    -0.237 OA
ATOM     93  O   UNL     1      17.242  24.570  14.319  1.00  0.00    -0.744 OA
ENDBRANCH  89  90
ENDBRANCH  63  84
ENDBRANCH  37  38
ENDBRANCH  29  32
ENDBRANCH  27  28
ENDBRANCH  26  27
ENDBRANCH   1  26
TORSDOF 18
