REMARK SMILES O=C(Cc1cc(=O)[nH]c(=O)[nH]1)Nc1cccc(C(=O)NCCCCNC(=O)c2ccc(-c3c4nc(c(-c5ccc(S(=O)(=O)[O-])cc5)c5ccc([nH]5)c(-c5ccc(S(=O)(=O)[O-])cc5)c5nc(c(-c6ccc(S(=O)(=O)[O-])cc6)c6ccc3[nH]6)C=C5)C=C4)cc2)c1
REMARK SMILES IDX 22 1 21 2 20 3 18 4 19 5 17 7 13 8 14 9 88 10 15 11 16 12
REMARK SMILES IDX 12 13 1 14 2 15 3 17 4 18 5 19 11 20 6 21 9 22 7 24 8 25
REMARK SMILES IDX 10 26 23 28 24 29 25 30 26 31 27 33 28 34 29 35 87 36 30 37
REMARK SMILES IDX 86 38 31 39 32 40 33 41 80 42 34 43 85 44 79 45 81 46 35 47
REMARK SMILES IDX 84 48 78 49 77 50 36 52 66 53 47 54 65 55 48 56 51 57 64 58
REMARK SMILES IDX 82 59 49 60 50 61 63 63 83 64 52 65 37 66 38 67 46 68 39 69
REMARK SMILES IDX 45 70 40 71 41 72 42 73 43 74 44 75 67 76 68 77 76 78 69 79
REMARK SMILES IDX 75 80 70 81 71 82 72 83 73 84 74 85 53 86 54 87 62 88 55 89
REMARK SMILES IDX 61 90 56 91 57 92 58 93 59 94 60 95
REMARK H PARENT 20 6 12 16 11 23 8 27 25 32 81 51 51 62
REMARK Flexibility Score: inf
ROOT
ATOM      1  C   UNL     1       0.331   3.832   3.035  1.00  0.00     0.023 C 
ENDROOT
BRANCH   1   2
ATOM      2  C   UNL     1      -0.045   3.232   1.686  1.00  0.00     0.116 C 
BRANCH   2   3
ATOM      3  N   UNL     1      -0.774   4.132   0.803  1.00  0.00    -0.352 N 
ATOM      4  C   UNL     1      -0.611   4.389  -0.542  1.00  0.00     0.251 C 
ATOM      5  O   UNL     1      -1.336   5.212  -1.097  1.00  0.00    -0.269 OA
ATOM      6  H   UNL     1      -1.500   4.638   1.236  1.00  0.00     0.163 HD
BRANCH   4   7
ATOM      7  C   UNL     1       0.480   3.747  -1.320  1.00  0.00     0.041 A 
ATOM      8  C   UNL     1       2.051   1.932  -1.607  1.00  0.00     0.041 A 
ATOM      9  C   UNL     1       2.772   2.715  -2.516  1.00  0.00     0.026 A 
ATOM     10  C   UNL     1       0.847   2.418  -1.105  1.00  0.00     0.040 A 
ATOM     11  C   UNL     1       2.325   3.995  -2.859  1.00  0.00     0.003 A 
ATOM     12  C   UNL     1       1.193   4.523  -2.239  1.00  0.00     0.014 A 
BRANCH   8  13
ATOM     13  N   UNL     1       2.655   0.747  -1.135  1.00  0.00    -0.326 N 
ATOM     14  O   UNL     1       1.065  -0.064   0.368  1.00  0.00    -0.274 OA
ATOM     15  C   UNL     1       2.196  -0.073  -0.111  1.00  0.00     0.230 C 
ATOM     16  H   UNL     1       3.490   0.471  -1.578  1.00  0.00     0.169 HD
BRANCH  15  17
ATOM     17  C   UNL     1       3.284  -0.943   0.521  1.00  0.00     0.154 C 
BRANCH  17  18
ATOM     18  C   UNL     1       3.993  -1.814  -0.475  1.00  0.00     0.034 A 
ATOM     19  C   UNL     1       3.651  -3.092  -0.691  1.00  0.00     0.093 A 
ATOM     20  N   UNL     1       5.055  -1.269  -1.159  1.00  0.00    -0.311 N 
ATOM     21  C   UNL     1       4.405  -3.883  -1.683  1.00  0.00     0.253 A 
ATOM     22  C   UNL     1       5.756  -1.925  -2.134  1.00  0.00     0.325 A 
ATOM     23  H   UNL     1       5.328  -0.350  -0.932  1.00  0.00     0.171 HD
ATOM     24  O   UNL     1       4.162  -5.071  -1.864  1.00  0.00    -0.269 OA
ATOM     25  N   UNL     1       5.376  -3.213  -2.370  1.00  0.00    -0.274 N 
ATOM     26  O   UNL     1       6.662  -1.376  -2.745  1.00  0.00    -0.248 OA
ATOM     27  H   UNL     1       5.837  -3.698  -3.092  1.00  0.00     0.175 HD
ENDBRANCH  17  18
ENDBRANCH  15  17
ENDBRANCH   8  13
ENDBRANCH   4   7
ENDBRANCH   2   3
ENDBRANCH   1   2
BRANCH   1  28
ATOM     28  C   UNL     1      -0.826   4.232   3.942  1.00  0.00     0.023 C 
BRANCH  28  29
ATOM     29  C   UNL     1      -1.895   3.171   4.173  1.00  0.00     0.116 C 
BRANCH  29  30
ATOM     30  N   UNL     1      -1.380   1.922   4.715  1.00  0.00    -0.352 N 
ATOM     31  C   UNL     1      -1.780   1.209   5.822  1.00  0.00     0.251 C 
ATOM     32  H   UNL     1      -0.630   1.528   4.214  1.00  0.00     0.163 HD
ATOM     33  O   UNL     1      -1.148   0.214   6.166  1.00  0.00    -0.269 OA
BRANCH  31  34
ATOM     34  C   UNL     1      -2.941   1.661   6.623  1.00  0.00     0.039 A 
ATOM     35  C   UNL     1      -2.829   1.685   8.016  1.00  0.00     0.014 A 
ATOM     36  C   UNL     1      -4.125   2.082   6.013  1.00  0.00     0.014 A 
ATOM     37  C   UNL     1      -3.865   2.218   8.787  1.00  0.00     0.010 A 
ATOM     38  C   UNL     1      -5.121   2.690   6.775  1.00  0.00     0.010 A 
ATOM     39  C   UNL     1      -4.999   2.772   8.170  1.00  0.00    -0.014 A 
BRANCH  39  40
ATOM     40  C   UNL     1      -6.046   3.467   8.966  1.00  0.00     0.031 A 
ATOM     41  C   UNL     1      -7.459   2.949   8.992  1.00  0.00     0.074 A 
ATOM     42  C   UNL     1      -5.738   4.611   9.612  1.00  0.00     0.049 A 
ATOM     43  N   UNL     1      -8.506   3.444   9.602  1.00  0.00    -0.248 NA
ATOM     44  C   UNL     1      -7.739   1.732   8.213  1.00  0.00     0.031 C 
ATOM     45  C   UNL     1      -4.422   5.257   9.614  1.00  0.00     0.029 A 
ATOM     46  N   UNL     1      -6.511   5.439  10.388  1.00  0.00    -0.354 N 
ATOM     47  C   UNL     1      -9.570   2.615   9.264  1.00  0.00     0.074 A 
ATOM     48  C   UNL     1      -9.051   1.612   8.360  1.00  0.00     0.031 C 
ATOM     49  C   UNL     1      -4.473   6.361  10.376  1.00  0.00     0.029 A 
ATOM     50  C   UNL     1      -5.830   6.525  10.888  1.00  0.00     0.049 A 
ATOM     51  H   UNL     1      -7.464   5.272  10.570  1.00  0.00     0.167 HD
ATOM     52  C   UNL     1     -10.857   2.670   9.683  1.00  0.00     0.031 A 
ATOM     53  C   UNL     1      -6.247   7.541  11.668  1.00  0.00     0.031 A 
ATOM     54  C   UNL     1     -11.368   3.657  10.597  1.00  0.00     0.049 A 
ATOM     55  C   UNL     1      -7.675   7.567  12.138  1.00  0.00     0.074 A 
ATOM     56  C   UNL     1     -12.639   3.751  11.139  1.00  0.00     0.029 A 
ATOM     57  N   UNL     1     -10.639   4.723  11.102  1.00  0.00    -0.354 N 
ATOM     58  N   UNL     1      -8.644   6.723  11.876  1.00  0.00    -0.248 NA
ATOM     59  C   UNL     1      -8.062   8.676  13.022  1.00  0.00     0.031 C 
ATOM     60  C   UNL     1     -12.692   4.902  11.932  1.00  0.00     0.029 A 
ATOM     61  C   UNL     1     -11.439   5.493  11.929  1.00  0.00     0.049 A 
ATOM     62  H   UNL     1      -9.693   4.905  10.902  1.00  0.00     0.167 HD
ATOM     63  C   UNL     1      -9.750   7.186  12.580  1.00  0.00     0.074 A 
ATOM     64  C   UNL     1      -9.323   8.372  13.295  1.00  0.00     0.031 C 
ATOM     65  C   UNL     1     -11.005   6.676  12.629  1.00  0.00     0.031 A 
BRANCH  52  66
ATOM     66  C   UNL     1     -11.808   1.628   9.153  1.00  0.00    -0.014 A 
ATOM     67  C   UNL     1     -11.710   0.283   9.556  1.00  0.00     0.010 A 
ATOM     68  C   UNL     1     -12.842   2.006   8.277  1.00  0.00     0.010 A 
ATOM     69  C   UNL     1     -12.603  -0.671   9.061  1.00  0.00     0.020 A 
ATOM     70  C   UNL     1     -13.755   1.059   7.803  1.00  0.00     0.020 A 
ATOM     71  C   UNL     1     -13.619  -0.277   8.185  1.00  0.00     0.054 A 
BRANCH  71  72
ATOM     72  S   UNL     1     -14.782  -1.532   7.582  1.00  0.00     0.124 S 
ATOM     73  O   UNL     1     -13.958  -2.271   6.629  1.00  0.00    -0.237 OA
ATOM     74  O   UNL     1     -15.133  -2.256   8.801  1.00  0.00    -0.237 OA
ATOM     75  O   UNL     1     -15.864  -0.748   6.993  1.00  0.00    -0.744 OA
ENDBRANCH  71  72
ENDBRANCH  52  66
BRANCH  53  76
ATOM     76  C   UNL     1      -5.293   8.612  12.068  1.00  0.00    -0.014 A 
ATOM     77  C   UNL     1      -4.835   8.703  13.394  1.00  0.00     0.010 A 
ATOM     78  C   UNL     1      -4.828   9.541  11.120  1.00  0.00     0.010 A 
ATOM     79  C   UNL     1      -3.947   9.715  13.770  1.00  0.00     0.020 A 
ATOM     80  C   UNL     1      -3.918  10.538  11.485  1.00  0.00     0.020 A 
ATOM     81  C   UNL     1      -3.493  10.626  12.812  1.00  0.00     0.054 A 
BRANCH  81  82
ATOM     82  S   UNL     1      -2.300  11.899  13.309  1.00  0.00     0.124 S 
ATOM     83  O   UNL     1      -3.143  12.834  14.047  1.00  0.00    -0.237 OA
ATOM     84  O   UNL     1      -1.343  11.141  14.112  1.00  0.00    -0.237 OA
ATOM     85  O   UNL     1      -1.779  12.394  12.037  1.00  0.00    -0.744 OA
ENDBRANCH  81  82
ENDBRANCH  53  76
BRANCH  65  86
ATOM     86  C   UNL     1     -12.003   7.385  13.505  1.00  0.00    -0.014 A 
ATOM     87  C   UNL     1     -12.529   8.639  13.143  1.00  0.00     0.010 A 
ATOM     88  C   UNL     1     -12.448   6.771  14.690  1.00  0.00     0.010 A 
ATOM     89  C   UNL     1     -13.450   9.284  13.973  1.00  0.00     0.020 A 
ATOM     90  C   UNL     1     -13.390   7.400  15.507  1.00  0.00     0.020 A 
ATOM     91  C   UNL     1     -13.871   8.662  15.152  1.00  0.00     0.054 A 
BRANCH  91  92
ATOM     92  S   UNL     1     -15.086   9.507  16.201  1.00  0.00     0.124 S 
ATOM     93  O   UNL     1     -14.273  10.541  16.835  1.00  0.00    -0.237 OA
ATOM     94  O   UNL     1     -16.070   9.986  15.232  1.00  0.00    -0.237 OA
ATOM     95  O   UNL     1     -15.564   8.454  17.095  1.00  0.00    -0.744 OA
ENDBRANCH  91  92
ENDBRANCH  65  86
ENDBRANCH  39  40
ENDBRANCH  31  34
ENDBRANCH  29  30
ENDBRANCH  28  29
ENDBRANCH   1  28
TORSDOF 17
