REMARK SMILES O=C(NCCCCNC(=O)[C@H]1[C@H]2CC[C@H](CC2)[C@@H]1C(=O)Nc1ccc(Cc2ccncc2)cc1)c1ccc(-c2c3nc(c(-c4ccc(S(=O)(=O)[O-])cc4)c4ccc([nH]4)c(-c4ccc(S(=O)(=O)[O-])cc4)c4nc(c(-c5ccc(S(=O)(=O)[O-])cc5)c5ccc2[nH]5)C=C4)C=C3)cc1
REMARK SMILES IDX 6 1 5 2 4 3 3 4 1 5 2 6 35 8 36 9 94 10 37 11 93 12 38 13
REMARK SMILES IDX 39 14 40 15 87 16 41 17 92 18 86 19 88 20 42 21 91 22 85 23
REMARK SMILES IDX 84 24 43 26 73 27 54 28 72 29 55 30 58 31 71 32 89 33 56 34
REMARK SMILES IDX 57 35 70 37 90 38 59 39 44 40 45 41 53 42 46 43 52 44 47 45
REMARK SMILES IDX 48 46 49 47 50 48 51 49 74 50 75 51 83 52 76 53 82 54 77 55
REMARK SMILES IDX 78 56 79 57 80 58 81 59 60 60 61 61 69 62 62 63 68 64 63 65
REMARK SMILES IDX 64 66 65 67 66 68 67 69 7 70 8 71 9 72 10 74 11 75 12 76
REMARK SMILES IDX 18 77 13 78 17 79 15 80 14 81 16 82 19 83 20 84 21 85 22 87
REMARK SMILES IDX 23 88 34 89 24 90 33 91 25 92 26 93 27 94 28 95 32 96 29 97
REMARK SMILES IDX 31 98 30 99
REMARK H PARENT 3 7 88 25 58 36 8 73 21 86
REMARK Flexibility Score: inf
ROOT
ATOM      1  C   UNL     1       3.875  -2.759   2.660  1.00  0.00     0.023 C 
ENDROOT
BRANCH   1   2
ATOM      2  C   UNL     1       4.342  -1.508   1.903  1.00  0.00     0.023 C 
BRANCH   2   3
ATOM      3  C   UNL     1       3.976  -1.425   0.421  1.00  0.00     0.116 C 
BRANCH   3   4
ATOM      4  N   UNL     1       2.557  -1.220   0.180  1.00  0.00    -0.352 N 
ATOM      5  O   UNL     1       0.655  -0.280  -0.543  1.00  0.00    -0.269 OA
ATOM      6  C   UNL     1       1.888  -0.285  -0.578  1.00  0.00     0.251 C 
ATOM      7  H   UNL     1       1.971  -1.864   0.640  1.00  0.00     0.163 HD
BRANCH   6   8
ATOM      8  C   UNL     1       2.595   0.733  -1.400  1.00  0.00     0.039 A 
ATOM      9  C   UNL     1       3.768   0.452  -2.106  1.00  0.00     0.014 A 
ATOM     10  C   UNL     1       2.056   2.027  -1.470  1.00  0.00     0.014 A 
ATOM     11  C   UNL     1       4.470   1.481  -2.748  1.00  0.00     0.010 A 
ATOM     12  C   UNL     1       2.722   3.043  -2.172  1.00  0.00     0.010 A 
ATOM     13  C   UNL     1       3.955   2.791  -2.790  1.00  0.00    -0.014 A 
BRANCH  13  14
ATOM     14  C   UNL     1       4.642   3.853  -3.575  1.00  0.00     0.031 A 
ATOM     15  C   UNL     1       5.236   5.083  -2.933  1.00  0.00     0.074 A 
ATOM     16  C   UNL     1       4.686   3.716  -4.914  1.00  0.00     0.049 A 
ATOM     17  N   UNL     1       5.836   6.102  -3.499  1.00  0.00    -0.248 NA
ATOM     18  C   UNL     1       5.164   5.178  -1.471  1.00  0.00     0.031 C 
ATOM     19  C   UNL     1       4.157   2.570  -5.658  1.00  0.00     0.029 A 
ATOM     20  N   UNL     1       5.171   4.552  -5.887  1.00  0.00    -0.354 N 
ATOM     21  C   UNL     1       6.217   6.952  -2.463  1.00  0.00     0.074 A 
ATOM     22  C   UNL     1       5.778   6.330  -1.234  1.00  0.00     0.031 C 
ATOM     23  C   UNL     1       4.333   2.780  -6.968  1.00  0.00     0.029 A 
ATOM     24  C   UNL     1       4.916   4.103  -7.160  1.00  0.00     0.049 A 
ATOM     25  H   UNL     1       5.652   5.388  -5.693  1.00  0.00     0.167 HD
ATOM     26  C   UNL     1       6.848   8.151  -2.530  1.00  0.00     0.031 A 
ATOM     27  C   UNL     1       5.073   4.702  -8.355  1.00  0.00     0.031 A 
ATOM     28  C   UNL     1       7.192   8.811  -3.765  1.00  0.00     0.049 A 
ATOM     29  C   UNL     1       5.667   6.076  -8.413  1.00  0.00     0.074 A 
ATOM     30  C   UNL     1       7.831  10.026  -3.945  1.00  0.00     0.029 A 
ATOM     31  N   UNL     1       6.884   8.331  -5.030  1.00  0.00    -0.354 N 
ATOM     32  N   UNL     1       6.067   6.837  -7.424  1.00  0.00    -0.248 NA
ATOM     33  C   UNL     1       5.840   6.669  -9.744  1.00  0.00     0.031 C 
ATOM     34  C   UNL     1       7.836  10.317  -5.313  1.00  0.00     0.029 A 
ATOM     35  C   UNL     1       7.280   9.245  -5.993  1.00  0.00     0.049 A 
ATOM     36  H   UNL     1       6.447   7.469  -5.216  1.00  0.00     0.167 HD
ATOM     37  C   UNL     1       6.571   7.989  -8.014  1.00  0.00     0.074 A 
ATOM     38  C   UNL     1       6.420   7.825  -9.446  1.00  0.00     0.031 C 
ATOM     39  C   UNL     1       7.121   9.075  -7.418  1.00  0.00     0.031 A 
BRANCH  26  40
ATOM     40  C   UNL     1       7.137   8.868  -1.230  1.00  0.00    -0.014 A 
ATOM     41  C   UNL     1       8.097   8.387  -0.320  1.00  0.00     0.010 A 
ATOM     42  C   UNL     1       6.454  10.061  -0.925  1.00  0.00     0.010 A 
ATOM     43  C   UNL     1       8.324   9.052   0.891  1.00  0.00     0.020 A 
ATOM     44  C   UNL     1       6.697  10.744   0.271  1.00  0.00     0.020 A 
ATOM     45  C   UNL     1       7.613  10.220   1.184  1.00  0.00     0.054 A 
BRANCH  45  46
ATOM     46  S   UNL     1       7.904  11.043   2.776  1.00  0.00     0.124 S 
ATOM     47  O   UNL     1       7.281  10.112   3.714  1.00  0.00    -0.237 OA
ATOM     48  O   UNL     1       9.362  11.113   2.840  1.00  0.00    -0.237 OA
ATOM     49  O   UNL     1       7.226  12.329   2.634  1.00  0.00    -0.744 OA
ENDBRANCH  45  46
ENDBRANCH  26  40
BRANCH  27  50
ATOM     50  C   UNL     1       4.610   3.985  -9.571  1.00  0.00    -0.014 A 
ATOM     51  C   UNL     1       5.532   3.406 -10.457  1.00  0.00     0.010 A 
ATOM     52  C   UNL     1       3.232   3.775  -9.777  1.00  0.00     0.010 A 
ATOM     53  C   UNL     1       5.085   2.611 -11.516  1.00  0.00     0.020 A 
ATOM     54  C   UNL     1       2.784   2.957 -10.816  1.00  0.00     0.020 A 
ATOM     55  C   UNL     1       3.715   2.379 -11.679  1.00  0.00     0.054 A 
BRANCH  55  56
ATOM     56  S   UNL     1       3.171   1.247 -12.988  1.00  0.00     0.124 S 
ATOM     57  O   UNL     1       3.420   2.033 -14.192  1.00  0.00    -0.237 OA
ATOM     58  O   UNL     1       4.048   0.096 -12.790  1.00  0.00    -0.237 OA
ATOM     59  O   UNL     1       1.764   1.009 -12.674  1.00  0.00    -0.744 OA
ENDBRANCH  55  56
ENDBRANCH  27  50
BRANCH  39  60
ATOM     60  C   UNL     1       7.658  10.164  -8.307  1.00  0.00    -0.014 A 
ATOM     61  C   UNL     1       6.803  11.043  -8.995  1.00  0.00     0.010 A 
ATOM     62  C   UNL     1       9.049  10.365  -8.377  1.00  0.00     0.010 A 
ATOM     63  C   UNL     1       7.332  12.100  -9.741  1.00  0.00     0.020 A 
ATOM     64  C   UNL     1       9.580  11.436  -9.098  1.00  0.00     0.020 A 
ATOM     65  C   UNL     1       8.717  12.295  -9.780  1.00  0.00     0.054 A 
BRANCH  65  66
ATOM     66  S   UNL     1       9.374  13.725 -10.681  1.00  0.00     0.124 S 
ATOM     67  O   UNL     1       9.151  13.338 -12.072  1.00  0.00    -0.237 OA
ATOM     68  O   UNL     1       8.540  14.821 -10.193  1.00  0.00    -0.237 OA
ATOM     69  O   UNL     1      10.774  13.784 -10.268  1.00  0.00    -0.744 OA
ENDBRANCH  65  66
ENDBRANCH  39  60
ENDBRANCH  13  14
ENDBRANCH   6   8
ENDBRANCH   3   4
ENDBRANCH   2   3
ENDBRANCH   1   2
BRANCH   1  70
ATOM     70  C   UNL     1       4.459  -4.090   2.177  1.00  0.00     0.116 C 
BRANCH  70  71
ATOM     71  N   UNL     1       5.908  -4.143   2.263  1.00  0.00    -0.356 N 
ATOM     72  C   UNL     1       6.747  -4.733   3.158  1.00  0.00     0.224 C 
ATOM     73  H   UNL     1       6.370  -3.662   1.539  1.00  0.00     0.163 HD
ATOM     74  O   UNL     1       7.956  -4.603   2.950  1.00  0.00    -0.275 OA
BRANCH  72  75
ATOM     75  C   UNL     1       6.219  -5.537   4.350  1.00  0.00     0.094 C 
ATOM     76  C   UNL     1       6.568  -7.030   4.063  1.00  0.00     0.002 C 
ATOM     77  C   UNL     1       6.816  -5.135   5.736  1.00  0.00     0.094 C 
ATOM     78  C   UNL     1       8.080  -7.322   4.256  1.00  0.00     0.005 C 
ATOM     79  C   UNL     1       5.805  -7.886   5.081  1.00  0.00     0.005 C 
ATOM     80  C   UNL     1       7.330  -6.416   6.469  1.00  0.00     0.002 C 
ATOM     81  C   UNL     1       8.540  -6.922   5.664  1.00  0.00     0.005 C 
ATOM     82  C   UNL     1       6.290  -7.557   6.495  1.00  0.00     0.005 C 
BRANCH  77  83
ATOM     83  C   UNL     1       5.825  -4.372   6.625  1.00  0.00     0.228 C 
ATOM     84  O   UNL     1       5.061  -4.980   7.386  1.00  0.00    -0.274 OA
ATOM     85  N   UNL     1       5.719  -3.012   6.659  1.00  0.00    -0.326 N 
ATOM     86  H   UNL     1       5.124  -2.702   7.380  1.00  0.00     0.169 HD
BRANCH  85  87
ATOM     87  C   UNL     1       6.254  -1.948   5.914  1.00  0.00     0.041 A 
ATOM     88  C   UNL     1       5.859  -0.652   6.251  1.00  0.00     0.026 A 
ATOM     89  C   UNL     1       7.106  -2.087   4.834  1.00  0.00     0.026 A 
ATOM     90  C   UNL     1       6.253   0.443   5.469  1.00  0.00     0.006 A 
ATOM     91  C   UNL     1       7.445  -1.020   4.007  1.00  0.00     0.006 A 
ATOM     92  C   UNL     1       7.007   0.263   4.302  1.00  0.00    -0.043 A 
BRANCH  92  93
ATOM     93  C   UNL     1       7.379   1.394   3.374  1.00  0.00     0.071 C 
BRANCH  93  94
ATOM     94  C   UNL     1       6.194   2.077   2.746  1.00  0.00    -0.041 A 
ATOM     95  C   UNL     1       5.410   2.983   3.470  1.00  0.00     0.024 A 
ATOM     96  C   UNL     1       5.845   1.811   1.428  1.00  0.00     0.024 A 
ATOM     97  C   UNL     1       4.295   3.542   2.870  1.00  0.00     0.111 A 
ATOM     98  C   UNL     1       4.724   2.435   0.921  1.00  0.00     0.111 A 
ATOM     99  N   UNL     1       3.926   3.278   1.605  1.00  0.00    -0.265 NA
ENDBRANCH  93  94
ENDBRANCH  92  93
ENDBRANCH  85  87
ENDBRANCH  77  83
ENDBRANCH  72  75
ENDBRANCH  70  71
ENDBRANCH   1  70
TORSDOF 18
