REMARK SMILES COc1cc(-c2ccc(F)c(C(F)(F)F)c2)ccc1C(=O)NCCCCNC(=O)c1ccc(-c2c3nc(c(-c4ccc(S(=O)(=O)[O-])cc4)c4ccc([nH]4)c(-c4ccc(S(=O)(=O)[O-])cc4)c4nc(c(-c5ccc(S(=O)(=O)[O-])cc5)c5ccc2[nH]5)C=C4)C=C3)cc1
REMARK SMILES IDX 25 1 24 2 23 3 22 4 20 5 21 6 19 8 3 9 4 10 5 11 18 12 17 13
REMARK SMILES IDX 2 14 1 15 6 16 7 17 16 18 8 19 11 20 9 21 10 22 12 23 13 24
REMARK SMILES IDX 14 25 15 26 26 27 27 28 28 29 29 31 30 32 31 33 89 34 32 35
REMARK SMILES IDX 88 36 33 37 34 38 35 39 82 40 36 41 87 42 81 43 83 44 37 45
REMARK SMILES IDX 86 46 80 47 79 48 38 50 68 51 49 52 67 53 50 54 53 55 66 56
REMARK SMILES IDX 84 57 51 58 52 59 65 61 85 62 54 63 39 64 40 65 48 66 41 67
REMARK SMILES IDX 47 68 42 69 43 70 44 71 45 72 46 73 69 74 70 75 78 76 71 77
REMARK SMILES IDX 77 78 72 79 73 80 74 81 75 82 76 83 55 84 56 85 64 86 57 87
REMARK SMILES IDX 63 88 58 89 59 90 60 91 61 92 62 93
REMARK H PARENT 22 7 27 30 83 49 53 60
REMARK Flexibility Score: inf
ROOT
ATOM      1  C   UNL     1       2.881  -0.465   3.259  1.00  0.00     0.023 C 
ENDROOT
BRANCH   1   2
ATOM      2  C   UNL     1       2.155  -1.603   2.540  1.00  0.00     0.023 C 
BRANCH   2   3
ATOM      3  C   UNL     1       1.764  -1.341   1.089  1.00  0.00     0.116 C 
BRANCH   3   4
ATOM      4  N   UNL     1       2.869  -0.970   0.223  1.00  0.00    -0.352 N 
ATOM      5  C   UNL     1       2.967  -1.070  -1.145  1.00  0.00     0.255 C 
ATOM      6  O   UNL     1       3.979  -0.654  -1.707  1.00  0.00    -0.269 OA
ATOM      7  H   UNL     1       3.657  -0.595   0.678  1.00  0.00     0.163 HD
BRANCH   5   8
ATOM      8  C   UNL     1       1.926  -1.748  -1.957  1.00  0.00     0.081 A 
ATOM      9  C   UNL     1       0.549  -1.538  -1.849  1.00  0.00     0.132 A 
ATOM     10  C   UNL     1      -0.339  -2.399  -2.505  1.00  0.00     0.056 A 
ATOM     11  C   UNL     1       0.117  -3.425  -3.351  1.00  0.00    -0.015 A 
ATOM     12  C   UNL     1       2.393  -2.696  -2.879  1.00  0.00     0.018 A 
ATOM     13  C   UNL     1       1.498  -3.518  -3.573  1.00  0.00     0.010 A 
BRANCH   9  14
ATOM     14  O   UNL     1      -0.039  -0.599  -1.047  1.00  0.00    -0.496 OA
ATOM     15  C   UNL     1       0.215   0.734  -1.488  1.00  0.00     0.278 C 
ENDBRANCH   9  14
BRANCH  11  16
ATOM     16  C   UNL     1      -0.823  -4.416  -3.909  1.00  0.00    -0.017 A 
ATOM     17  C   UNL     1      -2.053  -4.036  -4.469  1.00  0.00     0.012 A 
ATOM     18  C   UNL     1      -0.539  -5.794  -3.819  1.00  0.00     0.025 A 
ATOM     19  C   UNL     1      -2.972  -4.995  -4.902  1.00  0.00     0.040 A 
ATOM     20  C   UNL     1      -1.455  -6.767  -4.253  1.00  0.00     0.092 A 
ATOM     21  C   UNL     1      -2.668  -6.347  -4.786  1.00  0.00     0.135 A 
ATOM     22  F   UNL     1      -3.571  -7.250  -5.188  1.00  0.00    -0.206 F 
BRANCH  20  23
ATOM     23  C   UNL     1      -1.172  -8.232  -4.128  1.00  0.00     0.419 C 
ATOM     24  F   UNL     1      -2.038  -8.871  -3.294  1.00  0.00    -0.166 F 
ATOM     25  F   UNL     1      -1.234  -8.890  -5.319  1.00  0.00    -0.166 F 
ATOM     26  F   UNL     1       0.072  -8.496  -3.633  1.00  0.00    -0.166 F 
ENDBRANCH  20  23
ENDBRANCH  11  16
ENDBRANCH   5   8
ENDBRANCH   3   4
ENDBRANCH   2   3
ENDBRANCH   1   2
BRANCH   1  27
ATOM     27  C   UNL     1       2.314   0.938   3.065  1.00  0.00     0.116 C 
BRANCH  27  28
ATOM     28  N   UNL     1       0.956   1.097   3.558  1.00  0.00    -0.352 N 
ATOM     29  C   UNL     1       0.456   1.936   4.529  1.00  0.00     0.251 C 
ATOM     30  H   UNL     1       0.288   0.513   3.130  1.00  0.00     0.163 HD
ATOM     31  O   UNL     1      -0.722   1.852   4.856  1.00  0.00    -0.269 OA
BRANCH  29  32
ATOM     32  C   UNL     1       1.344   2.908   5.209  1.00  0.00     0.039 A 
ATOM     33  C   UNL     1       1.296   3.001   6.603  1.00  0.00     0.014 A 
ATOM     34  C   UNL     1       2.227   3.715   4.489  1.00  0.00     0.014 A 
ATOM     35  C   UNL     1       2.195   3.834   7.277  1.00  0.00     0.010 A 
ATOM     36  C   UNL     1       3.175   4.482   5.164  1.00  0.00     0.010 A 
ATOM     37  C   UNL     1       3.175   4.545   6.566  1.00  0.00    -0.014 A 
BRANCH  37  38
ATOM     38  C   UNL     1       4.205   5.360   7.266  1.00  0.00     0.031 A 
ATOM     39  C   UNL     1       4.271   6.849   7.042  1.00  0.00     0.074 A 
ATOM     40  C   UNL     1       5.120   4.759   8.054  1.00  0.00     0.049 A 
ATOM     41  N   UNL     1       5.149   7.712   7.485  1.00  0.00    -0.248 NA
ATOM     42  C   UNL     1       3.226   7.439   6.190  1.00  0.00     0.031 C 
ATOM     43  C   UNL     1       5.193   3.322   8.332  1.00  0.00     0.029 A 
ATOM     44  N   UNL     1       6.172   5.284   8.765  1.00  0.00    -0.354 N 
ATOM     45  C   UNL     1       4.772   8.941   6.956  1.00  0.00     0.074 A 
ATOM     46  C   UNL     1       3.618   8.703   6.117  1.00  0.00     0.031 C 
ATOM     47  C   UNL     1       6.214   3.086   9.173  1.00  0.00     0.029 A 
ATOM     48  C   UNL     1       6.894   4.344   9.463  1.00  0.00     0.049 A 
ATOM     49  H   UNL     1       6.390   6.244   8.773  1.00  0.00     0.167 HD
ATOM     50  C   UNL     1       5.316  10.164   7.168  1.00  0.00     0.031 A 
ATOM     51  C   UNL     1       7.982   4.478  10.246  1.00  0.00     0.031 A 
ATOM     52  C   UNL     1       6.453  10.408   8.015  1.00  0.00     0.049 A 
ATOM     53  C   UNL     1       8.573   5.846  10.459  1.00  0.00     0.074 A 
ATOM     54  C   UNL     1       7.069  11.614   8.303  1.00  0.00     0.029 A 
ATOM     55  N   UNL     1       7.136   9.432   8.722  1.00  0.00    -0.354 N 
ATOM     56  N   UNL     1       8.184   6.998   9.967  1.00  0.00    -0.248 NA
ATOM     57  C   UNL     1       9.743   5.933  11.345  1.00  0.00     0.031 C 
ATOM     58  C   UNL     1       8.141  11.363   9.167  1.00  0.00     0.029 A 
ATOM     59  C   UNL     1       8.163  10.007   9.451  1.00  0.00     0.049 A 
ATOM     60  H   UNL     1       6.922   8.471   8.709  1.00  0.00     0.167 HD
ATOM     61  C   UNL     1       9.036   7.950  10.518  1.00  0.00     0.074 A 
ATOM     62  C   UNL     1       9.955   7.241  11.384  1.00  0.00     0.031 C 
ATOM     63  C   UNL     1       9.054   9.291  10.326  1.00  0.00     0.031 A 
BRANCH  50  64
ATOM     64  C   UNL     1       4.670  11.337   6.482  1.00  0.00    -0.014 A 
ATOM     65  C   UNL     1       3.410  11.805   6.898  1.00  0.00     0.010 A 
ATOM     66  C   UNL     1       5.337  12.001   5.437  1.00  0.00     0.010 A 
ATOM     67  C   UNL     1       2.811  12.891   6.257  1.00  0.00     0.020 A 
ATOM     68  C   UNL     1       4.752  13.106   4.810  1.00  0.00     0.020 A 
ATOM     69  C   UNL     1       3.485  13.533   5.213  1.00  0.00     0.054 A 
BRANCH  69  70
ATOM     70  S   UNL     1       2.692  14.954   4.413  1.00  0.00     0.124 S 
ATOM     71  O   UNL     1       1.665  14.307   3.601  1.00  0.00    -0.237 OA
ATOM     72  O   UNL     1       2.199  15.730   5.548  1.00  0.00    -0.237 OA
ATOM     73  O   UNL     1       3.779  15.578   3.661  1.00  0.00    -0.744 OA
ENDBRANCH  69  70
ENDBRANCH  50  64
BRANCH  51  74
ATOM     74  C   UNL     1       8.585   3.289  10.911  1.00  0.00    -0.014 A 
ATOM     75  C   UNL     1       8.489   3.131  12.306  1.00  0.00     0.010 A 
ATOM     76  C   UNL     1       9.287   2.329  10.161  1.00  0.00     0.010 A 
ATOM     77  C   UNL     1       9.118   2.058  12.943  1.00  0.00     0.020 A 
ATOM     78  C   UNL     1       9.894   1.239  10.792  1.00  0.00     0.020 A 
ATOM     79  C   UNL     1       9.824   1.122  12.182  1.00  0.00     0.054 A 
BRANCH  79  80
ATOM     80  S   UNL     1      10.627  -0.270  13.025  1.00  0.00     0.124 S 
ATOM     81  O   UNL     1      11.818   0.362  13.583  1.00  0.00    -0.237 OA
ATOM     82  O   UNL     1       9.614  -0.682  13.994  1.00  0.00    -0.237 OA
ATOM     83  O   UNL     1      10.870  -1.225  11.946  1.00  0.00    -0.744 OA
ENDBRANCH  79  80
ENDBRANCH  51  74
BRANCH  63  84
ATOM     84  C   UNL     1      10.055  10.091  11.115  1.00  0.00    -0.014 A 
ATOM     85  C   UNL     1      11.425  10.069  10.799  1.00  0.00     0.010 A 
ATOM     86  C   UNL     1       9.605  10.912  12.165  1.00  0.00     0.010 A 
ATOM     87  C   UNL     1      12.332  10.829  11.542  1.00  0.00     0.020 A 
ATOM     88  C   UNL     1      10.505  11.692  12.894  1.00  0.00     0.020 A 
ATOM     89  C   UNL     1      11.866  11.633  12.588  1.00  0.00     0.054 A 
BRANCH  89  90
ATOM     90  S   UNL     1      13.056  12.641  13.515  1.00  0.00     0.124 S 
ATOM     91  O   UNL     1      13.691  11.646  14.375  1.00  0.00    -0.237 OA
ATOM     92  O   UNL     1      13.903  13.192  12.460  1.00  0.00    -0.237 OA
ATOM     93  O   UNL     1      12.217  13.618  14.205  1.00  0.00    -0.744 OA
ENDBRANCH  89  90
ENDBRANCH  63  84
ENDBRANCH  37  38
ENDBRANCH  29  32
ENDBRANCH  27  28
ENDBRANCH   1  27
TORSDOF 17
