REMARK SMILES O=C(CCN1C(=O)/C(=C/C=C/c2ccco2)SC1=S)Nc1ccc(C(=O)NCCCCNC(=O)c2ccc(-c3c4nc(c(-c5ccc(S(=O)(=O)[O-])cc5)c5ccc([nH]5)c(-c5ccc(S(=O)(=O)[O-])cc5)c5nc(c(-c6ccc(S(=O)(=O)[O-])cc6)c6ccc3[nH]6)C=C5)C=C4)cc2)c(O)c1
REMARK SMILES IDX 28 1 27 2 25 3 26 4 24 6 21 7 22 8 97 9 23 10 95 11 20 12
REMARK SMILES IDX 1 13 2 14 3 16 4 17 5 18 6 19 18 20 7 21 8 22 17 23 19 24
REMARK SMILES IDX 9 25 10 26 11 27 12 28 13 29 16 30 14 31 15 32 96 33 29 35
REMARK SMILES IDX 30 36 31 37 32 38 33 39 34 41 35 42 36 43 94 44 37 45 93 46
REMARK SMILES IDX 38 47 39 48 40 49 87 50 41 51 92 52 86 53 88 54 42 55 91 56
REMARK SMILES IDX 85 57 84 58 43 60 73 61 54 62 72 63 55 64 58 65 71 66 89 67
REMARK SMILES IDX 56 68 57 69 70 71 90 72 59 73 44 74 45 75 53 76 46 77 52 78
REMARK SMILES IDX 47 79 48 80 49 81 50 82 51 83 74 84 75 85 83 86 76 87 82 88
REMARK SMILES IDX 77 89 78 90 79 91 80 92 81 93 60 94 61 95 69 96 62 97 68 98
REMARK SMILES IDX 63 99 64 100 65 101 66 102 67 103
REMARK H PARENT 27 5 20 15 96 34 32 40 88 59 58 70
REMARK Flexibility Score: inf
ROOT
ATOM      1  C   UNL     1       1.269  -2.430   6.580  1.00  0.00     0.116 C 
ENDROOT
BRANCH   1   2
ATOM      2  N   UNL     1       0.545  -3.570   6.033  1.00  0.00    -0.352 N 
ATOM      3  C   UNL     1       0.456  -3.998   4.727  1.00  0.00     0.255 C 
ATOM      4  O   UNL     1      -0.205  -4.993   4.448  1.00  0.00    -0.269 OA
ATOM      5  H   UNL     1       0.050  -4.110   6.690  1.00  0.00     0.163 HD
BRANCH   3   6
ATOM      6  C   UNL     1       1.112  -3.231   3.647  1.00  0.00     0.081 A 
ATOM      7  C   UNL     1       2.097  -1.436   1.728  1.00  0.00     0.044 A 
ATOM      8  C   UNL     1       0.815  -1.969   1.594  1.00  0.00     0.027 A 
ATOM      9  C   UNL     1       2.921  -1.898   2.762  1.00  0.00     0.073 A 
ATOM     10  C   UNL     1       0.319  -2.857   2.556  1.00  0.00     0.020 A 
ATOM     11  C   UNL     1       2.445  -2.821   3.690  1.00  0.00     0.130 A 
BRANCH   7  12
ATOM     12  N   UNL     1       2.642  -0.453   0.879  1.00  0.00    -0.326 N 
ATOM     13  O   UNL     1       0.870   0.042  -0.528  1.00  0.00    -0.275 OA
ATOM     14  C   UNL     1       2.042   0.180  -0.184  1.00  0.00     0.226 C 
ATOM     15  H   UNL     1       3.570  -0.185   1.072  1.00  0.00     0.169 HD
BRANCH  14  16
ATOM     16  C   UNL     1       2.964   1.037  -1.039  1.00  0.00     0.122 C 
BRANCH  16  17
ATOM     17  C   UNL     1       4.197   1.689  -0.411  1.00  0.00     0.137 C 
BRANCH  17  18
ATOM     18  N   UNL     1       5.218   0.854   0.253  1.00  0.00    -0.292 N 
ATOM     19  C   UNL     1       5.867   1.417   1.353  1.00  0.00     0.266 C 
ATOM     20  C   UNL     1       5.774  -0.323  -0.214  1.00  0.00     0.148 C 
ATOM     21  O   UNL     1       5.672   2.537   1.804  1.00  0.00    -0.268 OA
ATOM     22  C   UNL     1       6.876   0.478   1.909  1.00  0.00     0.080 C 
ATOM     23  S   UNL     1       6.893  -0.964   0.980  1.00  0.00    -0.054 SA
ATOM     24  S   UNL     1       5.507  -1.126  -1.646  1.00  0.00    -0.052 S 
ATOM     25  C   UNL     1       7.643   0.776   2.969  1.00  0.00     0.021 C 
BRANCH  25  26
ATOM     26  C   UNL     1       8.586  -0.131   3.596  1.00  0.00     0.005 C 
ATOM     27  C   UNL     1       9.407   0.208   4.601  1.00  0.00     0.047 C 
BRANCH  27  28
ATOM     28  C   UNL     1      10.239  -0.759   5.238  1.00  0.00     0.126 A 
ATOM     29  C   UNL     1      10.633  -2.034   4.840  1.00  0.00     0.050 A 
ATOM     30  O   UNL     1      10.799  -0.532   6.477  1.00  0.00    -0.465 OA
ATOM     31  C   UNL     1      11.404  -2.603   5.880  1.00  0.00     0.042 A 
ATOM     32  C   UNL     1      11.470  -1.645   6.858  1.00  0.00     0.195 A 
ENDBRANCH  27  28
ENDBRANCH  25  26
ENDBRANCH  17  18
ENDBRANCH  16  17
ENDBRANCH  14  16
ENDBRANCH   7  12
BRANCH  11  33
ATOM     33  O   UNL     1       3.349  -3.261   4.616  1.00  0.00    -0.507 OA
ATOM     34  H   UNL     1       3.088  -3.883   5.267  1.00  0.00     0.293 HD
ENDBRANCH  11  33
ENDBRANCH   3   6
ENDBRANCH   1   2
BRANCH   1  35
ATOM     35  C   UNL     1       0.543  -1.685   7.694  1.00  0.00     0.023 C 
BRANCH  35  36
ATOM     36  C   UNL     1       0.127  -2.512   8.907  1.00  0.00     0.023 C 
BRANCH  36  37
ATOM     37  C   UNL     1       1.180  -3.452   9.478  1.00  0.00     0.116 C 
BRANCH  37  38
ATOM     38  N   UNL     1       2.385  -2.777   9.932  1.00  0.00    -0.352 N 
ATOM     39  C   UNL     1       2.990  -2.782  11.168  1.00  0.00     0.251 C 
ATOM     40  H   UNL     1       2.839  -2.232   9.250  1.00  0.00     0.163 HD
ATOM     41  O   UNL     1       3.966  -2.060  11.365  1.00  0.00    -0.269 OA
BRANCH  39  42
ATOM     42  C   UNL     1       2.455  -3.616  12.270  1.00  0.00     0.039 A 
ATOM     43  C   UNL     1       2.366  -3.063  13.551  1.00  0.00     0.014 A 
ATOM     44  C   UNL     1       2.043  -4.933  12.054  1.00  0.00     0.014 A 
ATOM     45  C   UNL     1       1.800  -3.804  14.592  1.00  0.00     0.010 A 
ATOM     46  C   UNL     1       1.393  -5.633  13.067  1.00  0.00     0.010 A 
ATOM     47  C   UNL     1       1.275  -5.084  14.352  1.00  0.00    -0.014 A 
BRANCH  47  48
ATOM     48  C   UNL     1       0.630  -5.873  15.436  1.00  0.00     0.031 A 
ATOM     49  C   UNL     1       1.217  -7.196  15.859  1.00  0.00     0.074 A 
ATOM     50  C   UNL     1      -0.511  -5.433  16.004  1.00  0.00     0.049 A 
ATOM     51  N   UNL     1       0.777  -8.048  16.750  1.00  0.00    -0.248 NA
ATOM     52  C   UNL     1       2.441  -7.633  15.167  1.00  0.00     0.031 C 
ATOM     53  C   UNL     1      -1.214  -4.196  15.653  1.00  0.00     0.029 A 
ATOM     54  N   UNL     1      -1.283  -5.978  17.000  1.00  0.00    -0.354 N 
ATOM     55  C   UNL     1       1.654  -9.127  16.707  1.00  0.00     0.074 A 
ATOM     56  C   UNL     1       2.615  -8.848  15.664  1.00  0.00     0.031 C 
ATOM     57  C   UNL     1      -2.292  -4.062  16.444  1.00  0.00     0.029 A 
ATOM     58  C   UNL     1      -2.377  -5.215  17.335  1.00  0.00     0.049 A 
ATOM     59  H   UNL     1      -1.072  -6.836  17.435  1.00  0.00     0.167 HD
ATOM     60  C   UNL     1       1.677 -10.238  17.482  1.00  0.00     0.031 A 
ATOM     61  C   UNL     1      -3.337  -5.416  18.258  1.00  0.00     0.031 A 
ATOM     62  C   UNL     1       0.738 -10.504  18.539  1.00  0.00     0.049 A 
ATOM     63  C   UNL     1      -3.273  -6.641  19.130  1.00  0.00     0.074 A 
ATOM     64  C   UNL     1       0.707 -11.574  19.416  1.00  0.00     0.029 A 
ATOM     65  N   UNL     1      -0.333  -9.686  18.868  1.00  0.00    -0.354 N 
ATOM     66  N   UNL     1      -2.402  -7.622  19.111  1.00  0.00    -0.248 NA
ATOM     67  C   UNL     1      -4.308  -6.772  20.164  1.00  0.00     0.031 C 
ATOM     68  C   UNL     1      -0.404 -11.422  20.252  1.00  0.00     0.029 A 
ATOM     69  C   UNL     1      -1.034 -10.230  19.931  1.00  0.00     0.049 A 
ATOM     70  H   UNL     1      -0.561  -8.844  18.413  1.00  0.00     0.167 HD
ATOM     71  C   UNL     1      -2.763  -8.468  20.154  1.00  0.00     0.074 A 
ATOM     72  C   UNL     1      -3.923  -7.876  20.789  1.00  0.00     0.031 C 
ATOM     73  C   UNL     1      -2.184  -9.627  20.554  1.00  0.00     0.031 A 
BRANCH  60  74
ATOM     74  C   UNL     1       2.764 -11.247  17.212  1.00  0.00    -0.014 A 
ATOM     75  C   UNL     1       4.111 -10.957  17.501  1.00  0.00     0.010 A 
ATOM     76  C   UNL     1       2.435 -12.507  16.683  1.00  0.00     0.010 A 
ATOM     77  C   UNL     1       5.112 -11.889  17.216  1.00  0.00     0.020 A 
ATOM     78  C   UNL     1       3.431 -13.454  16.426  1.00  0.00     0.020 A 
ATOM     79  C   UNL     1       4.766 -13.130  16.675  1.00  0.00     0.054 A 
BRANCH  79  80
ATOM     80  S   UNL     1       6.086 -14.325  16.326  1.00  0.00     0.124 S 
ATOM     81  O   UNL     1       6.698 -13.755  15.129  1.00  0.00    -0.237 OA
ATOM     82  O   UNL     1       6.901 -14.266  17.537  1.00  0.00    -0.237 OA
ATOM     83  O   UNL     1       5.370 -15.582  16.122  1.00  0.00    -0.744 OA
ENDBRANCH  79  80
ENDBRANCH  60  74
BRANCH  61  84
ATOM     84  C   UNL     1      -4.421  -4.410  18.438  1.00  0.00    -0.014 A 
ATOM     85  C   UNL     1      -4.451  -3.593  19.582  1.00  0.00     0.010 A 
ATOM     86  C   UNL     1      -5.426  -4.261  17.465  1.00  0.00     0.010 A 
ATOM     87  C   UNL     1      -5.479  -2.662  19.763  1.00  0.00     0.020 A 
ATOM     88  C   UNL     1      -6.440  -3.312  17.629  1.00  0.00     0.020 A 
ATOM     89  C   UNL     1      -6.467  -2.527  18.784  1.00  0.00     0.054 A 
BRANCH  89  90
ATOM     90  S   UNL     1      -7.764  -1.280  19.016  1.00  0.00     0.124 S 
ATOM     91  O   UNL     1      -8.604  -1.901  20.035  1.00  0.00    -0.237 OA
ATOM     92  O   UNL     1      -7.004  -0.110  19.449  1.00  0.00    -0.237 OA
ATOM     93  O   UNL     1      -8.367  -1.165  17.690  1.00  0.00    -0.744 OA
ENDBRANCH  89  90
ENDBRANCH  61  84
BRANCH  73  94
ATOM     94  C   UNL     1      -2.763 -10.304  21.768  1.00  0.00    -0.014 A 
ATOM     95  C   UNL     1      -4.016 -10.941  21.728  1.00  0.00     0.010 A 
ATOM     96  C   UNL     1      -2.024 -10.319  22.966  1.00  0.00     0.010 A 
ATOM     97  C   UNL     1      -4.541 -11.536  22.879  1.00  0.00     0.020 A 
ATOM     98  C   UNL     1      -2.533 -10.938  24.109  1.00  0.00     0.020 A 
ATOM     99  C   UNL     1      -3.799 -11.524  24.064  1.00  0.00     0.054 A 
BRANCH  99 100
ATOM    100  S   UNL     1      -4.496 -12.309  25.543  1.00  0.00     0.124 S 
ATOM    101  O   UNL     1      -5.486 -11.325  25.971  1.00  0.00    -0.237 OA
ATOM    102  O   UNL     1      -5.039 -13.560  25.018  1.00  0.00    -0.237 OA
ATOM    103  O   UNL     1      -3.344 -12.461  26.429  1.00  0.00    -0.744 OA
ENDBRANCH  99 100
ENDBRANCH  73  94
ENDBRANCH  47  48
ENDBRANCH  39  42
ENDBRANCH  37  38
ENDBRANCH  36  37
ENDBRANCH  35  36
ENDBRANCH   1  35
TORSDOF 21
