REMARK SMILES NC(=O)CC[N@@H+]1[C@@H](C(=O)NCCCCNC(=O)c2ccc(-c3c4nc(c(-c5ccc(S(=O)(=O)[O-])cc5)c5ccc([nH]5)c(-c5ccc(S(=O)(=O)[O-])cc5)c5nc(c(-c6ccc(S(=O)(=O)[O-])cc6)c6ccc3[nH]6)C=C5)C=C4)cc2)CC[C@@H]2CCCC[C@H]21
REMARK SMILES IDX 12 1 11 2 10 3 8 4 9 5 7 7 6 8 85 9 78 11 80 12 84 13 79 14
REMARK SMILES IDX 81 15 83 16 82 17 5 18 4 19 2 20 1 21 3 24 13 25 14 26 15 27
REMARK SMILES IDX 16 28 17 30 18 31 19 32 77 33 20 34 76 35 21 36 22 37 23 38
REMARK SMILES IDX 70 39 24 40 75 41 69 42 71 43 25 44 74 45 68 46 67 47 26 49
REMARK SMILES IDX 56 50 37 51 55 52 38 53 41 54 54 55 72 56 39 57 40 58 53 60
REMARK SMILES IDX 73 61 42 62 27 63 28 64 36 65 29 66 35 67 30 68 31 69 32 70
REMARK SMILES IDX 33 71 34 72 57 73 58 74 66 75 59 76 65 77 60 78 61 79 62 80
REMARK SMILES IDX 63 81 64 82 43 83 44 84 52 85 45 86 51 87 46 88 47 89 48 90
REMARK SMILES IDX 49 91 50 92
REMARK H PARENT 10 6 6 10 1 22 1 23 15 29 71 48 41 59
REMARK Flexibility Score: inf
ROOT
ATOM      1  C   UNL     1       2.578  -3.778  -2.158  1.00  0.00     0.023 C 
ENDROOT
BRANCH   1   2
ATOM      2  C   UNL     1       2.027  -3.105  -0.905  1.00  0.00     0.116 C 
BRANCH   2   3
ATOM      3  N   UNL     1       2.202  -3.925   0.276  1.00  0.00    -0.351 N 
ATOM      4  C   UNL     1       2.922  -3.680   1.407  1.00  0.00     0.278 C 
ATOM      5  O   UNL     1       2.905  -4.534   2.299  1.00  0.00    -0.268 OA
ATOM      6  H   UNL     1       1.731  -4.790   0.259  1.00  0.00     0.163 HD
BRANCH   4   7
ATOM      7  C   UNL     1       3.752  -2.385   1.585  1.00  0.00     0.274 C 
ATOM      8  N   UNL     1       2.905  -1.122   1.515  1.00  0.00    -0.322 N 
ATOM      9  C   UNL     1       3.813   0.072   1.643  1.00  0.00     0.187 C 
ATOM     10  H   UNL     1       2.417  -1.023   0.625  1.00  0.00     0.349 HD
ATOM     11  C   UNL     1       4.931  -2.446   0.605  1.00  0.00     0.076 C 
ATOM     12  C   UNL     1       4.878   0.042   0.508  1.00  0.00     0.048 C 
ATOM     13  C   UNL     1       3.077   1.429   1.628  1.00  0.00     0.065 C 
ATOM     14  C   UNL     1       5.772  -1.191   0.649  1.00  0.00     0.016 C 
ATOM     15  C   UNL     1       5.771   1.289   0.472  1.00  0.00     0.010 C 
ATOM     16  C   UNL     1       3.998   2.645   1.561  1.00  0.00     0.006 C 
ATOM     17  C   UNL     1       4.949   2.562   0.383  1.00  0.00     0.001 C 
BRANCH   8  18
ATOM     18  C   UNL     1       1.867  -1.209   2.594  1.00  0.00     0.273 C 
BRANCH  18  19
ATOM     19  C   UNL     1       0.593  -0.348   2.541  1.00  0.00     0.161 C 
BRANCH  19  20
ATOM     20  C   UNL     1      -0.217  -0.367   1.265  1.00  0.00     0.223 C 
ATOM     21  N   UNL     1       0.481  -0.352   0.102  1.00  0.00    -0.369 N 
ATOM     22  H   UNL     1       0.003  -0.363  -0.759  1.00  0.00     0.159 HD
ATOM     23  H   UNL     1       1.465  -0.330   0.119  1.00  0.00     0.159 HD
ATOM     24  O   UNL     1      -1.441  -0.285   1.257  1.00  0.00    -0.275 OA
ENDBRANCH  19  20
ENDBRANCH  18  19
ENDBRANCH   8  18
ENDBRANCH   4   7
ENDBRANCH   2   3
ENDBRANCH   1   2
BRANCH   1  25
ATOM     25  C   UNL     1       1.787  -5.000  -2.626  1.00  0.00     0.023 C 
BRANCH  25  26
ATOM     26  C   UNL     1       0.303  -4.756  -2.881  1.00  0.00     0.116 C 
BRANCH  26  27
ATOM     27  N   UNL     1       0.056  -3.701  -3.850  1.00  0.00    -0.352 N 
ATOM     28  C   UNL     1      -0.848  -3.674  -4.890  1.00  0.00     0.251 C 
ATOM     29  H   UNL     1       0.611  -2.894  -3.750  1.00  0.00     0.163 HD
ATOM     30  O   UNL     1      -0.840  -2.749  -5.685  1.00  0.00    -0.269 OA
BRANCH  28  31
ATOM     31  C   UNL     1      -1.796  -4.799  -5.051  1.00  0.00     0.039 A 
ATOM     32  C   UNL     1      -1.927  -5.393  -6.308  1.00  0.00     0.014 A 
ATOM     33  C   UNL     1      -2.522  -5.285  -3.960  1.00  0.00     0.014 A 
ATOM     34  C   UNL     1      -2.733  -6.524  -6.455  1.00  0.00     0.010 A 
ATOM     35  C   UNL     1      -3.269  -6.452  -4.094  1.00  0.00     0.010 A 
ATOM     36  C   UNL     1      -3.379  -7.086  -5.341  1.00  0.00    -0.014 A 
BRANCH  36  37
ATOM     37  C   UNL     1      -4.166  -8.339  -5.457  1.00  0.00     0.031 A 
ATOM     38  C   UNL     1      -5.647  -8.328  -5.196  1.00  0.00     0.074 A 
ATOM     39  C   UNL     1      -3.537  -9.500  -5.731  1.00  0.00     0.049 A 
ATOM     40  N   UNL     1      -6.489  -9.330  -5.185  1.00  0.00    -0.248 NA
ATOM     41  C   UNL     1      -6.257  -7.026  -4.881  1.00  0.00     0.031 C 
ATOM     42  C   UNL     1      -2.098  -9.651  -5.963  1.00  0.00     0.029 A 
ATOM     43  N   UNL     1      -4.027 -10.776  -5.852  1.00  0.00    -0.354 N 
ATOM     44  C   UNL     1      -7.721  -8.783  -4.846  1.00  0.00     0.074 A 
ATOM     45  C   UNL     1      -7.508  -7.371  -4.614  1.00  0.00     0.031 C 
ATOM     46  C   UNL     1      -1.827 -10.940  -6.224  1.00  0.00     0.029 A 
ATOM     47  C   UNL     1      -3.062 -11.713  -6.140  1.00  0.00     0.049 A 
ATOM     48  H   UNL     1      -4.979 -11.000  -5.743  1.00  0.00     0.167 HD
ATOM     49  C   UNL     1      -8.926  -9.396  -4.754  1.00  0.00     0.031 A 
ATOM     50  C   UNL     1      -3.159 -13.046  -6.313  1.00  0.00     0.031 A 
ATOM     51  C   UNL     1      -9.139 -10.798  -4.997  1.00  0.00     0.049 A 
ATOM     52  C   UNL     1      -4.506 -13.705  -6.203  1.00  0.00     0.074 A 
ATOM     53  C   UNL     1     -10.330 -11.502  -4.982  1.00  0.00     0.029 A 
ATOM     54  N   UNL     1      -8.138 -11.709  -5.299  1.00  0.00    -0.354 N 
ATOM     55  N   UNL     1      -5.670 -13.160  -5.941  1.00  0.00    -0.248 NA
ATOM     56  C   UNL     1      -4.554 -15.157  -6.423  1.00  0.00     0.031 C 
ATOM     57  C   UNL     1     -10.044 -12.849  -5.233  1.00  0.00     0.029 A 
ATOM     58  C   UNL     1      -8.681 -12.973  -5.455  1.00  0.00     0.049 A 
ATOM     59  H   UNL     1      -7.183 -11.490  -5.390  1.00  0.00     0.167 HD
ATOM     60  C   UNL     1      -6.593 -14.199  -5.989  1.00  0.00     0.074 A 
ATOM     61  C   UNL     1      -5.854 -15.401  -6.318  1.00  0.00     0.031 C 
ATOM     62  C   UNL     1      -7.932 -14.160  -5.781  1.00  0.00     0.031 A 
BRANCH  49  63
ATOM     63  C   UNL     1     -10.107  -8.546  -4.370  1.00  0.00    -0.014 A 
ATOM     64  C   UNL     1     -10.633  -7.592  -5.261  1.00  0.00     0.010 A 
ATOM     65  C   UNL     1     -10.718  -8.719  -3.115  1.00  0.00     0.010 A 
ATOM     66  C   UNL     1     -11.718  -6.796  -4.886  1.00  0.00     0.020 A 
ATOM     67  C   UNL     1     -11.821  -7.944  -2.747  1.00  0.00     0.020 A 
ATOM     68  C   UNL     1     -12.302  -6.973  -3.628  1.00  0.00     0.054 A 
BRANCH  68  69
ATOM     69  S   UNL     1     -13.720  -5.937  -3.174  1.00  0.00     0.124 S 
ATOM     70  O   UNL     1     -13.078  -4.653  -2.901  1.00  0.00    -0.237 OA
ATOM     71  O   UNL     1     -14.549  -5.981  -4.375  1.00  0.00    -0.237 OA
ATOM     72  O   UNL     1     -14.283  -6.612  -2.007  1.00  0.00    -0.744 OA
ENDBRANCH  68  69
ENDBRANCH  49  63
BRANCH  50  73
ATOM     73  C   UNL     1      -1.943 -13.844  -6.630  1.00  0.00    -0.014 A 
ATOM     74  C   UNL     1      -1.757 -14.373  -7.919  1.00  0.00     0.010 A 
ATOM     75  C   UNL     1      -0.959 -14.066  -5.650  1.00  0.00     0.010 A 
ATOM     76  C   UNL     1      -0.616 -15.122  -8.219  1.00  0.00     0.020 A 
ATOM     77  C   UNL     1       0.195 -14.793  -5.953  1.00  0.00     0.020 A 
ATOM     78  C   UNL     1       0.354 -15.327  -7.234  1.00  0.00     0.054 A 
BRANCH  78  79
ATOM     79  S   UNL     1       1.854 -16.255  -7.660  1.00  0.00     0.124 S 
ATOM     80  O   UNL     1       1.362 -17.628  -7.692  1.00  0.00    -0.237 OA
ATOM     81  O   UNL     1       2.223 -15.684  -8.954  1.00  0.00    -0.237 OA
ATOM     82  O   UNL     1       2.771 -15.942  -6.567  1.00  0.00    -0.744 OA
ENDBRANCH  78  79
ENDBRANCH  50  73
BRANCH  62  83
ATOM     83  C   UNL     1      -8.693 -15.449  -5.934  1.00  0.00    -0.014 A 
ATOM     84  C   UNL     1      -8.609 -16.463  -4.965  1.00  0.00     0.010 A 
ATOM     85  C   UNL     1      -9.547 -15.623  -7.039  1.00  0.00     0.010 A 
ATOM     86  C   UNL     1      -9.344 -17.643  -5.112  1.00  0.00     0.020 A 
ATOM     87  C   UNL     1     -10.302 -16.790  -7.177  1.00  0.00     0.020 A 
ATOM     88  C   UNL     1     -10.185 -17.799  -6.218  1.00  0.00     0.054 A 
BRANCH  88  89
ATOM     89  S   UNL     1     -11.164 -19.319  -6.365  1.00  0.00     0.124 S 
ATOM     90  O   UNL     1     -10.158 -20.289  -6.788  1.00  0.00    -0.237 OA
ATOM     91  O   UNL     1     -11.682 -19.501  -5.011  1.00  0.00    -0.237 OA
ATOM     92  O   UNL     1     -12.171 -18.987  -7.370  1.00  0.00    -0.744 OA
ENDBRANCH  88  89
ENDBRANCH  62  83
ENDBRANCH  36  37
ENDBRANCH  28  31
ENDBRANCH  26  27
ENDBRANCH  25  26
ENDBRANCH   1  25
TORSDOF 17
