REMARK SMILES COc1ccc(/C=C2/C(=O)N(c3ccccc3)C(=O)[NH+]=C2NCCCCNC(=O)c2ccc(-c3c4nc(c(-c5ccc(S(=O)(=O)[O-])cc5)c5ccc([nH]5)c(-c5ccc(S(=O)(=O)[O-])cc5)c5nc(c(-c6ccc(S(=O)(=O)[O-])cc6)c6ccc3[nH]6)C=C5)C=C4)cc2)cc1C(=O)[O-]
REMARK SMILES IDX 25 1 24 2 23 3 22 4 7 5 8 6 9 7 21 8 10 9 11 10 20 11 18 12
REMARK SMILES IDX 19 15 6 16 3 17 4 18 91 19 5 20 90 21 2 22 1 23 92 24 93 25
REMARK SMILES IDX 94 26 12 27 13 28 17 29 14 30 16 31 15 32 26 33 27 34 28 35
REMARK SMILES IDX 29 37 30 38 31 39 89 40 32 41 88 42 33 43 34 44 35 45 82 46
REMARK SMILES IDX 36 47 87 48 81 49 83 50 37 51 86 52 80 53 79 54 38 56 68 57
REMARK SMILES IDX 49 58 67 59 50 60 53 61 66 62 84 63 51 64 52 65 65 67 85 68
REMARK SMILES IDX 54 69 39 70 40 71 48 72 41 73 47 74 42 75 43 76 44 77 45 78
REMARK SMILES IDX 46 79 69 80 70 81 78 82 71 83 77 84 72 85 73 86 74 87 75 88
REMARK SMILES IDX 76 89 55 90 56 91 64 92 57 93 63 94 58 95 59 96 60 97 61 98
REMARK SMILES IDX 62 99
REMARK H PARENT 20 13 22 14 27 36 83 55 53 66
REMARK Flexibility Score: inf
ROOT
ATOM      1  C   UNL     1      -0.814   0.337  -2.486  1.00  0.00     0.024 C 
ENDROOT
BRANCH   1   2
ATOM      2  C   UNL     1       0.751   0.227  -3.355  1.00  0.00     0.039 C 
BRANCH   2   3
ATOM      3  C   UNL     1       1.771  -1.302  -4.566  1.00  0.00     0.194 C 
BRANCH   3   4
ATOM      4  N   UNL     1       1.194  -2.198  -5.815  1.00  0.00    -0.305 N 
ATOM      5  C   UNL     1       1.055   0.625  -6.891  1.00  0.00     0.030 C 
ATOM      6  C   UNL     1       1.235  -0.463  -7.647  1.00  0.00     0.129 C 
ATOM      7  C   UNL     1       1.626  -0.386  -9.062  1.00  0.00     0.328 C 
ATOM      8  C   UNL     1       0.956  -1.819  -7.124  1.00  0.00     0.236 C 
ATOM      9  O   UNL     1       2.380   0.497  -9.463  1.00  0.00    -0.249 OA
ATOM     10  N   UNL     1       1.045  -1.389  -9.813  1.00  0.00    -0.155 N 
ATOM     11  N   UNL     1       0.406  -2.676  -7.939  1.00  0.00    -0.209 N 
ATOM     12  C   UNL     1       0.125  -2.256  -9.229  1.00  0.00     0.448 C 
ATOM     13  H   UNL     1       0.198  -3.593  -7.646  1.00  0.00     0.270 HD
ATOM     14  H   UNL     1       0.989  -3.138  -5.603  1.00  0.00     0.256 HD
ATOM     15  O   UNL     1      -0.900  -2.615  -9.806  1.00  0.00    -0.212 OA
BRANCH   5  16
ATOM     16  C   UNL     1       0.909   0.384  -5.463  1.00  0.00    -0.024 A 
ATOM     17  C   UNL     1       1.791  -1.330  -2.422  1.00  0.00     0.127 A 
ATOM     18  C   UNL     1       0.242  -1.764  -3.278  1.00  0.00     0.048 A 
ATOM     19  C   UNL     1       2.899  -0.130  -3.129  1.00  0.00     0.040 A 
ATOM     20  C   UNL     1      -0.258  -0.829  -4.767  1.00  0.00     0.012 A 
ATOM     21  C   UNL     1       2.439   0.758  -4.596  1.00  0.00     0.022 A 
BRANCH  17  22
ATOM     22  O   UNL     1       1.986  -1.778  -1.138  1.00  0.00    -0.496 OA
ATOM     23  C   UNL     1       2.222  -0.684  -0.213  1.00  0.00     0.278 C 
ENDBRANCH  17  22
BRANCH  19  24
ATOM     24  C   UNL     1       4.224   0.135  -2.562  1.00  0.00     0.075 C 
ATOM     25  O   UNL     1       4.848   1.169  -2.675  1.00  0.00    -0.545 OA
ATOM     26  O   UNL     1       4.696  -0.946  -1.926  1.00  0.00    -0.545 OA
ENDBRANCH  19  24
ENDBRANCH   5  16
BRANCH  10  27
ATOM     27  C   UNL     1       1.161  -1.310 -11.218  1.00  0.00     0.111 A 
ATOM     28  C   UNL     1       0.318  -0.483 -11.967  1.00  0.00     0.044 A 
ATOM     29  C   UNL     1       2.217  -1.985 -11.839  1.00  0.00     0.044 A 
ATOM     30  C   UNL     1       0.541  -0.328 -13.336  1.00  0.00     0.004 A 
ATOM     31  C   UNL     1       2.434  -1.829 -13.208  1.00  0.00     0.004 A 
ATOM     32  C   UNL     1       1.600  -0.996 -13.954  1.00  0.00     0.000 A 
ENDBRANCH  10  27
ENDBRANCH   3   4
ENDBRANCH   2   3
ENDBRANCH   1   2
BRANCH   1  33
ATOM     33  C   UNL     1      -1.509  -0.657  -1.497  1.00  0.00     0.116 C 
BRANCH  33  34
ATOM     34  N   UNL     1      -0.635  -1.314  -0.542  1.00  0.00    -0.352 N 
ATOM     35  C   UNL     1      -0.845  -1.949   0.640  1.00  0.00     0.251 C 
ATOM     36  H   UNL     1       0.313  -1.295  -0.808  1.00  0.00     0.163 HD
ATOM     37  O   UNL     1       0.074  -2.381   1.326  1.00  0.00    -0.269 OA
BRANCH  35  38
ATOM     38  C   UNL     1      -2.200  -2.211   1.051  1.00  0.00     0.039 A 
ATOM     39  C   UNL     1      -2.641  -1.709   2.272  1.00  0.00     0.014 A 
ATOM     40  C   UNL     1      -2.962  -3.055   0.242  1.00  0.00     0.014 A 
ATOM     41  C   UNL     1      -3.915  -2.036   2.685  1.00  0.00     0.010 A 
ATOM     42  C   UNL     1      -4.245  -3.348   0.635  1.00  0.00     0.010 A 
ATOM     43  C   UNL     1      -4.711  -2.841   1.856  1.00  0.00    -0.014 A 
BRANCH  43  44
ATOM     44  C   UNL     1      -6.077  -3.175   2.249  1.00  0.00     0.031 A 
ATOM     45  C   UNL     1      -6.380  -4.574   2.668  1.00  0.00     0.074 A 
ATOM     46  C   UNL     1      -7.002  -2.212   2.112  1.00  0.00     0.049 A 
ATOM     47  N   UNL     1      -7.530  -5.104   2.968  1.00  0.00    -0.248 NA
ATOM     48  C   UNL     1      -5.244  -5.514   2.718  1.00  0.00     0.031 C 
ATOM     49  C   UNL     1      -6.734  -0.844   1.649  1.00  0.00     0.029 A 
ATOM     50  N   UNL     1      -8.344  -2.232   2.336  1.00  0.00    -0.354 N 
ATOM     51  C   UNL     1      -7.264  -6.442   3.225  1.00  0.00     0.074 A 
ATOM     52  C   UNL     1      -5.854  -6.656   2.995  1.00  0.00     0.031 C 
ATOM     53  C   UNL     1      -7.881  -0.148   1.652  1.00  0.00     0.029 A 
ATOM     54  C   UNL     1      -8.956  -1.031   2.081  1.00  0.00     0.049 A 
ATOM     55  H   UNL     1      -8.828  -3.030   2.650  1.00  0.00     0.167 HD
ATOM     56  C   UNL     1      -8.134  -7.392   3.633  1.00  0.00     0.031 A 
ATOM     57  C   UNL     1     -10.252  -0.698   2.192  1.00  0.00     0.031 A 
ATOM     58  C   UNL     1      -9.529  -7.114   3.843  1.00  0.00     0.049 A 
ATOM     59  C   UNL     1     -11.190  -1.762   2.681  1.00  0.00     0.074 A 
ATOM     60  C   UNL     1     -10.525  -7.958   4.294  1.00  0.00     0.029 A 
ATOM     61  N   UNL     1     -10.120  -5.875   3.616  1.00  0.00    -0.354 N 
ATOM     62  N   UNL     1     -10.925  -3.015   2.978  1.00  0.00    -0.248 NA
ATOM     63  C   UNL     1     -12.589  -1.373   2.869  1.00  0.00     0.031 C 
ATOM     64  C   UNL     1     -11.725  -7.237   4.303  1.00  0.00     0.029 A 
ATOM     65  C   UNL     1     -11.468  -5.930   3.909  1.00  0.00     0.049 A 
ATOM     66  H   UNL     1      -9.645  -5.075   3.293  1.00  0.00     0.167 HD
ATOM     67  C   UNL     1     -12.122  -3.563   3.413  1.00  0.00     0.074 A 
ATOM     68  C   UNL     1     -13.105  -2.494   3.354  1.00  0.00     0.031 C 
ATOM     69  C   UNL     1     -12.395  -4.827   3.822  1.00  0.00     0.031 A 
BRANCH  56  70
ATOM     70  C   UNL     1      -7.594  -8.780   3.856  1.00  0.00    -0.014 A 
ATOM     71  C   UNL     1      -6.680  -9.047   4.893  1.00  0.00     0.010 A 
ATOM     72  C   UNL     1      -7.988  -9.833   3.011  1.00  0.00     0.010 A 
ATOM     73  C   UNL     1      -6.132 -10.323   5.049  1.00  0.00     0.020 A 
ATOM     74  C   UNL     1      -7.465 -11.119   3.182  1.00  0.00     0.020 A 
ATOM     75  C   UNL     1      -6.525 -11.351   4.188  1.00  0.00     0.054 A 
BRANCH  75  76
ATOM     76  S   UNL     1      -5.804 -13.000   4.418  1.00  0.00     0.124 S 
ATOM     77  O   UNL     1      -4.447 -12.810   3.912  1.00  0.00    -0.237 OA
ATOM     78  O   UNL     1      -5.913 -13.199   5.861  1.00  0.00    -0.237 OA
ATOM     79  O   UNL     1      -6.656 -13.867   3.607  1.00  0.00    -0.744 OA
ENDBRANCH  75  76
ENDBRANCH  56  70
BRANCH  57  80
ATOM     80  C   UNL     1     -10.689   0.690   1.893  1.00  0.00    -0.014 A 
ATOM     81  C   UNL     1     -11.063   1.554   2.936  1.00  0.00     0.010 A 
ATOM     82  C   UNL     1     -10.665   1.181   0.575  1.00  0.00     0.010 A 
ATOM     83  C   UNL     1     -11.426   2.877   2.665  1.00  0.00     0.020 A 
ATOM     84  C   UNL     1     -11.003   2.510   0.302  1.00  0.00     0.020 A 
ATOM     85  C   UNL     1     -11.393   3.347   1.350  1.00  0.00     0.054 A 
BRANCH  85  86
ATOM     86  S   UNL     1     -11.821   5.081   1.030  1.00  0.00     0.124 S 
ATOM     87  O   UNL     1     -13.268   5.075   1.215  1.00  0.00    -0.237 OA
ATOM     88  O   UNL     1     -11.054   5.788   2.054  1.00  0.00    -0.237 OA
ATOM     89  O   UNL     1     -11.364   5.299  -0.340  1.00  0.00    -0.744 OA
ENDBRANCH  85  86
ENDBRANCH  57  80
BRANCH  69  90
ATOM     90  C   UNL     1     -13.806  -5.094   4.255  1.00  0.00    -0.014 A 
ATOM     91  C   UNL     1     -14.842  -5.199   3.311  1.00  0.00     0.010 A 
ATOM     92  C   UNL     1     -14.082  -5.293   5.619  1.00  0.00     0.010 A 
ATOM     93  C   UNL     1     -16.144  -5.468   3.731  1.00  0.00     0.020 A 
ATOM     94  C   UNL     1     -15.377  -5.592   6.038  1.00  0.00     0.020 A 
ATOM     95  C   UNL     1     -16.402  -5.663   5.092  1.00  0.00     0.054 A 
BRANCH  95  96
ATOM     96  S   UNL     1     -18.094  -6.058   5.606  1.00  0.00     0.124 S 
ATOM     97  O   UNL     1     -18.756  -4.762   5.486  1.00  0.00    -0.237 OA
ATOM     98  O   UNL     1     -18.499  -7.065   4.629  1.00  0.00    -0.237 OA
ATOM     99  O   UNL     1     -17.933  -6.552   6.972  1.00  0.00    -0.744 OA
ENDBRANCH  95  96
ENDBRANCH  69  90
ENDBRANCH  43  44
ENDBRANCH  35  38
ENDBRANCH  33  34
ENDBRANCH   1  33
TORSDOF 17
