REMARK SMILES CS(=O)(=O)c1ccc(/C=C(/C(=O)NCCCCNC(=O)c2ccc(-c3c4nc(c(-c5ccc(S(=O)(=O)[O-])cc5)c5ccc([nH]5)c(-c5ccc(S(=O)(=O)[O-])cc5)c5nc(c(-c6ccc(S(=O)(=O)[O-])cc6)c6ccc3[nH]6)C=C5)C=C4)cc2)c2cccc(Br)c2)cc1
REMARK SMILES IDX 16 1 15 2 14 3 13 4 11 5 12 6 10 8 9 9 8 10 5 11 6 12 89 13
REMARK SMILES IDX 7 14 88 15 2 16 1 17 3 18 4 19 81 20 82 21 87 22 83 23 85 24
REMARK SMILES IDX 84 25 86 26 17 27 18 28 19 29 20 31 21 32 22 33 80 34 23 35
REMARK SMILES IDX 79 36 24 37 25 38 26 39 73 40 27 41 78 42 72 43 74 44 28 45
REMARK SMILES IDX 77 46 71 47 70 48 29 50 59 51 40 52 58 53 41 54 44 55 57 56
REMARK SMILES IDX 75 57 42 58 43 59 56 61 76 62 45 63 30 64 31 65 39 66 32 67
REMARK SMILES IDX 38 68 33 69 34 70 35 71 36 72 37 73 60 74 61 75 69 76 62 77
REMARK SMILES IDX 68 78 63 79 64 80 65 81 66 82 67 83 46 84 47 85 55 86 48 87
REMARK SMILES IDX 54 88 49 89 50 90 51 91 52 92 53 93
REMARK H PARENT 13 7 18 30 74 49 44 60
REMARK Flexibility Score: inf
ROOT
ATOM      1  C   UNL     1       1.500  10.764  -1.730  1.00  0.00     0.023 C 
ENDROOT
BRANCH   1   2
ATOM      2  C   UNL     1       1.257   9.258  -1.889  1.00  0.00     0.023 C 
BRANCH   2   3
ATOM      3  C   UNL     1       1.580   8.711  -3.283  1.00  0.00     0.116 C 
BRANCH   3   4
ATOM      4  N   UNL     1       3.014   8.684  -3.494  1.00  0.00    -0.352 N 
ATOM      5  C   UNL     1       3.962   7.715  -3.395  1.00  0.00     0.251 C 
ATOM      6  O   UNL     1       5.124   8.068  -3.612  1.00  0.00    -0.269 OA
ATOM      7  H   UNL     1       3.380   9.556  -3.767  1.00  0.00     0.163 HD
BRANCH   5   8
ATOM      8  C   UNL     1       3.649   6.259  -3.122  1.00  0.00     0.047 C 
ATOM      9  C   UNL     1       2.624   5.880  -2.325  1.00  0.00     0.022 C 
BRANCH   9  10
ATOM     10  C   UNL     1       2.091   4.530  -2.038  1.00  0.00    -0.025 A 
ATOM     11  C   UNL     1       0.921   2.009  -1.663  1.00  0.00     0.067 A 
ATOM     12  C   UNL     1       2.309   2.145  -1.620  1.00  0.00     0.021 A 
ATOM     13  C   UNL     1       0.105   3.121  -1.861  1.00  0.00     0.021 A 
ATOM     14  C   UNL     1       2.884   3.410  -1.770  1.00  0.00     0.009 A 
ATOM     15  C   UNL     1       0.693   4.374  -2.050  1.00  0.00     0.009 A 
BRANCH  11  16
ATOM     16  S   UNL     1       0.204   0.396  -1.472  1.00  0.00     0.175 S 
ATOM     17  C   UNL     1       0.743  -0.120   0.137  1.00  0.00     0.163 C 
ATOM     18  O   UNL     1       0.819  -0.465  -2.458  1.00  0.00    -0.224 OA
ATOM     19  O   UNL     1      -1.240   0.556  -1.411  1.00  0.00    -0.224 OA
ENDBRANCH  11  16
ENDBRANCH   9  10
BRANCH   8  20
ATOM     20  C   UNL     1       4.629   5.260  -3.622  1.00  0.00    -0.012 A 
ATOM     21  C   UNL     1       5.920   5.249  -3.062  1.00  0.00     0.009 A 
ATOM     22  C   UNL     1       4.286   4.272  -4.554  1.00  0.00     0.024 A 
ATOM     23  C   UNL     1       6.841   4.259  -3.398  1.00  0.00     0.002 A 
ATOM     24  C   UNL     1       5.207   3.269  -4.868  1.00  0.00     0.018 A 
ATOM     25  C   UNL     1       6.479   3.256  -4.293  1.00  0.00     0.016 A 
ATOM     26  Br  UNL     1       4.708   1.874  -6.043  1.00  0.00    -0.051 Br
ENDBRANCH   8  20
ENDBRANCH   5   8
ENDBRANCH   3   4
ENDBRANCH   2   3
ENDBRANCH   1   2
BRANCH   1  27
ATOM     27  C   UNL     1       0.650  11.652  -2.632  1.00  0.00     0.116 C 
BRANCH  27  28
ATOM     28  N   UNL     1      -0.778  11.457  -2.439  1.00  0.00    -0.352 N 
ATOM     29  C   UNL     1      -1.786  12.386  -2.546  1.00  0.00     0.251 C 
ATOM     30  H   UNL     1      -1.059  10.544  -2.202  1.00  0.00     0.163 HD
ATOM     31  O   UNL     1      -2.935  12.089  -2.235  1.00  0.00    -0.269 OA
BRANCH  29  32
ATOM     32  C   UNL     1      -1.460  13.752  -3.002  1.00  0.00     0.039 A 
ATOM     33  C   UNL     1      -1.901  14.841  -2.248  1.00  0.00     0.014 A 
ATOM     34  C   UNL     1      -0.692  13.950  -4.152  1.00  0.00     0.014 A 
ATOM     35  C   UNL     1      -1.519  16.134  -2.614  1.00  0.00     0.010 A 
ATOM     36  C   UNL     1      -0.260  15.232  -4.478  1.00  0.00     0.010 A 
ATOM     37  C   UNL     1      -0.670  16.335  -3.714  1.00  0.00    -0.014 A 
BRANCH  37  38
ATOM     38  C   UNL     1      -0.207  17.690  -4.103  1.00  0.00     0.031 A 
ATOM     39  C   UNL     1      -0.619  18.264  -5.430  1.00  0.00     0.074 A 
ATOM     40  C   UNL     1       0.648  18.363  -3.308  1.00  0.00     0.049 A 
ATOM     41  N   UNL     1      -0.223  19.366  -6.011  1.00  0.00    -0.248 NA
ATOM     42  C   UNL     1      -1.581  17.478  -6.221  1.00  0.00     0.031 C 
ATOM     43  C   UNL     1       1.146  17.900  -2.010  1.00  0.00     0.029 A 
ATOM     44  N   UNL     1       1.265  19.577  -3.484  1.00  0.00    -0.354 N 
ATOM     45  C   UNL     1      -0.863  19.393  -7.245  1.00  0.00     0.074 A 
ATOM     46  C   UNL     1      -1.640  18.177  -7.345  1.00  0.00     0.031 C 
ATOM     47  C   UNL     1       1.978  18.824  -1.503  1.00  0.00     0.029 A 
ATOM     48  C   UNL     1       2.107  19.924  -2.454  1.00  0.00     0.049 A 
ATOM     49  H   UNL     1       1.118  20.145  -4.274  1.00  0.00     0.167 HD
ATOM     50  C   UNL     1      -0.819  20.349  -8.202  1.00  0.00     0.031 A 
ATOM     51  C   UNL     1       2.904  21.000  -2.299  1.00  0.00     0.031 A 
ATOM     52  C   UNL     1      -0.062  21.567  -8.088  1.00  0.00     0.049 A 
ATOM     53  C   UNL     1       2.931  22.053  -3.373  1.00  0.00     0.074 A 
ATOM     54  C   UNL     1       0.010  22.621  -8.981  1.00  0.00     0.029 A 
ATOM     55  N   UNL     1       0.748  21.895  -7.012  1.00  0.00    -0.354 N 
ATOM     56  N   UNL     1       2.284  22.082  -4.513  1.00  0.00    -0.248 NA
ATOM     57  C   UNL     1       3.785  23.225  -3.134  1.00  0.00     0.031 C 
ATOM     58  C   UNL     1       0.894  23.572  -8.461  1.00  0.00     0.029 A 
ATOM     59  C   UNL     1       1.331  23.132  -7.221  1.00  0.00     0.049 A 
ATOM     60  H   UNL     1       0.887  21.332  -6.217  1.00  0.00     0.167 HD
ATOM     61  C   UNL     1       2.624  23.291  -5.111  1.00  0.00     0.074 A 
ATOM     62  C   UNL     1       3.532  23.965  -4.206  1.00  0.00     0.031 C 
ATOM     63  C   UNL     1       2.216  23.797  -6.300  1.00  0.00     0.031 A 
BRANCH  50  64
ATOM     64  C   UNL     1      -1.611  20.111  -9.460  1.00  0.00    -0.014 A 
ATOM     65  C   UNL     1      -3.017  20.152  -9.450  1.00  0.00     0.010 A 
ATOM     66  C   UNL     1      -0.941  19.870 -10.673  1.00  0.00     0.010 A 
ATOM     67  C   UNL     1      -3.740  19.912 -10.621  1.00  0.00     0.020 A 
ATOM     68  C   UNL     1      -1.660  19.657 -11.853  1.00  0.00     0.020 A 
ATOM     69  C   UNL     1      -3.056  19.661 -11.815  1.00  0.00     0.054 A 
BRANCH  69  70
ATOM     70  S   UNL     1      -4.019  19.366 -13.323  1.00  0.00     0.124 S 
ATOM     71  O   UNL     1      -4.513  18.009 -13.103  1.00  0.00    -0.237 OA
ATOM     72  O   UNL     1      -5.031  20.418 -13.270  1.00  0.00    -0.237 OA
ATOM     73  O   UNL     1      -3.036  19.505 -14.395  1.00  0.00    -0.744 OA
ENDBRANCH  69  70
ENDBRANCH  50  64
BRANCH  51  74
ATOM     74  C   UNL     1       3.727  21.143  -1.067  1.00  0.00    -0.014 A 
ATOM     75  C   UNL     1       3.391  22.102  -0.096  1.00  0.00     0.010 A 
ATOM     76  C   UNL     1       4.843  20.315  -0.853  1.00  0.00     0.010 A 
ATOM     77  C   UNL     1       4.167  22.244   1.059  1.00  0.00     0.020 A 
ATOM     78  C   UNL     1       5.606  20.436   0.312  1.00  0.00     0.020 A 
ATOM     79  C   UNL     1       5.270  21.408   1.256  1.00  0.00     0.054 A 
BRANCH  79  80
ATOM     80  S   UNL     1       6.233  21.575   2.785  1.00  0.00     0.124 S 
ATOM     81  O   UNL     1       6.989  22.798   2.535  1.00  0.00    -0.237 OA
ATOM     82  O   UNL     1       5.192  21.671   3.805  1.00  0.00    -0.237 OA
ATOM     83  O   UNL     1       7.022  20.346   2.826  1.00  0.00    -0.744 OA
ENDBRANCH  79  80
ENDBRANCH  51  74
BRANCH  63  84
ATOM     84  C   UNL     1       2.695  25.174  -6.674  1.00  0.00    -0.014 A 
ATOM     85  C   UNL     1       4.010  25.396  -7.115  1.00  0.00     0.010 A 
ATOM     86  C   UNL     1       1.781  26.244  -6.666  1.00  0.00     0.010 A 
ATOM     87  C   UNL     1       4.408  26.671  -7.528  1.00  0.00     0.020 A 
ATOM     88  C   UNL     1       2.168  27.513  -7.100  1.00  0.00     0.020 A 
ATOM     89  C   UNL     1       3.483  27.721  -7.521  1.00  0.00     0.054 A 
BRANCH  89  90
ATOM     90  S   UNL     1       4.002  29.349  -8.130  1.00  0.00     0.124 S 
ATOM     91  O   UNL     1       4.822  29.838  -7.025  1.00  0.00    -0.237 OA
ATOM     92  O   UNL     1       4.729  29.018  -9.353  1.00  0.00    -0.237 OA
ATOM     93  O   UNL     1       2.742  30.060  -8.334  1.00  0.00    -0.744 OA
ENDBRANCH  89  90
ENDBRANCH  63  84
ENDBRANCH  37  38
ENDBRANCH  29  32
ENDBRANCH  27  28
ENDBRANCH   1  27
TORSDOF 17
