REMARK SMILES O=C(NCCCCNC(=O)[C@@H]1CCC[C@@H](C(=O)N2CCN3C(=O)NC[C@@H]3C2)C1)c1ccc(-c2c3nc(c(-c4ccc(S(=O)(=O)[O-])cc4)c4ccc([nH]4)c(-c4ccc(S(=O)(=O)[O-])cc4)c4nc(c(-c5ccc(S(=O)(=O)[O-])cc5)c5ccc2[nH]5)C=C4)C=C3)cc1
REMARK SMILES IDX 5 1 4 2 3 3 1 4 2 5 29 7 30 8 88 9 31 10 87 11 32 12 33 13
REMARK SMILES IDX 34 14 81 15 35 16 86 17 80 18 82 19 36 20 85 21 79 22 78 23
REMARK SMILES IDX 37 25 67 26 48 27 66 28 49 29 52 30 65 31 83 32 50 33 51 34
REMARK SMILES IDX 64 36 84 37 53 38 38 39 39 40 47 41 40 42 46 43 41 44 42 45
REMARK SMILES IDX 43 46 44 47 45 48 68 49 69 50 77 51 70 52 76 53 71 54 72 55
REMARK SMILES IDX 73 56 74 57 75 58 54 59 55 60 63 61 56 62 62 63 57 64 58 65
REMARK SMILES IDX 59 66 60 67 61 68 6 69 7 70 8 71 9 72 10 74 11 75 12 76
REMARK SMILES IDX 28 77 13 78 15 79 14 80 16 81 17 82 18 83 19 84 27 85 20 86
REMARK SMILES IDX 26 87 21 88 25 89 22 90 24 91 23 92
REMARK H PARENT 3 6 82 24 52 35 8 73 24 93
REMARK Flexibility Score: inf
ROOT
ATOM      1  C   UNL     1       5.011  -0.174  -2.540  1.00  0.00     0.023 C 
ENDROOT
BRANCH   1   2
ATOM      2  C   UNL     1       4.591   0.015  -1.092  1.00  0.00     0.116 C 
BRANCH   2   3
ATOM      3  N   UNL     1       3.164   0.266  -0.916  1.00  0.00    -0.352 N 
ATOM      4  O   UNL     1       1.167   0.047   0.144  1.00  0.00    -0.269 OA
ATOM      5  C   UNL     1       2.378  -0.136   0.143  1.00  0.00     0.251 C 
ATOM      6  H   UNL     1       2.716   0.777  -1.628  1.00  0.00     0.163 HD
BRANCH   5   7
ATOM      7  C   UNL     1       3.053  -0.829   1.256  1.00  0.00     0.039 A 
ATOM      8  C   UNL     1       4.200  -0.252   1.798  1.00  0.00     0.014 A 
ATOM      9  C   UNL     1       2.650  -2.113   1.625  1.00  0.00     0.014 A 
ATOM     10  C   UNL     1       5.054  -1.038   2.549  1.00  0.00     0.010 A 
ATOM     11  C   UNL     1       3.446  -2.851   2.505  1.00  0.00     0.010 A 
ATOM     12  C   UNL     1       4.674  -2.334   2.945  1.00  0.00    -0.014 A 
BRANCH  12  13
ATOM     13  C   UNL     1       5.558  -3.058   3.894  1.00  0.00     0.031 A 
ATOM     14  C   UNL     1       6.198  -4.374   3.548  1.00  0.00     0.074 A 
ATOM     15  C   UNL     1       5.830  -2.454   5.069  1.00  0.00     0.049 A 
ATOM     16  N   UNL     1       7.040  -5.082   4.260  1.00  0.00    -0.248 NA
ATOM     17  C   UNL     1       5.853  -4.983   2.254  1.00  0.00     0.031 C 
ATOM     18  C   UNL     1       5.249  -1.181   5.514  1.00  0.00     0.029 A 
ATOM     19  N   UNL     1       6.687  -2.794   6.080  1.00  0.00    -0.354 N 
ATOM     20  C   UNL     1       7.316  -6.220   3.511  1.00  0.00     0.074 A 
ATOM     21  C   UNL     1       6.526  -6.126   2.301  1.00  0.00     0.031 C 
ATOM     22  C   UNL     1       5.827  -0.809   6.662  1.00  0.00     0.029 A 
ATOM     23  C   UNL     1       6.736  -1.861   7.089  1.00  0.00     0.049 A 
ATOM     24  H   UNL     1       7.216  -3.624   6.085  1.00  0.00     0.167 HD
ATOM     25  C   UNL     1       8.157  -7.243   3.805  1.00  0.00     0.031 A 
ATOM     26  C   UNL     1       7.412  -1.858   8.252  1.00  0.00     0.031 A 
ATOM     27  C   UNL     1       8.929  -7.329   5.020  1.00  0.00     0.049 A 
ATOM     28  C   UNL     1       8.303  -3.021   8.564  1.00  0.00     0.074 A 
ATOM     29  C   UNL     1       9.812  -8.322   5.411  1.00  0.00     0.029 A 
ATOM     30  N   UNL     1       8.914  -6.389   6.042  1.00  0.00    -0.354 N 
ATOM     31  N   UNL     1       8.560  -4.079   7.832  1.00  0.00    -0.248 NA
ATOM     32  C   UNL     1       8.996  -2.990   9.855  1.00  0.00     0.031 C 
ATOM     33  C   UNL     1      10.285  -8.011   6.691  1.00  0.00     0.029 A 
ATOM     34  C   UNL     1       9.755  -6.789   7.069  1.00  0.00     0.049 A 
ATOM     35  H   UNL     1       8.384  -5.559   6.037  1.00  0.00     0.167 HD
ATOM     36  C   UNL     1       9.457  -4.837   8.573  1.00  0.00     0.074 A 
ATOM     37  C   UNL     1       9.726  -4.094   9.788  1.00  0.00     0.031 C 
ATOM     38  C   UNL     1      10.001  -6.044   8.279  1.00  0.00     0.031 A 
BRANCH  25  39
ATOM     39  C   UNL     1       8.281  -8.367   2.804  1.00  0.00    -0.014 A 
ATOM     40  C   UNL     1       8.929  -8.173   1.571  1.00  0.00     0.010 A 
ATOM     41  C   UNL     1       7.814  -9.654   3.132  1.00  0.00     0.010 A 
ATOM     42  C   UNL     1       9.083  -9.236   0.675  1.00  0.00     0.020 A 
ATOM     43  C   UNL     1       7.991 -10.726   2.252  1.00  0.00     0.020 A 
ATOM     44  C   UNL     1       8.615 -10.507   1.022  1.00  0.00     0.054 A 
BRANCH  44  45
ATOM     45  S   UNL     1       8.866 -11.874  -0.145  1.00  0.00     0.124 S 
ATOM     46  O   UNL     1       7.952 -11.518  -1.227  1.00  0.00    -0.237 OA
ATOM     47  O   UNL     1      10.288 -11.765  -0.462  1.00  0.00    -0.237 OA
ATOM     48  O   UNL     1       8.490 -13.060   0.621  1.00  0.00    -0.744 OA
ENDBRANCH  44  45
ENDBRANCH  25  39
BRANCH  26  49
ATOM     49  C   UNL     1       7.216  -0.743   9.217  1.00  0.00    -0.014 A 
ATOM     50  C   UNL     1       8.266   0.131   9.542  1.00  0.00     0.010 A 
ATOM     51  C   UNL     1       5.953  -0.546   9.809  1.00  0.00     0.010 A 
ATOM     52  C   UNL     1       8.065   1.160  10.467  1.00  0.00     0.020 A 
ATOM     53  C   UNL     1       5.737   0.505  10.700  1.00  0.00     0.020 A 
ATOM     54  C   UNL     1       6.801   1.339  11.040  1.00  0.00     0.054 A 
BRANCH  54  55
ATOM     55  S   UNL     1       6.557   2.694  12.219  1.00  0.00     0.124 S 
ATOM     56  O   UNL     1       7.268   2.202  13.394  1.00  0.00    -0.237 OA
ATOM     57  O   UNL     1       7.173   3.826  11.531  1.00  0.00    -0.237 OA
ATOM     58  O   UNL     1       5.104   2.772  12.353  1.00  0.00    -0.744 OA
ENDBRANCH  54  55
ENDBRANCH  26  49
BRANCH  38  59
ATOM     59  C   UNL     1      10.965  -6.614   9.286  1.00  0.00    -0.014 A 
ATOM     60  C   UNL     1      10.528  -7.053  10.549  1.00  0.00     0.010 A 
ATOM     61  C   UNL     1      12.330  -6.712   8.961  1.00  0.00     0.010 A 
ATOM     62  C   UNL     1      11.447  -7.526  11.488  1.00  0.00     0.020 A 
ATOM     63  C   UNL     1      13.246  -7.219   9.884  1.00  0.00     0.020 A 
ATOM     64  C   UNL     1      12.801  -7.602  11.151  1.00  0.00     0.054 A 
BRANCH  64  65
ATOM     65  S   UNL     1      13.972  -8.229  12.385  1.00  0.00     0.124 S 
ATOM     66  O   UNL     1      14.028  -7.125  13.339  1.00  0.00    -0.237 OA
ATOM     67  O   UNL     1      13.312  -9.441  12.864  1.00  0.00    -0.237 OA
ATOM     68  O   UNL     1      15.196  -8.453  11.619  1.00  0.00    -0.744 OA
ENDBRANCH  64  65
ENDBRANCH  38  59
ENDBRANCH  12  13
ENDBRANCH   5   7
ENDBRANCH   2   3
ENDBRANCH   1   2
BRANCH   1  69
ATOM     69  C   UNL     1       4.606   0.971  -3.465  1.00  0.00     0.023 C 
BRANCH  69  70
ATOM     70  C   UNL     1       5.060   2.346  -2.973  1.00  0.00     0.116 C 
BRANCH  70  71
ATOM     71  N   UNL     1       6.452   2.586  -3.276  1.00  0.00    -0.356 N 
ATOM     72  C   UNL     1       7.068   3.289  -4.253  1.00  0.00     0.223 C 
ATOM     73  H   UNL     1       7.074   2.152  -2.649  1.00  0.00     0.163 HD
ATOM     74  O   UNL     1       8.304   3.301  -4.225  1.00  0.00    -0.275 OA
BRANCH  72  75
ATOM     75  C   UNL     1       6.348   4.078  -5.345  1.00  0.00     0.079 C 
ATOM     76  C   UNL     1       6.377   5.581  -5.074  1.00  0.00     0.013 C 
ATOM     77  C   UNL     1       4.954   3.630  -5.797  1.00  0.00     0.027 C 
ATOM     78  C   UNL     1       5.875   6.353  -6.298  1.00  0.00     0.002 C 
ATOM     79  C   UNL     1       4.465   4.340  -7.055  1.00  0.00     0.079 C 
ATOM     80  C   UNL     1       4.505   5.864  -6.782  1.00  0.00     0.013 C 
BRANCH  79  81
ATOM     81  C   UNL     1       5.140   4.045  -8.401  1.00  0.00     0.225 C 
ATOM     82  O   UNL     1       4.766   4.654  -9.410  1.00  0.00    -0.275 OA
BRANCH  81  83
ATOM     83  N   UNL     1       6.269   3.260  -8.451  1.00  0.00    -0.339 N 
ATOM     84  C   UNL     1       6.389   1.879  -7.934  1.00  0.00     0.141 C 
ATOM     85  C   UNL     1       7.418   3.819  -9.156  1.00  0.00     0.146 C 
ATOM     86  C   UNL     1       7.386   0.941  -8.662  1.00  0.00     0.143 C 
ATOM     87  C   UNL     1       7.900   2.861 -10.220  1.00  0.00     0.125 C 
ATOM     88  N   UNL     1       8.253   1.594  -9.619  1.00  0.00    -0.317 N 
ATOM     89  C   UNL     1       9.194   3.288 -10.901  1.00  0.00     0.144 C 
ATOM     90  C   UNL     1       9.407   1.075 -10.178  1.00  0.00     0.317 C 
ATOM     91  N   UNL     1       9.931   2.056 -11.011  1.00  0.00    -0.336 N 
ATOM     92  O   UNL     1       9.899  -0.017  -9.986  1.00  0.00    -0.249 OA
ATOM     93  H   UNL     1      10.707   1.925 -11.602  1.00  0.00     0.165 HD
ENDBRANCH  81  83
ENDBRANCH  79  81
ENDBRANCH  72  75
ENDBRANCH  70  71
ENDBRANCH  69  70
ENDBRANCH   1  69
TORSDOF 16
