REMARK SMILES COc1ccc([C@@H]2[C@@H](C(=O)c3cccc4c3CCCC4)[C@H](C(=O)NCCCCNC(=O)c3ccc(-c4c5nc(c(-c6ccc(S(=O)(=O)[O-])cc6)c6ccc([nH]6)c(-c6ccc(S(=O)(=O)[O-])cc6)c6nc(c(-c7ccc(S(=O)(=O)[O-])cc7)c7ccc4[nH]7)C=C6)C=C5)cc3)SC3=NC(=O)S[C@H]32)cc1
REMARK SMILES IDX 27 1 26 2 25 3 24 4 22 5 23 6 21 8 7 9 8 10 98 11 93 12
REMARK SMILES IDX 97 13 92 14 94 15 95 16 96 17 6 18 3 19 4 20 100 21 5 22
REMARK SMILES IDX 99 23 2 24 1 25 9 26 10 27 11 28 12 29 16 30 13 31 15 32
REMARK SMILES IDX 17 33 14 34 20 35 18 36 19 37 28 38 29 39 30 40 31 42 32 43
REMARK SMILES IDX 33 44 91 45 34 46 90 47 35 48 36 49 37 50 84 51 38 52 89 53
REMARK SMILES IDX 83 54 85 55 39 56 88 57 82 58 81 59 40 61 70 62 51 63 69 64
REMARK SMILES IDX 52 65 55 66 68 67 86 68 53 69 54 70 67 72 87 73 56 74 41 75
REMARK SMILES IDX 42 76 50 77 43 78 49 79 44 80 45 81 46 82 47 83 48 84 71 85
REMARK SMILES IDX 72 86 80 87 73 88 79 89 74 90 75 91 76 92 77 93 78 94 57 95
REMARK SMILES IDX 58 96 66 97 59 98 65 99 60 100 61 101 62 102 63 103 64 104
REMARK H PARENT 24 7 29 41 85 60 55 71
REMARK Flexibility Score: inf
ROOT
ATOM      1  C   UNL     1       7.668   2.717   5.660  1.00  0.00     0.023 C 
ENDROOT
BRANCH   1   2
ATOM      2  C   UNL     1       6.429   1.824   5.710  1.00  0.00     0.023 C 
BRANCH   2   3
ATOM      3  C   UNL     1       6.075   1.300   7.102  1.00  0.00     0.116 C 
BRANCH   3   4
ATOM      4  N   UNL     1       5.719   2.371   8.019  1.00  0.00    -0.355 N 
ATOM      5  C   UNL     1       4.545   2.681   8.644  1.00  0.00     0.234 C 
ATOM      6  O   UNL     1       4.546   3.624   9.441  1.00  0.00    -0.274 OA
ATOM      7  H   UNL     1       6.460   2.985   8.227  1.00  0.00     0.163 HD
BRANCH   5   8
ATOM      8  C   UNL     1       3.258   1.872   8.414  1.00  0.00     0.153 C 
ATOM      9  C   UNL     1       1.766   0.829   6.532  1.00  0.00     0.052 C 
ATOM     10  C   UNL     1       2.765   1.956   6.952  1.00  0.00     0.093 C 
ATOM     11  C   UNL     1       2.287  -0.586   6.885  1.00  0.00     0.121 C 
ATOM     12  C   UNL     1       2.456  -0.786   8.359  1.00  0.00     0.093 C 
ATOM     13  S   UNL     1       1.126  -1.943   6.463  1.00  0.00    -0.052 SA
ATOM     14  S   UNL     1       3.535   0.245   9.217  1.00  0.00    -0.095 SA
ATOM     15  N   UNL     1       1.898  -1.773   8.971  1.00  0.00    -0.200 NA
ATOM     16  C   UNL     1       1.158  -2.547   8.115  1.00  0.00     0.306 C 
ATOM     17  O   UNL     1       0.567  -3.561   8.422  1.00  0.00    -0.259 OA
BRANCH   9  18
ATOM     18  C   UNL     1       1.474   0.854   5.026  1.00  0.00    -0.042 A 
ATOM     19  C   UNL     1       0.864   0.787   2.272  1.00  0.00     0.118 A 
ATOM     20  C   UNL     1      -0.147   0.956   3.213  1.00  0.00     0.047 A 
ATOM     21  C   UNL     1       2.182   0.649   2.700  1.00  0.00     0.047 A 
ATOM     22  C   UNL     1       0.150   0.941   4.576  1.00  0.00     0.008 A 
ATOM     23  C   UNL     1       2.487   0.694   4.066  1.00  0.00     0.008 A 
BRANCH  19  24
ATOM     24  O   UNL     1       0.461   0.823   0.967  1.00  0.00    -0.497 OA
ATOM     25  C   UNL     1       1.156  -0.066   0.099  1.00  0.00     0.278 C 
ENDBRANCH  19  24
ENDBRANCH   9  18
BRANCH  10  26
ATOM     26  C   UNL     1       2.324   3.434   6.659  1.00  0.00     0.168 C 
ATOM     27  O   UNL     1       3.096   4.221   6.114  1.00  0.00    -0.294 OA
BRANCH  26  28
ATOM     28  C   UNL     1       1.002   3.960   7.112  1.00  0.00     0.021 A 
ATOM     29  C   UNL     1      -0.134   3.518   6.462  1.00  0.00     0.012 A 
ATOM     30  C   UNL     1       0.858   4.453   8.408  1.00  0.00    -0.034 A 
ATOM     31  C   UNL     1      -1.247   3.168   7.226  1.00  0.00     0.001 A 
ATOM     32  C   UNL     1      -0.095   3.848   9.237  1.00  0.00    -0.044 A 
ATOM     33  C   UNL     1       0.754   5.994   8.553  1.00  0.00     0.036 C 
ATOM     34  C   UNL     1      -1.175   3.213   8.624  1.00  0.00     0.004 A 
ATOM     35  C   UNL     1      -0.025   4.123  10.715  1.00  0.00     0.036 C 
ATOM     36  C   UNL     1       0.630   6.475  10.008  1.00  0.00     0.005 C 
ATOM     37  C   UNL     1       0.843   5.355  11.024  1.00  0.00     0.005 C 
ENDBRANCH  26  28
ENDBRANCH  10  26
ENDBRANCH   5   8
ENDBRANCH   3   4
ENDBRANCH   2   3
ENDBRANCH   1   2
BRANCH   1  38
ATOM     38  C   UNL     1       8.952   2.073   6.168  1.00  0.00     0.116 C 
BRANCH  38  39
ATOM     39  N   UNL     1       9.360   0.922   5.376  1.00  0.00    -0.352 N 
ATOM     40  C   UNL     1      10.593   0.641   4.834  1.00  0.00     0.251 C 
ATOM     41  H   UNL     1       8.658   0.253   5.205  1.00  0.00     0.163 HD
ATOM     42  O   UNL     1      10.720  -0.307   4.064  1.00  0.00    -0.269 OA
BRANCH  40  43
ATOM     43  C   UNL     1      11.751   1.504   5.158  1.00  0.00     0.039 A 
ATOM     44  C   UNL     1      12.588   1.934   4.126  1.00  0.00     0.014 A 
ATOM     45  C   UNL     1      11.992   1.909   6.473  1.00  0.00     0.014 A 
ATOM     46  C   UNL     1      13.626   2.827   4.405  1.00  0.00     0.010 A 
ATOM     47  C   UNL     1      12.969   2.865   6.734  1.00  0.00     0.010 A 
ATOM     48  C   UNL     1      13.802   3.330   5.705  1.00  0.00    -0.014 A 
BRANCH  48  49
ATOM     49  C   UNL     1      14.851   4.336   6.014  1.00  0.00     0.031 A 
ATOM     50  C   UNL     1      15.958   4.001   6.978  1.00  0.00     0.074 A 
ATOM     51  C   UNL     1      14.778   5.570   5.478  1.00  0.00     0.049 A 
ATOM     52  N   UNL     1      16.938   4.755   7.407  1.00  0.00    -0.248 NA
ATOM     53  C   UNL     1      15.946   2.647   7.555  1.00  0.00     0.031 C 
ATOM     54  C   UNL     1      13.743   6.033   4.552  1.00  0.00     0.029 A 
ATOM     55  N   UNL     1      15.594   6.663   5.634  1.00  0.00    -0.354 N 
ATOM     56  C   UNL     1      17.648   3.974   8.311  1.00  0.00     0.074 A 
ATOM     57  C   UNL     1      16.947   2.714   8.419  1.00  0.00     0.031 C 
ATOM     58  C   UNL     1      14.011   7.297   4.187  1.00  0.00     0.029 A 
ATOM     59  C   UNL     1      15.207   7.752   4.889  1.00  0.00     0.049 A 
ATOM     60  H   UNL     1      16.382   6.667   6.224  1.00  0.00     0.167 HD
ATOM     61  C   UNL     1      18.794   4.266   8.974  1.00  0.00     0.031 A 
ATOM     62  C   UNL     1      15.754   8.979   4.780  1.00  0.00     0.031 A 
ATOM     63  C   UNL     1      19.482   5.526   8.874  1.00  0.00     0.049 A 
ATOM     64  C   UNL     1      16.997   9.301   5.563  1.00  0.00     0.074 A 
ATOM     65  C   UNL     1      20.667   5.910   9.476  1.00  0.00     0.029 A 
ATOM     66  N   UNL     1      19.042   6.611   8.130  1.00  0.00    -0.354 N 
ATOM     67  N   UNL     1      17.688   8.531   6.370  1.00  0.00    -0.248 NA
ATOM     68  C   UNL     1      17.541  10.658   5.411  1.00  0.00     0.031 C 
ATOM     69  C   UNL     1      20.911   7.248   9.144  1.00  0.00     0.029 A 
ATOM     70  C   UNL     1      19.917   7.675   8.278  1.00  0.00     0.049 A 
ATOM     71  H   UNL     1      18.227   6.623   7.577  1.00  0.00     0.167 HD
ATOM     72  C   UNL     1      18.768   9.298   6.794  1.00  0.00     0.074 A 
ATOM     73  C   UNL     1      18.642  10.589   6.148  1.00  0.00     0.031 C 
ATOM     74  C   UNL     1      19.777   8.959   7.635  1.00  0.00     0.031 A 
BRANCH  61  75
ATOM     75  C   UNL     1      19.351   3.197   9.882  1.00  0.00    -0.014 A 
ATOM     76  C   UNL     1      19.837   1.981   9.364  1.00  0.00     0.010 A 
ATOM     77  C   UNL     1      19.375   3.402  11.274  1.00  0.00     0.010 A 
ATOM     78  C   UNL     1      20.262   0.963  10.222  1.00  0.00     0.020 A 
ATOM     79  C   UNL     1      19.835   2.400  12.134  1.00  0.00     0.020 A 
ATOM     80  C   UNL     1      20.246   1.175  11.603  1.00  0.00     0.054 A 
BRANCH  80  81
ATOM     81  S   UNL     1      20.770  -0.175  12.695  1.00  0.00     0.124 S 
ATOM     82  O   UNL     1      19.645  -1.100  12.589  1.00  0.00    -0.237 OA
ATOM     83  O   UNL     1      22.013  -0.625  12.074  1.00  0.00    -0.237 OA
ATOM     84  O   UNL     1      20.925   0.471  13.996  1.00  0.00    -0.744 OA
ENDBRANCH  80  81
ENDBRANCH  61  75
BRANCH  62  85
ATOM     85  C   UNL     1      15.152   9.976   3.853  1.00  0.00    -0.014 A 
ATOM     86  C   UNL     1      15.817  10.324   2.664  1.00  0.00     0.010 A 
ATOM     87  C   UNL     1      13.900  10.556   4.129  1.00  0.00     0.010 A 
ATOM     88  C   UNL     1      15.245  11.233   1.770  1.00  0.00     0.020 A 
ATOM     89  C   UNL     1      13.312  11.444   3.224  1.00  0.00     0.020 A 
ATOM     90  C   UNL     1      13.991  11.781   2.052  1.00  0.00     0.054 A 
BRANCH  90  91
ATOM     91  S   UNL     1      13.237  12.899   0.838  1.00  0.00     0.124 S 
ATOM     92  O   UNL     1      14.078  14.086   0.953  1.00  0.00    -0.237 OA
ATOM     93  O   UNL     1      13.371  12.145  -0.407  1.00  0.00    -0.237 OA
ATOM     94  O   UNL     1      11.866  13.053   1.319  1.00  0.00    -0.744 OA
ENDBRANCH  90  91
ENDBRANCH  62  85
BRANCH  74  95
ATOM     95  C   UNL     1      20.854   9.985   7.878  1.00  0.00    -0.014 A 
ATOM     96  C   UNL     1      20.608  11.146   8.632  1.00  0.00     0.010 A 
ATOM     97  C   UNL     1      22.152   9.752   7.385  1.00  0.00     0.010 A 
ATOM     98  C   UNL     1      21.632  12.070   8.861  1.00  0.00     0.020 A 
ATOM     99  C   UNL     1      23.186  10.657   7.638  1.00  0.00     0.020 A 
ATOM    100  C   UNL     1      22.915  11.819   8.364  1.00  0.00     0.054 A 
BRANCH 100 101
ATOM    101  S   UNL     1      24.237  13.010   8.715  1.00  0.00     0.124 S 
ATOM    102  O   UNL     1      23.869  14.134   7.859  1.00  0.00    -0.237 OA
ATOM    103  O   UNL     1      24.088  13.238  10.150  1.00  0.00    -0.237 OA
ATOM    104  O   UNL     1      25.455  12.303   8.325  1.00  0.00    -0.744 OA
ENDBRANCH 100 101
ENDBRANCH  74  95
ENDBRANCH  48  49
ENDBRANCH  40  43
ENDBRANCH  38  39
ENDBRANCH   1  38
TORSDOF 18
