REMARK SMILES Cc1cc(NC(=O)CC2(CC(=O)NCCCCNC(=O)c3ccc(-c4c5nc(c(-c6ccc(S(=O)(=O)[O-])cc6)c6ccc([nH]6)c(-c6ccc(S(=O)(=O)[O-])cc6)c6nc(c(-c7ccc(S(=O)(=O)[O-])cc7)c7ccc4[nH]7)C=C6)C=C5)cc3)CCCC2)ccn1
REMARK SMILES IDX 15 1 14 2 13 3 11 4 12 5 10 7 9 8 81 9 84 10 82 11 83 12
REMARK SMILES IDX 8 13 6 14 5 15 7 17 4 18 1 19 2 20 3 21 87 22 86 23 85 24
REMARK SMILES IDX 16 25 17 26 18 27 19 28 20 30 21 31 22 32 80 33 23 34 79 35
REMARK SMILES IDX 24 36 25 37 26 38 73 39 27 40 78 41 72 42 74 43 28 44 77 45
REMARK SMILES IDX 71 46 70 47 29 49 59 50 40 51 58 52 41 53 44 54 57 55 75 56
REMARK SMILES IDX 42 57 43 58 56 60 76 61 45 62 30 63 31 64 39 65 32 66 38 67
REMARK SMILES IDX 33 68 34 69 35 70 36 71 37 72 60 73 61 74 69 75 62 76 68 77
REMARK SMILES IDX 63 78 64 79 65 80 66 81 67 82 46 83 47 84 55 85 48 86 54 87
REMARK SMILES IDX 49 88 50 89 51 90 52 91 53 92
REMARK H PARENT 13 6 5 16 18 29 74 48 44 59
REMARK Flexibility Score: inf
ROOT
ATOM      1  C   UNL     1      -6.686   2.288   1.108  1.00  0.00     0.023 C 
ENDROOT
BRANCH   1   2
ATOM      2  C   UNL     1      -6.647   1.468   2.398  1.00  0.00     0.116 C 
BRANCH   2   3
ATOM      3  N   UNL     1      -6.875   0.070   2.117  1.00  0.00    -0.356 N 
ATOM      4  C   UNL     1      -6.006  -0.974   2.134  1.00  0.00     0.220 C 
ATOM      5  O   UNL     1      -6.435  -2.084   1.816  1.00  0.00    -0.275 OA
ATOM      6  H   UNL     1      -7.801  -0.162   1.877  1.00  0.00     0.163 HD
BRANCH   4   7
ATOM      7  C   UNL     1      -4.561  -0.791   2.578  1.00  0.00     0.107 C 
BRANCH   7   8
ATOM      8  C   UNL     1      -3.475  -0.411   1.519  1.00  0.00    -0.012 C 
ATOM      9  C   UNL     1      -2.098  -0.564   2.216  1.00  0.00     0.008 C 
ATOM     10  C   UNL     1      -3.399   1.099   1.212  1.00  0.00     0.008 C 
ATOM     11  C   UNL     1      -1.939   0.677   3.098  1.00  0.00     0.001 C 
ATOM     12  C   UNL     1      -2.744   1.772   2.411  1.00  0.00     0.001 C 
BRANCH   8  13
ATOM     13  C   UNL     1      -3.662  -1.197   0.187  1.00  0.00     0.108 C 
BRANCH  13  14
ATOM     14  C   UNL     1      -2.776  -2.404  -0.049  1.00  0.00     0.224 C 
ATOM     15  N   UNL     1      -1.490  -2.307  -0.497  1.00  0.00    -0.326 N 
ATOM     16  H   UNL     1      -1.042  -3.177  -0.602  1.00  0.00     0.169 HD
ATOM     17  O   UNL     1      -3.179  -3.536   0.237  1.00  0.00    -0.275 OA
BRANCH  15  18
ATOM     18  C   UNL     1      -0.679  -1.212  -0.838  1.00  0.00     0.044 A 
ATOM     19  C   UNL     1       2.890  -0.231  -0.080  1.00  0.00     0.067 C 
ATOM     20  C   UNL     1       1.493  -0.206  -0.620  1.00  0.00     0.039 A 
ATOM     21  C   UNL     1       0.668  -1.317  -0.486  1.00  0.00     0.049 A 
ATOM     22  N   UNL     1       1.053   0.966  -1.128  1.00  0.00    -0.261 NA
ATOM     23  C   UNL     1      -0.232   1.018  -1.535  1.00  0.00     0.113 A 
ATOM     24  C   UNL     1      -1.124  -0.036  -1.421  1.00  0.00     0.046 A 
ENDBRANCH  15  18
ENDBRANCH  13  14
ENDBRANCH   8  13
ENDBRANCH   7   8
ENDBRANCH   4   7
ENDBRANCH   2   3
ENDBRANCH   1   2
BRANCH   1  25
ATOM     25  C   UNL     1      -8.072   2.742   0.676  1.00  0.00     0.023 C 
BRANCH  25  26
ATOM     26  C   UNL     1      -8.791   3.621   1.683  1.00  0.00     0.116 C 
BRANCH  26  27
ATOM     27  N   UNL     1      -8.033   4.795   2.097  1.00  0.00    -0.352 N 
ATOM     28  C   UNL     1      -8.527   6.042   2.412  1.00  0.00     0.251 C 
ATOM     29  H   UNL     1      -7.056   4.685   2.160  1.00  0.00     0.163 HD
ATOM     30  O   UNL     1      -7.779   6.972   2.679  1.00  0.00    -0.269 OA
BRANCH  28  31
ATOM     31  C   UNL     1      -9.991   6.229   2.363  1.00  0.00     0.039 A 
ATOM     32  C   UNL     1     -10.521   7.199   1.514  1.00  0.00     0.014 A 
ATOM     33  C   UNL     1     -10.821   5.332   3.040  1.00  0.00     0.014 A 
ATOM     34  C   UNL     1     -11.896   7.215   1.276  1.00  0.00     0.010 A 
ATOM     35  C   UNL     1     -12.170   5.288   2.724  1.00  0.00     0.010 A 
ATOM     36  C   UNL     1     -12.722   6.229   1.841  1.00  0.00    -0.014 A 
BRANCH  36  37
ATOM     37  C   UNL     1     -14.173   6.164   1.539  1.00  0.00     0.031 A 
ATOM     38  C   UNL     1     -15.168   6.319   2.655  1.00  0.00     0.074 A 
ATOM     39  C   UNL     1     -14.590   5.880   0.289  1.00  0.00     0.049 A 
ATOM     40  N   UNL     1     -16.470   6.201   2.623  1.00  0.00    -0.248 NA
ATOM     41  C   UNL     1     -14.623   6.602   3.994  1.00  0.00     0.031 C 
ATOM     42  C   UNL     1     -13.721   5.645  -0.868  1.00  0.00     0.029 A 
ATOM     43  N   UNL     1     -15.857   5.733  -0.216  1.00  0.00    -0.354 N 
ATOM     44  C   UNL     1     -16.893   6.359   3.937  1.00  0.00     0.074 A 
ATOM     45  C   UNL     1     -15.708   6.525   4.749  1.00  0.00     0.031 C 
ATOM     46  C   UNL     1     -14.482   5.421  -1.952  1.00  0.00     0.029 A 
ATOM     47  C   UNL     1     -15.888   5.460  -1.563  1.00  0.00     0.049 A 
ATOM     48  H   UNL     1     -16.669   5.816   0.335  1.00  0.00     0.167 HD
ATOM     49  C   UNL     1     -18.155   6.390   4.424  1.00  0.00     0.031 A 
ATOM     50  C   UNL     1     -16.933   5.267  -2.392  1.00  0.00     0.031 A 
ATOM     51  C   UNL     1     -19.331   6.267   3.608  1.00  0.00     0.049 A 
ATOM     52  C   UNL     1     -18.328   5.353  -1.839  1.00  0.00     0.074 A 
ATOM     53  C   UNL     1     -20.657   6.359   3.989  1.00  0.00     0.029 A 
ATOM     54  N   UNL     1     -19.319   6.035   2.241  1.00  0.00    -0.354 N 
ATOM     55  N   UNL     1     -18.711   5.567  -0.603  1.00  0.00    -0.248 NA
ATOM     56  C   UNL     1     -19.431   5.183  -2.795  1.00  0.00     0.031 C 
ATOM     57  C   UNL     1     -21.450   6.152   2.854  1.00  0.00     0.029 A 
ATOM     58  C   UNL     1     -20.615   5.972   1.762  1.00  0.00     0.049 A 
ATOM     59  H   UNL     1     -18.508   5.931   1.693  1.00  0.00     0.167 HD
ATOM     60  C   UNL     1     -20.101   5.582  -0.635  1.00  0.00     0.074 A 
ATOM     61  C   UNL     1     -20.489   5.366  -2.015  1.00  0.00     0.031 C 
ATOM     62  C   UNL     1     -20.977   5.759   0.384  1.00  0.00     0.031 A 
BRANCH  49  63
ATOM     63  C   UNL     1     -18.312   6.570   5.910  1.00  0.00    -0.014 A 
ATOM     64  C   UNL     1     -17.996   7.793   6.529  1.00  0.00     0.010 A 
ATOM     65  C   UNL     1     -18.768   5.500   6.700  1.00  0.00     0.010 A 
ATOM     66  C   UNL     1     -18.074   7.925   7.917  1.00  0.00     0.020 A 
ATOM     67  C   UNL     1     -18.875   5.637   8.087  1.00  0.00     0.020 A 
ATOM     68  C   UNL     1     -18.503   6.841   8.688  1.00  0.00     0.054 A 
BRANCH  68  69
ATOM     69  S   UNL     1     -18.588   7.033  10.490  1.00  0.00     0.124 S 
ATOM     70  O   UNL     1     -17.183   6.914  10.869  1.00  0.00    -0.237 OA
ATOM     71  O   UNL     1     -19.169   8.364  10.646  1.00  0.00    -0.237 OA
ATOM     72  O   UNL     1     -19.445   5.929  10.914  1.00  0.00    -0.744 OA
ENDBRANCH  68  69
ENDBRANCH  49  63
BRANCH  50  73
ATOM     73  C   UNL     1     -16.695   5.020  -3.839  1.00  0.00    -0.014 A 
ATOM     74  C   UNL     1     -16.942   6.036  -4.779  1.00  0.00     0.010 A 
ATOM     75  C   UNL     1     -16.193   3.784  -4.284  1.00  0.00     0.010 A 
ATOM     76  C   UNL     1     -16.700   5.819  -6.138  1.00  0.00     0.020 A 
ATOM     77  C   UNL     1     -15.930   3.570  -5.641  1.00  0.00     0.020 A 
ATOM     78  C   UNL     1     -16.193   4.587  -6.561  1.00  0.00     0.054 A 
BRANCH  78  79
ATOM     79  S   UNL     1     -15.821   4.351  -8.321  1.00  0.00     0.124 S 
ATOM     80  O   UNL     1     -17.151   4.156  -8.889  1.00  0.00    -0.237 OA
ATOM     81  O   UNL     1     -15.157   5.603  -8.676  1.00  0.00    -0.237 OA
ATOM     82  O   UNL     1     -14.955   3.174  -8.330  1.00  0.00    -0.744 OA
ENDBRANCH  78  79
ENDBRANCH  50  73
BRANCH  62  83
ATOM     83  C   UNL     1     -22.441   5.757   0.043  1.00  0.00    -0.014 A 
ATOM     84  C   UNL     1     -23.116   4.558  -0.242  1.00  0.00     0.010 A 
ATOM     85  C   UNL     1     -23.160   6.965   0.072  1.00  0.00     0.010 A 
ATOM     86  C   UNL     1     -24.486   4.571  -0.517  1.00  0.00     0.020 A 
ATOM     87  C   UNL     1     -24.533   6.978  -0.180  1.00  0.00     0.020 A 
ATOM     88  C   UNL     1     -25.186   5.782  -0.485  1.00  0.00     0.054 A 
BRANCH  88  89
ATOM     89  S   UNL     1     -26.973   5.768  -0.794  1.00  0.00     0.124 S 
ATOM     90  O   UNL     1     -27.028   5.628  -2.246  1.00  0.00    -0.237 OA
ATOM     91  O   UNL     1     -27.424   4.606  -0.032  1.00  0.00    -0.237 OA
ATOM     92  O   UNL     1     -27.422   7.058  -0.274  1.00  0.00    -0.744 OA
ENDBRANCH  88  89
ENDBRANCH  62  83
ENDBRANCH  36  37
ENDBRANCH  28  31
ENDBRANCH  26  27
ENDBRANCH  25  26
ENDBRANCH   1  25
TORSDOF 18
