REMARK SMILES C[C@H](C(=O)NCCCCNC(=O)c1ccc(-c2c3nc(c(-c4ccc(S(=O)(=O)[O-])cc4)c4ccc([nH]4)c(-c4ccc(S(=O)(=O)[O-])cc4)c4nc(c(-c5ccc(S(=O)(=O)[O-])cc5)c5ccc2[nH]5)C=C4)C=C3)cc1)c1ccc2c3cc(Cl)ccc3n(C(=O)c3cocn3)c2c1
REMARK SMILES IDX 7 1 6 2 5 3 3 4 4 5 2 7 1 8 73 9 74 10 93 11 75 12 92 13
REMARK SMILES IDX 76 14 84 15 77 16 83 17 78 18 82 19 79 20 81 21 80 22 85 23
REMARK SMILES IDX 86 24 87 25 88 26 91 27 89 28 90 29 8 30 9 31 10 32 11 33
REMARK SMILES IDX 12 35 13 36 14 37 72 38 15 39 71 40 16 41 17 42 18 43 65 44
REMARK SMILES IDX 19 45 70 46 64 47 66 48 20 49 69 50 63 51 62 52 21 54 51 55
REMARK SMILES IDX 32 56 50 57 33 58 36 59 49 60 67 61 34 62 35 63 48 65 68 66
REMARK SMILES IDX 37 67 22 68 23 69 31 70 24 71 30 72 25 73 26 74 27 75 28 76
REMARK SMILES IDX 29 77 52 78 53 79 61 80 54 81 60 82 55 83 56 84 57 85 58 86
REMARK SMILES IDX 59 87 38 88 39 89 47 90 40 91 46 92 41 93 42 94 43 95 44 96
REMARK SMILES IDX 45 97
REMARK H PARENT 5 6 10 34 66 53 36 64
REMARK Flexibility Score: inf
ROOT
ATOM      1  C   UNL     1      -1.607  -1.401  -1.581  1.00  0.00     0.023 C 
ENDROOT
BRANCH   1   2
ATOM      2  C   UNL     1      -0.188  -1.723  -1.103  1.00  0.00     0.116 C 
BRANCH   2   3
ATOM      3  N   UNL     1       0.654  -0.539  -1.048  1.00  0.00    -0.356 N 
ATOM      4  C   UNL     1       0.983   0.250   0.023  1.00  0.00     0.227 C 
ATOM      5  O   UNL     1       1.672   1.250  -0.190  1.00  0.00    -0.274 OA
ATOM      6  H   UNL     1       1.046  -0.264  -1.908  1.00  0.00     0.163 HD
BRANCH   4   7
ATOM      7  C   UNL     1       0.516  -0.140   1.436  1.00  0.00     0.105 C 
ATOM      8  C   UNL     1       1.216   0.686   2.518  1.00  0.00     0.023 C 
BRANCH   7   9
ATOM      9  C   UNL     1      -0.998  -0.057   1.580  1.00  0.00    -0.034 A 
ATOM     10  C   UNL     1      -1.701   1.094   1.220  1.00  0.00     0.005 A 
ATOM     11  C   UNL     1      -1.704  -1.207   1.971  1.00  0.00     0.032 A 
ATOM     12  C   UNL     1      -3.097   1.079   1.149  1.00  0.00     0.011 A 
ATOM     13  C   UNL     1      -3.110  -1.238   1.853  1.00  0.00     0.058 A 
ATOM     14  C   UNL     1      -3.807  -0.110   1.430  1.00  0.00     0.008 A 
ATOM     15  N   UNL     1      -4.027  -2.296   2.007  1.00  0.00    -0.274 N 
ATOM     16  C   UNL     1      -5.185  -0.452   1.382  1.00  0.00     0.009 A 
ATOM     17  C   UNL     1      -5.319  -1.772   1.831  1.00  0.00     0.057 A 
ATOM     18  C   UNL     1      -6.334   0.285   1.018  1.00  0.00     0.031 A 
ATOM     19  C   UNL     1      -6.602  -2.318   2.044  1.00  0.00     0.029 A 
ATOM     20  C   UNL     1      -7.593  -0.289   1.164  1.00  0.00     0.041 A 
ATOM     21  C   UNL     1      -7.729  -1.565   1.689  1.00  0.00     0.023 A 
ATOM     22  Cl  UNL     1      -8.993   0.611   0.726  1.00  0.00    -0.084 Cl
BRANCH  15  23
ATOM     23  C   UNL     1      -3.654  -3.647   2.282  1.00  0.00     0.284 C 
ATOM     24  O   UNL     1      -2.501  -3.823   2.680  1.00  0.00    -0.266 OA
BRANCH  23  25
ATOM     25  C   UNL     1      -4.501  -4.821   2.104  1.00  0.00     0.167 A 
ATOM     26  C   UNL     1      -5.389  -5.111   1.090  1.00  0.00     0.231 A 
ATOM     27  N   UNL     1      -4.399  -5.934   2.930  1.00  0.00    -0.211 NA
ATOM     28  O   UNL     1      -5.867  -6.375   1.284  1.00  0.00    -0.451 OA
ATOM     29  C   UNL     1      -5.209  -6.811   2.391  1.00  0.00     0.308 A 
ENDBRANCH  23  25
ENDBRANCH  15  23
ENDBRANCH   7   9
ENDBRANCH   4   7
ENDBRANCH   2   3
ENDBRANCH   1   2
BRANCH   1  30
ATOM     30  C   UNL     1      -1.724  -1.002  -3.052  1.00  0.00     0.023 C 
BRANCH  30  31
ATOM     31  C   UNL     1      -1.300  -2.075  -4.045  1.00  0.00     0.116 C 
BRANCH  31  32
ATOM     32  N   UNL     1      -2.088  -3.290  -3.936  1.00  0.00    -0.352 N 
ATOM     33  C   UNL     1      -2.477  -4.162  -4.923  1.00  0.00     0.251 C 
ATOM     34  H   UNL     1      -2.385  -3.522  -3.026  1.00  0.00     0.163 HD
ATOM     35  O   UNL     1      -3.257  -5.069  -4.650  1.00  0.00    -0.269 OA
BRANCH  33  36
ATOM     36  C   UNL     1      -1.984  -3.992  -6.311  1.00  0.00     0.039 A 
ATOM     37  C   UNL     1      -2.876  -4.203  -7.367  1.00  0.00     0.014 A 
ATOM     38  C   UNL     1      -0.655  -3.655  -6.581  1.00  0.00     0.014 A 
ATOM     39  C   UNL     1      -2.444  -4.040  -8.687  1.00  0.00     0.010 A 
ATOM     40  C   UNL     1      -0.245  -3.421  -7.892  1.00  0.00     0.010 A 
ATOM     41  C   UNL     1      -1.129  -3.631  -8.959  1.00  0.00    -0.014 A 
BRANCH  41  42
ATOM     42  C   UNL     1      -0.653  -3.461 -10.356  1.00  0.00     0.031 A 
ATOM     43  C   UNL     1       0.413  -4.372 -10.905  1.00  0.00     0.074 A 
ATOM     44  C   UNL     1      -1.148  -2.466 -11.117  1.00  0.00     0.049 A 
ATOM     45  N   UNL     1       0.961  -4.377 -12.094  1.00  0.00    -0.248 NA
ATOM     46  C   UNL     1       0.954  -5.393  -9.992  1.00  0.00     0.031 C 
ATOM     47  C   UNL     1      -2.148  -1.485 -10.687  1.00  0.00     0.029 A 
ATOM     48  N   UNL     1      -0.877  -2.116 -12.415  1.00  0.00    -0.354 N 
ATOM     49  C   UNL     1       1.923  -5.381 -12.063  1.00  0.00     0.074 A 
ATOM     50  C   UNL     1       1.917  -5.931 -10.726  1.00  0.00     0.031 C 
ATOM     51  C   UNL     1      -2.430  -0.667 -11.715  1.00  0.00     0.029 A 
ATOM     52  C   UNL     1      -1.615  -1.047 -12.865  1.00  0.00     0.049 A 
ATOM     53  H   UNL     1      -0.215  -2.586 -12.973  1.00  0.00     0.167 HD
ATOM     54  C   UNL     1       2.725  -5.821 -13.062  1.00  0.00     0.031 A 
ATOM     55  C   UNL     1      -1.641  -0.447 -14.071  1.00  0.00     0.031 A 
ATOM     56  C   UNL     1       2.712  -5.293 -14.399  1.00  0.00     0.049 A 
ATOM     57  C   UNL     1      -0.771  -0.979 -15.176  1.00  0.00     0.074 A 
ATOM     58  C   UNL     1       3.441  -5.713 -15.499  1.00  0.00     0.029 A 
ATOM     59  N   UNL     1       1.926  -4.233 -14.822  1.00  0.00    -0.354 N 
ATOM     60  N   UNL     1       0.083  -1.975 -15.146  1.00  0.00    -0.248 NA
ATOM     61  C   UNL     1      -0.886  -0.320 -16.484  1.00  0.00     0.031 C 
ATOM     62  C   UNL     1       3.118  -4.883 -16.579  1.00  0.00     0.029 A 
ATOM     63  C   UNL     1       2.156  -3.977 -16.162  1.00  0.00     0.049 A 
ATOM     64  H   UNL     1       1.296  -3.734 -14.252  1.00  0.00     0.167 HD
ATOM     65  C   UNL     1       0.581  -2.083 -16.440  1.00  0.00     0.074 A 
ATOM     66  C   UNL     1      -0.073  -1.058 -17.228  1.00  0.00     0.031 C 
ATOM     67  C   UNL     1       1.493  -2.957 -16.933  1.00  0.00     0.031 A 
BRANCH  54  68
ATOM     68  C   UNL     1       3.687  -6.934 -12.737  1.00  0.00    -0.014 A 
ATOM     69  C   UNL     1       3.230  -8.243 -12.500  1.00  0.00     0.010 A 
ATOM     70  C   UNL     1       5.068  -6.671 -12.686  1.00  0.00     0.010 A 
ATOM     71  C   UNL     1       4.131  -9.258 -12.169  1.00  0.00     0.020 A 
ATOM     72  C   UNL     1       5.975  -7.691 -12.382  1.00  0.00     0.020 A 
ATOM     73  C   UNL     1       5.498  -8.974 -12.105  1.00  0.00     0.054 A 
BRANCH  73  74
ATOM     74  S   UNL     1       6.648 -10.310 -11.681  1.00  0.00     0.124 S 
ATOM     75  O   UNL     1       6.449 -10.430 -10.239  1.00  0.00    -0.237 OA
ATOM     76  O   UNL     1       6.152 -11.429 -12.478  1.00  0.00    -0.237 OA
ATOM     77  O   UNL     1       7.950  -9.789 -12.089  1.00  0.00    -0.744 OA
ENDBRANCH  73  74
ENDBRANCH  54  68
BRANCH  55  78
ATOM     78  C   UNL     1      -2.565   0.694 -14.312  1.00  0.00    -0.014 A 
ATOM     79  C   UNL     1      -3.716   0.518 -15.100  1.00  0.00     0.010 A 
ATOM     80  C   UNL     1      -2.306   1.955 -13.749  1.00  0.00     0.010 A 
ATOM     81  C   UNL     1      -4.582   1.589 -15.338  1.00  0.00     0.020 A 
ATOM     82  C   UNL     1      -3.182   3.023 -13.965  1.00  0.00     0.020 A 
ATOM     83  C   UNL     1      -4.309   2.836 -14.769  1.00  0.00     0.054 A 
BRANCH  83  84
ATOM     84  S   UNL     1      -5.473   4.200 -15.048  1.00  0.00     0.124 S 
ATOM     85  O   UNL     1      -5.153   4.596 -16.415  1.00  0.00    -0.237 OA
ATOM     86  O   UNL     1      -6.770   3.554 -14.862  1.00  0.00    -0.237 OA
ATOM     87  O   UNL     1      -5.116   5.168 -14.013  1.00  0.00    -0.744 OA
ENDBRANCH  83  84
ENDBRANCH  55  78
BRANCH  67  88
ATOM     88  C   UNL     1       1.801  -2.875 -18.403  1.00  0.00    -0.014 A 
ATOM     89  C   UNL     1       2.570  -1.823 -18.931  1.00  0.00     0.010 A 
ATOM     90  C   UNL     1       1.339  -3.888 -19.262  1.00  0.00     0.010 A 
ATOM     91  C   UNL     1       2.837  -1.765 -20.302  1.00  0.00     0.020 A 
ATOM     92  C   UNL     1       1.625  -3.847 -20.629  1.00  0.00     0.020 A 
ATOM     93  C   UNL     1       2.357  -2.775 -21.143  1.00  0.00     0.054 A 
BRANCH  93  94
ATOM     94  S   UNL     1       2.734  -2.694 -22.916  1.00  0.00     0.124 S 
ATOM     95  O   UNL     1       1.781  -1.691 -23.382  1.00  0.00    -0.237 OA
ATOM     96  O   UNL     1       4.136  -2.283 -22.930  1.00  0.00    -0.237 OA
ATOM     97  O   UNL     1       2.486  -4.056 -23.383  1.00  0.00    -0.744 OA
ENDBRANCH  93  94
ENDBRANCH  67  88
ENDBRANCH  41  42
ENDBRANCH  33  36
ENDBRANCH  31  32
ENDBRANCH  30  31
ENDBRANCH   1  30
TORSDOF 17
