REMARK SMILES O=C(NCCCCNC(=O)[C@@H](NC(=O)c1cscn1)c1ccccc1C(F)(F)F)c1ccc(-c2c3nc(c(-c4ccc(S(=O)(=O)[O-])cc4)c4ccc([nH]4)c(-c4ccc(S(=O)(=O)[O-])cc4)c4nc(c(-c5ccc(S(=O)(=O)[O-])cc5)c5ccc2[nH]5)C=C4)C=C3)cc1
REMARK SMILES IDX 5 1 4 2 3 3 1 4 2 5 30 7 31 8 89 9 32 10 88 11 33 12 34 13
REMARK SMILES IDX 35 14 82 15 36 16 87 17 81 18 83 19 37 20 86 21 80 22 79 23
REMARK SMILES IDX 38 25 68 26 49 27 67 28 50 29 53 30 66 31 84 32 51 33 52 34
REMARK SMILES IDX 65 36 85 37 54 38 39 39 40 40 48 41 41 42 47 43 42 44 43 45
REMARK SMILES IDX 44 46 45 47 46 48 69 49 70 50 78 51 71 52 77 53 72 54 73 55
REMARK SMILES IDX 74 56 75 57 76 58 55 59 56 60 64 61 57 62 63 63 58 64 59 65
REMARK SMILES IDX 60 66 61 67 62 68 6 69 7 70 8 71 9 72 10 74 11 75 12 76
REMARK SMILES IDX 13 77 14 79 15 80 16 81 19 82 17 83 18 84 20 85 21 86 25 87
REMARK SMILES IDX 22 88 24 89 23 90 26 91 27 92 28 93 29 94
REMARK H PARENT 3 6 83 24 53 35 8 73 12 78
REMARK Flexibility Score: inf
ROOT
ATOM      1  C   UNL     1       5.120  -0.236   2.530  1.00  0.00     0.023 C 
ENDROOT
BRANCH   1   2
ATOM      2  C   UNL     1       4.768  -0.384   1.052  1.00  0.00     0.116 C 
BRANCH   2   3
ATOM      3  N   UNL     1       3.349  -0.615   0.818  1.00  0.00    -0.352 N 
ATOM      4  O   UNL     1       1.290  -0.212  -0.012  1.00  0.00    -0.269 OA
ATOM      5  C   UNL     1       2.486   0.059  -0.012  1.00  0.00     0.251 C 
ATOM      6  H   UNL     1       2.952  -1.359   1.327  1.00  0.00     0.163 HD
BRANCH   5   7
ATOM      7  C   UNL     1       3.013   1.136  -0.870  1.00  0.00     0.039 A 
ATOM      8  C   UNL     1       4.113   0.905  -1.700  1.00  0.00     0.014 A 
ATOM      9  C   UNL     1       2.425   2.400  -0.798  1.00  0.00     0.014 A 
ATOM     10  C   UNL     1       4.712   1.974  -2.358  1.00  0.00     0.010 A 
ATOM     11  C   UNL     1       2.990   3.458  -1.510  1.00  0.00     0.010 A 
ATOM     12  C   UNL     1       4.158   3.260  -2.264  1.00  0.00    -0.014 A 
BRANCH  12  13
ATOM     13  C   UNL     1       4.786   4.396  -2.979  1.00  0.00     0.031 A 
ATOM     14  C   UNL     1       5.411   5.530  -2.216  1.00  0.00     0.074 A 
ATOM     15  C   UNL     1       4.771   4.410  -4.324  1.00  0.00     0.049 A 
ATOM     16  N   UNL     1       5.931   6.640  -2.672  1.00  0.00    -0.248 NA
ATOM     17  C   UNL     1       5.450   5.404  -0.750  1.00  0.00     0.031 C 
ATOM     18  C   UNL     1       4.201   3.359  -5.170  1.00  0.00     0.029 A 
ATOM     19  N   UNL     1       5.239   5.340  -5.215  1.00  0.00    -0.354 N 
ATOM     20  C   UNL     1       6.331   7.361  -1.552  1.00  0.00     0.074 A 
ATOM     21  C   UNL     1       5.983   6.565  -0.394  1.00  0.00     0.031 C 
ATOM     22  C   UNL     1       4.362   3.698  -6.457  1.00  0.00     0.029 A 
ATOM     23  C   UNL     1       4.991   5.013  -6.525  1.00  0.00     0.049 A 
ATOM     24  H   UNL     1       5.706   6.162  -4.941  1.00  0.00     0.167 HD
ATOM     25  C   UNL     1       6.928   8.576  -1.498  1.00  0.00     0.031 A 
ATOM     26  C   UNL     1       5.213   5.705  -7.658  1.00  0.00     0.031 A 
ATOM     27  C   UNL     1       7.267   9.361  -2.656  1.00  0.00     0.049 A 
ATOM     28  C   UNL     1       5.851   7.059  -7.575  1.00  0.00     0.074 A 
ATOM     29  C   UNL     1       7.896  10.592  -2.708  1.00  0.00     0.029 A 
ATOM     30  N   UNL     1       6.999   8.992  -3.966  1.00  0.00    -0.354 N 
ATOM     31  N   UNL     1       6.239   7.718  -6.509  1.00  0.00    -0.248 NA
ATOM     32  C   UNL     1       6.085   7.763  -8.842  1.00  0.00     0.031 C 
ATOM     33  C   UNL     1       7.971  10.987  -4.048  1.00  0.00     0.029 A 
ATOM     34  C   UNL     1       7.432   9.980  -4.834  1.00  0.00     0.049 A 
ATOM     35  H   UNL     1       6.565   8.152  -4.239  1.00  0.00     0.167 HD
ATOM     36  C   UNL     1       6.781   8.908  -6.977  1.00  0.00     0.074 A 
ATOM     37  C   UNL     1       6.675   8.875  -8.423  1.00  0.00     0.031 C 
ATOM     38  C   UNL     1       7.320   9.931  -6.271  1.00  0.00     0.031 A 
BRANCH  25  39
ATOM     39  C   UNL     1       7.209   9.146  -0.133  1.00  0.00    -0.014 A 
ATOM     40  C   UNL     1       8.232   8.628   0.681  1.00  0.00     0.010 A 
ATOM     41  C   UNL     1       6.438  10.223   0.341  1.00  0.00     0.010 A 
ATOM     42  C   UNL     1       8.440   9.138   1.966  1.00  0.00     0.020 A 
ATOM     43  C   UNL     1       6.658  10.752   1.616  1.00  0.00     0.020 A 
ATOM     44  C   UNL     1       7.642  10.188   2.430  1.00  0.00     0.054 A 
BRANCH  44  45
ATOM     45  S   UNL     1       7.912  10.818   4.110  1.00  0.00     0.124 S 
ATOM     46  O   UNL     1       7.265   9.789   4.921  1.00  0.00    -0.237 OA
ATOM     47  O   UNL     1       9.368  10.869   4.208  1.00  0.00    -0.237 OA
ATOM     48  O   UNL     1       7.245  12.117   4.104  1.00  0.00    -0.744 OA
ENDBRANCH  44  45
ENDBRANCH  25  39
BRANCH  26  49
ATOM     49  C   UNL     1       4.802   5.108  -8.954  1.00  0.00    -0.014 A 
ATOM     50  C   UNL     1       5.760   4.555  -9.820  1.00  0.00     0.010 A 
ATOM     51  C   UNL     1       3.436   4.998  -9.278  1.00  0.00     0.010 A 
ATOM     52  C   UNL     1       5.358   3.889 -10.981  1.00  0.00     0.020 A 
ATOM     53  C   UNL     1       3.031   4.313 -10.425  1.00  0.00     0.020 A 
ATOM     54  C   UNL     1       3.996   3.763 -11.271  1.00  0.00     0.054 A 
BRANCH  54  55
ATOM     55  S   UNL     1       3.494   2.795 -12.721  1.00  0.00     0.124 S 
ATOM     56  O   UNL     1       3.765   3.723 -13.814  1.00  0.00    -0.237 OA
ATOM     57  O   UNL     1       4.373   1.631 -12.646  1.00  0.00    -0.237 OA
ATOM     58  O   UNL     1       2.082   2.514 -12.470  1.00  0.00    -0.744 OA
ENDBRANCH  54  55
ENDBRANCH  26  49
BRANCH  38  59
ATOM     59  C   UNL     1       7.873  11.092  -7.048  1.00  0.00    -0.014 A 
ATOM     60  C   UNL     1       7.023  12.062  -7.607  1.00  0.00     0.010 A 
ATOM     61  C   UNL     1       9.266  11.255  -7.148  1.00  0.00     0.010 A 
ATOM     62  C   UNL     1       7.559  13.173  -8.264  1.00  0.00     0.020 A 
ATOM     63  C   UNL     1       9.806  12.374  -7.787  1.00  0.00     0.020 A 
ATOM     64  C   UNL     1       8.948  13.323  -8.347  1.00  0.00     0.054 A 
BRANCH  64  65
ATOM     65  S   UNL     1       9.622  14.810  -9.137  1.00  0.00     0.124 S 
ATOM     66  O   UNL     1       9.435  14.512 -10.554  1.00  0.00    -0.237 OA
ATOM     67  O   UNL     1       8.775  15.873  -8.601  1.00  0.00    -0.237 OA
ATOM     68  O   UNL     1      11.011  14.842  -8.684  1.00  0.00    -0.744 OA
ENDBRANCH  64  65
ENDBRANCH  38  59
ENDBRANCH  12  13
ENDBRANCH   5   7
ENDBRANCH   2   3
ENDBRANCH   1   2
BRANCH   1  69
ATOM     69  C   UNL     1       4.644  -1.369   3.441  1.00  0.00     0.023 C 
BRANCH  69  70
ATOM     70  C   UNL     1       4.972  -2.768   2.942  1.00  0.00     0.116 C 
BRANCH  70  71
ATOM     71  N   UNL     1       6.383  -3.087   2.994  1.00  0.00    -0.354 N 
ATOM     72  C   UNL     1       7.013  -4.275   3.238  1.00  0.00     0.247 C 
ATOM     73  H   UNL     1       6.986  -2.326   2.826  1.00  0.00     0.163 HD
ATOM     74  O   UNL     1       8.186  -4.361   2.854  1.00  0.00    -0.272 OA
BRANCH  72  75
ATOM     75  C   UNL     1       6.298  -5.517   3.867  1.00  0.00     0.203 C 
BRANCH  75  76
ATOM     76  N   UNL     1       5.407  -5.148   4.975  1.00  0.00    -0.335 N 
ATOM     77  C   UNL     1       4.066  -5.202   5.223  1.00  0.00     0.271 C 
ATOM     78  H   UNL     1       5.904  -4.764   5.733  1.00  0.00     0.165 HD
ATOM     79  O   UNL     1       3.615  -4.426   6.067  1.00  0.00    -0.267 OA
BRANCH  77  80
ATOM     80  C   UNL     1       3.195  -6.106   4.488  1.00  0.00     0.139 A 
ATOM     81  C   UNL     1       1.983  -5.705   3.949  1.00  0.00     0.100 A 
ATOM     82  N   UNL     1       3.462  -7.466   4.362  1.00  0.00    -0.240 NA
ATOM     83  S   UNL     1       1.200  -7.029   3.197  1.00  0.00    -0.130 S 
ATOM     84  C   UNL     1       2.488  -8.044   3.695  1.00  0.00     0.176 A 
ENDBRANCH  77  80
ENDBRANCH  75  76
BRANCH  75  85
ATOM     85  C   UNL     1       5.845  -6.518   2.809  1.00  0.00    -0.004 A 
ATOM     86  C   UNL     1       5.009  -6.082   1.757  1.00  0.00     0.007 A 
ATOM     87  C   UNL     1       6.251  -7.881   2.803  1.00  0.00     0.061 A 
ATOM     88  C   UNL     1       4.558  -6.944   0.756  1.00  0.00     0.000 A 
ATOM     89  C   UNL     1       5.770  -8.738   1.783  1.00  0.00     0.013 A 
ATOM     90  C   UNL     1       4.933  -8.276   0.771  1.00  0.00     0.001 A 
BRANCH  87  91
ATOM     91  C   UNL     1       7.147  -8.512   3.852  1.00  0.00     0.416 C 
ATOM     92  F   UNL     1       6.474  -8.857   4.983  1.00  0.00    -0.166 F 
ATOM     93  F   UNL     1       7.739  -9.665   3.416  1.00  0.00    -0.166 F 
ATOM     94  F   UNL     1       8.185  -7.728   4.253  1.00  0.00    -0.166 F 
ENDBRANCH  87  91
ENDBRANCH  75  85
ENDBRANCH  72  75
ENDBRANCH  70  71
ENDBRANCH  69  70
ENDBRANCH   1  69
TORSDOF 18
