REMARK SMILES Cc1ccc(C(C)C)c(OCC(=O)Nc2nc(CC(=O)NCCCCNC(=O)c3ccc(-c4c5nc(c(-c6ccc(S(=O)(=O)[O-])cc6)c6ccc([nH]6)c(-c6ccc(S(=O)(=O)[O-])cc6)c6nc(c(-c7ccc(S(=O)(=O)[O-])cc7)c7ccc4[nH]7)C=C6)C=C5)cc3)cs2)c1
REMARK SMILES IDX 22 1 21 2 19 3 20 4 18 6 17 7 15 8 16 9 90 10 89 11 14 12
REMARK SMILES IDX 12 13 13 14 11 16 10 17 9 18 1 19 2 20 3 21 91 22 4 23 5 24
REMARK SMILES IDX 6 25 7 26 8 27 23 28 24 29 25 30 26 31 27 32 28 34 29 35
REMARK SMILES IDX 30 36 88 37 31 38 87 39 32 40 33 41 34 42 81 43 35 44 86 45
REMARK SMILES IDX 80 46 82 47 36 48 85 49 79 50 78 51 37 53 67 54 48 55 66 56
REMARK SMILES IDX 49 57 52 58 65 59 83 60 50 61 51 62 64 64 84 65 53 66 38 67
REMARK SMILES IDX 39 68 47 69 40 70 46 71 41 72 42 73 43 74 44 75 45 76 68 77
REMARK SMILES IDX 69 78 77 79 70 80 76 81 71 82 72 83 73 84 74 85 75 86 54 87
REMARK SMILES IDX 55 88 63 89 56 90 62 91 57 92 58 93 59 94 60 95 61 96
REMARK H PARENT 21 5 14 15 26 33 82 52 52 63
REMARK Flexibility Score: inf
ROOT
ATOM      1  C   UNL     1      -3.858   0.328   3.750  1.00  0.00     0.116 C 
ENDROOT
BRANCH   1   2
ATOM      2  N   UNL     1      -5.292   0.563   3.878  1.00  0.00    -0.356 N 
ATOM      3  C   UNL     1      -6.109   1.396   3.165  1.00  0.00     0.226 C 
ATOM      4  O   UNL     1      -7.316   1.399   3.425  1.00  0.00    -0.275 OA
ATOM      5  H   UNL     1      -5.739   0.043   4.584  1.00  0.00     0.163 HD
BRANCH   3   6
ATOM      6  C   UNL     1      -5.552   2.288   2.071  1.00  0.00     0.157 C 
BRANCH   6   7
ATOM      7  C   UNL     1      -4.580   3.289   2.596  1.00  0.00     0.063 A 
ATOM      8  C   UNL     1      -2.555   4.143   2.647  1.00  0.00     0.189 A 
ATOM      9  N   UNL     1      -3.383   3.445   1.920  1.00  0.00    -0.224 NA
ATOM     10  S   UNL     1      -3.199   4.844   4.061  1.00  0.00    -0.105 S 
ATOM     11  C   UNL     1      -4.699   4.070   3.733  1.00  0.00     0.093 A 
BRANCH   8  12
ATOM     12  N   UNL     1      -1.234   4.383   2.438  1.00  0.00    -0.299 N 
ATOM     13  C   UNL     1      -0.529   4.083   1.312  1.00  0.00     0.264 C 
ATOM     14  O   UNL     1       0.683   4.338   1.309  1.00  0.00    -0.271 OA
ATOM     15  H   UNL     1      -0.739   4.814   3.171  1.00  0.00     0.172 HD
BRANCH  13  16
ATOM     16  C   UNL     1      -1.222   3.579   0.035  1.00  0.00     0.329 C 
BRANCH  16  17
ATOM     17  O   UNL     1      -1.758   2.271   0.036  1.00  0.00    -0.483 OA
BRANCH  17  18
ATOM     18  C   UNL     1      -0.945   1.215  -0.271  1.00  0.00     0.123 A 
ATOM     19  C   UNL     1       2.720   0.180  -0.347  1.00  0.00     0.044 C 
ATOM     20  C   UNL     1       1.232   0.151  -0.527  1.00  0.00    -0.047 A 
ATOM     21  C   UNL     1       0.596  -1.031  -0.902  1.00  0.00     0.004 A 
ATOM     22  C   UNL     1       0.453   1.274  -0.227  1.00  0.00     0.050 A 
ATOM     23  C   UNL     1      -0.795  -1.114  -0.917  1.00  0.00     0.008 A 
ATOM     24  C   UNL     1      -1.587   0.000  -0.595  1.00  0.00    -0.003 A 
BRANCH  24  25
ATOM     25  C   UNL     1      -3.104  -0.143  -0.556  1.00  0.00     0.017 C 
ATOM     26  C   UNL     1      -3.685  -0.547  -1.914  1.00  0.00     0.012 C 
ATOM     27  C   UNL     1      -3.532  -1.146   0.520  1.00  0.00     0.012 C 
ENDBRANCH  24  25
ENDBRANCH  17  18
ENDBRANCH  16  17
ENDBRANCH  13  16
ENDBRANCH   8  12
ENDBRANCH   6   7
ENDBRANCH   3   6
ENDBRANCH   1   2
BRANCH   1  28
ATOM     28  C   UNL     1      -3.027   0.870   4.923  1.00  0.00     0.023 C 
BRANCH  28  29
ATOM     29  C   UNL     1      -3.403   0.365   6.319  1.00  0.00     0.023 C 
BRANCH  29  30
ATOM     30  C   UNL     1      -3.261  -1.132   6.511  1.00  0.00     0.116 C 
BRANCH  30  31
ATOM     31  N   UNL     1      -1.959  -1.622   6.934  1.00  0.00    -0.352 N 
ATOM     32  C   UNL     1      -1.902  -2.829   7.647  1.00  0.00     0.251 C 
ATOM     33  H   UNL     1      -1.138  -1.120   6.725  1.00  0.00     0.163 HD
ATOM     34  O   UNL     1      -1.738  -2.927   8.838  1.00  0.00    -0.269 OA
BRANCH  32  35
ATOM     35  C   UNL     1      -2.244  -4.011   6.813  1.00  0.00     0.039 A 
ATOM     36  C   UNL     1      -1.259  -4.873   6.334  1.00  0.00     0.014 A 
ATOM     37  C   UNL     1      -3.556  -4.093   6.350  1.00  0.00     0.014 A 
ATOM     38  C   UNL     1      -1.565  -5.716   5.262  1.00  0.00     0.010 A 
ATOM     39  C   UNL     1      -3.820  -4.824   5.217  1.00  0.00     0.010 A 
ATOM     40  C   UNL     1      -2.816  -5.612   4.652  1.00  0.00    -0.014 A 
BRANCH  40  41
ATOM     41  C   UNL     1      -3.212  -6.269   3.414  1.00  0.00     0.031 A 
ATOM     42  C   UNL     1      -4.117  -7.443   3.480  1.00  0.00     0.074 A 
ATOM     43  C   UNL     1      -2.927  -5.681   2.229  1.00  0.00     0.049 A 
ATOM     44  N   UNL     1      -4.309  -8.278   2.515  1.00  0.00    -0.248 NA
ATOM     45  C   UNL     1      -4.875  -7.784   4.683  1.00  0.00     0.031 C 
ATOM     46  C   UNL     1      -3.534  -5.984   0.934  1.00  0.00     0.029 A 
ATOM     47  N   UNL     1      -1.882  -4.813   1.901  1.00  0.00    -0.354 N 
ATOM     48  C   UNL     1      -5.411  -9.041   2.840  1.00  0.00     0.074 A 
ATOM     49  C   UNL     1      -5.671  -8.756   4.231  1.00  0.00     0.031 C 
ATOM     50  C   UNL     1      -2.685  -5.603  -0.035  1.00  0.00     0.029 A 
ATOM     51  C   UNL     1      -1.449  -5.219   0.629  1.00  0.00     0.049 A 
ATOM     52  H   UNL     1      -1.525  -4.074   2.446  1.00  0.00     0.167 HD
ATOM     53  C   UNL     1      -6.075  -9.716   1.859  1.00  0.00     0.031 A 
ATOM     54  C   UNL     1      -0.232  -5.796   0.386  1.00  0.00     0.031 A 
ATOM     55  C   UNL     1      -5.399  -9.579   0.570  1.00  0.00     0.049 A 
ATOM     56  C   UNL     1      -0.341  -7.152  -0.279  1.00  0.00     0.074 A 
ATOM     57  C   UNL     1      -5.639  -8.786  -0.539  1.00  0.00     0.029 A 
ATOM     58  N   UNL     1      -4.122 -10.103   0.414  1.00  0.00    -0.354 N 
ATOM     59  N   UNL     1      -1.405  -7.907  -0.224  1.00  0.00    -0.248 NA
ATOM     60  C   UNL     1       0.730  -7.763  -1.060  1.00  0.00     0.031 C 
ATOM     61  C   UNL     1      -4.461  -8.776  -1.331  1.00  0.00     0.029 A 
ATOM     62  C   UNL     1      -3.522  -9.587  -0.718  1.00  0.00     0.049 A 
ATOM     63  H   UNL     1      -3.702 -10.751   1.025  1.00  0.00     0.167 HD
ATOM     64  C   UNL     1      -1.205  -9.048  -0.958  1.00  0.00     0.074 A 
ATOM     65  C   UNL     1       0.151  -8.910  -1.460  1.00  0.00     0.031 C 
ATOM     66  C   UNL     1      -2.175 -10.002  -1.094  1.00  0.00     0.031 A 
BRANCH  53  67
ATOM     67  C   UNL     1      -7.484 -10.258   2.007  1.00  0.00    -0.014 A 
ATOM     68  C   UNL     1      -8.301 -10.392   0.864  1.00  0.00     0.010 A 
ATOM     69  C   UNL     1      -8.082 -10.605   3.233  1.00  0.00     0.010 A 
ATOM     70  C   UNL     1      -9.655 -10.752   0.948  1.00  0.00     0.020 A 
ATOM     71  C   UNL     1      -9.444 -10.934   3.339  1.00  0.00     0.020 A 
ATOM     72  C   UNL     1     -10.228 -10.994   2.193  1.00  0.00     0.054 A 
BRANCH  72  73
ATOM     73  S   UNL     1     -11.994 -11.388   2.294  1.00  0.00     0.124 S 
ATOM     74  O   UNL     1     -12.612 -10.229   1.657  1.00  0.00    -0.237 OA
ATOM     75  O   UNL     1     -12.080 -12.639   1.547  1.00  0.00    -0.237 OA
ATOM     76  O   UNL     1     -12.242 -11.505   3.731  1.00  0.00    -0.744 OA
ENDBRANCH  72  73
ENDBRANCH  53  67
BRANCH  54  77
ATOM     77  C   UNL     1       0.852  -5.373   1.319  1.00  0.00    -0.014 A 
ATOM     78  C   UNL     1       1.302  -4.045   1.193  1.00  0.00     0.010 A 
ATOM     79  C   UNL     1       1.059  -6.038   2.538  1.00  0.00     0.010 A 
ATOM     80  C   UNL     1       1.714  -3.316   2.310  1.00  0.00     0.020 A 
ATOM     81  C   UNL     1       1.504  -5.317   3.660  1.00  0.00     0.020 A 
ATOM     82  C   UNL     1       1.724  -3.939   3.554  1.00  0.00     0.054 A 
BRANCH  82  83
ATOM     83  S   UNL     1       1.831  -2.894   5.041  1.00  0.00     0.124 S 
ATOM     84  O   UNL     1       2.954  -2.015   4.732  1.00  0.00    -0.237 OA
ATOM     85  O   UNL     1       0.512  -2.255   5.063  1.00  0.00    -0.237 OA
ATOM     86  O   UNL     1       2.065  -3.859   6.110  1.00  0.00    -0.744 OA
ENDBRANCH  82  83
ENDBRANCH  54  77
BRANCH  66  87
ATOM     87  C   UNL     1      -2.001 -11.398  -1.659  1.00  0.00    -0.014 A 
ATOM     88  C   UNL     1      -0.765 -12.028  -1.857  1.00  0.00     0.010 A 
ATOM     89  C   UNL     1      -3.157 -12.189  -1.891  1.00  0.00     0.010 A 
ATOM     90  C   UNL     1      -0.681 -13.355  -2.308  1.00  0.00     0.020 A 
ATOM     91  C   UNL     1      -3.087 -13.526  -2.293  1.00  0.00     0.020 A 
ATOM     92  C   UNL     1      -1.843 -14.097  -2.521  1.00  0.00     0.054 A 
BRANCH  92  93
ATOM     93  S   UNL     1      -1.714 -15.832  -3.018  1.00  0.00     0.124 S 
ATOM     94  O   UNL     1      -1.560 -15.719  -4.466  1.00  0.00    -0.237 OA
ATOM     95  O   UNL     1      -0.527 -16.289  -2.297  1.00  0.00    -0.237 OA
ATOM     96  O   UNL     1      -2.972 -16.415  -2.563  1.00  0.00    -0.744 OA
ENDBRANCH  92  93
ENDBRANCH  66  87
ENDBRANCH  40  41
ENDBRANCH  32  35
ENDBRANCH  30  31
ENDBRANCH  29  30
ENDBRANCH  28  29
ENDBRANCH   1  28
TORSDOF 20
