REMARK SMILES CC(=O)NS(=O)(=O)c1ccc(-c2ccn(C(F)F)c(=O)c2)cc1C(=O)NCCCCNC(=O)c1ccc(-c2c3nc(c(-c4ccc(S(=O)(=O)[O-])cc4)c4ccc([nH]4)c(-c4ccc(S(=O)(=O)[O-])cc4)c4nc(c(-c5ccc(S(=O)(=O)[O-])cc5)c5ccc2[nH]5)C=C4)C=C3)cc1
REMARK SMILES IDX 29 1 28 2 27 3 26 4 24 5 25 6 23 8 8 9 9 10 10 11 22 12
REMARK SMILES IDX 11 13 5 14 6 15 7 16 4 17 1 18 2 19 3 20 12 22 13 23 21 24
REMARK SMILES IDX 14 25 19 26 15 27 20 28 16 29 17 30 18 31 30 32 31 33 32 34
REMARK SMILES IDX 33 36 34 37 35 38 93 39 36 40 92 41 37 42 38 43 39 44 86 45
REMARK SMILES IDX 40 46 91 47 85 48 87 49 41 50 90 51 84 52 83 53 42 55 72 56
REMARK SMILES IDX 53 57 71 58 54 59 57 60 70 61 88 62 55 63 56 64 69 66 89 67
REMARK SMILES IDX 58 68 43 69 44 70 52 71 45 72 51 73 46 74 47 75 48 76 49 77
REMARK SMILES IDX 50 78 73 79 74 80 82 81 75 82 81 83 76 84 77 85 78 86 79 87
REMARK SMILES IDX 80 88 59 89 60 90 68 91 61 92 67 93 62 94 63 95 64 96 65 97
REMARK SMILES IDX 66 98
REMARK H PARENT 26 7 4 21 31 35 87 54 57 65
REMARK Flexibility Score: inf
ROOT
ATOM      1  C   UNL     1       4.353   2.368   4.467  1.00  0.00     0.023 C 
ENDROOT
BRANCH   1   2
ATOM      2  C   UNL     1       4.500   0.846   4.330  1.00  0.00     0.023 C 
BRANCH   2   3
ATOM      3  C   UNL     1       3.489   0.132   3.437  1.00  0.00     0.116 C 
BRANCH   3   4
ATOM      4  N   UNL     1       3.368   0.681   2.101  1.00  0.00    -0.352 N 
ATOM      5  C   UNL     1       2.914   0.121   0.938  1.00  0.00     0.252 C 
ATOM      6  O   UNL     1       2.798   0.826  -0.062  1.00  0.00    -0.269 OA
ATOM      7  H   UNL     1       3.665   1.616   2.015  1.00  0.00     0.163 HD
BRANCH   5   8
ATOM      8  C   UNL     1       2.615  -1.319   0.800  1.00  0.00     0.060 A 
ATOM      9  C   UNL     1       1.655  -2.037   1.515  1.00  0.00     0.100 A 
ATOM     10  C   UNL     1       1.488  -3.413   1.277  1.00  0.00     0.024 A 
ATOM     11  C   UNL     1       2.139  -4.029   0.212  1.00  0.00     0.010 A 
ATOM     12  C   UNL     1       3.236  -1.946  -0.304  1.00  0.00     0.024 A 
ATOM     13  C   UNL     1       2.942  -3.274  -0.646  1.00  0.00    -0.017 A 
BRANCH   9  14
ATOM     14  S   UNL     1       0.368  -1.294   2.484  1.00  0.00     0.264 S 
ATOM     15  O   UNL     1       0.834  -1.290   3.851  1.00  0.00    -0.201 OA
ATOM     16  O   UNL     1      -0.865  -1.969   2.137  1.00  0.00    -0.201 OA
BRANCH  14  17
ATOM     17  N   UNL     1       0.232   0.270   1.980  1.00  0.00    -0.249 N 
ATOM     18  C   UNL     1      -0.587  -0.082  -0.371  1.00  0.00     0.115 C 
ATOM     19  C   UNL     1      -0.448   0.772   0.859  1.00  0.00     0.230 C 
ATOM     20  O   UNL     1      -0.802   1.944   0.875  1.00  0.00    -0.274 OA
ATOM     21  H   UNL     1       0.688   0.940   2.540  1.00  0.00     0.183 HD
ENDBRANCH  14  17
ENDBRANCH   9  14
BRANCH  13  22
ATOM     22  C   UNL     1       3.295  -3.814  -1.975  1.00  0.00    -0.011 A 
ATOM     23  C   UNL     1       4.642  -4.003  -2.472  1.00  0.00     0.027 A 
ATOM     24  C   UNL     1       2.260  -4.097  -2.789  1.00  0.00     0.080 A 
ATOM     25  C   UNL     1       4.847  -4.480  -3.708  1.00  0.00     0.095 A 
ATOM     26  C   UNL     1       2.468  -4.644  -4.154  1.00  0.00     0.255 A 
ATOM     27  N   UNL     1       3.787  -4.801  -4.539  1.00  0.00    -0.258 N 
ATOM     28  O   UNL     1       1.482  -4.920  -4.830  1.00  0.00    -0.269 OA
BRANCH  27  29
ATOM     29  C   UNL     1       4.011  -5.337  -5.857  1.00  0.00     0.451 C 
ATOM     30  F   UNL     1       3.491  -6.585  -5.967  1.00  0.00    -0.185 F 
ATOM     31  F   UNL     1       3.435  -4.561  -6.808  1.00  0.00    -0.185 F 
ENDBRANCH  27  29
ENDBRANCH  13  22
ENDBRANCH   5   8
ENDBRANCH   3   4
ENDBRANCH   2   3
ENDBRANCH   1   2
BRANCH   1  32
ATOM     32  C   UNL     1       2.942   2.951   4.561  1.00  0.00     0.116 C 
BRANCH  32  33
ATOM     33  N   UNL     1       2.159   2.452   5.677  1.00  0.00    -0.352 N 
ATOM     34  C   UNL     1       1.525   3.109   6.706  1.00  0.00     0.251 C 
ATOM     35  H   UNL     1       2.065   1.472   5.701  1.00  0.00     0.163 HD
ATOM     36  O   UNL     1       0.945   2.441   7.560  1.00  0.00    -0.269 OA
BRANCH  34  37
ATOM     37  C   UNL     1       1.575   4.585   6.849  1.00  0.00     0.039 A 
ATOM     38  C   UNL     1       1.803   5.106   8.130  1.00  0.00     0.014 A 
ATOM     39  C   UNL     1       1.392   5.462   5.777  1.00  0.00     0.014 A 
ATOM     40  C   UNL     1       1.961   6.483   8.314  1.00  0.00     0.010 A 
ATOM     41  C   UNL     1       1.602   6.834   5.951  1.00  0.00     0.010 A 
ATOM     42  C   UNL     1       1.923   7.353   7.215  1.00  0.00    -0.014 A 
BRANCH  42  43
ATOM     43  C   UNL     1       2.327   8.777   7.356  1.00  0.00     0.031 A 
ATOM     44  C   UNL     1       1.344   9.896   7.163  1.00  0.00     0.074 A 
ATOM     45  C   UNL     1       3.624   9.064   7.588  1.00  0.00     0.049 A 
ATOM     46  N   UNL     1       1.563  11.187   7.149  1.00  0.00    -0.248 NA
ATOM     47  C   UNL     1      -0.058   9.518   6.940  1.00  0.00     0.031 C 
ATOM     48  C   UNL     1       4.694   8.077   7.760  1.00  0.00     0.029 A 
ATOM     49  N   UNL     1       4.266  10.271   7.707  1.00  0.00    -0.354 N 
ATOM     50  C   UNL     1       0.336  11.778   6.882  1.00  0.00     0.074 A 
ATOM     51  C   UNL     1      -0.625  10.701   6.743  1.00  0.00     0.031 C 
ATOM     52  C   UNL     1       5.853   8.717   7.978  1.00  0.00     0.029 A 
ATOM     53  C   UNL     1       5.617  10.156   7.930  1.00  0.00     0.049 A 
ATOM     54  H   UNL     1       3.803  11.137   7.640  1.00  0.00     0.167 HD
ATOM     55  C   UNL     1       0.034  13.094   6.757  1.00  0.00     0.031 A 
ATOM     56  C   UNL     1       6.569  11.098   8.069  1.00  0.00     0.031 A 
ATOM     57  C   UNL     1       0.975  14.171   6.913  1.00  0.00     0.049 A 
ATOM     58  C   UNL     1       6.203  12.548   7.978  1.00  0.00     0.074 A 
ATOM     59  C   UNL     1       0.745  15.535   6.833  1.00  0.00     0.029 A 
ATOM     60  N   UNL     1       2.323  14.011   7.188  1.00  0.00    -0.354 N 
ATOM     61  N   UNL     1       5.031  13.083   7.739  1.00  0.00    -0.248 NA
ATOM     62  C   UNL     1       7.287  13.520   8.177  1.00  0.00     0.031 C 
ATOM     63  C   UNL     1       1.960  16.199   7.050  1.00  0.00     0.029 A 
ATOM     64  C   UNL     1       2.939  15.248   7.280  1.00  0.00     0.049 A 
ATOM     65  H   UNL     1       2.777  13.144   7.300  1.00  0.00     0.167 HD
ATOM     66  C   UNL     1       5.235  14.457   7.766  1.00  0.00     0.074 A 
ATOM     67  C   UNL     1       6.639  14.671   8.053  1.00  0.00     0.031 C 
ATOM     68  C   UNL     1       4.335  15.450   7.567  1.00  0.00     0.031 A 
BRANCH  55  69
ATOM     69  C   UNL     1      -1.386  13.433   6.408  1.00  0.00    -0.014 A 
ATOM     70  C   UNL     1      -2.391  13.430   7.390  1.00  0.00     0.010 A 
ATOM     71  C   UNL     1      -1.718  13.763   5.082  1.00  0.00     0.010 A 
ATOM     72  C   UNL     1      -3.716  13.704   7.043  1.00  0.00     0.020 A 
ATOM     73  C   UNL     1      -3.039  14.051   4.734  1.00  0.00     0.020 A 
ATOM     74  C   UNL     1      -4.035  13.997   5.713  1.00  0.00     0.054 A 
BRANCH  74  75
ATOM     75  S   UNL     1      -5.760  14.336   5.265  1.00  0.00     0.124 S 
ATOM     76  O   UNL     1      -6.274  12.991   5.021  1.00  0.00    -0.237 OA
ATOM     77  O   UNL     1      -6.286  15.002   6.454  1.00  0.00    -0.237 OA
ATOM     78  O   UNL     1      -5.643  15.185   4.082  1.00  0.00    -0.744 OA
ENDBRANCH  74  75
ENDBRANCH  55  69
BRANCH  56  79
ATOM     79  C   UNL     1       7.971  10.684   8.319  1.00  0.00    -0.014 A 
ATOM     80  C   UNL     1       8.481  10.685   9.628  1.00  0.00     0.010 A 
ATOM     81  C   UNL     1       8.785  10.251   7.259  1.00  0.00     0.010 A 
ATOM     82  C   UNL     1       9.788  10.258   9.875  1.00  0.00     0.020 A 
ATOM     83  C   UNL     1      10.088   9.812   7.504  1.00  0.00     0.020 A 
ATOM     84  C   UNL     1      10.584   9.825   8.811  1.00  0.00     0.054 A 
BRANCH  84  85
ATOM     85  S   UNL     1      12.253   9.198   9.148  1.00  0.00     0.124 S 
ATOM     86  O   UNL     1      13.049  10.420   9.108  1.00  0.00    -0.237 OA
ATOM     87  O   UNL     1      12.109   8.579  10.464  1.00  0.00    -0.237 OA
ATOM     88  O   UNL     1      12.482   8.258   8.053  1.00  0.00    -0.744 OA
ENDBRANCH  84  85
ENDBRANCH  56  79
BRANCH  68  89
ATOM     89  C   UNL     1       4.842  16.858   7.672  1.00  0.00    -0.014 A 
ATOM     90  C   UNL     1       5.493  17.469   6.587  1.00  0.00     0.010 A 
ATOM     91  C   UNL     1       4.639  17.587   8.857  1.00  0.00     0.010 A 
ATOM     92  C   UNL     1       5.951  18.785   6.691  1.00  0.00     0.020 A 
ATOM     93  C   UNL     1       5.088  18.906   8.960  1.00  0.00     0.020 A 
ATOM     94  C   UNL     1       5.752  19.493   7.880  1.00  0.00     0.054 A 
BRANCH  94  95
ATOM     95  S   UNL     1       6.311  21.216   7.993  1.00  0.00     0.124 S 
ATOM     96  O   UNL     1       7.705  21.056   8.397  1.00  0.00    -0.237 OA
ATOM     97  O   UNL     1       6.104  21.720   6.637  1.00  0.00    -0.237 OA
ATOM     98  O   UNL     1       5.428  21.794   9.004  1.00  0.00    -0.744 OA
ENDBRANCH  94  95
ENDBRANCH  68  89
ENDBRANCH  42  43
ENDBRANCH  34  37
ENDBRANCH  32  33
ENDBRANCH   1  32
TORSDOF 18
