REMARK SMILES O=C(NCCCCNC(=O)c1cc2ccccc2cc1OCCO)c1ccc(-c2c3nc(c(-c4ccc(S(=O)(=O)[O-])cc4)c4ccc([nH]4)c(-c4ccc(S(=O)(=O)[O-])cc4)c4nc(c(-c5ccc(S(=O)(=O)[O-])cc5)c5ccc2[nH]5)C=C4)C=C3)cc1
REMARK SMILES IDX 6 1 5 2 4 3 3 4 1 5 2 6 25 8 26 9 84 10 27 11 83 12 28 13
REMARK SMILES IDX 29 14 30 15 77 16 31 17 82 18 76 19 78 20 32 21 81 22 75 23
REMARK SMILES IDX 74 24 33 26 63 27 44 28 62 29 45 30 48 31 61 32 79 33 46 34
REMARK SMILES IDX 47 35 60 37 80 38 49 39 34 40 35 41 43 42 36 43 42 44 37 45
REMARK SMILES IDX 38 46 39 47 40 48 41 49 64 50 65 51 73 52 66 53 72 54 67 55
REMARK SMILES IDX 68 56 69 57 70 58 71 59 50 60 51 61 59 62 52 63 58 64 53 65
REMARK SMILES IDX 54 66 55 67 56 68 57 69 7 70 8 71 9 72 10 74 11 75 12 76
REMARK SMILES IDX 20 77 13 78 19 79 14 80 18 81 15 82 17 83 16 84 21 85 22 86
REMARK SMILES IDX 23 87 24 88
REMARK H PARENT 3 7 78 25 48 36 8 73 24 89
REMARK Flexibility Score: inf
ROOT
ATOM      1  C   UNL     1       4.671  -3.267   2.333  1.00  0.00     0.023 C 
ENDROOT
BRANCH   1   2
ATOM      2  C   UNL     1       5.082  -1.846   1.931  1.00  0.00     0.023 C 
BRANCH   2   3
ATOM      3  C   UNL     1       4.688  -1.385   0.534  1.00  0.00     0.116 C 
BRANCH   3   4
ATOM      4  N   UNL     1       3.260  -1.205   0.349  1.00  0.00    -0.352 N 
ATOM      5  O   UNL     1       1.300  -0.117   0.121  1.00  0.00    -0.269 OA
ATOM      6  C   UNL     1       2.528  -0.057   0.155  1.00  0.00     0.251 C 
ATOM      7  H   UNL     1       2.732  -2.035   0.365  1.00  0.00     0.163 HD
BRANCH   6   8
ATOM      8  C   UNL     1       3.200   1.258   0.025  1.00  0.00     0.039 A 
ATOM      9  C   UNL     1       4.298   1.435  -0.819  1.00  0.00     0.014 A 
ATOM     10  C   UNL     1       2.701   2.345   0.750  1.00  0.00     0.014 A 
ATOM     11  C   UNL     1       4.991   2.645  -0.813  1.00  0.00     0.010 A 
ATOM     12  C   UNL     1       3.350   3.584   0.691  1.00  0.00     0.010 A 
ATOM     13  C   UNL     1       4.527   3.735  -0.057  1.00  0.00    -0.014 A 
BRANCH  13  14
ATOM     14  C   UNL     1       5.265   5.027  -0.088  1.00  0.00     0.031 A 
ATOM     15  C   UNL     1       5.927   5.576   1.150  1.00  0.00     0.074 A 
ATOM     16  C   UNL     1       5.358   5.703  -1.251  1.00  0.00     0.049 A 
ATOM     17  N   UNL     1       6.628   6.674   1.290  1.00  0.00    -0.248 NA
ATOM     18  C   UNL     1       5.780   4.799   2.390  1.00  0.00     0.031 C 
ATOM     19  C   UNL     1       4.757   5.285  -2.520  1.00  0.00     0.029 A 
ATOM     20  N   UNL     1       6.004   6.874  -1.560  1.00  0.00    -0.354 N 
ATOM     21  C   UNL     1       6.991   6.729   2.631  1.00  0.00     0.074 A 
ATOM     22  C   UNL     1       6.410   5.567   3.270  1.00  0.00     0.031 C 
ATOM     23  C   UNL     1       5.097   6.161  -3.477  1.00  0.00     0.029 A 
ATOM     24  C   UNL     1       5.890   7.232  -2.882  1.00  0.00     0.049 A 
ATOM     25  H   UNL     1       6.501   7.407  -0.898  1.00  0.00     0.167 HD
ATOM     26  C   UNL     1       7.744   7.658   3.272  1.00  0.00     0.031 A 
ATOM     27  C   UNL     1       6.355   8.307  -3.547  1.00  0.00     0.031 A 
ATOM     28  C   UNL     1       8.321   8.815   2.638  1.00  0.00     0.049 A 
ATOM     29  C   UNL     1       7.159   9.338  -2.807  1.00  0.00     0.074 A 
ATOM     30  C   UNL     1       9.126   9.792   3.199  1.00  0.00     0.029 A 
ATOM     31  N   UNL     1       8.151   9.158   1.305  1.00  0.00    -0.354 N 
ATOM     32  N   UNL     1       7.521   9.349  -1.547  1.00  0.00    -0.248 NA
ATOM     33  C   UNL     1       7.618  10.499  -3.580  1.00  0.00     0.031 C 
ATOM     34  C   UNL     1       9.399  10.752   2.219  1.00  0.00     0.029 A 
ATOM     35  C   UNL     1       8.812  10.345   1.032  1.00  0.00     0.049 A 
ATOM     36  H   UNL     1       7.636   8.635   0.649  1.00  0.00     0.167 HD
ATOM     37  C   UNL     1       8.263  10.512  -1.379  1.00  0.00     0.074 A 
ATOM     38  C   UNL     1       8.316  11.166  -2.671  1.00  0.00     0.031 C 
ATOM     39  C   UNL     1       8.848  10.994  -0.254  1.00  0.00     0.031 A 
BRANCH  26  40
ATOM     40  C   UNL     1       7.969   7.475   4.752  1.00  0.00    -0.014 A 
ATOM     41  C   UNL     1       8.820   6.469   5.242  1.00  0.00     0.010 A 
ATOM     42  C   UNL     1       7.358   8.357   5.664  1.00  0.00     0.010 A 
ATOM     43  C   UNL     1       9.024   6.321   6.618  1.00  0.00     0.020 A 
ATOM     44  C   UNL     1       7.580   8.229   7.039  1.00  0.00     0.020 A 
ATOM     45  C   UNL     1       8.398   7.199   7.508  1.00  0.00     0.054 A 
BRANCH  45  46
ATOM     46  S   UNL     1       8.690   6.993   9.287  1.00  0.00     0.124 S 
ATOM     47  O   UNL     1       7.901   5.800   9.585  1.00  0.00    -0.237 OA
ATOM     48  O   UNL     1      10.139   6.820   9.357  1.00  0.00    -0.237 OA
ATOM     49  O   UNL     1       8.186   8.235   9.869  1.00  0.00    -0.744 OA
ENDBRANCH  45  46
ENDBRANCH  26  40
BRANCH  27  50
ATOM     50  C   UNL     1       6.056   8.460  -4.996  1.00  0.00    -0.014 A 
ATOM     51  C   UNL     1       7.071   8.309  -5.957  1.00  0.00     0.010 A 
ATOM     52  C   UNL     1       4.742   8.726  -5.423  1.00  0.00     0.010 A 
ATOM     53  C   UNL     1       6.777   8.428  -7.319  1.00  0.00     0.020 A 
ATOM     54  C   UNL     1       4.440   8.818  -6.783  1.00  0.00     0.020 A 
ATOM     55  C   UNL     1       5.462   8.678  -7.723  1.00  0.00     0.054 A 
BRANCH  55  56
ATOM     56  S   UNL     1       5.091   8.763  -9.497  1.00  0.00     0.124 S 
ATOM     57  O   UNL     1       5.621  10.075  -9.854  1.00  0.00    -0.237 OA
ATOM     58  O   UNL     1       5.824   7.617 -10.029  1.00  0.00    -0.237 OA
ATOM     59  O   UNL     1       3.636   8.639  -9.547  1.00  0.00    -0.744 OA
ENDBRANCH  55  56
ENDBRANCH  27  50
BRANCH  39  60
ATOM     60  C   UNL     1       9.613  12.284  -0.375  1.00  0.00    -0.014 A 
ATOM     61  C   UNL     1       8.946  13.513  -0.531  1.00  0.00     0.010 A 
ATOM     62  C   UNL     1      11.017  12.272  -0.292  1.00  0.00     0.010 A 
ATOM     63  C   UNL     1       9.672  14.702  -0.635  1.00  0.00     0.020 A 
ATOM     64  C   UNL     1      11.745  13.461  -0.370  1.00  0.00     0.020 A 
ATOM     65  C   UNL     1      11.068  14.669  -0.557  1.00  0.00     0.054 A 
BRANCH  65  66
ATOM     66  S   UNL     1      11.988  16.229  -0.658  1.00  0.00     0.124 S 
ATOM     67  O   UNL     1      11.903  16.539  -2.082  1.00  0.00    -0.237 OA
ATOM     68  O   UNL     1      11.226  17.110   0.224  1.00  0.00    -0.237 OA
ATOM     69  O   UNL     1      13.321  15.877  -0.175  1.00  0.00    -0.744 OA
ENDBRANCH  65  66
ENDBRANCH  39  60
ENDBRANCH  13  14
ENDBRANCH   6   8
ENDBRANCH   3   4
ENDBRANCH   2   3
ENDBRANCH   1   2
BRANCH   1  70
ATOM     70  C   UNL     1       5.048  -4.408   1.383  1.00  0.00     0.116 C 
BRANCH  70  71
ATOM     71  N   UNL     1       6.439  -4.407   0.968  1.00  0.00    -0.352 N 
ATOM     72  C   UNL     1       7.099  -5.368   0.239  1.00  0.00     0.255 C 
ATOM     73  H   UNL     1       6.973  -3.627   1.240  1.00  0.00     0.163 HD
ATOM     74  O   UNL     1       8.233  -5.168  -0.182  1.00  0.00    -0.269 OA
BRANCH  72  75
ATOM     75  C   UNL     1       6.479  -6.688   0.037  1.00  0.00     0.082 A 
ATOM     76  C   UNL     1       6.791  -7.637   1.032  1.00  0.00     0.026 A 
ATOM     77  C   UNL     1       5.652  -7.042  -1.029  1.00  0.00     0.132 A 
ATOM     78  C   UNL     1       6.241  -8.928   1.005  1.00  0.00    -0.017 A 
ATOM     79  C   UNL     1       5.086  -8.328  -1.039  1.00  0.00     0.056 A 
ATOM     80  C   UNL     1       6.534  -9.884   1.992  1.00  0.00     0.009 A 
ATOM     81  C   UNL     1       5.360  -9.272  -0.040  1.00  0.00    -0.015 A 
ATOM     82  C   UNL     1       5.950 -11.152   1.952  1.00  0.00     0.001 A 
ATOM     83  C   UNL     1       4.774 -10.547  -0.064  1.00  0.00     0.009 A 
ATOM     84  C   UNL     1       5.065 -11.481   0.930  1.00  0.00     0.001 A 
BRANCH  77  85
ATOM     85  O   UNL     1       5.202  -6.302  -2.077  1.00  0.00    -0.490 OA
BRANCH  85  86
ATOM     86  C   UNL     1       5.998  -5.278  -2.673  1.00  0.00     0.257 C 
BRANCH  86  87
ATOM     87  C   UNL     1       5.364  -3.930  -2.354  1.00  0.00     0.197 C 
BRANCH  87  88
ATOM     88  O   UNL     1       3.946  -4.039  -2.214  1.00  0.00    -0.393 OA
ATOM     89  H   UNL     1       3.563  -4.356  -3.047  1.00  0.00     0.210 HD
ENDBRANCH  87  88
ENDBRANCH  86  87
ENDBRANCH  85  86
ENDBRANCH  77  85
ENDBRANCH  72  75
ENDBRANCH  70  71
ENDBRANCH   1  70
TORSDOF 18
