REMARK SMILES CCCC[C@@H](Sc1nc(OCCC2CCCCC2)cc(OCCC2CCCCC2)n1)C(=O)NCCCCNC(=O)c1ccc(-c2c3nc(c(-c4ccc(S(=O)(=O)[O-])cc4)c4ccc([nH]4)c(-c4ccc(S(=O)(=O)[O-])cc4)c4nc(c(-c5ccc(S(=O)(=O)[O-])cc5)c5ccc2[nH]5)C=C4)C=C3)cc1
REMARK SMILES IDX 34 1 33 2 31 3 32 4 5 6 4 7 3 8 2 9 1 10 6 11 7 12 8 13
REMARK SMILES IDX 30 14 9 15 20 16 19 17 10 18 11 19 12 20 13 21 14 22 18 23
REMARK SMILES IDX 15 24 17 25 16 26 21 27 22 28 23 29 24 30 25 31 29 32 26 33
REMARK SMILES IDX 28 34 27 35 35 36 36 37 37 38 38 39 39 40 40 42 41 43 42 44
REMARK SMILES IDX 100 45 43 46 99 47 44 48 45 49 46 50 93 51 47 52 98 53 92 54
REMARK SMILES IDX 94 55 48 56 97 57 91 58 90 59 49 61 79 62 60 63 78 64 61 65
REMARK SMILES IDX 64 66 77 67 95 68 62 69 63 70 76 72 96 73 65 74 50 75 51 76
REMARK SMILES IDX 59 77 52 78 58 79 53 80 54 81 55 82 56 83 57 84 80 85 81 86
REMARK SMILES IDX 89 87 82 88 88 89 83 90 84 91 85 92 86 93 87 94 66 95 67 96
REMARK SMILES IDX 75 97 68 98 74 99 69 100 70 101 71 102 72 103 73 104
REMARK H PARENT 33 5 38 41 94 60 64 71
REMARK Flexibility Score: inf
ROOT
ATOM      1  C   UNL     1      -0.484   4.968  -3.195  1.00  0.00     0.116 C 
ENDROOT
BRANCH   1   2
ATOM      2  N   UNL     1      -1.183   3.746  -3.571  1.00  0.00    -0.355 N 
ATOM      3  C   UNL     1      -1.509   2.645  -2.817  1.00  0.00     0.233 C 
ATOM      4  O   UNL     1      -2.124   1.727  -3.364  1.00  0.00    -0.274 OA
ATOM      5  H   UNL     1      -1.464   3.701  -4.514  1.00  0.00     0.163 HD
BRANCH   3   6
ATOM      6  C   UNL     1      -1.097   2.555  -1.329  1.00  0.00     0.144 C 
BRANCH   6   7
ATOM      7  C   UNL     1       0.459   2.588  -1.322  1.00  0.00     0.025 C 
BRANCH   7   8
ATOM      8  C   UNL     1       1.300   2.054  -0.167  1.00  0.00     0.001 C 
BRANCH   8   9
ATOM      9  C   UNL     1       0.975   0.657   0.357  1.00  0.00    -0.003 C 
ATOM     10  C   UNL     1       1.362  -0.451  -0.603  1.00  0.00     0.004 C 
ENDBRANCH   8   9
ENDBRANCH   7   8
ENDBRANCH   6   7
BRANCH   6  11
ATOM     11  S   UNL     1      -2.224   3.831  -0.520  1.00  0.00    -0.073 SA
BRANCH  11  12
ATOM     12  C   UNL     1      -1.923   3.660   1.202  1.00  0.00     0.195 A 
ATOM     13  N   UNL     1      -2.473   4.571   2.029  1.00  0.00    -0.187 NA
ATOM     14  N   UNL     1      -0.982   2.794   1.547  1.00  0.00    -0.187 NA
ATOM     15  C   UNL     1      -1.884   4.725   3.221  1.00  0.00     0.221 A 
ATOM     16  C   UNL     1      -0.388   3.010   2.712  1.00  0.00     0.221 A 
ATOM     17  C   UNL     1      -0.740   4.043   3.528  1.00  0.00     0.136 A 
BRANCH  15  18
ATOM     18  O   UNL     1      -2.528   5.568   4.095  1.00  0.00    -0.477 OA
BRANCH  18  19
ATOM     19  C   UNL     1      -1.776   6.170   5.154  1.00  0.00     0.231 C 
BRANCH  19  20
ATOM     20  C   UNL     1      -1.970   5.549   6.565  1.00  0.00     0.045 C 
BRANCH  20  21
ATOM     21  C   UNL     1      -1.879   4.017   6.648  1.00  0.00    -0.008 C 
ATOM     22  C   UNL     1      -1.158   3.474   7.891  1.00  0.00     0.004 C 
ATOM     23  C   UNL     1      -3.236   3.327   6.528  1.00  0.00     0.004 C 
ATOM     24  C   UNL     1      -0.901   1.969   7.729  1.00  0.00     0.000 C 
ATOM     25  C   UNL     1      -3.014   1.841   6.255  1.00  0.00     0.000 C 
ATOM     26  C   UNL     1      -2.139   1.170   7.316  1.00  0.00     0.000 C 
ENDBRANCH  20  21
ENDBRANCH  19  20
ENDBRANCH  18  19
ENDBRANCH  15  18
BRANCH  16  27
ATOM     27  O   UNL     1       0.766   2.307   2.876  1.00  0.00    -0.477 OA
BRANCH  27  28
ATOM     28  C   UNL     1       0.926   1.584   4.090  1.00  0.00     0.231 C 
BRANCH  28  29
ATOM     29  C   UNL     1       2.357   1.840   4.606  1.00  0.00     0.045 C 
BRANCH  29  30
ATOM     30  C   UNL     1       2.655   3.341   4.772  1.00  0.00    -0.008 C 
ATOM     31  C   UNL     1       1.871   3.947   5.936  1.00  0.00     0.004 C 
ATOM     32  C   UNL     1       4.130   3.688   4.999  1.00  0.00     0.004 C 
ATOM     33  C   UNL     1       1.920   5.464   5.830  1.00  0.00     0.000 C 
ATOM     34  C   UNL     1       4.313   5.216   5.022  1.00  0.00     0.000 C 
ATOM     35  C   UNL     1       3.354   5.946   5.971  1.00  0.00     0.000 C 
ENDBRANCH  29  30
ENDBRANCH  28  29
ENDBRANCH  27  28
ENDBRANCH  16  27
ENDBRANCH  11  12
ENDBRANCH   6  11
ENDBRANCH   3   6
ENDBRANCH   1   2
BRANCH   1  36
ATOM     36  C   UNL     1       0.909   5.035  -3.820  1.00  0.00     0.023 C 
BRANCH  36  37
ATOM     37  C   UNL     1       0.897   5.341  -5.314  1.00  0.00     0.023 C 
BRANCH  37  38
ATOM     38  C   UNL     1       0.188   6.636  -5.682  1.00  0.00     0.116 C 
BRANCH  38  39
ATOM     39  N   UNL     1       0.765   7.806  -5.034  1.00  0.00    -0.352 N 
ATOM     40  C   UNL     1       0.974   9.051  -5.577  1.00  0.00     0.251 C 
ATOM     41  H   UNL     1       1.038   7.691  -4.095  1.00  0.00     0.163 HD
ATOM     42  O   UNL     1       1.601   9.908  -4.962  1.00  0.00    -0.269 OA
BRANCH  40  43
ATOM     43  C   UNL     1       0.457   9.319  -6.933  1.00  0.00     0.039 A 
ATOM     44  C   UNL     1       1.326   9.813  -7.906  1.00  0.00     0.014 A 
ATOM     45  C   UNL     1      -0.865   8.996  -7.253  1.00  0.00     0.014 A 
ATOM     46  C   UNL     1       0.884   9.920  -9.225  1.00  0.00     0.010 A 
ATOM     47  C   UNL     1      -1.274   9.022  -8.580  1.00  0.00     0.010 A 
ATOM     48  C   UNL     1      -0.406   9.488  -9.579  1.00  0.00    -0.014 A 
BRANCH  48  49
ATOM     49  C   UNL     1      -0.869   9.518 -10.988  1.00  0.00     0.031 A 
ATOM     50  C   UNL     1      -2.036  10.385 -11.376  1.00  0.00     0.074 A 
ATOM     51  C   UNL     1      -0.281   8.722 -11.903  1.00  0.00     0.049 A 
ATOM     52  N   UNL     1      -2.617  10.512 -12.540  1.00  0.00    -0.248 NA
ATOM     53  C   UNL     1      -2.645  11.197 -10.309  1.00  0.00     0.031 C 
ATOM     54  C   UNL     1       0.833   7.805 -11.641  1.00  0.00     0.029 A 
ATOM     55  N   UNL     1      -0.539   8.553 -13.240  1.00  0.00    -0.354 N 
ATOM     56  C   UNL     1      -3.664  11.404 -12.344  1.00  0.00     0.074 A 
ATOM     57  C   UNL     1      -3.676  11.740 -10.938  1.00  0.00     0.031 C 
ATOM     58  C   UNL     1       1.183   7.200 -12.787  1.00  0.00     0.029 A 
ATOM     59  C   UNL     1       0.294   7.647 -13.854  1.00  0.00     0.049 A 
ATOM     60  H   UNL     1      -1.254   9.035 -13.715  1.00  0.00     0.167 HD
ATOM     61  C   UNL     1      -4.524  11.918 -13.256  1.00  0.00     0.031 A 
ATOM     62  C   UNL     1       0.336   7.222 -15.132  1.00  0.00     0.031 A 
ATOM     63  C   UNL     1      -4.504  11.583 -14.654  1.00  0.00     0.049 A 
ATOM     64  C   UNL     1      -0.646   7.787 -16.122  1.00  0.00     0.074 A 
ATOM     65  C   UNL     1      -5.301  12.083 -15.669  1.00  0.00     0.029 A 
ATOM     66  N   UNL     1      -3.647  10.660 -15.236  1.00  0.00    -0.354 N 
ATOM     67  N   UNL     1      -1.588   8.681 -15.931  1.00  0.00    -0.248 NA
ATOM     68  C   UNL     1      -0.553   7.295 -17.503  1.00  0.00     0.031 C 
ATOM     69  C   UNL     1      -4.963  11.421 -16.854  1.00  0.00     0.029 A 
ATOM     70  C   UNL     1      -3.912  10.557 -16.590  1.00  0.00     0.049 A 
ATOM     71  H   UNL     1      -2.953  10.153 -14.755  1.00  0.00     0.167 HD
ATOM     72  C   UNL     1      -2.179   8.880 -17.174  1.00  0.00     0.074 A 
ATOM     73  C   UNL     1      -1.478   8.025 -18.111  1.00  0.00     0.031 C 
ATOM     74  C   UNL     1      -3.206   9.700 -17.510  1.00  0.00     0.031 A 
BRANCH  61  75
ATOM     75  C   UNL     1      -5.559  12.893 -12.761  1.00  0.00    -0.014 A 
ATOM     76  C   UNL     1      -5.192  14.171 -12.299  1.00  0.00     0.010 A 
ATOM     77  C   UNL     1      -6.921  12.541 -12.782  1.00  0.00     0.010 A 
ATOM     78  C   UNL     1      -6.160  15.059 -11.824  1.00  0.00     0.020 A 
ATOM     79  C   UNL     1      -7.896  13.439 -12.338  1.00  0.00     0.020 A 
ATOM     80  C   UNL     1      -7.507  14.686 -11.844  1.00  0.00     0.054 A 
BRANCH  80  81
ATOM     81  S   UNL     1      -8.743  15.867 -11.238  1.00  0.00     0.124 S 
ATOM     82  O   UNL     1      -8.504  15.839  -9.797  1.00  0.00    -0.237 OA
ATOM     83  O   UNL     1      -8.361  17.104 -11.914  1.00  0.00    -0.237 OA
ATOM     84  O   UNL     1     -10.014  15.291 -11.669  1.00  0.00    -0.744 OA
ENDBRANCH  80  81
ENDBRANCH  61  75
BRANCH  62  85
ATOM     85  C   UNL     1       1.356   6.222 -15.552  1.00  0.00    -0.014 A 
ATOM     86  C   UNL     1       2.412   6.596 -16.403  1.00  0.00     0.010 A 
ATOM     87  C   UNL     1       1.286   4.893 -15.096  1.00  0.00     0.010 A 
ATOM     88  C   UNL     1       3.366   5.656 -16.805  1.00  0.00     0.020 A 
ATOM     89  C   UNL     1       2.254   3.958 -15.472  1.00  0.00     0.020 A 
ATOM     90  C   UNL     1       3.282   4.343 -16.334  1.00  0.00     0.054 A 
BRANCH  90  91
ATOM     91  S   UNL     1       4.560   3.154 -16.831  1.00  0.00     0.124 S 
ATOM     92  O   UNL     1       4.228   2.919 -18.232  1.00  0.00    -0.237 OA
ATOM     93  O   UNL     1       5.793   3.898 -16.588  1.00  0.00    -0.237 OA
ATOM     94  O   UNL     1       4.339   2.021 -15.935  1.00  0.00    -0.744 OA
ENDBRANCH  90  91
ENDBRANCH  62  85
BRANCH  74  95
ATOM     95  C   UNL     1      -3.614   9.743 -18.959  1.00  0.00    -0.014 A 
ATOM     96  C   UNL     1      -4.281   8.664 -19.564  1.00  0.00     0.010 A 
ATOM     97  C   UNL     1      -3.376  10.909 -19.709  1.00  0.00     0.010 A 
ATOM     98  C   UNL     1      -4.675   8.739 -20.903  1.00  0.00     0.020 A 
ATOM     99  C   UNL     1      -3.795  11.000 -21.038  1.00  0.00     0.020 A 
ATOM    100  C   UNL     1      -4.431   9.908 -21.631  1.00  0.00     0.054 A 
BRANCH 100 101
ATOM    101  S   UNL     1      -4.994   9.997 -23.353  1.00  0.00     0.124 S 
ATOM    102  O   UNL     1      -4.050   9.111 -24.028  1.00  0.00    -0.237 OA
ATOM    103  O   UNL     1      -6.367   9.504 -23.266  1.00  0.00    -0.237 OA
ATOM    104  O   UNL     1      -4.867  11.413 -23.687  1.00  0.00    -0.744 OA
ENDBRANCH 100 101
ENDBRANCH  74  95
ENDBRANCH  48  49
ENDBRANCH  40  43
ENDBRANCH  38  39
ENDBRANCH  37  38
ENDBRANCH  36  37
ENDBRANCH   1  36
TORSDOF 27
