REMARK SMILES Cc1noc(C)c1CNc1cnc(C(=O)NCCCCNC(=O)c2ccc(-c3c4nc(c(-c5ccc(S(=O)(=O)[O-])cc5)c5ccc([nH]5)c(-c5ccc(S(=O)(=O)[O-])cc5)c5nc(c(-c6ccc(S(=O)(=O)[O-])cc6)c6ccc3[nH]6)C=C5)C=C4)cc2)cn1
REMARK SMILES IDX 18 1 17 2 16 3 14 4 15 5 13 7 10 8 11 9 85 10 12 11 84 12
REMARK SMILES IDX 9 13 8 15 7 16 1 17 2 18 3 19 4 20 5 21 6 22 19 23 20 24
REMARK SMILES IDX 21 25 22 26 23 28 24 29 25 30 83 31 26 32 82 33 27 34 28 35
REMARK SMILES IDX 29 36 76 37 30 38 81 39 75 40 77 41 31 42 80 43 74 44 73 45
REMARK SMILES IDX 32 47 62 48 43 49 61 50 44 51 47 52 60 53 78 54 45 55 46 56
REMARK SMILES IDX 59 58 79 59 48 60 33 61 34 62 42 63 35 64 41 65 36 66 37 67
REMARK SMILES IDX 38 68 39 69 40 70 63 71 64 72 72 73 65 74 71 75 66 76 67 77
REMARK SMILES IDX 68 78 69 79 70 80 49 81 50 82 58 83 51 84 57 85 52 86 53 87
REMARK SMILES IDX 54 88 55 89 56 90
REMARK H PARENT 16 6 9 14 21 27 77 46 47 57
REMARK Flexibility Score: inf
ROOT
ATOM      1  C   UNL     1      -3.569   9.024   0.911  1.00  0.00     0.023 C 
ENDROOT
BRANCH   1   2
ATOM      2  C   UNL     1      -4.234   7.728   1.369  1.00  0.00     0.116 C 
BRANCH   2   3
ATOM      3  N   UNL     1      -5.197   7.252   0.392  1.00  0.00    -0.351 N 
ATOM      4  C   UNL     1      -5.075   6.315  -0.610  1.00  0.00     0.271 C 
ATOM      5  O   UNL     1      -6.058   6.101  -1.322  1.00  0.00    -0.267 OA
ATOM      6  H   UNL     1      -6.087   7.670   0.456  1.00  0.00     0.163 HD
BRANCH   4   7
ATOM      7  C   UNL     1      -3.829   5.528  -0.846  1.00  0.00     0.146 A 
ATOM      8  C   UNL     1      -1.714   3.860  -1.220  1.00  0.00     0.144 A 
ATOM      9  C   UNL     1      -1.673   4.940  -0.339  1.00  0.00     0.158 A 
ATOM     10  N   UNL     1      -2.809   3.648  -1.975  1.00  0.00    -0.235 NA
ATOM     11  N   UNL     1      -2.709   5.789  -0.131  1.00  0.00    -0.246 NA
ATOM     12  C   UNL     1      -3.860   4.490  -1.767  1.00  0.00     0.147 A 
BRANCH   8  13
ATOM     13  N   UNL     1      -0.708   2.935  -1.361  1.00  0.00    -0.365 N 
ATOM     14  H   UNL     1      -0.471   2.608  -2.259  1.00  0.00     0.162 HD
BRANCH  13  15
ATOM     15  C   UNL     1       0.011   2.434  -0.205  1.00  0.00     0.156 C 
BRANCH  15  16
ATOM     16  C   UNL     1       0.058   0.950  -0.091  1.00  0.00     0.037 A 
ATOM     17  C   UNL     1      -2.488   0.352  -0.004  1.00  0.00     0.071 C 
ATOM     18  C   UNL     1      -1.037   0.045   0.002  1.00  0.00     0.086 A 
ATOM     19  N   UNL     1      -0.617  -1.221   0.103  1.00  0.00    -0.085 NA
ATOM     20  O   UNL     1       0.762  -1.163   0.086  1.00  0.00    -0.361 OA
ATOM     21  C   UNL     1       1.163   0.129  -0.027  1.00  0.00     0.138 A 
ATOM     22  C   UNL     1       2.619   0.364  -0.044  1.00  0.00     0.091 C 
ENDBRANCH  15  16
ENDBRANCH  13  15
ENDBRANCH   8  13
ENDBRANCH   4   7
ENDBRANCH   2   3
ENDBRANCH   1   2
BRANCH   1  23
ATOM     23  C   UNL     1      -4.466  10.262   1.030  1.00  0.00     0.023 C 
BRANCH  23  24
ATOM     24  C   UNL     1      -5.015  10.541   2.428  1.00  0.00     0.116 C 
BRANCH  24  25
ATOM     25  N   UNL     1      -3.980  10.644   3.446  1.00  0.00    -0.352 N 
ATOM     26  C   UNL     1      -3.948  11.451   4.558  1.00  0.00     0.251 C 
ATOM     27  H   UNL     1      -3.199  10.057   3.322  1.00  0.00     0.163 HD
ATOM     28  O   UNL     1      -2.945  11.489   5.265  1.00  0.00    -0.269 OA
BRANCH  26  29
ATOM     29  C   UNL     1      -5.115  12.301   4.872  1.00  0.00     0.039 A 
ATOM     30  C   UNL     1      -4.911  13.659   5.128  1.00  0.00     0.014 A 
ATOM     31  C   UNL     1      -6.407  11.767   4.875  1.00  0.00     0.014 A 
ATOM     32  C   UNL     1      -6.010  14.498   5.317  1.00  0.00     0.010 A 
ATOM     33  C   UNL     1      -7.502  12.616   4.999  1.00  0.00     0.010 A 
ATOM     34  C   UNL     1      -7.316  13.990   5.217  1.00  0.00    -0.014 A 
BRANCH  34  35
ATOM     35  C   UNL     1      -8.499  14.881   5.313  1.00  0.00     0.031 A 
ATOM     36  C   UNL     1      -9.480  14.722   6.440  1.00  0.00     0.074 A 
ATOM     37  C   UNL     1      -8.735  15.778   4.336  1.00  0.00     0.049 A 
ATOM     38  N   UNL     1     -10.599  15.365   6.656  1.00  0.00    -0.248 NA
ATOM     39  C   UNL     1      -9.179  13.684   7.438  1.00  0.00     0.031 C 
ATOM     40  C   UNL     1      -7.891  15.989   3.158  1.00  0.00     0.029 A 
ATOM     41  N   UNL     1      -9.764  16.671   4.171  1.00  0.00    -0.354 N 
ATOM     42  C   UNL     1     -11.147  14.795   7.799  1.00  0.00     0.074 A 
ATOM     43  C   UNL     1     -10.261  13.724   8.202  1.00  0.00     0.031 C 
ATOM     44  C   UNL     1      -8.427  16.960   2.401  1.00  0.00     0.029 A 
ATOM     45  C   UNL     1      -9.668  17.417   3.021  1.00  0.00     0.049 A 
ATOM     46  H   UNL     1     -10.502  16.767   4.816  1.00  0.00     0.167 HD
ATOM     47  C   UNL     1     -12.277  15.141   8.463  1.00  0.00     0.031 A 
ATOM     48  C   UNL     1     -10.486  18.360   2.515  1.00  0.00     0.031 A 
ATOM     49  C   UNL     1     -13.153  16.209   8.062  1.00  0.00     0.049 A 
ATOM     50  C   UNL     1     -11.722  18.745   3.275  1.00  0.00     0.074 A 
ATOM     51  C   UNL     1     -14.283  16.683   8.704  1.00  0.00     0.029 A 
ATOM     52  N   UNL     1     -13.002  16.965   6.909  1.00  0.00    -0.354 N 
ATOM     53  N   UNL     1     -12.182  18.252   4.400  1.00  0.00    -0.248 NA
ATOM     54  C   UNL     1     -12.542  19.824   2.708  1.00  0.00     0.031 C 
ATOM     55  C   UNL     1     -14.841  17.696   7.915  1.00  0.00     0.029 A 
ATOM     56  C   UNL     1     -14.030  17.887   6.807  1.00  0.00     0.049 A 
ATOM     57  H   UNL     1     -12.271  16.861   6.257  1.00  0.00     0.167 HD
ATOM     58  C   UNL     1     -13.337  18.971   4.686  1.00  0.00     0.074 A 
ATOM     59  C   UNL     1     -13.496  19.943   3.622  1.00  0.00     0.031 C 
ATOM     60  C   UNL     1     -14.185  18.840   5.736  1.00  0.00     0.031 A 
BRANCH  47  61
ATOM     61  C   UNL     1     -12.628  14.330   9.683  1.00  0.00    -0.014 A 
ATOM     62  C   UNL     1     -11.851  14.404  10.854  1.00  0.00     0.010 A 
ATOM     63  C   UNL     1     -13.742  13.473   9.655  1.00  0.00     0.010 A 
ATOM     64  C   UNL     1     -12.139  13.584  11.948  1.00  0.00     0.020 A 
ATOM     65  C   UNL     1     -14.052  12.672  10.759  1.00  0.00     0.020 A 
ATOM     66  C   UNL     1     -13.231  12.713  11.887  1.00  0.00     0.054 A 
BRANCH  66  67
ATOM     67  S   UNL     1     -13.568  11.638  13.309  1.00  0.00     0.124 S 
ATOM     68  O   UNL     1     -12.541  10.610  13.155  1.00  0.00    -0.237 OA
ATOM     69  O   UNL     1     -13.390  12.538  14.445  1.00  0.00    -0.237 OA
ATOM     70  O   UNL     1     -14.940  11.187  13.084  1.00  0.00    -0.744 OA
ENDBRANCH  66  67
ENDBRANCH  47  61
BRANCH  48  71
ATOM     71  C   UNL     1     -10.129  19.017   1.230  1.00  0.00    -0.014 A 
ATOM     72  C   UNL     1      -9.609  20.322   1.219  1.00  0.00     0.010 A 
ATOM     73  C   UNL     1     -10.239  18.312   0.017  1.00  0.00     0.010 A 
ATOM     74  C   UNL     1      -9.198  20.909   0.019  1.00  0.00     0.020 A 
ATOM     75  C   UNL     1      -9.808  18.887  -1.181  1.00  0.00     0.020 A 
ATOM     76  C   UNL     1      -9.291  20.184  -1.173  1.00  0.00     0.054 A 
BRANCH  76  77
ATOM     77  S   UNL     1      -8.653  20.927  -2.701  1.00  0.00     0.124 S 
ATOM     78  O   UNL     1      -9.690  21.903  -3.021  1.00  0.00    -0.237 OA
ATOM     79  O   UNL     1      -7.372  21.481  -2.272  1.00  0.00    -0.237 OA
ATOM     80  O   UNL     1      -8.556  19.792  -3.617  1.00  0.00    -0.744 OA
ENDBRANCH  76  77
ENDBRANCH  48  71
BRANCH  60  81
ATOM     81  C   UNL     1     -15.357  19.781   5.799  1.00  0.00    -0.014 A 
ATOM     82  C   UNL     1     -16.459  19.629   4.939  1.00  0.00     0.010 A 
ATOM     83  C   UNL     1     -15.382  20.796   6.773  1.00  0.00     0.010 A 
ATOM     84  C   UNL     1     -17.553  20.494   5.034  1.00  0.00     0.020 A 
ATOM     85  C   UNL     1     -16.484  21.647   6.887  1.00  0.00     0.020 A 
ATOM     86  C   UNL     1     -17.558  21.498   6.007  1.00  0.00     0.054 A 
BRANCH  86  87
ATOM     87  S   UNL     1     -19.009  22.578   6.143  1.00  0.00     0.124 S 
ATOM     88  O   UNL     1     -18.836  23.465   4.995  1.00  0.00    -0.237 OA
ATOM     89  O   UNL     1     -20.122  21.636   6.047  1.00  0.00    -0.237 OA
ATOM     90  O   UNL     1     -18.849  23.211   7.450  1.00  0.00    -0.744 OA
ENDBRANCH  86  87
ENDBRANCH  60  81
ENDBRANCH  34  35
ENDBRANCH  26  29
ENDBRANCH  24  25
ENDBRANCH  23  24
ENDBRANCH   1  23
TORSDOF 17
