REMARK SMILES NC(=S)S/C=C/C(=O)NCCCCNC(=O)c1ccc(-c2c3nc(c(-c4ccc(S(=O)(=O)[O-])cc4)c4ccc([nH]4)c(-c4ccc(S(=O)(=O)[O-])cc4)c4nc(c(-c5ccc(S(=O)(=O)[O-])cc5)c5ccc2[nH]5)C=C4)C=C3)cc1
REMARK SMILES IDX 11 1 10 2 9 3 7 4 8 5 6 7 5 8 4 9 2 10 3 11 1 12 12 15 13 16
REMARK SMILES IDX 14 17 15 18 16 20 17 21 18 22 76 23 19 24 75 25 20 26 21 27
REMARK SMILES IDX 22 28 69 29 23 30 74 31 68 32 70 33 24 34 73 35 67 36 66 37
REMARK SMILES IDX 25 39 55 40 36 41 54 42 37 43 40 44 53 45 71 46 38 47 39 48
REMARK SMILES IDX 52 50 72 51 41 52 26 53 27 54 35 55 28 56 34 57 29 58 30 59
REMARK SMILES IDX 31 60 32 61 33 62 56 63 57 64 65 65 58 66 64 67 59 68 60 69
REMARK SMILES IDX 61 70 62 71 63 72 42 73 43 74 51 75 44 76 50 77 45 78 46 79
REMARK SMILES IDX 47 80 48 81 49 82
REMARK H PARENT 9 6 1 13 1 14 14 19 70 38 40 49
REMARK Flexibility Score: inf
ROOT
ATOM      1  C   UNL     1       0.167   4.370  -6.203  1.00  0.00     0.023 C 
ENDROOT
BRANCH   1   2
ATOM      2  C   UNL     1      -0.356   4.833  -4.845  1.00  0.00     0.116 C 
BRANCH   2   3
ATOM      3  N   UNL     1      -1.686   4.309  -4.587  1.00  0.00    -0.353 N 
ATOM      4  C   UNL     1      -2.136   3.528  -3.567  1.00  0.00     0.244 C 
ATOM      5  O   UNL     1      -3.332   3.279  -3.454  1.00  0.00    -0.270 OA
ATOM      6  H   UNL     1      -2.368   4.558  -5.252  1.00  0.00     0.163 HD
BRANCH   4   7
ATOM      7  C   UNL     1      -1.186   3.058  -2.543  1.00  0.00     0.078 C 
ATOM      8  C   UNL     1      -0.167   2.245  -2.850  1.00  0.00     0.054 C 
BRANCH   8   9
ATOM      9  S   UNL     1       0.988   1.726  -1.672  1.00  0.00    -0.069 SA
BRANCH   9  10
ATOM     10  C   UNL     1       0.224   0.438  -0.777  1.00  0.00     0.135 C 
ATOM     11  S   UNL     1      -1.349  -0.087  -0.775  1.00  0.00    -0.053 S 
BRANCH  10  12
ATOM     12  N   UNL     1       1.139  -0.164   0.031  1.00  0.00    -0.384 N 
ATOM     13  H   UNL     1       0.869  -0.916   0.607  1.00  0.00     0.158 HD
ATOM     14  H   UNL     1       2.071   0.152   0.040  1.00  0.00     0.158 HD
ENDBRANCH  10  12
ENDBRANCH   9  10
ENDBRANCH   8   9
ENDBRANCH   4   7
ENDBRANCH   2   3
ENDBRANCH   1   2
BRANCH   1  15
ATOM     15  C   UNL     1      -0.515   5.029  -7.407  1.00  0.00     0.023 C 
BRANCH  15  16
ATOM     16  C   UNL     1      -0.390   6.551  -7.481  1.00  0.00     0.116 C 
BRANCH  16  17
ATOM     17  N   UNL     1       0.987   7.013  -7.491  1.00  0.00    -0.352 N 
ATOM     18  C   UNL     1       1.550   8.045  -8.212  1.00  0.00     0.251 C 
ATOM     19  H   UNL     1       1.604   6.521  -6.901  1.00  0.00     0.163 HD
ATOM     20  O   UNL     1       2.760   8.228  -8.179  1.00  0.00    -0.269 OA
BRANCH  18  21
ATOM     21  C   UNL     1       0.686   8.898  -9.055  1.00  0.00     0.039 A 
ATOM     22  C   UNL     1       1.045   9.108 -10.388  1.00  0.00     0.014 A 
ATOM     23  C   UNL     1      -0.486   9.459  -8.541  1.00  0.00     0.014 A 
ATOM     24  C   UNL     1       0.184   9.812 -11.233  1.00  0.00     0.010 A 
ATOM     25  C   UNL     1      -1.369  10.114  -9.397  1.00  0.00     0.010 A 
ATOM     26  C   UNL     1      -1.049  10.282 -10.753  1.00  0.00    -0.014 A 
BRANCH  26  27
ATOM     27  C   UNL     1      -2.042  10.905 -11.664  1.00  0.00     0.031 A 
ATOM     28  C   UNL     1      -2.429  12.347 -11.502  1.00  0.00     0.074 A 
ATOM     29  C   UNL     1      -2.665  10.138 -12.582  1.00  0.00     0.049 A 
ATOM     30  N   UNL     1      -3.335  13.034 -12.149  1.00  0.00    -0.248 NA
ATOM     31  C   UNL     1      -1.721  13.108 -10.462  1.00  0.00     0.031 C 
ATOM     32  C   UNL     1      -2.417   8.711 -12.801  1.00  0.00     0.029 A 
ATOM     33  N   UNL     1      -3.649  10.447 -13.487  1.00  0.00    -0.354 N 
ATOM     34  C   UNL     1      -3.318  14.304 -11.587  1.00  0.00     0.074 A 
ATOM     35  C   UNL     1      -2.342  14.278 -10.518  1.00  0.00     0.031 C 
ATOM     36  C   UNL     1      -3.223   8.271 -13.780  1.00  0.00     0.029 A 
ATOM     37  C   UNL     1      -4.066   9.372 -14.234  1.00  0.00     0.049 A 
ATOM     38  H   UNL     1      -4.021  11.353 -13.590  1.00  0.00     0.167 HD
ATOM     39  C   UNL     1      -4.038  15.397 -11.937  1.00  0.00     0.031 A 
ATOM     40  C   UNL     1      -5.030   9.275 -15.170  1.00  0.00     0.031 A 
ATOM     41  C   UNL     1      -5.012  15.419 -12.996  1.00  0.00     0.049 A 
ATOM     42  C   UNL     1      -5.820  10.497 -15.543  1.00  0.00     0.074 A 
ATOM     43  C   UNL     1      -5.753  16.491 -13.464  1.00  0.00     0.029 A 
ATOM     44  N   UNL     1      -5.387  14.316 -13.749  1.00  0.00    -0.354 N 
ATOM     45  N   UNL     1      -5.738  11.709 -15.050  1.00  0.00    -0.248 NA
ATOM     46  C   UNL     1      -6.824  10.341 -16.604  1.00  0.00     0.031 C 
ATOM     47  C   UNL     1      -6.607  16.025 -14.470  1.00  0.00     0.029 A 
ATOM     48  C   UNL     1      -6.365  14.674 -14.661  1.00  0.00     0.049 A 
ATOM     49  H   UNL     1      -5.012  13.411 -13.649  1.00  0.00     0.167 HD
ATOM     50  C   UNL     1      -6.673  12.465 -15.747  1.00  0.00     0.074 A 
ATOM     51  C   UNL     1      -7.295  11.577 -16.709  1.00  0.00     0.031 C 
ATOM     52  C   UNL     1      -6.986  13.776 -15.603  1.00  0.00     0.031 A 
BRANCH  39  53
ATOM     53  C   UNL     1      -3.799  16.656 -11.147  1.00  0.00    -0.014 A 
ATOM     54  C   UNL     1      -2.593  17.370 -11.273  1.00  0.00     0.010 A 
ATOM     55  C   UNL     1      -4.787  17.131 -10.267  1.00  0.00     0.010 A 
ATOM     56  C   UNL     1      -2.356  18.502 -10.489  1.00  0.00     0.020 A 
ATOM     57  C   UNL     1      -4.564  18.279  -9.499  1.00  0.00     0.020 A 
ATOM     58  C   UNL     1      -3.338  18.941  -9.597  1.00  0.00     0.054 A 
BRANCH  58  59
ATOM     59  S   UNL     1      -2.998  20.401  -8.575  1.00  0.00     0.124 S 
ATOM     60  O   UNL     1      -2.110  19.851  -7.554  1.00  0.00    -0.237 OA
ATOM     61  O   UNL     1      -2.373  21.320  -9.522  1.00  0.00    -0.237 OA
ATOM     62  O   UNL     1      -4.319  20.805  -8.100  1.00  0.00    -0.744 OA
ENDBRANCH  58  59
ENDBRANCH  39  53
BRANCH  40  63
ATOM     63  C   UNL     1      -5.289   7.962 -15.817  1.00  0.00    -0.014 A 
ATOM     64  C   UNL     1      -4.854   7.716 -17.130  1.00  0.00     0.010 A 
ATOM     65  C   UNL     1      -5.922   6.930 -15.099  1.00  0.00     0.010 A 
ATOM     66  C   UNL     1      -5.046   6.460 -17.715  1.00  0.00     0.020 A 
ATOM     67  C   UNL     1      -6.096   5.668 -15.672  1.00  0.00     0.020 A 
ATOM     68  C   UNL     1      -5.660   5.442 -16.980  1.00  0.00     0.054 A 
BRANCH  68  69
ATOM     69  S   UNL     1      -5.817   3.795 -17.725  1.00  0.00     0.124 S 
ATOM     70  O   UNL     1      -6.933   3.983 -18.646  1.00  0.00    -0.237 OA
ATOM     71  O   UNL     1      -4.509   3.601 -18.345  1.00  0.00    -0.237 OA
ATOM     72  O   UNL     1      -6.087   2.928 -16.580  1.00  0.00    -0.744 OA
ENDBRANCH  68  69
ENDBRANCH  40  63
BRANCH  52  73
ATOM     73  C   UNL     1      -8.048  14.335 -16.510  1.00  0.00    -0.014 A 
ATOM     74  C   UNL     1      -9.407  14.042 -16.299  1.00  0.00     0.010 A 
ATOM     75  C   UNL     1      -7.687  15.212 -17.549  1.00  0.00     0.010 A 
ATOM     76  C   UNL     1     -10.386  14.600 -17.125  1.00  0.00     0.020 A 
ATOM     77  C   UNL     1      -8.665  15.788 -18.364  1.00  0.00     0.020 A 
ATOM     78  C   UNL     1     -10.008  15.470 -18.153  1.00  0.00     0.054 A 
BRANCH  78  79
ATOM     79  S   UNL     1     -11.301  16.224 -19.179  1.00  0.00     0.124 S 
ATOM     80  O   UNL     1     -11.681  15.117 -20.051  1.00  0.00    -0.237 OA
ATOM     81  O   UNL     1     -12.303  16.622 -18.193  1.00  0.00    -0.237 OA
ATOM     82  O   UNL     1     -10.614  17.331 -19.840  1.00  0.00    -0.744 OA
ENDBRANCH  78  79
ENDBRANCH  52  73
ENDBRANCH  26  27
ENDBRANCH  18  21
ENDBRANCH  16  17
ENDBRANCH  15  16
ENDBRANCH   1  15
TORSDOF 17
