REMARK SMILES NC(=O)c1ccc(Nc2ccc(C(=O)NCCCCNC(=O)c3ccc(-c4c5nc(c(-c6ccc(S(=O)(=O)[O-])cc6)c6ccc([nH]6)c(-c6ccc(S(=O)(=O)[O-])cc6)c6nc(c(-c7ccc(S(=O)(=O)[O-])cc7)c7ccc4[nH]7)C=C6)C=C5)cc3)c(Cl)c2)nn1
REMARK SMILES IDX 17 1 16 2 15 3 13 4 14 5 12 7 9 8 10 9 85 10 11 11 83 12
REMARK SMILES IDX 84 13 8 14 7 16 4 17 5 18 87 19 6 20 86 21 2 22 1 23 3 26
REMARK SMILES IDX 18 27 19 28 20 29 21 30 22 32 23 33 24 34 82 35 25 36 81 37
REMARK SMILES IDX 26 38 27 39 28 40 75 41 29 42 80 43 74 44 76 45 30 46 79 47
REMARK SMILES IDX 73 48 72 49 31 51 61 52 42 53 60 54 43 55 46 56 59 57 77 58
REMARK SMILES IDX 44 59 45 60 58 62 78 63 47 64 32 65 33 66 41 67 34 68 40 69
REMARK SMILES IDX 35 70 36 71 37 72 38 73 39 74 62 75 63 76 71 77 64 78 70 79
REMARK SMILES IDX 65 80 66 81 67 82 68 83 69 84 48 85 49 86 57 87 50 88 56 89
REMARK SMILES IDX 51 90 52 91 53 92 54 93 55 94
REMARK H PARENT 15 6 8 15 1 24 1 25 20 31 76 50 46 61
REMARK Flexibility Score: inf
ROOT
ATOM      1  C   UNL     1      -1.321  11.892  -2.798  1.00  0.00     0.023 C 
ENDROOT
BRANCH   1   2
ATOM      2  C   UNL     1       0.053  12.172  -2.177  1.00  0.00     0.116 C 
BRANCH   2   3
ATOM      3  N   UNL     1       0.089  11.656  -0.830  1.00  0.00    -0.352 N 
ATOM      4  C   UNL     1       0.474  10.481  -0.252  1.00  0.00     0.252 C 
ATOM      5  O   UNL     1       0.232  10.418   0.961  1.00  0.00    -0.269 OA
ATOM      6  H   UNL     1      -0.242  12.308  -0.170  1.00  0.00     0.163 HD
BRANCH   4   7
ATOM      7  C   UNL     1       1.206   9.326  -0.875  1.00  0.00     0.058 A 
ATOM      8  C   UNL     1       2.621   6.926  -1.552  1.00  0.00     0.041 A 
ATOM      9  C   UNL     1       2.562   7.357  -0.235  1.00  0.00     0.027 A 
ATOM     10  C   UNL     1       1.983   7.695  -2.521  1.00  0.00     0.047 A 
ATOM     11  C   UNL     1       1.902   8.549   0.086  1.00  0.00     0.017 A 
ATOM     12  C   UNL     1       1.236   8.844  -2.190  1.00  0.00     0.055 A 
ATOM     13  Cl  UNL     1       0.280   9.366  -3.519  1.00  0.00    -0.083 Cl
BRANCH   8  14
ATOM     14  N   UNL     1       3.085   5.641  -1.893  1.00  0.00    -0.339 N 
ATOM     15  H   UNL     1       3.937   5.559  -2.379  1.00  0.00     0.168 HD
BRANCH  14  16
ATOM     16  C   UNL     1       2.374   4.465  -1.563  1.00  0.00     0.153 A 
ATOM     17  C   UNL     1       0.994   2.184  -0.936  1.00  0.00     0.150 A 
ATOM     18  C   UNL     1       2.156   2.071  -1.681  1.00  0.00     0.040 A 
ATOM     19  N   UNL     1       0.533   3.377  -0.520  1.00  0.00    -0.143 NA
ATOM     20  C   UNL     1       2.859   3.235  -1.994  1.00  0.00     0.051 A 
ATOM     21  N   UNL     1       1.240   4.517  -0.829  1.00  0.00    -0.132 NA
BRANCH  17  22
ATOM     22  C   UNL     1       0.203   0.993  -0.529  1.00  0.00     0.269 C 
ATOM     23  N   UNL     1       0.911  -0.119  -0.145  1.00  0.00    -0.364 N 
ATOM     24  H   UNL     1       0.435  -0.934   0.133  1.00  0.00     0.160 HD
ATOM     25  H   UNL     1       1.895  -0.101  -0.148  1.00  0.00     0.160 HD
ATOM     26  O   UNL     1      -1.022   0.981  -0.515  1.00  0.00    -0.268 OA
ENDBRANCH  17  22
ENDBRANCH  14  16
ENDBRANCH   8  14
ENDBRANCH   4   7
ENDBRANCH   2   3
ENDBRANCH   1   2
BRANCH   1  27
ATOM     27  C   UNL     1      -2.353  13.003  -2.622  1.00  0.00     0.023 C 
BRANCH  27  28
ATOM     28  C   UNL     1      -1.989  14.316  -3.302  1.00  0.00     0.116 C 
BRANCH  28  29
ATOM     29  N   UNL     1      -1.649  14.173  -4.711  1.00  0.00    -0.352 N 
ATOM     30  C   UNL     1      -1.772  15.101  -5.716  1.00  0.00     0.251 C 
ATOM     31  H   UNL     1      -1.283  13.298  -4.978  1.00  0.00     0.163 HD
ATOM     32  O   UNL     1      -1.517  14.799  -6.877  1.00  0.00    -0.269 OA
BRANCH  30  33
ATOM     33  C   UNL     1      -2.266  16.450  -5.381  1.00  0.00     0.039 A 
ATOM     34  C   UNL     1      -3.340  16.967  -6.106  1.00  0.00     0.014 A 
ATOM     35  C   UNL     1      -1.715  17.165  -4.314  1.00  0.00     0.014 A 
ATOM     36  C   UNL     1      -3.909  18.177  -5.713  1.00  0.00     0.010 A 
ATOM     37  C   UNL     1      -2.333  18.331  -3.877  1.00  0.00     0.010 A 
ATOM     38  C   UNL     1      -3.436  18.847  -4.572  1.00  0.00    -0.014 A 
BRANCH  38  39
ATOM     39  C   UNL     1      -4.107  20.076  -4.083  1.00  0.00     0.031 A 
ATOM     40  C   UNL     1      -3.376  21.389  -4.074  1.00  0.00     0.074 A 
ATOM     41  C   UNL     1      -5.364  19.992  -3.602  1.00  0.00     0.049 A 
ATOM     42  N   UNL     1      -3.806  22.565  -3.698  1.00  0.00    -0.248 NA
ATOM     43  C   UNL     1      -1.974  21.377  -4.522  1.00  0.00     0.031 C 
ATOM     44  C   UNL     1      -6.152  18.761  -3.498  1.00  0.00     0.029 A 
ATOM     45  N   UNL     1      -6.201  20.962  -3.114  1.00  0.00    -0.354 N 
ATOM     46  C   UNL     1      -2.728  23.429  -3.853  1.00  0.00     0.074 A 
ATOM     47  C   UNL     1      -1.609  22.632  -4.305  1.00  0.00     0.031 C 
ATOM     48  C   UNL     1      -7.369  19.057  -3.016  1.00  0.00     0.029 A 
ATOM     49  C   UNL     1      -7.438  20.489  -2.746  1.00  0.00     0.049 A 
ATOM     50  H   UNL     1      -5.940  21.909  -3.033  1.00  0.00     0.167 HD
ATOM     51  C   UNL     1      -2.682  24.768  -3.659  1.00  0.00     0.031 A 
ATOM     52  C   UNL     1      -8.511  21.136  -2.253  1.00  0.00     0.031 A 
ATOM     53  C   UNL     1      -3.802  25.556  -3.219  1.00  0.00     0.049 A 
ATOM     54  C   UNL     1      -8.439  22.625  -2.061  1.00  0.00     0.074 A 
ATOM     55  C   UNL     1      -3.877  26.928  -3.055  1.00  0.00     0.029 A 
ATOM     56  N   UNL     1      -5.041  25.043  -2.867  1.00  0.00    -0.354 N 
ATOM     57  N   UNL     1      -7.437  23.439  -2.297  1.00  0.00    -0.248 NA
ATOM     58  C   UNL     1      -9.648  23.286  -1.550  1.00  0.00     0.031 C 
ATOM     59  C   UNL     1      -5.147  27.239  -2.557  1.00  0.00     0.029 A 
ATOM     60  C   UNL     1      -5.880  26.067  -2.463  1.00  0.00     0.049 A 
ATOM     61  H   UNL     1      -5.288  24.090  -2.900  1.00  0.00     0.167 HD
ATOM     62  C   UNL     1      -7.901  24.711  -1.982  1.00  0.00     0.074 A 
ATOM     63  C   UNL     1      -9.280  24.560  -1.560  1.00  0.00     0.031 C 
ATOM     64  C   UNL     1      -7.246  25.897  -2.035  1.00  0.00     0.031 A 
BRANCH  51  65
ATOM     65  C   UNL     1      -1.372  25.463  -3.925  1.00  0.00    -0.014 A 
ATOM     66  C   UNL     1      -0.877  25.602  -5.235  1.00  0.00     0.010 A 
ATOM     67  C   UNL     1      -0.644  26.017  -2.857  1.00  0.00     0.010 A 
ATOM     68  C   UNL     1       0.341  26.244  -5.468  1.00  0.00     0.020 A 
ATOM     69  C   UNL     1       0.562  26.685  -3.088  1.00  0.00     0.020 A 
ATOM     70  C   UNL     1       1.055  26.779  -4.392  1.00  0.00     0.054 A 
BRANCH  70  71
ATOM     71  S   UNL     1       2.623  27.628  -4.726  1.00  0.00     0.124 S 
ATOM     72  O   UNL     1       3.511  26.510  -5.033  1.00  0.00    -0.237 OA
ATOM     73  O   UNL     1       2.286  28.490  -5.856  1.00  0.00    -0.237 OA
ATOM     74  O   UNL     1       2.912  28.328  -3.477  1.00  0.00    -0.744 OA
ENDBRANCH  70  71
ENDBRANCH  51  65
BRANCH  52  75
ATOM     75  C   UNL     1      -9.753  20.380  -1.935  1.00  0.00    -0.014 A 
ATOM     76  C   UNL     1     -10.900  20.523  -2.735  1.00  0.00     0.010 A 
ATOM     77  C   UNL     1      -9.789  19.499  -0.839  1.00  0.00     0.010 A 
ATOM     78  C   UNL     1     -12.066  19.813  -2.435  1.00  0.00     0.020 A 
ATOM     79  C   UNL     1     -10.944  18.767  -0.552  1.00  0.00     0.020 A 
ATOM     80  C   UNL     1     -12.080  18.937  -1.345  1.00  0.00     0.054 A 
BRANCH  80  81
ATOM     81  S   UNL     1     -13.588  17.986  -1.005  1.00  0.00     0.124 S 
ATOM     82  O   UNL     1     -14.463  19.002  -0.429  1.00  0.00    -0.237 OA
ATOM     83  O   UNL     1     -13.964  17.504  -2.332  1.00  0.00    -0.237 OA
ATOM     84  O   UNL     1     -13.135  16.950  -0.080  1.00  0.00    -0.744 OA
ENDBRANCH  80  81
ENDBRANCH  52  75
BRANCH  64  85
ATOM     85  C   UNL     1      -8.019  27.127  -1.642  1.00  0.00    -0.014 A 
ATOM     86  C   UNL     1      -8.357  27.375  -0.300  1.00  0.00     0.010 A 
ATOM     87  C   UNL     1      -8.380  28.065  -2.626  1.00  0.00     0.010 A 
ATOM     88  C   UNL     1      -9.078  28.520   0.046  1.00  0.00     0.020 A 
ATOM     89  C   UNL     1      -9.076  29.226  -2.280  1.00  0.00     0.020 A 
ATOM     90  C   UNL     1      -9.435  29.437  -0.947  1.00  0.00     0.054 A 
BRANCH  90  91
ATOM     91  S   UNL     1     -10.346  30.931  -0.470  1.00  0.00     0.124 S 
ATOM     92  O   UNL     1     -11.687  30.405  -0.228  1.00  0.00    -0.237 OA
ATOM     93  O   UNL     1      -9.624  31.383   0.717  1.00  0.00    -0.237 OA
ATOM     94  O   UNL     1     -10.220  31.801  -1.637  1.00  0.00    -0.744 OA
ENDBRANCH  90  91
ENDBRANCH  64  85
ENDBRANCH  38  39
ENDBRANCH  30  33
ENDBRANCH  28  29
ENDBRANCH  27  28
ENDBRANCH   1  27
TORSDOF 17
