REMARK SMILES O=C(NCCCCNC(=O)[C@@H]1[C@H](C(=O)Nc2ccccc2Cc2ccccc2)[C@H]2C=C[C@@H]1O2)c1ccc(-c2c3nc(c(-c4ccc(S(=O)(=O)[O-])cc4)c4ccc([nH]4)c(-c4ccc(S(=O)(=O)[O-])cc4)c4nc(c(-c5ccc(S(=O)(=O)[O-])cc5)c5ccc2[nH]5)C=C4)C=C3)cc1
REMARK SMILES IDX 6 1 5 2 4 3 3 4 1 5 2 6 34 8 35 9 93 10 36 11 92 12 37 13
REMARK SMILES IDX 38 14 39 15 86 16 40 17 91 18 85 19 87 20 41 21 90 22 84 23
REMARK SMILES IDX 83 24 42 26 72 27 53 28 71 29 54 30 57 31 70 32 88 33 55 34
REMARK SMILES IDX 56 35 69 37 89 38 58 39 43 40 44 41 52 42 45 43 51 44 46 45
REMARK SMILES IDX 47 46 48 47 49 48 50 49 73 50 74 51 82 52 75 53 81 54 76 55
REMARK SMILES IDX 77 56 78 57 79 58 80 59 59 60 60 61 68 62 61 63 67 64 62 65
REMARK SMILES IDX 63 66 64 67 65 68 66 69 7 70 8 71 9 72 10 74 11 75 12 76
REMARK SMILES IDX 32 77 29 78 31 79 33 80 30 81 13 82 14 83 15 84 16 86 17 87
REMARK SMILES IDX 21 88 18 89 20 90 19 91 22 92 23 93 24 94 28 95 25 96 27 97
REMARK SMILES IDX 26 98
REMARK H PARENT 3 7 87 25 57 36 8 73 15 85
REMARK Flexibility Score: inf
ROOT
ATOM      1  C   UNL     1       3.107   3.574   1.412  1.00  0.00     0.023 C 
ENDROOT
BRANCH   1   2
ATOM      2  C   UNL     1       3.869   2.753   0.347  1.00  0.00     0.023 C 
BRANCH   2   3
ATOM      3  C   UNL     1       3.996   1.263   0.653  1.00  0.00     0.116 C 
BRANCH   3   4
ATOM      4  N   UNL     1       2.688   0.637   0.707  1.00  0.00    -0.352 N 
ATOM      5  O   UNL     1       0.885  -0.373  -0.183  1.00  0.00    -0.269 OA
ATOM      6  C   UNL     1       2.105  -0.199  -0.207  1.00  0.00     0.251 C 
ATOM      7  H   UNL     1       2.149   0.840   1.505  1.00  0.00     0.163 HD
BRANCH   6   8
ATOM      8  C   UNL     1       2.935  -0.901  -1.206  1.00  0.00     0.039 A 
ATOM      9  C   UNL     1       4.087  -1.588  -0.807  1.00  0.00     0.014 A 
ATOM     10  C   UNL     1       2.509  -0.952  -2.536  1.00  0.00     0.014 A 
ATOM     11  C   UNL     1       4.839  -2.288  -1.748  1.00  0.00     0.010 A 
ATOM     12  C   UNL     1       3.237  -1.694  -3.469  1.00  0.00     0.010 A 
ATOM     13  C   UNL     1       4.402  -2.376  -3.079  1.00  0.00    -0.014 A 
BRANCH  13  14
ATOM     14  C   UNL     1       5.077  -3.299  -4.024  1.00  0.00     0.031 A 
ATOM     15  C   UNL     1       5.837  -2.783  -5.212  1.00  0.00     0.074 A 
ATOM     16  C   UNL     1       4.944  -4.626  -3.820  1.00  0.00     0.049 A 
ATOM     17  N   UNL     1       6.421  -3.461  -6.166  1.00  0.00    -0.248 NA
ATOM     18  C   UNL     1       5.952  -1.323  -5.354  1.00  0.00     0.031 C 
ATOM     19  C   UNL     1       4.207  -5.238  -2.710  1.00  0.00     0.029 A 
ATOM     20  N   UNL     1       5.405  -5.698  -4.540  1.00  0.00    -0.354 N 
ATOM     21  C   UNL     1       6.952  -2.516  -7.035  1.00  0.00     0.074 A 
ATOM     22  C   UNL     1       6.617  -1.214  -6.499  1.00  0.00     0.031 C 
ATOM     23  C   UNL     1       4.270  -6.573  -2.821  1.00  0.00     0.029 A 
ATOM     24  C   UNL     1       4.998  -6.912  -4.038  1.00  0.00     0.049 A 
ATOM     25  H   UNL     1       5.973  -5.608  -5.340  1.00  0.00     0.167 HD
ATOM     26  C   UNL     1       7.651  -2.724  -8.177  1.00  0.00     0.031 A 
ATOM     27  C   UNL     1       5.152  -8.159  -4.520  1.00  0.00     0.031 A 
ATOM     28  C   UNL     1       7.983  -4.027  -8.695  1.00  0.00     0.049 A 
ATOM     29  C   UNL     1       5.897  -8.352  -5.810  1.00  0.00     0.074 A 
ATOM     30  C   UNL     1       8.758  -4.338  -9.799  1.00  0.00     0.029 A 
ATOM     31  N   UNL     1       7.546  -5.230  -8.163  1.00  0.00    -0.354 N 
ATOM     32  N   UNL     1       6.471  -7.449  -6.569  1.00  0.00    -0.248 NA
ATOM     33  C   UNL     1       6.009  -9.727  -6.314  1.00  0.00     0.031 C 
ATOM     34  C   UNL     1       8.733  -5.725  -9.975  1.00  0.00     0.029 A 
ATOM     35  C   UNL     1       7.991  -6.282  -8.946  1.00  0.00     0.049 A 
ATOM     36  H   UNL     1       6.999  -5.323  -7.349  1.00  0.00     0.167 HD
ATOM     37  C   UNL     1       7.019  -8.149  -7.636  1.00  0.00     0.074 A 
ATOM     38  C   UNL     1       6.733  -9.551  -7.411  1.00  0.00     0.031 C 
ATOM     39  C   UNL     1       7.691  -7.671  -8.712  1.00  0.00     0.031 A 
BRANCH  26  40
ATOM     40  C   UNL     1       8.091  -1.527  -8.977  1.00  0.00    -0.014 A 
ATOM     41  C   UNL     1       9.167  -0.724  -8.559  1.00  0.00     0.010 A 
ATOM     42  C   UNL     1       7.492  -1.273 -10.225  1.00  0.00     0.010 A 
ATOM     43  C   UNL     1       9.629   0.317  -9.372  1.00  0.00     0.020 A 
ATOM     44  C   UNL     1       7.963  -0.247 -11.049  1.00  0.00     0.020 A 
ATOM     45  C   UNL     1       9.027   0.546 -10.614  1.00  0.00     0.054 A 
BRANCH  45  46
ATOM     46  S   UNL     1       9.692   1.858 -11.676  1.00  0.00     0.124 S 
ATOM     47  O   UNL     1       9.256   3.063 -10.974  1.00  0.00    -0.237 OA
ATOM     48  O   UNL     1      11.129   1.599 -11.644  1.00  0.00    -0.237 OA
ATOM     49  O   UNL     1       9.048   1.623 -12.966  1.00  0.00    -0.744 OA
ENDBRANCH  45  46
ENDBRANCH  26  40
BRANCH  27  50
ATOM     50  C   UNL     1       4.535  -9.313  -3.812  1.00  0.00    -0.014 A 
ATOM     51  C   UNL     1       5.332 -10.284  -3.183  1.00  0.00     0.010 A 
ATOM     52  C   UNL     1       3.134  -9.445  -3.768  1.00  0.00     0.010 A 
ATOM     53  C   UNL     1       4.741 -11.381  -2.548  1.00  0.00     0.020 A 
ATOM     54  C   UNL     1       2.539 -10.522  -3.108  1.00  0.00     0.020 A 
ATOM     55  C   UNL     1       3.347 -11.494  -2.518  1.00  0.00     0.054 A 
BRANCH  55  56
ATOM     56  S   UNL     1       2.599 -12.911  -1.668  1.00  0.00     0.124 S 
ATOM     57  O   UNL     1       2.826 -13.990  -2.624  1.00  0.00    -0.237 OA
ATOM     58  O   UNL     1       3.374 -12.986  -0.432  1.00  0.00    -0.237 OA
ATOM     59  O   UNL     1       1.205 -12.508  -1.496  1.00  0.00    -0.744 OA
ENDBRANCH  55  56
ENDBRANCH  27  50
BRANCH  39  60
ATOM     60  C   UNL     1       8.168  -8.673  -9.727  1.00  0.00    -0.014 A 
ATOM     61  C   UNL     1       7.264  -9.291 -10.608  1.00  0.00     0.010 A 
ATOM     62  C   UNL     1       9.542  -8.950  -9.844  1.00  0.00     0.010 A 
ATOM     63  C   UNL     1       7.724 -10.184 -11.579  1.00  0.00     0.020 A 
ATOM     64  C   UNL     1      10.009  -9.821 -10.831  1.00  0.00     0.020 A 
ATOM     65  C   UNL     1       9.095 -10.439 -11.687  1.00  0.00     0.054 A 
BRANCH  65  66
ATOM     66  S   UNL     1       9.672 -11.551 -12.998  1.00  0.00     0.124 S 
ATOM     67  O   UNL     1       9.257 -12.857 -12.494  1.00  0.00    -0.237 OA
ATOM     68  O   UNL     1       8.945 -11.070 -14.170  1.00  0.00    -0.237 OA
ATOM     69  O   UNL     1      11.116 -11.327 -13.032  1.00  0.00    -0.744 OA
ENDBRANCH  65  66
ENDBRANCH  39  60
ENDBRANCH  13  14
ENDBRANCH   6   8
ENDBRANCH   3   4
ENDBRANCH   2   3
ENDBRANCH   1   2
BRANCH   1  70
ATOM     70  C   UNL     1       3.694   3.526   2.826  1.00  0.00     0.116 C 
BRANCH  70  71
ATOM     71  N   UNL     1       5.076   3.914   2.781  1.00  0.00    -0.356 N 
ATOM     72  C   UNL     1       5.986   4.110   3.745  1.00  0.00     0.227 C 
ATOM     73  H   UNL     1       5.419   4.064   1.871  1.00  0.00     0.163 HD
ATOM     74  O   UNL     1       7.106   3.784   3.360  1.00  0.00    -0.275 OA
BRANCH  72  75
ATOM     75  C   UNL     1       5.687   4.858   5.035  1.00  0.00     0.127 C 
ATOM     76  C   UNL     1       6.715   6.006   5.207  1.00  0.00     0.127 C 
ATOM     77  C   UNL     1       5.815   4.206   6.434  1.00  0.00     0.155 C 
ATOM     78  C   UNL     1       7.120   5.938   6.667  1.00  0.00     0.155 C 
ATOM     79  C   UNL     1       5.152   5.104   7.450  1.00  0.00     0.004 C 
ATOM     80  O   UNL     1       7.185   4.510   6.828  1.00  0.00    -0.365 OA
ATOM     81  C   UNL     1       5.936   6.190   7.558  1.00  0.00     0.004 C 
BRANCH  76  82
ATOM     82  C   UNL     1       7.904   6.034   4.271  1.00  0.00     0.231 C 
ATOM     83  O   UNL     1       7.839   6.889   3.363  1.00  0.00    -0.274 OA
ATOM     84  N   UNL     1       9.061   5.340   4.271  1.00  0.00    -0.325 N 
ATOM     85  H   UNL     1       9.618   5.752   3.571  1.00  0.00     0.169 HD
BRANCH  84  86
ATOM     86  C   UNL     1       9.847   4.285   4.818  1.00  0.00     0.044 A 
ATOM     87  C   UNL     1      11.214   4.673   4.712  1.00  0.00     0.026 A 
ATOM     88  C   UNL     1       9.593   2.988   5.351  1.00  0.00    -0.020 A 
ATOM     89  C   UNL     1      12.282   3.905   5.167  1.00  0.00     0.002 A 
ATOM     90  C   UNL     1      10.710   2.232   5.814  1.00  0.00     0.006 A 
ATOM     91  C   UNL     1      12.026   2.679   5.734  1.00  0.00     0.000 A 
BRANCH  88  92
ATOM     92  C   UNL     1       8.283   2.254   5.571  1.00  0.00     0.073 C 
BRANCH  92  93
ATOM     93  C   UNL     1       8.001   0.859   4.999  1.00  0.00    -0.044 A 
ATOM     94  C   UNL     1       7.329   0.693   3.775  1.00  0.00     0.004 A 
ATOM     95  C   UNL     1       8.225  -0.295   5.769  1.00  0.00     0.004 A 
ATOM     96  C   UNL     1       6.835  -0.553   3.371  1.00  0.00     0.000 A 
ATOM     97  C   UNL     1       7.756  -1.549   5.352  1.00  0.00     0.000 A 
ATOM     98  C   UNL     1       7.041  -1.675   4.164  1.00  0.00     0.000 A 
ENDBRANCH  92  93
ENDBRANCH  88  92
ENDBRANCH  84  86
ENDBRANCH  76  82
ENDBRANCH  72  75
ENDBRANCH  70  71
ENDBRANCH   1  70
TORSDOF 18
