REMARK SMILES Cc1ccnc(C(=O)c2[nH]c3cc(F)ccc3c2CC(=O)NCCCCNC(=O)c2ccc(-c3c4nc(c(-c5ccc(S(=O)(=O)[O-])cc5)c5ccc([nH]5)c(-c5ccc(S(=O)(=O)[O-])cc5)c5nc(c(-c6ccc(S(=O)(=O)[O-])cc6)c6ccc3[nH]6)C=C5)C=C4)cc2)c1
REMARK SMILES IDX 24 1 23 2 22 3 20 4 21 5 19 7 18 8 9 9 10 10 11 11 17 13
REMARK SMILES IDX 12 14 16 15 13 16 15 17 14 18 7 19 8 20 6 21 1 22 2 23 3 24
REMARK SMILES IDX 90 25 4 26 5 27 25 28 26 29 27 30 28 31 29 33 30 34 31 35
REMARK SMILES IDX 89 36 32 37 88 38 33 39 34 40 35 41 82 42 36 43 87 44 81 45
REMARK SMILES IDX 83 46 37 47 86 48 80 49 79 50 38 52 68 53 49 54 67 55 50 56
REMARK SMILES IDX 53 57 66 58 84 59 51 60 52 61 65 63 85 64 54 65 39 66 40 67
REMARK SMILES IDX 48 68 41 69 47 70 42 71 43 72 44 73 45 74 46 75 69 76 70 77
REMARK SMILES IDX 78 78 71 79 77 80 72 81 73 82 74 83 75 84 76 85 55 86 56 87
REMARK SMILES IDX 64 88 57 89 63 90 58 91 59 92 60 93 61 94 62 95
REMARK H PARENT 22 6 10 12 27 32 83 51 53 62
REMARK Flexibility Score: inf
ROOT
ATOM      1  C   UNL     1       3.067  -6.845  -0.763  1.00  0.00     0.023 C 
ENDROOT
BRANCH   1   2
ATOM      2  C   UNL     1       3.357  -6.880   0.736  1.00  0.00     0.116 C 
BRANCH   2   3
ATOM      3  N   UNL     1       3.876  -5.629   1.247  1.00  0.00    -0.356 N 
ATOM      4  C   UNL     1       3.228  -4.646   1.939  1.00  0.00     0.224 C 
ATOM      5  O   UNL     1       3.902  -3.748   2.452  1.00  0.00    -0.275 OA
ATOM      6  H   UNL     1       4.831  -5.464   1.071  1.00  0.00     0.163 HD
BRANCH   4   7
ATOM      7  C   UNL     1       1.730  -4.722   2.183  1.00  0.00     0.138 C 
BRANCH   7   8
ATOM      8  C   UNL     1       0.868  -4.689   0.952  1.00  0.00    -0.002 A 
ATOM      9  C   UNL     1       0.818  -3.696  -0.023  1.00  0.00     0.093 A 
ATOM     10  N   UNL     1      -0.067  -4.112  -0.991  1.00  0.00    -0.351 N 
ATOM     11  C   UNL     1      -0.666  -5.292  -0.630  1.00  0.00     0.049 A 
ATOM     12  H   UNL     1      -0.247  -3.628  -1.830  1.00  0.00     0.167 HD
ATOM     13  C   UNL     1      -0.112  -5.676   0.591  1.00  0.00     0.004 A 
ATOM     14  C   UNL     1      -1.634  -6.051  -1.298  1.00  0.00     0.066 A 
ATOM     15  C   UNL     1      -0.560  -6.879   1.182  1.00  0.00     0.013 A 
ATOM     16  C   UNL     1      -2.050  -7.232  -0.686  1.00  0.00     0.125 A 
ATOM     17  C   UNL     1      -1.532  -7.649   0.531  1.00  0.00     0.040 A 
ATOM     18  F   UNL     1      -2.978  -7.986  -1.292  1.00  0.00    -0.207 F 
BRANCH   9  19
ATOM     19  C   UNL     1       1.586  -2.466  -0.138  1.00  0.00     0.227 C 
ATOM     20  O   UNL     1       2.807  -2.485  -0.237  1.00  0.00    -0.285 OA
BRANCH  19  21
ATOM     21  C   UNL     1       0.834  -1.159  -0.179  1.00  0.00     0.113 A 
ATOM     22  C   UNL     1      -2.574   0.323   0.584  1.00  0.00     0.044 C 
ATOM     23  C   UNL     1      -1.149   0.170   0.145  1.00  0.00    -0.047 A 
ATOM     24  C   UNL     1      -0.431   1.272  -0.321  1.00  0.00     0.023 A 
ATOM     25  C   UNL     1      -0.495  -1.063   0.239  1.00  0.00     0.036 A 
ATOM     26  C   UNL     1       0.889   1.094  -0.701  1.00  0.00     0.112 A 
ATOM     27  N   UNL     1       1.527  -0.092  -0.653  1.00  0.00    -0.253 NA
ENDBRANCH  19  21
ENDBRANCH   9  19
ENDBRANCH   7   8
ENDBRANCH   4   7
ENDBRANCH   2   3
ENDBRANCH   1   2
BRANCH   1  28
ATOM     28  C   UNL     1       4.293  -6.742  -1.675  1.00  0.00     0.023 C 
BRANCH  28  29
ATOM     29  C   UNL     1       5.365  -7.813  -1.484  1.00  0.00     0.116 C 
BRANCH  29  30
ATOM     30  N   UNL     1       4.845  -9.167  -1.569  1.00  0.00    -0.352 N 
ATOM     31  C   UNL     1       5.458 -10.313  -2.011  1.00  0.00     0.251 C 
ATOM     32  H   UNL     1       3.915  -9.279  -1.265  1.00  0.00     0.163 HD
ATOM     33  O   UNL     1       4.808 -11.353  -2.083  1.00  0.00    -0.269 OA
BRANCH  31  34
ATOM     34  C   UNL     1       6.875 -10.300  -2.438  1.00  0.00     0.039 A 
ATOM     35  C   UNL     1       7.214 -10.967  -3.621  1.00  0.00     0.014 A 
ATOM     36  C   UNL     1       7.870  -9.674  -1.680  1.00  0.00     0.014 A 
ATOM     37  C   UNL     1       8.534 -10.953  -4.078  1.00  0.00     0.010 A 
ATOM     38  C   UNL     1       9.183  -9.637  -2.151  1.00  0.00     0.010 A 
ATOM     39  C   UNL     1       9.522 -10.268  -3.357  1.00  0.00    -0.014 A 
BRANCH  39  40
ATOM     40  C   UNL     1      10.911 -10.183  -3.864  1.00  0.00     0.031 A 
ATOM     41  C   UNL     1      12.004 -10.984  -3.225  1.00  0.00     0.074 A 
ATOM     42  C   UNL     1      11.197  -9.340  -4.873  1.00  0.00     0.049 A 
ATOM     43  N   UNL     1      13.292 -10.947  -3.454  1.00  0.00    -0.248 NA
ATOM     44  C   UNL     1      11.598 -11.941  -2.185  1.00  0.00     0.031 C 
ATOM     45  C   UNL     1      10.228  -8.494  -5.572  1.00  0.00     0.029 A 
ATOM     46  N   UNL     1      12.393  -9.053  -5.478  1.00  0.00    -0.354 N 
ATOM     47  C   UNL     1      13.858 -11.843  -2.559  1.00  0.00     0.074 A 
ATOM     48  C   UNL     1      12.771 -12.424  -1.797  1.00  0.00     0.031 C 
ATOM     49  C   UNL     1      10.867  -7.792  -6.522  1.00  0.00     0.029 A 
ATOM     50  C   UNL     1      12.290  -8.122  -6.481  1.00  0.00     0.049 A 
ATOM     51  H   UNL     1      13.244  -9.474  -5.218  1.00  0.00     0.167 HD
ATOM     52  C   UNL     1      15.166 -12.149  -2.378  1.00  0.00     0.031 A 
ATOM     53  C   UNL     1      13.234  -7.584  -7.274  1.00  0.00     0.031 A 
ATOM     54  C   UNL     1      16.249 -11.606  -3.149  1.00  0.00     0.049 A 
ATOM     55  C   UNL     1      14.668  -7.983  -7.101  1.00  0.00     0.074 A 
ATOM     56  C   UNL     1      17.605 -11.861  -3.038  1.00  0.00     0.029 A 
ATOM     57  N   UNL     1      16.096 -10.704  -4.190  1.00  0.00    -0.354 N 
ATOM     58  N   UNL     1      15.188  -8.814  -6.231  1.00  0.00    -0.248 NA
ATOM     59  C   UNL     1      15.641  -7.366  -8.012  1.00  0.00     0.031 C 
ATOM     60  C   UNL     1      18.273 -11.115  -4.021  1.00  0.00     0.029 A 
ATOM     61  C   UNL     1      17.330 -10.398  -4.739  1.00  0.00     0.049 A 
ATOM     62  H   UNL     1      15.236 -10.334  -4.495  1.00  0.00     0.167 HD
ATOM     63  C   UNL     1      16.553  -8.817  -6.485  1.00  0.00     0.074 A 
ATOM     64  C   UNL     1      16.777  -7.912  -7.595  1.00  0.00     0.031 C 
ATOM     65  C   UNL     1      17.533  -9.503  -5.848  1.00  0.00     0.031 A 
BRANCH  52  66
ATOM     66  C   UNL     1      15.470 -13.110  -1.268  1.00  0.00    -0.014 A 
ATOM     67  C   UNL     1      15.444 -14.497  -1.494  1.00  0.00     0.010 A 
ATOM     68  C   UNL     1      15.724 -12.623   0.026  1.00  0.00     0.010 A 
ATOM     69  C   UNL     1      15.618 -15.386  -0.430  1.00  0.00     0.020 A 
ATOM     70  C   UNL     1      15.903 -13.509   1.090  1.00  0.00     0.020 A 
ATOM     71  C   UNL     1      15.824 -14.885   0.859  1.00  0.00     0.054 A 
BRANCH  71  72
ATOM     72  S   UNL     1      15.997 -16.026   2.259  1.00  0.00     0.124 S 
ATOM     73  O   UNL     1      14.646 -16.021   2.816  1.00  0.00    -0.237 OA
ATOM     74  O   UNL     1      16.409 -17.278   1.631  1.00  0.00    -0.237 OA
ATOM     75  O   UNL     1      17.018 -15.383   3.084  1.00  0.00    -0.744 OA
ENDBRANCH  71  72
ENDBRANCH  52  66
BRANCH  53  76
ATOM     76  C   UNL     1      12.830  -6.602  -8.309  1.00  0.00    -0.014 A 
ATOM     77  C   UNL     1      12.489  -7.043  -9.598  1.00  0.00     0.010 A 
ATOM     78  C   UNL     1      12.710  -5.240  -7.986  1.00  0.00     0.010 A 
ATOM     79  C   UNL     1      12.018  -6.136 -10.550  1.00  0.00     0.020 A 
ATOM     80  C   UNL     1      12.236  -4.332  -8.936  1.00  0.00     0.020 A 
ATOM     81  C   UNL     1      11.892  -4.786 -10.213  1.00  0.00     0.054 A 
BRANCH  81  82
ATOM     82  S   UNL     1      11.181  -3.623 -11.412  1.00  0.00     0.124 S 
ATOM     83  O   UNL     1      12.373  -3.104 -12.073  1.00  0.00    -0.237 OA
ATOM     84  O   UNL     1      10.325  -4.477 -12.233  1.00  0.00    -0.237 OA
ATOM     85  O   UNL     1      10.464  -2.674 -10.563  1.00  0.00    -0.744 OA
ENDBRANCH  81  82
ENDBRANCH  53  76
BRANCH  65  86
ATOM     86  C   UNL     1      18.932  -9.297  -6.348  1.00  0.00    -0.014 A 
ATOM     87  C   UNL     1      19.730  -8.270  -5.816  1.00  0.00     0.010 A 
ATOM     88  C   UNL     1      19.458 -10.139  -7.342  1.00  0.00     0.010 A 
ATOM     89  C   UNL     1      21.031  -8.073  -6.287  1.00  0.00     0.020 A 
ATOM     90  C   UNL     1      20.758  -9.945  -7.814  1.00  0.00     0.020 A 
ATOM     91  C   UNL     1      21.533  -8.905  -7.292  1.00  0.00     0.054 A 
BRANCH  91  92
ATOM     92  S   UNL     1      23.230  -8.668  -7.891  1.00  0.00     0.124 S 
ATOM     93  O   UNL     1      23.027  -7.773  -9.026  1.00  0.00    -0.237 OA
ATOM     94  O   UNL     1      23.913  -8.078  -6.742  1.00  0.00    -0.237 OA
ATOM     95  O   UNL     1      23.656 -10.024  -8.229  1.00  0.00    -0.744 OA
ENDBRANCH  91  92
ENDBRANCH  65  86
ENDBRANCH  39  40
ENDBRANCH  31  34
ENDBRANCH  29  30
ENDBRANCH  28  29
ENDBRANCH   1  28
TORSDOF 17
