REMARK SMILES O=C(NCCCCNC(=O)c1ccc(-c2c3nc(c(-c4ccc(S(=O)(=O)[O-])cc4)c4ccc([nH]4)c(-c4ccc(S(=O)(=O)[O-])cc4)c4nc(c(-c5ccc(S(=O)(=O)[O-])cc5)c5ccc2[nH]5)C=C4)C=C3)cc1)c1ccc(/C=C/c2ccnc(-c3cccc([N+](=O)[O-])c3)[n+]2[O-])cc1
REMARK SMILES IDX 5 1 4 2 3 3 1 4 2 5 71 7 72 8 94 9 73 10 93 11 74 12 75 13
REMARK SMILES IDX 76 14 77 15 78 16 91 17 79 18 81 19 92 20 80 21 82 22 83 23
REMARK SMILES IDX 90 24 84 25 86 26 85 27 87 28 88 29 89 30 6 31 7 32 8 33
REMARK SMILES IDX 9 34 10 36 11 37 12 38 70 39 13 40 69 41 14 42 15 43 16 44
REMARK SMILES IDX 63 45 17 46 68 47 62 48 64 49 18 50 67 51 61 52 60 53 19 55
REMARK SMILES IDX 49 56 30 57 48 58 31 59 34 60 47 61 65 62 32 63 33 64 46 66
REMARK SMILES IDX 66 67 35 68 20 69 21 70 29 71 22 72 28 73 23 74 24 75 25 76
REMARK SMILES IDX 26 77 27 78 50 79 51 80 59 81 52 82 58 83 53 84 54 85 55 86
REMARK SMILES IDX 56 87 57 88 36 89 37 90 45 91 38 92 44 93 39 94 40 95 41 96
REMARK SMILES IDX 42 97 43 98
REMARK H PARENT 3 6 8 35 64 54 34 65
REMARK Flexibility Score: inf
ROOT
ATOM      1  C   UNL     1       5.013  -2.447   0.113  1.00  0.00     0.023 C 
ENDROOT
BRANCH   1   2
ATOM      2  C   UNL     1       4.663  -1.120  -0.555  1.00  0.00     0.116 C 
BRANCH   2   3
ATOM      3  N   UNL     1       3.228  -0.904  -0.657  1.00  0.00    -0.352 N 
ATOM      4  O   UNL     1       1.237   0.049  -0.141  1.00  0.00    -0.269 OA
ATOM      5  C   UNL     1       2.460   0.066  -0.060  1.00  0.00     0.251 C 
ATOM      6  H   UNL     1       2.741  -1.539  -1.231  1.00  0.00     0.163 HD
BRANCH   5   7
ATOM      7  C   UNL     1       3.127   1.133   0.707  1.00  0.00     0.039 A 
ATOM      8  C   UNL     1       4.059   1.969   0.090  1.00  0.00     0.014 A 
ATOM      9  C   UNL     1       2.831   1.279   2.062  1.00  0.00     0.014 A 
ATOM     10  C   UNL     1       4.768   2.894   0.856  1.00  0.00     0.009 A 
ATOM     11  C   UNL     1       3.541   2.212   2.822  1.00  0.00     0.009 A 
ATOM     12  C   UNL     1       4.542   3.003   2.237  1.00  0.00    -0.025 A 
BRANCH  12  13
ATOM     13  C   UNL     1       5.285   3.947   3.088  1.00  0.00     0.012 C 
ATOM     14  C   UNL     1       6.497   4.445   2.796  1.00  0.00     0.053 C 
BRANCH  14  15
ATOM     15  C   UNL     1       7.171   5.424   3.659  1.00  0.00     0.134 A 
ATOM     16  C   UNL     1       7.380   6.711   3.162  1.00  0.00     0.100 A 
ATOM     17  N   UNL     1       7.601   5.077   4.950  1.00  0.00    -0.228 N 
ATOM     18  C   UNL     1       7.987   7.627   3.984  1.00  0.00     0.259 A 
ATOM     19  C   UNL     1       8.226   6.068   5.711  1.00  0.00     0.333 A 
ATOM     20  O   UNL     1       7.426   3.894   5.409  1.00  0.00    -0.710 OA
ATOM     21  N   UNL     1       8.398   7.342   5.231  1.00  0.00    -0.049 NA
BRANCH  19  22
ATOM     22  C   UNL     1       8.755   5.792   7.049  1.00  0.00     0.076 A 
ATOM     23  C   UNL     1       8.364   6.581   8.147  1.00  0.00     0.017 A 
ATOM     24  C   UNL     1       9.704   4.777   7.264  1.00  0.00     0.102 A 
ATOM     25  C   UNL     1       8.888   6.360   9.425  1.00  0.00     0.008 A 
ATOM     26  C   UNL     1      10.244   4.572   8.542  1.00  0.00     0.270 A 
ATOM     27  C   UNL     1       9.833   5.357   9.627  1.00  0.00     0.085 A 
BRANCH  26  28
ATOM     28  N   UNL     1      11.276   3.547   8.740  1.00  0.00     0.062 N 
ATOM     29  O   UNL     1      11.667   3.340   9.898  1.00  0.00    -0.258 OA
ATOM     30  O   UNL     1      11.717   2.969   7.736  1.00  0.00    -0.258 OA
ENDBRANCH  26  28
ENDBRANCH  19  22
ENDBRANCH  14  15
ENDBRANCH  12  13
ENDBRANCH   5   7
ENDBRANCH   2   3
ENDBRANCH   1   2
BRANCH   1  31
ATOM     31  C   UNL     1       4.546  -3.695  -0.634  1.00  0.00     0.023 C 
BRANCH  31  32
ATOM     32  C   UNL     1       4.946  -3.769  -2.103  1.00  0.00     0.116 C 
BRANCH  32  33
ATOM     33  N   UNL     1       6.386  -3.740  -2.313  1.00  0.00    -0.352 N 
ATOM     34  C   UNL     1       7.149  -4.535  -3.137  1.00  0.00     0.251 C 
ATOM     35  H   UNL     1       6.879  -3.062  -1.797  1.00  0.00     0.163 HD
ATOM     36  O   UNL     1       8.373  -4.446  -3.125  1.00  0.00    -0.269 OA
BRANCH  34  37
ATOM     37  C   UNL     1       6.481  -5.526  -4.007  1.00  0.00     0.039 A 
ATOM     38  C   UNL     1       6.903  -6.858  -3.968  1.00  0.00     0.014 A 
ATOM     39  C   UNL     1       5.406  -5.148  -4.816  1.00  0.00     0.014 A 
ATOM     40  C   UNL     1       6.192  -7.828  -4.680  1.00  0.00     0.010 A 
ATOM     41  C   UNL     1       4.662  -6.124  -5.471  1.00  0.00     0.010 A 
ATOM     42  C   UNL     1       5.042  -7.475  -5.403  1.00  0.00    -0.014 A 
BRANCH  42  43
ATOM     43  C   UNL     1       4.208  -8.489  -6.100  1.00  0.00     0.031 A 
ATOM     44  C   UNL     1       4.061  -8.429  -7.596  1.00  0.00     0.074 A 
ATOM     45  C   UNL     1       3.503  -9.390  -5.385  1.00  0.00     0.049 A 
ATOM     46  N   UNL     1       3.253  -9.103  -8.372  1.00  0.00    -0.248 NA
ATOM     47  C   UNL     1       4.911  -7.461  -8.309  1.00  0.00     0.031 C 
ATOM     48  C   UNL     1       3.530  -9.531  -3.927  1.00  0.00     0.029 A 
ATOM     49  N   UNL     1       2.604 -10.345  -5.792  1.00  0.00    -0.354 N 
ATOM     50  C   UNL     1       3.466  -8.613  -9.655  1.00  0.00     0.074 A 
ATOM     51  C   UNL     1       4.463  -7.570  -9.551  1.00  0.00     0.031 C 
ATOM     52  C   UNL     1       2.692 -10.517  -3.564  1.00  0.00     0.029 A 
ATOM     53  C   UNL     1       2.037 -11.049  -4.754  1.00  0.00     0.049 A 
ATOM     54  H   UNL     1       2.385 -10.511  -6.737  1.00  0.00     0.167 HD
ATOM     55  C   UNL     1       2.890  -9.003 -10.816  1.00  0.00     0.031 A 
ATOM     56  C   UNL     1       1.083 -12.001  -4.758  1.00  0.00     0.031 A 
ATOM     57  C   UNL     1       1.935 -10.071 -10.925  1.00  0.00     0.049 A 
ATOM     58  C   UNL     1       0.481 -12.436  -6.068  1.00  0.00     0.074 A 
ATOM     59  C   UNL     1       1.348 -10.585 -12.069  1.00  0.00     0.029 A 
ATOM     60  N   UNL     1       1.435 -10.797  -9.856  1.00  0.00    -0.354 N 
ATOM     61  N   UNL     1       0.736 -11.995  -7.276  1.00  0.00    -0.248 NA
ATOM     62  C   UNL     1      -0.530 -13.503  -6.016  1.00  0.00     0.031 C 
ATOM     63  C   UNL     1       0.469 -11.603 -11.688  1.00  0.00     0.029 A 
ATOM     64  C   UNL     1       0.541 -11.750 -10.312  1.00  0.00     0.049 A 
ATOM     65  H   UNL     1       1.679 -10.657  -8.913  1.00  0.00     0.167 HD
ATOM     66  C   UNL     1      -0.057 -12.756  -8.129  1.00  0.00     0.074 A 
ATOM     67  C   UNL     1      -0.796 -13.685  -7.302  1.00  0.00     0.031 C 
ATOM     68  C   UNL     1      -0.161 -12.689  -9.478  1.00  0.00     0.031 A 
BRANCH  55  69
ATOM     69  C   UNL     1       3.279  -8.274 -12.073  1.00  0.00    -0.014 A 
ATOM     70  C   UNL     1       4.533  -8.481 -12.672  1.00  0.00     0.010 A 
ATOM     71  C   UNL     1       2.349  -7.425 -12.700  1.00  0.00     0.010 A 
ATOM     72  C   UNL     1       4.861  -7.832 -13.865  1.00  0.00     0.020 A 
ATOM     73  C   UNL     1       2.664  -6.792 -13.905  1.00  0.00     0.020 A 
ATOM     74  C   UNL     1       3.924  -6.991 -14.474  1.00  0.00     0.054 A 
BRANCH  74  75
ATOM     75  S   UNL     1       4.357  -6.199 -16.047  1.00  0.00     0.124 S 
ATOM     76  O   UNL     1       5.267  -5.143 -15.611  1.00  0.00    -0.237 OA
ATOM     77  O   UNL     1       4.974  -7.290 -16.797  1.00  0.00    -0.237 OA
ATOM     78  O   UNL     1       3.072  -5.738 -16.568  1.00  0.00    -0.744 OA
ENDBRANCH  74  75
ENDBRANCH  55  69
BRANCH  56  79
ATOM     79  C   UNL     1       0.625 -12.614  -3.481  1.00  0.00    -0.014 A 
ATOM     80  C   UNL     1       0.960 -13.944  -3.171  1.00  0.00     0.010 A 
ATOM     81  C   UNL     1      -0.170 -11.882  -2.582  1.00  0.00     0.010 A 
ATOM     82  C   UNL     1       0.478 -14.543  -2.004  1.00  0.00     0.020 A 
ATOM     83  C   UNL     1      -0.633 -12.469  -1.401  1.00  0.00     0.020 A 
ATOM     84  C   UNL     1      -0.322 -13.803  -1.129  1.00  0.00     0.054 A 
BRANCH  84  85
ATOM     85  S   UNL     1      -0.927 -14.590   0.390  1.00  0.00     0.124 S 
ATOM     86  O   UNL     1      -2.039 -15.393  -0.110  1.00  0.00    -0.237 OA
ATOM     87  O   UNL     1       0.240 -15.340   0.848  1.00  0.00    -0.237 OA
ATOM     88  O   UNL     1      -1.300 -13.457   1.234  1.00  0.00    -0.744 OA
ENDBRANCH  84  85
ENDBRANCH  56  79
BRANCH  68  89
ATOM     89  C   UNL     1      -1.056 -13.685 -10.162  1.00  0.00    -0.014 A 
ATOM     90  C   UNL     1      -2.453 -13.540 -10.146  1.00  0.00     0.010 A 
ATOM     91  C   UNL     1      -0.478 -14.730 -10.906  1.00  0.00     0.010 A 
ATOM     92  C   UNL     1      -3.260 -14.434 -10.855  1.00  0.00     0.020 A 
ATOM     93  C   UNL     1      -1.281 -15.612 -11.633  1.00  0.00     0.020 A 
ATOM     94  C   UNL     1      -2.669 -15.462 -11.597  1.00  0.00     0.054 A 
BRANCH  94  95
ATOM     95  S   UNL     1      -3.731 -16.564 -12.571  1.00  0.00     0.124 S 
ATOM     96  O   UNL     1      -4.279 -17.444 -11.543  1.00  0.00    -0.237 OA
ATOM     97  O   UNL     1      -4.684 -15.638 -13.180  1.00  0.00    -0.237 OA
ATOM     98  O   UNL     1      -2.805 -17.198 -13.507  1.00  0.00    -0.744 OA
ENDBRANCH  94  95
ENDBRANCH  68  89
ENDBRANCH  42  43
ENDBRANCH  34  37
ENDBRANCH  32  33
ENDBRANCH  31  32
ENDBRANCH   1  31
TORSDOF 18
