REMARK SMILES O=C(NCCCCNC(=O)[C@H]1CC1(c1ccccc1)c1ccccc1)c1ccc(-c2c3nc(c(-c4ccc(S(=O)(=O)[O-])cc4)c4ccc([nH]4)c(-c4ccc(S(=O)(=O)[O-])cc4)c4nc(c(-c5ccc(S(=O)(=O)[O-])cc5)c5ccc2[nH]5)C=C4)C=C3)cc1
REMARK SMILES IDX 4 1 3 2 1 3 2 4 26 6 27 7 85 8 28 9 84 10 29 11 30 12 31 13
REMARK SMILES IDX 78 14 32 15 83 16 77 17 79 18 33 19 82 20 76 21 75 22 34 24
REMARK SMILES IDX 64 25 45 26 63 27 46 28 49 29 62 30 80 31 47 32 48 33 61 35
REMARK SMILES IDX 81 36 50 37 35 38 36 39 44 40 37 41 43 42 38 43 39 44 40 45
REMARK SMILES IDX 41 46 42 47 65 48 66 49 74 50 67 51 73 52 68 53 69 54 70 55
REMARK SMILES IDX 71 56 72 57 51 58 52 59 60 60 53 61 59 62 54 63 55 64 56 65
REMARK SMILES IDX 57 66 58 67 5 68 6 69 7 70 8 71 9 72 10 74 11 75 12 76 13 77
REMARK SMILES IDX 14 78 15 79 19 80 16 81 18 82 17 83 20 84 21 85 25 86 22 87
REMARK SMILES IDX 24 88 23 89
REMARK H PARENT 3 5 79 23 49 34 8 73
REMARK Flexibility Score: inf
ROOT
ATOM      1  C   UNL     1       3.634   6.725   4.911  1.00  0.00     0.116 C 
ENDROOT
BRANCH   1   2
ATOM      2  N   UNL     1       3.348   8.093   5.324  1.00  0.00    -0.352 N 
ATOM      3  O   UNL     1       2.609   9.769   6.638  1.00  0.00    -0.269 OA
ATOM      4  C   UNL     1       2.891   8.578   6.527  1.00  0.00     0.251 C 
ATOM      5  H   UNL     1       3.506   8.777   4.634  1.00  0.00     0.163 HD
BRANCH   4   6
ATOM      6  C   UNL     1       2.704   7.663   7.675  1.00  0.00     0.039 A 
ATOM      7  C   UNL     1       3.696   6.746   8.024  1.00  0.00     0.014 A 
ATOM      8  C   UNL     1       1.513   7.714   8.405  1.00  0.00     0.014 A 
ATOM      9  C   UNL     1       3.428   5.769   8.977  1.00  0.00     0.010 A 
ATOM     10  C   UNL     1       1.281   6.786   9.427  1.00  0.00     0.010 A 
ATOM     11  C   UNL     1       2.218   5.776   9.691  1.00  0.00    -0.014 A 
BRANCH  11  12
ATOM     12  C   UNL     1       1.979   4.739  10.730  1.00  0.00     0.031 A 
ATOM     13  C   UNL     1       0.875   3.724  10.583  1.00  0.00     0.074 A 
ATOM     14  C   UNL     1       2.801   4.688  11.797  1.00  0.00     0.049 A 
ATOM     15  N   UNL     1       0.557   2.735  11.381  1.00  0.00    -0.248 NA
ATOM     16  C   UNL     1       0.012   3.834   9.396  1.00  0.00     0.031 C 
ATOM     17  C   UNL     1       3.905   5.616  12.054  1.00  0.00     0.029 A 
ATOM     18  N   UNL     1       2.854   3.810  12.849  1.00  0.00    -0.354 N 
ATOM     19  C   UNL     1      -0.550   2.119  10.808  1.00  0.00     0.074 A 
ATOM     20  C   UNL     1      -0.863   2.858   9.603  1.00  0.00     0.031 C 
ATOM     21  C   UNL     1       4.559   5.227  13.159  1.00  0.00     0.029 A 
ATOM     22  C   UNL     1       3.885   4.063  13.723  1.00  0.00     0.049 A 
ATOM     23  H   UNL     1       2.216   3.070  12.967  1.00  0.00     0.167 HD
ATOM     24  C   UNL     1      -1.241   1.037  11.244  1.00  0.00     0.031 A 
ATOM     25  C   UNL     1       4.246   3.440  14.860  1.00  0.00     0.031 A 
ATOM     26  C   UNL     1      -0.922   0.298  12.439  1.00  0.00     0.049 A 
ATOM     27  C   UNL     1       3.456   2.254  15.328  1.00  0.00     0.074 A 
ATOM     28  C   UNL     1      -1.548  -0.828  12.947  1.00  0.00     0.029 A 
ATOM     29  N   UNL     1       0.108   0.609  13.313  1.00  0.00    -0.354 N 
ATOM     30  N   UNL     1       2.424   1.679  14.759  1.00  0.00    -0.248 NA
ATOM     31  C   UNL     1       3.878   1.635  16.591  1.00  0.00     0.031 C 
ATOM     32  C   UNL     1      -0.923  -1.172  14.150  1.00  0.00     0.029 A 
ATOM     33  C   UNL     1       0.123  -0.289  14.367  1.00  0.00     0.049 A 
ATOM     34  H   UNL     1       0.737   1.359  13.201  1.00  0.00     0.167 HD
ATOM     35  C   UNL     1       2.077   0.623  15.591  1.00  0.00     0.074 A 
ATOM     36  C   UNL     1       3.023   0.625  16.689  1.00  0.00     0.031 C 
ATOM     37  C   UNL     1       1.064  -0.268  15.458  1.00  0.00     0.031 A 
BRANCH  24  38
ATOM     38  C   UNL     1      -2.434   0.596  10.436  1.00  0.00    -0.014 A 
ATOM     39  C   UNL     1      -2.277  -0.061   9.203  1.00  0.00     0.010 A 
ATOM     40  C   UNL     1      -3.731   0.791  10.947  1.00  0.00     0.010 A 
ATOM     41  C   UNL     1      -3.397  -0.482   8.478  1.00  0.00     0.020 A 
ATOM     42  C   UNL     1      -4.852   0.352  10.236  1.00  0.00     0.020 A 
ATOM     43  C   UNL     1      -4.678  -0.268   8.997  1.00  0.00     0.054 A 
BRANCH  43  44
ATOM     44  S   UNL     1      -6.113  -0.841   8.046  1.00  0.00     0.124 S 
ATOM     45  O   UNL     1      -6.188   0.158   6.984  1.00  0.00    -0.237 OA
ATOM     46  O   UNL     1      -5.706  -2.179   7.622  1.00  0.00    -0.237 OA
ATOM     47  O   UNL     1      -7.207  -0.804   9.014  1.00  0.00    -0.744 OA
ENDBRANCH  43  44
ENDBRANCH  24  38
BRANCH  25  48
ATOM     48  C   UNL     1       5.408   3.949  15.636  1.00  0.00    -0.014 A 
ATOM     49  C   UNL     1       6.615   3.231  15.673  1.00  0.00     0.010 A 
ATOM     50  C   UNL     1       5.322   5.183  16.307  1.00  0.00     0.010 A 
ATOM     51  C   UNL     1       7.715   3.736  16.372  1.00  0.00     0.020 A 
ATOM     52  C   UNL     1       6.426   5.703  16.984  1.00  0.00     0.020 A 
ATOM     53  C   UNL     1       7.614   4.970  17.021  1.00  0.00     0.054 A 
BRANCH  53  54
ATOM     54  S   UNL     1       9.073   5.644  17.863  1.00  0.00     0.124 S 
ATOM     55  O   UNL     1       9.086   4.878  19.105  1.00  0.00    -0.237 OA
ATOM     56  O   UNL     1      10.150   5.345  16.923  1.00  0.00    -0.237 OA
ATOM     57  O   UNL     1       8.758   7.064  18.004  1.00  0.00    -0.744 OA
ENDBRANCH  53  54
ENDBRANCH  25  48
BRANCH  37  58
ATOM     58  C   UNL     1       0.938  -1.325  16.520  1.00  0.00    -0.014 A 
ATOM     59  C   UNL     1       0.437  -1.013  17.796  1.00  0.00     0.010 A 
ATOM     60  C   UNL     1       1.292  -2.653  16.225  1.00  0.00     0.010 A 
ATOM     61  C   UNL     1       0.322  -2.007  18.770  1.00  0.00     0.020 A 
ATOM     62  C   UNL     1       1.158  -3.654  17.190  1.00  0.00     0.020 A 
ATOM     63  C   UNL     1       0.687  -3.322  18.462  1.00  0.00     0.054 A 
BRANCH  63  64
ATOM     64  S   UNL     1       0.497  -4.604  19.731  1.00  0.00     0.124 S 
ATOM     65  O   UNL     1       1.645  -4.347  20.596  1.00  0.00    -0.237 OA
ATOM     66  O   UNL     1      -0.808  -4.295  20.310  1.00  0.00    -0.237 OA
ATOM     67  O   UNL     1       0.555  -5.851  18.972  1.00  0.00    -0.744 OA
ENDBRANCH  63  64
ENDBRANCH  37  58
ENDBRANCH  11  12
ENDBRANCH   4   6
ENDBRANCH   1   2
BRANCH   1  68
ATOM     68  C   UNL     1       2.702   6.213   3.816  1.00  0.00     0.023 C 
BRANCH  68  69
ATOM     69  C   UNL     1       2.704   7.007   2.509  1.00  0.00     0.023 C 
BRANCH  69  70
ATOM     70  C   UNL     1       4.080   7.288   1.920  1.00  0.00     0.116 C 
BRANCH  70  71
ATOM     71  N   UNL     1       4.801   6.120   1.504  1.00  0.00    -0.356 N 
ATOM     72  C   UNL     1       6.002   6.005   0.866  1.00  0.00     0.224 C 
ATOM     73  H   UNL     1       4.360   5.264   1.712  1.00  0.00     0.163 HD
ATOM     74  O   UNL     1       6.399   4.858   0.655  1.00  0.00    -0.275 OA
BRANCH  72  75
ATOM     75  C   UNL     1       6.850   7.115   0.344  1.00  0.00     0.095 C 
ATOM     76  C   UNL     1       6.264   7.817  -0.858  1.00  0.00     0.032 C 
ATOM     77  C   UNL     1       6.897   8.643   0.257  1.00  0.00     0.033 C 
BRANCH  77  78
ATOM     78  C   UNL     1       5.973   9.623   0.992  1.00  0.00    -0.037 A 
ATOM     79  C   UNL     1       5.135  10.502   0.279  1.00  0.00     0.004 A 
ATOM     80  C   UNL     1       6.007   9.782   2.392  1.00  0.00     0.004 A 
ATOM     81  C   UNL     1       4.351  11.461   0.928  1.00  0.00     0.000 A 
ATOM     82  C   UNL     1       5.225  10.737   3.049  1.00  0.00     0.000 A 
ATOM     83  C   UNL     1       4.395  11.576   2.314  1.00  0.00     0.000 A 
ENDBRANCH  77  78
BRANCH  77  84
ATOM     84  C   UNL     1       8.329   9.254   0.002  1.00  0.00    -0.037 A 
ATOM     85  C   UNL     1       9.028   9.925   1.029  1.00  0.00     0.004 A 
ATOM     86  C   UNL     1       8.986   9.199  -1.243  1.00  0.00     0.004 A 
ATOM     87  C   UNL     1      10.266  10.541   0.823  1.00  0.00     0.000 A 
ATOM     88  C   UNL     1      10.239   9.790  -1.452  1.00  0.00     0.000 A 
ATOM     89  C   UNL     1      10.873  10.473  -0.422  1.00  0.00     0.000 A 
ENDBRANCH  77  84
ENDBRANCH  72  75
ENDBRANCH  70  71
ENDBRANCH  69  70
ENDBRANCH  68  69
ENDBRANCH   1  68
TORSDOF 16
