REMARK SMILES NS(=O)(=O)c1ccc(-n2nc(C(=O)NCCCCNC(=O)c3ccc(-c4c5nc(c(-c6ccc(S(=O)(=O)[O-])cc6)c6ccc([nH]6)c(-c6ccc(S(=O)(=O)[O-])cc6)c6nc(c(-c7ccc(S(=O)(=O)[O-])cc7)c7ccc4[nH]7)C=C6)C=C5)cc3)c(Cl)c2-c2ccc(Cl)cc2)cc1
REMARK SMILES IDX 16 1 15 2 14 3 12 4 13 5 11 7 9 8 10 9 84 10 82 11 83 12
REMARK SMILES IDX 8 13 5 14 6 15 93 16 7 17 92 18 2 19 3 20 4 21 1 22 85 25
REMARK SMILES IDX 86 26 91 27 87 28 90 29 88 30 89 31 17 32 18 33 19 34 20 35
REMARK SMILES IDX 21 37 22 38 23 39 81 40 24 41 80 42 25 43 26 44 27 45 74 46
REMARK SMILES IDX 28 47 79 48 73 49 75 50 29 51 78 52 72 53 71 54 30 56 60 57
REMARK SMILES IDX 41 58 59 59 42 60 45 61 58 62 76 63 43 64 44 65 57 67 77 68
REMARK SMILES IDX 46 69 31 70 32 71 40 72 33 73 39 74 34 75 35 76 36 77 37 78
REMARK SMILES IDX 38 79 61 80 62 81 70 82 63 83 69 84 64 85 65 86 66 87 67 88
REMARK SMILES IDX 68 89 47 90 48 91 56 92 49 93 55 94 50 95 51 96 52 97 53 98
REMARK SMILES IDX 54 99
REMARK H PARENT 14 6 1 23 1 24 19 36 75 55 45 66
REMARK Flexibility Score: inf
ROOT
ATOM      1  C   UNL     1       1.336   9.796   8.159  1.00  0.00     0.023 C 
ENDROOT
BRANCH   1   2
ATOM      2  C   UNL     1       2.196   9.949   6.889  1.00  0.00     0.116 C 
BRANCH   2   3
ATOM      3  N   UNL     1       3.256   8.952   6.837  1.00  0.00    -0.351 N 
ATOM      4  C   UNL     1       3.387   7.721   6.220  1.00  0.00     0.273 C 
ATOM      5  O   UNL     1       4.463   7.150   6.421  1.00  0.00    -0.267 OA
ATOM      6  H   UNL     1       4.053   9.211   7.354  1.00  0.00     0.163 HD
BRANCH   4   7
ATOM      7  C   UNL     1       2.361   7.136   5.324  1.00  0.00     0.169 A 
ATOM      8  N   UNL     1       1.631   6.026   3.619  1.00  0.00    -0.231 N 
ATOM      9  N   UNL     1       2.732   6.237   4.375  1.00  0.00    -0.160 NA
ATOM     10  C   UNL     1       0.545   6.735   4.079  1.00  0.00     0.094 A 
ATOM     11  C   UNL     1       0.952   7.238   5.298  1.00  0.00     0.100 A 
ATOM     12  Cl  UNL     1      -0.156   7.748   6.478  1.00  0.00    -0.079 Cl
BRANCH   8  13
ATOM     13  C   UNL     1       1.586   5.026   2.618  1.00  0.00     0.065 A 
ATOM     14  C   UNL     1       1.048   3.003   0.788  1.00  0.00     0.082 A 
ATOM     15  C   UNL     1       1.556   2.674   2.051  1.00  0.00     0.024 A 
ATOM     16  C   UNL     1       0.855   4.340   0.422  1.00  0.00     0.024 A 
ATOM     17  C   UNL     1       1.852   3.693   2.965  1.00  0.00     0.030 A 
ATOM     18  C   UNL     1       1.102   5.353   1.347  1.00  0.00     0.030 A 
BRANCH  14  19
ATOM     19  S   UNL     1       0.614   1.765  -0.396  1.00  0.00     0.238 S 
ATOM     20  O   UNL     1       1.240   2.080  -1.655  1.00  0.00    -0.207 OA
ATOM     21  O   UNL     1      -0.805   1.501  -0.275  1.00  0.00    -0.207 OA
BRANCH  19  22
ATOM     22  N   UNL     1       1.374   0.363   0.133  1.00  0.00    -0.225 NA
ATOM     23  H   UNL     1       1.165  -0.401  -0.510  1.00  0.00     0.137 HD
ATOM     24  H   UNL     1       1.036   0.124   1.066  1.00  0.00     0.137 HD
ENDBRANCH  19  22
ENDBRANCH  14  19
ENDBRANCH   8  13
BRANCH  10  25
ATOM     25  C   UNL     1      -0.824   6.715   3.583  1.00  0.00     0.002 A 
ATOM     26  C   UNL     1      -1.331   7.873   2.978  1.00  0.00     0.012 A 
ATOM     27  C   UNL     1      -1.694   5.690   3.973  1.00  0.00     0.012 A 
ATOM     28  C   UNL     1      -2.707   8.032   2.820  1.00  0.00     0.021 A 
ATOM     29  C   UNL     1      -3.070   5.854   3.817  1.00  0.00     0.021 A 
ATOM     30  C   UNL     1      -3.571   7.031   3.262  1.00  0.00     0.041 A 
ATOM     31  Cl  UNL     1      -5.271   7.274   3.175  1.00  0.00    -0.084 Cl
ENDBRANCH  10  25
ENDBRANCH   4   7
ENDBRANCH   2   3
ENDBRANCH   1   2
BRANCH   1  32
ATOM     32  C   UNL     1       1.776  10.533   9.426  1.00  0.00     0.023 C 
BRANCH  32  33
ATOM     33  C   UNL     1       1.545  12.036   9.399  1.00  0.00     0.116 C 
BRANCH  33  34
ATOM     34  N   UNL     1       0.128  12.428   9.290  1.00  0.00    -0.352 N 
ATOM     35  C   UNL     1      -0.386  13.693   9.020  1.00  0.00     0.251 C 
ATOM     36  H   UNL     1      -0.533  11.711   9.425  1.00  0.00     0.163 HD
ATOM     37  O   UNL     1      -1.527  14.007   9.331  1.00  0.00    -0.269 OA
BRANCH  35  38
ATOM     38  C   UNL     1       0.489  14.633   8.301  1.00  0.00     0.039 A 
ATOM     39  C   UNL     1       0.653  15.979   8.645  1.00  0.00     0.014 A 
ATOM     40  C   UNL     1       1.261  14.047   7.311  1.00  0.00     0.014 A 
ATOM     41  C   UNL     1       1.673  16.699   8.019  1.00  0.00     0.010 A 
ATOM     42  C   UNL     1       2.426  14.651   6.963  1.00  0.00     0.010 A 
ATOM     43  C   UNL     1       2.563  16.011   7.184  1.00  0.00    -0.014 A 
BRANCH  43  44
ATOM     44  C   UNL     1       3.699  16.626   6.520  1.00  0.00     0.031 A 
ATOM     45  C   UNL     1       4.701  17.241   7.422  1.00  0.00     0.074 A 
ATOM     46  C   UNL     1       3.966  16.374   5.217  1.00  0.00     0.049 A 
ATOM     47  N   UNL     1       4.937  18.498   7.587  1.00  0.00    -0.248 NA
ATOM     48  C   UNL     1       5.430  16.370   8.359  1.00  0.00     0.031 C 
ATOM     49  C   UNL     1       3.267  15.472   4.284  1.00  0.00     0.029 A 
ATOM     50  N   UNL     1       5.033  16.767   4.483  1.00  0.00    -0.354 N 
ATOM     51  C   UNL     1       6.008  18.572   8.470  1.00  0.00     0.074 A 
ATOM     52  C   UNL     1       6.119  17.266   9.070  1.00  0.00     0.031 C 
ATOM     53  C   UNL     1       4.071  15.191   3.234  1.00  0.00     0.029 A 
ATOM     54  C   UNL     1       5.246  16.035   3.321  1.00  0.00     0.049 A 
ATOM     55  H   UNL     1       5.614  17.515   4.752  1.00  0.00     0.167 HD
ATOM     56  C   UNL     1       6.882  19.617   8.443  1.00  0.00     0.031 A 
ATOM     57  C   UNL     1       6.338  16.095   2.517  1.00  0.00     0.031 A 
ATOM     58  C   UNL     1       6.404  20.686   7.600  1.00  0.00     0.049 A 
ATOM     59  C   UNL     1       6.992  17.401   2.803  1.00  0.00     0.074 A 
ATOM     60  C   UNL     1       5.263  21.465   7.580  1.00  0.00     0.029 A 
ATOM     61  N   UNL     1       6.936  20.770   6.331  1.00  0.00    -0.354 N 
ATOM     62  N   UNL     1       6.414  18.551   2.575  1.00  0.00    -0.248 NA
ATOM     63  C   UNL     1       8.044  17.425   3.809  1.00  0.00     0.031 C 
ATOM     64  C   UNL     1       4.898  21.535   6.202  1.00  0.00     0.029 A 
ATOM     65  C   UNL     1       5.882  20.880   5.457  1.00  0.00     0.049 A 
ATOM     66  H   UNL     1       7.892  20.755   6.095  1.00  0.00     0.167 HD
ATOM     67  C   UNL     1       6.710  19.330   3.687  1.00  0.00     0.074 A 
ATOM     68  C   UNL     1       7.786  18.610   4.373  1.00  0.00     0.031 C 
ATOM     69  C   UNL     1       5.870  20.322   4.117  1.00  0.00     0.031 A 
BRANCH  56  70
ATOM     70  C   UNL     1       8.331  19.518   8.847  1.00  0.00    -0.014 A 
ATOM     71  C   UNL     1       9.106  20.694   8.884  1.00  0.00     0.010 A 
ATOM     72  C   UNL     1       9.022  18.292   8.935  1.00  0.00     0.010 A 
ATOM     73  C   UNL     1      10.505  20.641   8.938  1.00  0.00     0.020 A 
ATOM     74  C   UNL     1      10.413  18.228   9.036  1.00  0.00     0.020 A 
ATOM     75  C   UNL     1      11.148  19.405   9.001  1.00  0.00     0.054 A 
BRANCH  75  76
ATOM     76  S   UNL     1      12.955  19.344   8.961  1.00  0.00     0.124 S 
ATOM     77  O   UNL     1      13.242  19.846   7.620  1.00  0.00    -0.237 OA
ATOM     78  O   UNL     1      13.318  20.232  10.062  1.00  0.00    -0.237 OA
ATOM     79  O   UNL     1      13.255  17.931   9.180  1.00  0.00    -0.744 OA
ENDBRANCH  75  76
ENDBRANCH  56  70
BRANCH  57  80
ATOM     80  C   UNL     1       7.019  14.945   1.862  1.00  0.00    -0.014 A 
ATOM     81  C   UNL     1       8.021  15.133   0.891  1.00  0.00     0.010 A 
ATOM     82  C   UNL     1       6.865  13.643   2.389  1.00  0.00     0.010 A 
ATOM     83  C   UNL     1       8.868  14.074   0.506  1.00  0.00     0.020 A 
ATOM     84  C   UNL     1       7.699  12.585   2.007  1.00  0.00     0.020 A 
ATOM     85  C   UNL     1       8.713  12.810   1.082  1.00  0.00     0.054 A 
BRANCH  85  86
ATOM     86  S   UNL     1       9.913  11.492   0.712  1.00  0.00     0.124 S 
ATOM     87  O   UNL     1       9.600  11.168  -0.676  1.00  0.00    -0.237 OA
ATOM     88  O   UNL     1      11.193  12.158   0.934  1.00  0.00    -0.237 OA
ATOM     89  O   UNL     1       9.585  10.448   1.682  1.00  0.00    -0.744 OA
ENDBRANCH  85  86
ENDBRANCH  57  80
BRANCH  69  90
ATOM     90  C   UNL     1       4.692  20.718   3.247  1.00  0.00    -0.014 A 
ATOM     91  C   UNL     1       3.637  19.846   2.906  1.00  0.00     0.010 A 
ATOM     92  C   UNL     1       4.555  22.079   2.923  1.00  0.00     0.010 A 
ATOM     93  C   UNL     1       2.490  20.321   2.248  1.00  0.00     0.020 A 
ATOM     94  C   UNL     1       3.410  22.562   2.283  1.00  0.00     0.020 A 
ATOM     95  C   UNL     1       2.384  21.681   1.941  1.00  0.00     0.054 A 
BRANCH  95  96
ATOM     96  S   UNL     1       0.881  22.305   1.135  1.00  0.00     0.124 S 
ATOM     97  O   UNL     1       0.957  21.700  -0.191  1.00  0.00    -0.237 OA
ATOM     98  O   UNL     1      -0.185  21.799   1.997  1.00  0.00    -0.237 OA
ATOM     99  O   UNL     1       1.048  23.758   1.162  1.00  0.00    -0.744 OA
ENDBRANCH  95  96
ENDBRANCH  69  90
ENDBRANCH  43  44
ENDBRANCH  35  38
ENDBRANCH  33  34
ENDBRANCH  32  33
ENDBRANCH   1  32
TORSDOF 18
