REMARK SMILES CC(=O)N[C@@H](Cc1cc(Br)c(O)c(Br)c1)C(=O)NCCCCNC(=O)c1ccc(-c2c3nc(c(-c4ccc(S(=O)(=O)[O-])cc4)c4ccc([nH]4)c(-c4ccc(S(=O)(=O)[O-])cc4)c4nc(c(-c5ccc(S(=O)(=O)[O-])cc5)c5ccc2[nH]5)C=C4)C=C3)cc1
REMARK SMILES IDX 20 1 19 2 18 3 16 4 17 5 5 7 4 8 1 9 2 10 3 11 6 13 7 14
REMARK SMILES IDX 8 15 15 16 9 17 13 18 10 19 11 20 14 21 12 22 21 24 22 25
REMARK SMILES IDX 23 26 24 27 25 29 26 30 27 31 85 32 28 33 84 34 29 35 30 36
REMARK SMILES IDX 31 37 78 38 32 39 83 40 77 41 79 42 33 43 82 44 76 45 75 46
REMARK SMILES IDX 34 48 64 49 45 50 63 51 46 52 49 53 62 54 80 55 47 56 48 57
REMARK SMILES IDX 61 59 81 60 50 61 35 62 36 63 44 64 37 65 43 66 38 67 39 68
REMARK SMILES IDX 40 69 41 70 42 71 65 72 66 73 74 74 67 75 73 76 68 77 69 78
REMARK SMILES IDX 70 79 71 80 72 81 51 82 52 83 60 84 53 85 59 86 54 87 55 88
REMARK SMILES IDX 56 89 57 90 58 91
REMARK H PARENT 18 6 4 12 12 23 23 28 79 47 49 58
REMARK Flexibility Score: inf
ROOT
ATOM      1  C   UNL     1      -1.368   4.016  -3.971  1.00  0.00     0.023 C 
ENDROOT
BRANCH   1   2
ATOM      2  C   UNL     1       0.059   4.000  -3.449  1.00  0.00     0.116 C 
BRANCH   2   3
ATOM      3  N   UNL     1       0.190   4.240  -2.028  1.00  0.00    -0.354 N 
ATOM      4  C   UNL     1       1.085   3.731  -1.132  1.00  0.00     0.242 C 
ATOM      5  O   UNL     1       1.249   4.369  -0.085  1.00  0.00    -0.273 OA
ATOM      6  H   UNL     1      -0.469   4.866  -1.650  1.00  0.00     0.163 HD
BRANCH   4   7
ATOM      7  C   UNL     1       1.967   2.485  -1.405  1.00  0.00     0.175 C 
BRANCH   7   8
ATOM      8  N   UNL     1       1.258   1.349  -2.000  1.00  0.00    -0.344 N 
ATOM      9  C   UNL     1       1.094   0.005   0.066  1.00  0.00     0.114 C 
ATOM     10  C   UNL     1       0.773   0.235  -1.384  1.00  0.00     0.217 C 
ATOM     11  O   UNL     1       0.115  -0.569  -2.040  1.00  0.00    -0.275 OA
ATOM     12  H   UNL     1       1.112   1.397  -2.973  1.00  0.00     0.164 HD
ENDBRANCH   7   8
BRANCH   7  13
ATOM     13  C   UNL     1       3.316   2.796  -2.093  1.00  0.00     0.070 C 
BRANCH  13  14
ATOM     14  C   UNL     1       3.270   3.391  -3.481  1.00  0.00    -0.043 A 
ATOM     15  C   UNL     1       2.968   2.604  -4.602  1.00  0.00     0.023 A 
ATOM     16  C   UNL     1       3.494   4.765  -3.659  1.00  0.00     0.023 A 
ATOM     17  C   UNL     1       2.801   3.200  -5.859  1.00  0.00     0.061 A 
ATOM     18  C   UNL     1       3.354   5.352  -4.922  1.00  0.00     0.061 A 
ATOM     19  Br  UNL     1       2.261   2.112  -7.313  1.00  0.00    -0.047 Br
ATOM     20  C   UNL     1       2.981   4.575  -6.020  1.00  0.00     0.143 A 
ATOM     21  Br  UNL     1       3.604   7.226  -5.072  1.00  0.00    -0.047 Br
BRANCH  20  22
ATOM     22  O   UNL     1       2.775   5.186  -7.226  1.00  0.00    -0.506 OA
ATOM     23  H   UNL     1       2.525   4.678  -7.972  1.00  0.00     0.293 HD
ENDBRANCH  20  22
ENDBRANCH  13  14
ENDBRANCH   7  13
ENDBRANCH   4   7
ENDBRANCH   2   3
ENDBRANCH   1   2
BRANCH   1  24
ATOM     24  C   UNL     1      -2.009   5.397  -4.092  1.00  0.00     0.023 C 
BRANCH  24  25
ATOM     25  C   UNL     1      -1.198   6.465  -4.824  1.00  0.00     0.116 C 
BRANCH  25  26
ATOM     26  N   UNL     1      -0.718   6.056  -6.137  1.00  0.00    -0.352 N 
ATOM     27  C   UNL     1      -0.721   6.757  -7.323  1.00  0.00     0.251 C 
ATOM     28  H   UNL     1      -0.336   5.150  -6.184  1.00  0.00     0.163 HD
ATOM     29  O   UNL     1      -0.319   6.220  -8.351  1.00  0.00    -0.269 OA
BRANCH  27  30
ATOM     30  C   UNL     1      -1.271   8.132  -7.353  1.00  0.00     0.039 A 
ATOM     31  C   UNL     1      -2.264   8.440  -8.286  1.00  0.00     0.014 A 
ATOM     32  C   UNL     1      -0.867   9.086  -6.416  1.00  0.00     0.014 A 
ATOM     33  C   UNL     1      -2.929   9.668  -8.209  1.00  0.00     0.010 A 
ATOM     34  C   UNL     1      -1.576  10.280  -6.298  1.00  0.00     0.010 A 
ATOM     35  C   UNL     1      -2.630  10.574  -7.177  1.00  0.00    -0.014 A 
BRANCH  35  36
ATOM     36  C   UNL     1      -3.443  11.802  -6.968  1.00  0.00     0.031 A 
ATOM     37  C   UNL     1      -2.820  13.165  -7.096  1.00  0.00     0.074 A 
ATOM     38  C   UNL     1      -4.729  11.689  -6.574  1.00  0.00     0.049 A 
ATOM     39  N   UNL     1      -3.356  14.339  -6.879  1.00  0.00    -0.248 NA
ATOM     40  C   UNL     1      -1.405  13.215  -7.494  1.00  0.00     0.031 C 
ATOM     41  C   UNL     1      -5.442  10.428  -6.354  1.00  0.00     0.029 A 
ATOM     42  N   UNL     1      -5.663  12.651  -6.276  1.00  0.00    -0.354 N 
ATOM     43  C   UNL     1      -2.342  15.265  -7.091  1.00  0.00     0.074 A 
ATOM     44  C   UNL     1      -1.148  14.513  -7.417  1.00  0.00     0.031 C 
ATOM     45  C   UNL     1      -6.704  10.694  -5.980  1.00  0.00     0.029 A 
ATOM     46  C   UNL     1      -6.883  12.140  -5.899  1.00  0.00     0.049 A 
ATOM     47  H   UNL     1      -5.476  13.616  -6.328  1.00  0.00     0.167 HD
ATOM     48  C   UNL     1      -2.399  16.617  -7.035  1.00  0.00     0.031 A 
ATOM     49  C   UNL     1      -8.019  12.761  -5.525  1.00  0.00     0.031 A 
ATOM     50  C   UNL     1      -3.587  17.369  -6.731  1.00  0.00     0.049 A 
ATOM     51  C   UNL     1      -8.065  14.263  -5.494  1.00  0.00     0.074 A 
ATOM     52  C   UNL     1      -3.756  18.743  -6.717  1.00  0.00     0.029 A 
ATOM     53  N   UNL     1      -4.810  16.813  -6.388  1.00  0.00    -0.354 N 
ATOM     54  N   UNL     1      -7.111  15.120  -5.766  1.00  0.00    -0.248 NA
ATOM     55  C   UNL     1      -9.345  14.880  -5.117  1.00  0.00     0.031 C 
ATOM     56  C   UNL     1      -5.072  19.019  -6.331  1.00  0.00     0.029 A 
ATOM     57  C   UNL     1      -5.734  17.815  -6.146  1.00  0.00     0.049 A 
ATOM     58  H   UNL     1      -4.994  15.848  -6.327  1.00  0.00     0.167 HD
ATOM     59  C   UNL     1      -7.681  16.379  -5.614  1.00  0.00     0.074 A 
ATOM     60  C   UNL     1      -9.065  16.171  -5.239  1.00  0.00     0.031 C 
ATOM     61  C   UNL     1      -7.108  17.597  -5.772  1.00  0.00     0.031 A 
BRANCH  48  62
ATOM     62  C   UNL     1      -1.127  17.373  -7.312  1.00  0.00    -0.014 A 
ATOM     63  C   UNL     1      -0.603  17.453  -8.615  1.00  0.00     0.010 A 
ATOM     64  C   UNL     1      -0.465  18.037  -6.264  1.00  0.00     0.010 A 
ATOM     65  C   UNL     1       0.586  18.144  -8.857  1.00  0.00     0.020 A 
ATOM     66  C   UNL     1       0.713  18.751  -6.507  1.00  0.00     0.020 A 
ATOM     67  C   UNL     1       1.241  18.783  -7.800  1.00  0.00     0.054 A 
BRANCH  67  68
ATOM     68  S   UNL     1       2.777  19.686  -8.142  1.00  0.00     0.124 S 
ATOM     69  O   UNL     1       3.742  18.596  -8.267  1.00  0.00    -0.237 OA
ATOM     70  O   UNL     1       2.466  20.394  -9.381  1.00  0.00    -0.237 OA
ATOM     71  O   UNL     1       2.946  20.537  -6.967  1.00  0.00    -0.744 OA
ENDBRANCH  67  68
ENDBRANCH  48  62
BRANCH  49  72
ATOM     72  C   UNL     1      -9.220  11.958  -5.170  1.00  0.00    -0.014 A 
ATOM     73  C   UNL     1     -10.309  11.881  -6.056  1.00  0.00     0.010 A 
ATOM     74  C   UNL     1      -9.273  11.253  -3.954  1.00  0.00     0.010 A 
ATOM     75  C   UNL     1     -11.437  11.125  -5.726  1.00  0.00     0.020 A 
ATOM     76  C   UNL     1     -10.391  10.478  -3.631  1.00  0.00     0.020 A 
ATOM     77  C   UNL     1     -11.471  10.428  -4.515  1.00  0.00     0.054 A 
BRANCH  77  78
ATOM     78  S   UNL     1     -12.919   9.403  -4.132  1.00  0.00     0.124 S 
ATOM     79  O   UNL     1     -13.893  10.402  -3.704  1.00  0.00    -0.237 OA
ATOM     80  O   UNL     1     -13.197   8.753  -5.411  1.00  0.00    -0.237 OA
ATOM     81  O   UNL     1     -12.433   8.509  -3.083  1.00  0.00    -0.744 OA
ENDBRANCH  77  78
ENDBRANCH  49  72
BRANCH  61  82
ATOM     82  C   UNL     1      -7.981  18.803  -5.568  1.00  0.00    -0.014 A 
ATOM     83  C   UNL     1      -8.357  19.217  -4.278  1.00  0.00     0.010 A 
ATOM     84  C   UNL     1      -8.390  19.562  -6.679  1.00  0.00     0.010 A 
ATOM     85  C   UNL     1      -9.149  20.355  -4.104  1.00  0.00     0.020 A 
ATOM     86  C   UNL     1      -9.164  20.712  -6.508  1.00  0.00     0.020 A 
ATOM     87  C   UNL     1      -9.550  21.095  -5.222  1.00  0.00     0.054 A 
BRANCH  87  88
ATOM     88  S   UNL     1     -10.539  22.595  -4.972  1.00  0.00     0.124 S 
ATOM     89  O   UNL     1     -11.867  22.043  -4.718  1.00  0.00    -0.237 OA
ATOM     90  O   UNL     1      -9.890  23.224  -3.824  1.00  0.00    -0.237 OA
ATOM     91  O   UNL     1     -10.394  23.317  -6.234  1.00  0.00    -0.744 OA
ENDBRANCH  87  88
ENDBRANCH  61  82
ENDBRANCH  35  36
ENDBRANCH  27  30
ENDBRANCH  25  26
ENDBRANCH  24  25
ENDBRANCH   1  24
TORSDOF 18
