REMARK SMILES C[C@H](Nc1cccc(F)c1C(=O)NCCCCNC(=O)c1ccc(-c2c3nc(c(-c4ccc(S(=O)(=O)[O-])cc4)c4ccc([nH]4)c(-c4ccc(S(=O)(=O)[O-])cc4)c4nc(c(-c5ccc(S(=O)(=O)[O-])cc5)c5ccc2[nH]5)C=C4)C=C3)cc1)c1cccc(Cl)c1
REMARK SMILES IDX 15 1 14 2 13 3 11 4 12 5 10 7 4 8 5 9 6 10 8 11 7 12 9 13
REMARK SMILES IDX 3 14 2 16 1 17 81 18 82 19 87 20 83 21 85 22 84 23 86 24
REMARK SMILES IDX 16 25 17 26 18 27 19 28 20 30 21 31 22 32 80 33 23 34 79 35
REMARK SMILES IDX 24 36 25 37 26 38 73 39 27 40 78 41 72 42 74 43 28 44 77 45
REMARK SMILES IDX 71 46 70 47 29 49 59 50 40 51 58 52 41 53 44 54 57 55 75 56
REMARK SMILES IDX 42 57 43 58 56 60 76 61 45 62 30 63 31 64 39 65 32 66 38 67
REMARK SMILES IDX 33 68 34 69 35 70 36 71 37 72 60 73 61 74 69 75 62 76 68 77
REMARK SMILES IDX 63 78 64 79 65 80 66 81 67 82 46 83 47 84 55 85 48 86 54 87
REMARK SMILES IDX 49 88 50 89 51 90 52 91 53 92
REMARK H PARENT 13 6 3 15 18 29 74 48 44 59
REMARK Flexibility Score: inf
ROOT
ATOM      1  C   UNL     1       2.984   3.241   4.986  1.00  0.00     0.023 C 
ENDROOT
BRANCH   1   2
ATOM      2  C   UNL     1       3.010   1.782   4.544  1.00  0.00     0.116 C 
BRANCH   2   3
ATOM      3  N   UNL     1       1.767   1.305   3.965  1.00  0.00    -0.352 N 
ATOM      4  C   UNL     1       1.515   0.485   2.888  1.00  0.00     0.256 C 
ATOM      5  O   UNL     1       0.333   0.213   2.661  1.00  0.00    -0.269 OA
ATOM      6  H   UNL     1       0.958   1.627   4.425  1.00  0.00     0.163 HD
BRANCH   4   7
ATOM      7  C   UNL     1       2.571   0.009   1.945  1.00  0.00     0.098 A 
ATOM      8  C   UNL     1       2.266  -0.142   0.565  1.00  0.00     0.050 A 
ATOM      9  C   UNL     1       3.315  -0.398  -0.337  1.00  0.00     0.027 A 
ATOM     10  C   UNL     1       4.612  -0.637   0.115  1.00  0.00     0.005 A 
ATOM     11  C   UNL     1       3.844  -0.359   2.381  1.00  0.00     0.138 A 
ATOM     12  C   UNL     1       4.864  -0.664   1.481  1.00  0.00     0.040 A 
ATOM     13  F   UNL     1       4.120  -0.497   3.686  1.00  0.00    -0.206 F 
BRANCH   8  14
ATOM     14  N   UNL     1       0.937  -0.183   0.116  1.00  0.00    -0.378 N 
ATOM     15  H   UNL     1       0.333   0.562   0.339  1.00  0.00     0.161 HD
BRANCH  14  16
ATOM     16  C   UNL     1       0.419  -1.313  -0.682  1.00  0.00     0.106 C 
ATOM     17  C   UNL     1       0.957  -2.650  -0.128  1.00  0.00     0.036 C 
BRANCH  16  18
ATOM     18  C   UNL     1      -1.119  -1.264  -0.704  1.00  0.00    -0.025 A 
ATOM     19  C   UNL     1      -1.796  -0.029  -0.731  1.00  0.00     0.006 A 
ATOM     20  C   UNL     1      -1.910  -2.429  -0.721  1.00  0.00     0.026 A 
ATOM     21  C   UNL     1      -3.194   0.039  -0.697  1.00  0.00     0.002 A 
ATOM     22  C   UNL     1      -3.306  -2.358  -0.699  1.00  0.00     0.041 A 
ATOM     23  C   UNL     1      -3.951  -1.128  -0.673  1.00  0.00     0.020 A 
ATOM     24  Cl  UNL     1      -4.231  -3.811  -0.703  1.00  0.00    -0.084 Cl
ENDBRANCH  16  18
ENDBRANCH  14  16
ENDBRANCH   8  14
ENDBRANCH   4   7
ENDBRANCH   2   3
ENDBRANCH   1   2
BRANCH   1  25
ATOM     25  C   UNL     1       1.929   3.636   6.015  1.00  0.00     0.023 C 
BRANCH  25  26
ATOM     26  C   UNL     1       1.840   2.772   7.268  1.00  0.00     0.116 C 
BRANCH  26  27
ATOM     27  N   UNL     1       3.090   2.670   8.005  1.00  0.00    -0.352 N 
ATOM     28  C   UNL     1       3.362   2.921   9.332  1.00  0.00     0.251 C 
ATOM     29  H   UNL     1       3.863   2.376   7.472  1.00  0.00     0.163 HD
ATOM     30  O   UNL     1       4.516   2.843   9.738  1.00  0.00    -0.269 OA
BRANCH  28  31
ATOM     31  C   UNL     1       2.278   3.325  10.257  1.00  0.00     0.039 A 
ATOM     32  C   UNL     1       2.501   4.399  11.125  1.00  0.00     0.014 A 
ATOM     33  C   UNL     1       1.046   2.667  10.267  1.00  0.00     0.014 A 
ATOM     34  C   UNL     1       1.461   4.869  11.932  1.00  0.00     0.010 A 
ATOM     35  C   UNL     1      -0.012   3.187  11.011  1.00  0.00     0.010 A 
ATOM     36  C   UNL     1       0.181   4.298  11.846  1.00  0.00    -0.014 A 
BRANCH  36  37
ATOM     37  C   UNL     1      -0.969   4.853  12.607  1.00  0.00     0.031 A 
ATOM     38  C   UNL     1      -1.665   4.018  13.648  1.00  0.00     0.074 A 
ATOM     39  C   UNL     1      -1.433   6.084  12.315  1.00  0.00     0.049 A 
ATOM     40  N   UNL     1      -2.721   4.305  14.366  1.00  0.00    -0.248 NA
ATOM     41  C   UNL     1      -1.119   2.674  13.893  1.00  0.00     0.031 C 
ATOM     42  C   UNL     1      -0.875   6.984  11.303  1.00  0.00     0.029 A 
ATOM     43  N   UNL     1      -2.486   6.792  12.841  1.00  0.00    -0.354 N 
ATOM     44  C   UNL     1      -2.976   3.173  15.132  1.00  0.00     0.074 A 
ATOM     45  C   UNL     1      -1.997   2.178  14.752  1.00  0.00     0.031 C 
ATOM     46  C   UNL     1      -1.565   8.136  11.309  1.00  0.00     0.029 A 
ATOM     47  C   UNL     1      -2.639   8.044  12.292  1.00  0.00     0.049 A 
ATOM     48  H   UNL     1      -3.076   6.437  13.544  1.00  0.00     0.167 HD
ATOM     49  C   UNL     1      -3.924   2.983  16.083  1.00  0.00     0.031 A 
ATOM     50  C   UNL     1      -3.541   9.011  12.551  1.00  0.00     0.031 A 
ATOM     51  C   UNL     1      -4.893   3.974  16.466  1.00  0.00     0.049 A 
ATOM     52  C   UNL     1      -4.591   8.776  13.600  1.00  0.00     0.074 A 
ATOM     53  C   UNL     1      -5.866   3.894  17.448  1.00  0.00     0.029 A 
ATOM     54  N   UNL     1      -5.013   5.228  15.886  1.00  0.00    -0.354 N 
ATOM     55  N   UNL     1      -4.785   7.716  14.349  1.00  0.00    -0.248 NA
ATOM     56  C   UNL     1      -5.539   9.872  13.845  1.00  0.00     0.031 C 
ATOM     57  C   UNL     1      -6.600   5.086  17.433  1.00  0.00     0.029 A 
ATOM     58  C   UNL     1      -6.053   5.926  16.477  1.00  0.00     0.049 A 
ATOM     59  H   UNL     1      -4.443   5.572  15.161  1.00  0.00     0.167 HD
ATOM     60  C   UNL     1      -5.859   8.029  15.175  1.00  0.00     0.074 A 
ATOM     61  C   UNL     1      -6.267   9.378  14.839  1.00  0.00     0.031 C 
ATOM     62  C   UNL     1      -6.450   7.268  16.129  1.00  0.00     0.031 A 
BRANCH  49  63
ATOM     63  C   UNL     1      -3.950   1.639  16.762  1.00  0.00    -0.014 A 
ATOM     64  C   UNL     1      -2.918   1.249  17.636  1.00  0.00     0.010 A 
ATOM     65  C   UNL     1      -5.011   0.749  16.518  1.00  0.00     0.010 A 
ATOM     66  C   UNL     1      -2.912  -0.029  18.200  1.00  0.00     0.020 A 
ATOM     67  C   UNL     1      -5.025  -0.520  17.105  1.00  0.00     0.020 A 
ATOM     68  C   UNL     1      -3.960  -0.910  17.920  1.00  0.00     0.054 A 
BRANCH  68  69
ATOM     69  S   UNL     1      -3.918  -2.572  18.646  1.00  0.00     0.124 S 
ATOM     70  O   UNL     1      -2.924  -3.240  17.809  1.00  0.00    -0.237 OA
ATOM     71  O   UNL     1      -3.506  -2.313  20.024  1.00  0.00    -0.237 OA
ATOM     72  O   UNL     1      -5.289  -3.053  18.490  1.00  0.00    -0.744 OA
ENDBRANCH  68  69
ENDBRANCH  49  63
BRANCH  50  73
ATOM     73  C   UNL     1      -3.458  10.310  11.830  1.00  0.00    -0.014 A 
ATOM     74  C   UNL     1      -2.996  11.457  12.498  1.00  0.00     0.010 A 
ATOM     75  C   UNL     1      -3.807  10.403  10.471  1.00  0.00     0.010 A 
ATOM     76  C   UNL     1      -2.890  12.677  11.823  1.00  0.00     0.020 A 
ATOM     77  C   UNL     1      -3.680  11.616   9.786  1.00  0.00     0.020 A 
ATOM     78  C   UNL     1      -3.229  12.747  10.469  1.00  0.00     0.054 A 
BRANCH  78  79
ATOM     79  S   UNL     1      -3.014  14.323   9.596  1.00  0.00     0.124 S 
ATOM     80  O   UNL     1      -4.135  15.107  10.103  1.00  0.00    -0.237 OA
ATOM     81  O   UNL     1      -1.690  14.752  10.039  1.00  0.00    -0.237 OA
ATOM     82  O   UNL     1      -3.098  13.946   8.186  1.00  0.00    -0.744 OA
ENDBRANCH  78  79
ENDBRANCH  50  73
BRANCH  62  83
ATOM     83  C   UNL     1      -7.582   7.888  16.904  1.00  0.00    -0.014 A 
ATOM     84  C   UNL     1      -8.848   8.075  16.322  1.00  0.00     0.010 A 
ATOM     85  C   UNL     1      -7.385   8.244  18.251  1.00  0.00     0.010 A 
ATOM     86  C   UNL     1      -9.890   8.636  17.066  1.00  0.00     0.020 A 
ATOM     87  C   UNL     1      -8.431   8.781  19.005  1.00  0.00     0.020 A 
ATOM     88  C   UNL     1      -9.674   8.987  18.403  1.00  0.00     0.054 A 
BRANCH  88  89
ATOM     89  S   UNL     1     -11.053   9.672  19.361  1.00  0.00     0.124 S 
ATOM     90  O   UNL     1     -11.128  11.038  18.851  1.00  0.00    -0.237 OA
ATOM     91  O   UNL     1     -12.167   8.801  18.992  1.00  0.00    -0.237 OA
ATOM     92  O   UNL     1     -10.607   9.548  20.747  1.00  0.00    -0.744 OA
ENDBRANCH  88  89
ENDBRANCH  62  83
ENDBRANCH  36  37
ENDBRANCH  28  31
ENDBRANCH  26  27
ENDBRANCH  25  26
ENDBRANCH   1  25
TORSDOF 17
