REMARK SMILES CC1=NN(c2ccc(Cl)cc2)C(=O)/C1=C/c1ccccc1OCC(=O)NCCCCNC(=O)c1ccc(-c2c3nc(c(-c4ccc(S(=O)(=O)[O-])cc4)c4ccc([nH]4)c(-c4ccc(S(=O)(=O)[O-])cc4)c4nc(c(-c5ccc(S(=O)(=O)[O-])cc5)c5ccc2[nH]5)C=C4)C=C3)cc1
REMARK SMILES IDX 28 1 27 2 26 3 24 4 25 5 23 7 22 8 21 9 16 10 17 11 18 12
REMARK SMILES IDX 20 13 19 14 15 15 1 16 2 17 3 18 14 19 4 20 12 21 13 22 5 23
REMARK SMILES IDX 6 24 11 25 7 26 10 27 8 28 9 29 29 30 30 31 31 32 32 33
REMARK SMILES IDX 33 35 34 36 35 37 93 38 36 39 92 40 37 41 38 42 39 43 86 44
REMARK SMILES IDX 40 45 91 46 85 47 87 48 41 49 90 50 84 51 83 52 42 54 72 55
REMARK SMILES IDX 53 56 71 57 54 58 57 59 70 60 88 61 55 62 56 63 69 65 89 66
REMARK SMILES IDX 58 67 43 68 44 69 52 70 45 71 51 72 46 73 47 74 48 75 49 76
REMARK SMILES IDX 50 77 73 78 74 79 82 80 75 81 81 82 76 83 77 84 78 85 79 86
REMARK SMILES IDX 80 87 59 88 60 89 68 90 61 91 67 92 62 93 63 94 64 95 65 96
REMARK SMILES IDX 66 97
REMARK H PARENT 26 6 31 34 87 53 57 64
REMARK Flexibility Score: inf
ROOT
ATOM      1  C   UNL     1      -4.682  -0.263  -1.137  1.00  0.00     0.023 C 
ENDROOT
BRANCH   1   2
ATOM      2  C   UNL     1      -3.712   0.385  -2.121  1.00  0.00     0.116 C 
BRANCH   2   3
ATOM      3  N   UNL     1      -2.399   0.691  -1.591  1.00  0.00    -0.353 N 
ATOM      4  C   UNL     1      -1.210   0.163  -2.011  1.00  0.00     0.257 C 
ATOM      5  O   UNL     1      -0.195   0.854  -1.910  1.00  0.00    -0.271 OA
ATOM      6  H   UNL     1      -2.359   1.344  -0.856  1.00  0.00     0.163 HD
BRANCH   4   7
ATOM      7  C   UNL     1      -1.142  -1.236  -2.630  1.00  0.00     0.329 C 
BRANCH   7   8
ATOM      8  O   UNL     1      -2.082  -2.186  -2.180  1.00  0.00    -0.483 OA
BRANCH   8   9
ATOM      9  C   UNL     1      -1.871  -3.027  -1.126  1.00  0.00     0.127 A 
ATOM     10  C   UNL     1      -0.863  -3.047  -0.146  1.00  0.00     0.017 A 
ATOM     11  C   UNL     1      -0.915  -4.026   0.868  1.00  0.00     0.012 A 
ATOM     12  C   UNL     1      -1.942  -4.969   0.915  1.00  0.00     0.001 A 
ATOM     13  C   UNL     1      -2.893  -3.991  -1.061  1.00  0.00     0.047 A 
ATOM     14  C   UNL     1      -2.932  -4.955  -0.056  1.00  0.00     0.004 A 
BRANCH  10  15
ATOM     15  C   UNL     1       0.283  -2.140  -0.084  1.00  0.00     0.027 C 
ATOM     16  C   UNL     1      -1.902  -0.704   1.865  1.00  0.00     0.069 C 
ATOM     17  C   UNL     1      -0.614  -0.174   1.338  1.00  0.00     0.071 C 
ATOM     18  N   UNL     1      -0.209   1.055   1.528  1.00  0.00    -0.169 NA
ATOM     19  C   UNL     1       0.339  -0.957   0.539  1.00  0.00     0.066 C 
ATOM     20  N   UNL     1       1.015   1.164   0.863  1.00  0.00    -0.196 N 
ATOM     21  C   UNL     1       1.485  -0.041   0.317  1.00  0.00     0.280 C 
ATOM     22  O   UNL     1       2.525  -0.339  -0.237  1.00  0.00    -0.267 OA
BRANCH  20  23
ATOM     23  C   UNL     1       1.556   2.453   0.643  1.00  0.00     0.069 A 
ATOM     24  C   UNL     1       2.466   2.684  -0.399  1.00  0.00     0.030 A 
ATOM     25  C   UNL     1       1.139   3.545   1.418  1.00  0.00     0.030 A 
ATOM     26  C   UNL     1       2.949   3.970  -0.662  1.00  0.00     0.023 A 
ATOM     27  C   UNL     1       1.640   4.830   1.173  1.00  0.00     0.023 A 
ATOM     28  C   UNL     1       2.540   5.036   0.131  1.00  0.00     0.041 A 
ATOM     29  Cl  UNL     1       3.146   6.615  -0.186  1.00  0.00    -0.084 Cl
ENDBRANCH  20  23
ENDBRANCH  10  15
ENDBRANCH   8   9
ENDBRANCH   7   8
ENDBRANCH   4   7
ENDBRANCH   2   3
ENDBRANCH   1   2
BRANCH   1  30
ATOM     30  C   UNL     1      -5.028   0.511   0.137  1.00  0.00     0.023 C 
BRANCH  30  31
ATOM     31  C   UNL     1      -5.278   2.007   0.005  1.00  0.00     0.116 C 
BRANCH  31  32
ATOM     32  N   UNL     1      -6.388   2.317  -0.875  1.00  0.00    -0.352 N 
ATOM     33  C   UNL     1      -7.498   3.097  -0.656  1.00  0.00     0.251 C 
ATOM     34  H   UNL     1      -6.339   1.905  -1.768  1.00  0.00     0.163 HD
ATOM     35  O   UNL     1      -8.393   3.100  -1.498  1.00  0.00    -0.269 OA
BRANCH  33  36
ATOM     36  C   UNL     1      -7.644   3.909   0.578  1.00  0.00     0.039 A 
ATOM     37  C   UNL     1      -8.909   3.994   1.169  1.00  0.00     0.014 A 
ATOM     38  C   UNL     1      -6.577   4.625   1.129  1.00  0.00     0.014 A 
ATOM     39  C   UNL     1      -9.094   4.760   2.325  1.00  0.00     0.010 A 
ATOM     40  C   UNL     1      -6.747   5.330   2.324  1.00  0.00     0.010 A 
ATOM     41  C   UNL     1      -8.010   5.418   2.929  1.00  0.00    -0.014 A 
BRANCH  41  42
ATOM     42  C   UNL     1      -8.196   6.206   4.179  1.00  0.00     0.031 A 
ATOM     43  C   UNL     1      -7.960   7.696   4.187  1.00  0.00     0.074 A 
ATOM     44  C   UNL     1      -8.545   5.577   5.320  1.00  0.00     0.049 A 
ATOM     45  N   UNL     1      -8.066   8.542   5.181  1.00  0.00    -0.248 NA
ATOM     46  C   UNL     1      -7.526   8.315   2.923  1.00  0.00     0.031 C 
ATOM     47  C   UNL     1      -8.757   4.134   5.463  1.00  0.00     0.029 A 
ATOM     48  N   UNL     1      -8.780   6.069   6.581  1.00  0.00    -0.354 N 
ATOM     49  C   UNL     1      -7.689   9.780   4.672  1.00  0.00     0.074 A 
ATOM     50  C   UNL     1      -7.318   9.572   3.290  1.00  0.00     0.031 C 
ATOM     51  C   UNL     1      -9.114   3.862   6.729  1.00  0.00     0.029 A 
ATOM     52  C   UNL     1      -9.123   5.102   7.499  1.00  0.00     0.049 A 
ATOM     53  H   UNL     1      -8.710   7.024   6.808  1.00  0.00     0.167 HD
ATOM     54  C   UNL     1      -7.668  10.984   5.293  1.00  0.00     0.031 A 
ATOM     55  C   UNL     1      -9.408   5.199   8.812  1.00  0.00     0.031 A 
ATOM     56  C   UNL     1      -8.069  11.197   6.660  1.00  0.00     0.049 A 
ATOM     57  C   UNL     1      -9.403   6.555   9.468  1.00  0.00     0.074 A 
ATOM     58  C   UNL     1      -8.162  12.394   7.350  1.00  0.00     0.029 A 
ATOM     59  N   UNL     1      -8.439  10.197   7.544  1.00  0.00    -0.354 N 
ATOM     60  N   UNL     1      -9.133   7.725   8.940  1.00  0.00    -0.248 NA
ATOM     61  C   UNL     1      -9.764   6.604  10.892  1.00  0.00     0.031 C 
ATOM     62  C   UNL     1      -8.533  12.112   8.668  1.00  0.00     0.029 A 
ATOM     63  C   UNL     1      -8.736  10.747   8.780  1.00  0.00     0.049 A 
ATOM     64  H   UNL     1      -8.485   9.238   7.326  1.00  0.00     0.167 HD
ATOM     65  C   UNL     1      -9.329   8.652   9.959  1.00  0.00     0.074 A 
ATOM     66  C   UNL     1      -9.757   7.909  11.125  1.00  0.00     0.031 C 
ATOM     67  C   UNL     1      -9.170   9.999   9.931  1.00  0.00     0.031 A 
BRANCH  54  68
ATOM     68  C   UNL     1      -7.191  12.181   4.510  1.00  0.00    -0.014 A 
ATOM     69  C   UNL     1      -7.972  12.741   3.483  1.00  0.00     0.010 A 
ATOM     70  C   UNL     1      -5.986  12.810   4.872  1.00  0.00     0.010 A 
ATOM     71  C   UNL     1      -7.547  13.897   2.821  1.00  0.00     0.020 A 
ATOM     72  C   UNL     1      -5.570  13.981   4.232  1.00  0.00     0.020 A 
ATOM     73  C   UNL     1      -6.351  14.513   3.204  1.00  0.00     0.054 A 
BRANCH  73  74
ATOM     74  S   UNL     1      -5.859  16.049   2.374  1.00  0.00     0.124 S 
ATOM     75  O   UNL     1      -5.465  15.566   1.053  1.00  0.00    -0.237 OA
ATOM     76  O   UNL     1      -7.087  16.840   2.413  1.00  0.00    -0.237 OA
ATOM     77  O   UNL     1      -4.768  16.558   3.201  1.00  0.00    -0.744 OA
ENDBRANCH  73  74
ENDBRANCH  54  68
BRANCH  55  78
ATOM     78  C   UNL     1      -9.729   3.979   9.607  1.00  0.00    -0.014 A 
ATOM     79  C   UNL     1     -11.020   3.777  10.129  1.00  0.00     0.010 A 
ATOM     80  C   UNL     1      -8.729   3.027   9.877  1.00  0.00     0.010 A 
ATOM     81  C   UNL     1     -11.291   2.673  10.944  1.00  0.00     0.020 A 
ATOM     82  C   UNL     1      -9.005   1.905  10.663  1.00  0.00     0.020 A 
ATOM     83  C   UNL     1     -10.280   1.747  11.210  1.00  0.00     0.054 A 
BRANCH  83  84
ATOM     84  S   UNL     1     -10.653   0.317  12.263  1.00  0.00     0.124 S 
ATOM     85  O   UNL     1     -10.698   0.923  13.590  1.00  0.00    -0.237 OA
ATOM     86  O   UNL     1     -11.933  -0.142  11.732  1.00  0.00    -0.237 OA
ATOM     87  O   UNL     1      -9.528  -0.585  12.023  1.00  0.00    -0.744 OA
ENDBRANCH  83  84
ENDBRANCH  55  78
BRANCH  67  88
ATOM     88  C   UNL     1      -9.518  10.762  11.183  1.00  0.00    -0.014 A 
ATOM     89  C   UNL     1      -8.733  10.670  12.346  1.00  0.00     0.010 A 
ATOM     90  C   UNL     1     -10.644  11.606  11.182  1.00  0.00     0.010 A 
ATOM     91  C   UNL     1      -9.101  11.363  13.503  1.00  0.00     0.020 A 
ATOM     92  C   UNL     1     -10.996  12.326  12.326  1.00  0.00     0.020 A 
ATOM     93  C   UNL     1     -10.235  12.181  13.487  1.00  0.00     0.054 A 
BRANCH  93  94
ATOM     94  S   UNL     1     -10.691  13.074  14.998  1.00  0.00     0.124 S 
ATOM     95  O   UNL     1     -11.247  12.006  15.825  1.00  0.00    -0.237 OA
ATOM     96  O   UNL     1      -9.413  13.618  15.449  1.00  0.00    -0.237 OA
ATOM     97  O   UNL     1     -11.656  14.069  14.535  1.00  0.00    -0.744 OA
ENDBRANCH  93  94
ENDBRANCH  67  88
ENDBRANCH  41  42
ENDBRANCH  33  36
ENDBRANCH  31  32
ENDBRANCH  30  31
ENDBRANCH   1  30
TORSDOF 18
