REMARK SMILES O=C(NCCCCNC(=O)[C@]1(CCc2cccnc2)C[C@H]2CC[C@@H]1O2)c1ccc(-c2c3nc(c(-c4ccc(S(=O)(=O)[O-])cc4)c4ccc([nH]4)c(-c4ccc(S(=O)(=O)[O-])cc4)c4nc(c(-c5ccc(S(=O)(=O)[O-])cc5)c5ccc2[nH]5)C=C4)C=C3)cc1
REMARK SMILES IDX 5 1 4 2 3 3 1 4 2 5 26 7 27 8 85 9 28 10 84 11 29 12 30 13
REMARK SMILES IDX 31 14 78 15 32 16 83 17 77 18 79 19 33 20 82 21 76 22 75 23
REMARK SMILES IDX 34 25 64 26 45 27 63 28 46 29 49 30 62 31 80 32 47 33 48 34
REMARK SMILES IDX 61 36 81 37 50 38 35 39 36 40 44 41 37 42 43 43 38 44 39 45
REMARK SMILES IDX 40 46 41 47 42 48 65 49 66 50 74 51 67 52 73 53 68 54 69 55
REMARK SMILES IDX 70 56 71 57 72 58 51 59 52 60 60 61 53 62 59 63 54 64 55 65
REMARK SMILES IDX 56 66 57 67 58 68 6 69 7 70 8 71 9 72 10 74 11 75 20 76
REMARK SMILES IDX 24 77 21 78 23 79 25 80 22 81 12 82 13 83 14 84 15 85 19 86
REMARK SMILES IDX 16 87 18 88 17 89
REMARK H PARENT 3 6 79 24 49 35 8 73
REMARK Flexibility Score: inf
ROOT
ATOM      1  C   UNL     1       3.597   1.902  -2.253  1.00  0.00     0.023 C 
ENDROOT
BRANCH   1   2
ATOM      2  C   UNL     1       3.638   1.643  -0.755  1.00  0.00     0.116 C 
BRANCH   2   3
ATOM      3  N   UNL     1       2.323   1.311  -0.224  1.00  0.00    -0.352 N 
ATOM      4  O   UNL     1       0.708   0.052   0.690  1.00  0.00    -0.269 OA
ATOM      5  C   UNL     1       1.916   0.243   0.549  1.00  0.00     0.251 C 
ATOM      6  H   UNL     1       1.611   1.951  -0.452  1.00  0.00     0.163 HD
BRANCH   5   7
ATOM      7  C   UNL     1       2.885  -0.669   1.221  1.00  0.00     0.039 A 
ATOM      8  C   UNL     1       4.130  -0.223   1.662  1.00  0.00     0.014 A 
ATOM      9  C   UNL     1       2.497  -1.987   1.516  1.00  0.00     0.014 A 
ATOM     10  C   UNL     1       5.011  -1.095   2.297  1.00  0.00     0.010 A 
ATOM     11  C   UNL     1       3.345  -2.837   2.246  1.00  0.00     0.010 A 
ATOM     12  C   UNL     1       4.612  -2.396   2.647  1.00  0.00    -0.014 A 
BRANCH  12  13
ATOM     13  C   UNL     1       5.487  -3.185   3.559  1.00  0.00     0.031 A 
ATOM     14  C   UNL     1       6.131  -4.476   3.136  1.00  0.00     0.074 A 
ATOM     15  C   UNL     1       5.736  -2.681   4.787  1.00  0.00     0.049 A 
ATOM     16  N   UNL     1       6.976  -5.224   3.801  1.00  0.00    -0.248 NA
ATOM     17  C   UNL     1       5.784  -5.000   1.807  1.00  0.00     0.031 C 
ATOM     18  C   UNL     1       5.139  -1.454   5.329  1.00  0.00     0.029 A 
ATOM     19  N   UNL     1       6.576  -3.103   5.787  1.00  0.00    -0.354 N 
ATOM     20  C   UNL     1       7.257  -6.311   2.981  1.00  0.00     0.074 A 
ATOM     21  C   UNL     1       6.469  -6.137   1.777  1.00  0.00     0.031 C 
ATOM     22  C   UNL     1       5.684  -1.186   6.523  1.00  0.00     0.029 A 
ATOM     23  C   UNL     1       6.613  -2.254   6.869  1.00  0.00     0.049 A 
ATOM     24  H   UNL     1       7.101  -3.934   5.735  1.00  0.00     0.167 HD
ATOM     25  C   UNL     1       8.097  -7.351   3.208  1.00  0.00     0.031 A 
ATOM     26  C   UNL     1       7.304  -2.323   8.022  1.00  0.00     0.031 A 
ATOM     27  C   UNL     1       8.870  -7.524   4.414  1.00  0.00     0.049 A 
ATOM     28  C   UNL     1       8.227  -3.485   8.244  1.00  0.00     0.074 A 
ATOM     29  C   UNL     1       9.749  -8.545   4.735  1.00  0.00     0.029 A 
ATOM     30  N   UNL     1       8.860  -6.657   5.496  1.00  0.00    -0.354 N 
ATOM     31  N   UNL     1       8.488  -4.490   7.443  1.00  0.00    -0.248 NA
ATOM     32  C   UNL     1       8.947  -3.523   9.523  1.00  0.00     0.031 C 
ATOM     33  C   UNL     1      10.239  -8.316   6.026  1.00  0.00     0.029 A 
ATOM     34  C   UNL     1       9.707  -7.124   6.489  1.00  0.00     0.049 A 
ATOM     35  H   UNL     1       8.328  -5.830   5.552  1.00  0.00     0.167 HD
ATOM     36  C   UNL     1       9.404  -5.282   8.122  1.00  0.00     0.074 A 
ATOM     37  C   UNL     1       9.681  -4.617   9.380  1.00  0.00     0.031 C 
ATOM     38  C   UNL     1       9.957  -6.461   7.744  1.00  0.00     0.031 A 
BRANCH  25  39
ATOM     39  C   UNL     1       8.221  -8.401   2.132  1.00  0.00    -0.014 A 
ATOM     40  C   UNL     1       8.907  -8.133   0.934  1.00  0.00     0.010 A 
ATOM     41  C   UNL     1       7.704  -9.692   2.347  1.00  0.00     0.010 A 
ATOM     42  C   UNL     1       9.050  -9.126  -0.040  1.00  0.00     0.020 A 
ATOM     43  C   UNL     1       7.865 -10.696   1.385  1.00  0.00     0.020 A 
ATOM     44  C   UNL     1       8.527 -10.402   0.191  1.00  0.00     0.054 A 
BRANCH  44  45
ATOM     45  S   UNL     1       8.756 -11.682  -1.075  1.00  0.00     0.124 S 
ATOM     46  O   UNL     1       7.828 -11.248  -2.115  1.00  0.00    -0.237 OA
ATOM     47  O   UNL     1      10.175 -11.553  -1.407  1.00  0.00    -0.237 OA
ATOM     48  O   UNL     1       8.391 -12.918  -0.390  1.00  0.00    -0.744 OA
ENDBRANCH  44  45
ENDBRANCH  25  39
BRANCH  26  49
ATOM     49  C   UNL     1       7.119  -1.274   9.062  1.00  0.00    -0.014 A 
ATOM     50  C   UNL     1       8.151  -0.376   9.379  1.00  0.00     0.010 A 
ATOM     51  C   UNL     1       5.886  -1.162   9.732  1.00  0.00     0.010 A 
ATOM     52  C   UNL     1       7.961   0.603  10.361  1.00  0.00     0.020 A 
ATOM     53  C   UNL     1       5.680  -0.166  10.688  1.00  0.00     0.020 A 
ATOM     54  C   UNL     1       6.725   0.701  11.008  1.00  0.00     0.054 A 
BRANCH  54  55
ATOM     55  S   UNL     1       6.478   2.007  12.243  1.00  0.00     0.124 S 
ATOM     56  O   UNL     1       7.184   1.465  13.400  1.00  0.00    -0.237 OA
ATOM     57  O   UNL     1       7.098   3.167  11.608  1.00  0.00    -0.237 OA
ATOM     58  O   UNL     1       5.024   2.082  12.372  1.00  0.00    -0.744 OA
ENDBRANCH  54  55
ENDBRANCH  26  49
BRANCH  38  59
ATOM     59  C   UNL     1      10.926  -7.093   8.707  1.00  0.00    -0.014 A 
ATOM     60  C   UNL     1      10.480  -7.672   9.909  1.00  0.00     0.010 A 
ATOM     61  C   UNL     1      12.300  -7.109   8.405  1.00  0.00     0.010 A 
ATOM     62  C   UNL     1      11.396  -8.210  10.816  1.00  0.00     0.020 A 
ATOM     63  C   UNL     1      13.216  -7.671   9.297  1.00  0.00     0.020 A 
ATOM     64  C   UNL     1      12.760  -8.199  10.507  1.00  0.00     0.054 A 
BRANCH  64  65
ATOM     65  S   UNL     1      13.931  -8.907  11.697  1.00  0.00     0.124 S 
ATOM     66  O   UNL     1      13.991  -7.866  12.719  1.00  0.00    -0.237 OA
ATOM     67  O   UNL     1      13.272 -10.147  12.099  1.00  0.00    -0.237 OA
ATOM     68  O   UNL     1      15.153  -9.084  10.915  1.00  0.00    -0.744 OA
ENDBRANCH  64  65
ENDBRANCH  38  59
ENDBRANCH  12  13
ENDBRANCH   5   7
ENDBRANCH   2   3
ENDBRANCH   1   2
BRANCH   1  69
ATOM     69  C   UNL     1       3.331   3.332  -2.718  1.00  0.00     0.023 C 
BRANCH  69  70
ATOM     70  C   UNL     1       4.393   4.461  -2.566  1.00  0.00     0.116 C 
BRANCH  70  71
ATOM     71  N   UNL     1       5.833   4.255  -2.782  1.00  0.00    -0.356 N 
ATOM     72  C   UNL     1       6.751   4.307  -3.805  1.00  0.00     0.228 C 
ATOM     73  H   UNL     1       6.274   4.003  -1.938  1.00  0.00     0.163 HD
ATOM     74  O   UNL     1       7.933   4.340  -3.444  1.00  0.00    -0.274 OA
BRANCH  72  75
ATOM     75  C   UNL     1       6.397   4.316  -5.296  1.00  0.00     0.078 C 
ATOM     76  C   UNL     1       7.527   3.914  -6.289  1.00  0.00     0.051 C 
ATOM     77  C   UNL     1       6.281   5.838  -5.623  1.00  0.00     0.134 C 
ATOM     78  C   UNL     1       7.729   5.188  -7.107  1.00  0.00     0.120 C 
ATOM     79  C   UNL     1       5.562   6.172  -6.919  1.00  0.00     0.036 C 
ATOM     80  O   UNL     1       7.640   6.168  -6.059  1.00  0.00    -0.374 OA
ATOM     81  C   UNL     1       6.496   5.543  -7.955  1.00  0.00     0.035 C 
BRANCH  75  82
ATOM     82  C   UNL     1       5.211   3.398  -5.566  1.00  0.00     0.024 C 
BRANCH  82  83
ATOM     83  C   UNL     1       5.380   1.845  -5.465  1.00  0.00     0.038 C 
BRANCH  83  84
ATOM     84  C   UNL     1       6.224   0.960  -4.557  1.00  0.00    -0.030 A 
ATOM     85  C   UNL     1       6.845   1.259  -3.346  1.00  0.00     0.007 A 
ATOM     86  C   UNL     1       6.293  -0.396  -4.895  1.00  0.00     0.114 A 
ATOM     87  C   UNL     1       7.448   0.284  -2.546  1.00  0.00     0.020 A 
ATOM     88  N   UNL     1       6.874  -1.377  -4.157  1.00  0.00    -0.264 NA
ATOM     89  C   UNL     1       7.435  -1.016  -2.990  1.00  0.00     0.111 A 
ENDBRANCH  83  84
ENDBRANCH  82  83
ENDBRANCH  75  82
ENDBRANCH  72  75
ENDBRANCH  70  71
ENDBRANCH  69  70
ENDBRANCH   1  69
TORSDOF 17
