REMARK SMILES CNC(=O)CC[NH+]1CCC(CC(=O)NCCCCNC(=O)c2ccc(-c3c4nc(c(-c5ccc(S(=O)(=O)[O-])cc5)c5ccc([nH]5)c(-c5ccc(S(=O)(=O)[O-])cc5)c5nc(c(-c6ccc(S(=O)(=O)[O-])cc6)c6ccc3[nH]6)C=C5)C=C4)cc2)CC1
REMARK SMILES IDX 16 1 15 2 14 3 12 4 13 5 11 7 10 8 7 9 8 10 83 11 9 13 82 14
REMARK SMILES IDX 6 15 5 16 3 17 1 18 2 19 4 21 17 22 18 23 19 24 20 25 21 27
REMARK SMILES IDX 22 28 23 29 81 30 24 31 80 32 25 33 26 34 27 35 74 36 28 37
REMARK SMILES IDX 79 38 73 39 75 40 29 41 78 42 72 43 71 44 30 46 60 47 41 48
REMARK SMILES IDX 59 49 42 50 45 51 58 52 76 53 43 54 44 55 57 57 77 58 46 59
REMARK SMILES IDX 31 60 32 61 40 62 33 63 39 64 34 65 35 66 36 67 37 68 38 69
REMARK SMILES IDX 61 70 62 71 70 72 63 73 69 74 64 75 65 76 66 77 67 78 68 79
REMARK SMILES IDX 47 80 48 81 56 82 49 83 55 84 50 85 51 86 52 87 53 88 54 89
REMARK H PARENT 14 6 7 12 2 20 19 26 75 45 45 56
REMARK Flexibility Score: inf
ROOT
ATOM      1  C   UNL     1       4.487  -4.644   1.059  1.00  0.00     0.023 C 
ENDROOT
BRANCH   1   2
ATOM      2  C   UNL     1       4.737  -3.657   2.204  1.00  0.00     0.116 C 
BRANCH   2   3
ATOM      3  N   UNL     1       5.880  -2.794   1.952  1.00  0.00    -0.356 N 
ATOM      4  C   UNL     1       5.952  -1.473   1.616  1.00  0.00     0.220 C 
ATOM      5  O   UNL     1       7.068  -0.969   1.476  1.00  0.00    -0.275 OA
ATOM      6  H   UNL     1       6.754  -3.240   2.039  1.00  0.00     0.163 HD
BRANCH   4   7
ATOM      7  C   UNL     1       4.700  -0.632   1.411  1.00  0.00     0.104 C 
BRANCH   7   8
ATOM      8  C   UNL     1       4.219  -0.585  -0.057  1.00  0.00     0.009 C 
ATOM      9  N   UNL     1       1.708  -1.041  -1.528  1.00  0.00    -0.334 N 
ATOM     10  C   UNL     1       2.779  -2.028  -1.679  1.00  0.00     0.262 C 
ATOM     11  C   UNL     1       2.336   0.294  -1.541  1.00  0.00     0.262 C 
ATOM     12  H   UNL     1       1.205  -1.162  -0.650  1.00  0.00     0.348 HD
ATOM     13  C   UNL     1       3.709  -1.955  -0.485  1.00  0.00     0.066 C 
ATOM     14  C   UNL     1       3.146   0.492  -0.254  1.00  0.00     0.066 C 
BRANCH   9  15
ATOM     15  C   UNL     1       0.714  -1.210  -2.602  1.00  0.00     0.272 C 
BRANCH  15  16
ATOM     16  C   UNL     1      -0.712  -0.888  -2.154  1.00  0.00     0.161 C 
BRANCH  16  17
ATOM     17  C   UNL     1      -0.949   0.592  -1.988  1.00  0.00     0.225 C 
ATOM     18  C   UNL     1      -0.712   0.543   0.539  1.00  0.00     0.142 C 
ATOM     19  N   UNL     1      -0.972   1.151  -0.746  1.00  0.00    -0.359 N 
ATOM     20  H   UNL     1      -1.198   2.108  -0.720  1.00  0.00     0.163 HD
ATOM     21  O   UNL     1      -1.109   1.323  -2.968  1.00  0.00    -0.275 OA
ENDBRANCH  16  17
ENDBRANCH  15  16
ENDBRANCH   9  15
ENDBRANCH   7   8
ENDBRANCH   4   7
ENDBRANCH   2   3
ENDBRANCH   1   2
BRANCH   1  22
ATOM     22  C   UNL     1       5.370  -5.876   1.043  1.00  0.00     0.023 C 
BRANCH  22  23
ATOM     23  C   UNL     1       5.040  -6.873   2.130  1.00  0.00     0.116 C 
BRANCH  23  24
ATOM     24  N   UNL     1       3.677  -7.387   2.046  1.00  0.00    -0.352 N 
ATOM     25  C   UNL     1       3.251  -8.695   2.096  1.00  0.00     0.251 C 
ATOM     26  H   UNL     1       2.970  -6.710   1.939  1.00  0.00     0.163 HD
ATOM     27  O   UNL     1       2.074  -8.980   1.897  1.00  0.00    -0.269 OA
BRANCH  25  28
ATOM     28  C   UNL     1       4.253  -9.745   2.353  1.00  0.00     0.039 A 
ATOM     29  C   UNL     1       4.330 -10.844   1.498  1.00  0.00     0.014 A 
ATOM     30  C   UNL     1       5.194  -9.561   3.367  1.00  0.00     0.014 A 
ATOM     31  C   UNL     1       5.413 -11.716   1.607  1.00  0.00     0.010 A 
ATOM     32  C   UNL     1       6.331 -10.351   3.388  1.00  0.00     0.010 A 
ATOM     33  C   UNL     1       6.446 -11.447   2.521  1.00  0.00    -0.014 A 
BRANCH  33  34
ATOM     34  C   UNL     1       7.647 -12.310   2.622  1.00  0.00     0.031 A 
ATOM     35  C   UNL     1       7.961 -12.982   3.932  1.00  0.00     0.074 A 
ATOM     36  C   UNL     1       8.495 -12.414   1.579  1.00  0.00     0.049 A 
ATOM     37  N   UNL     1       9.007 -13.691   4.266  1.00  0.00    -0.248 NA
ATOM     38  C   UNL     1       6.993 -12.791   5.027  1.00  0.00     0.031 C 
ATOM     39  C   UNL     1       8.336 -11.753   0.281  1.00  0.00     0.029 A 
ATOM     40  N   UNL     1       9.668 -13.113   1.451  1.00  0.00    -0.354 N 
ATOM     41  C   UNL     1       8.840 -13.993   5.612  1.00  0.00     0.074 A 
ATOM     42  C   UNL     1       7.629 -13.337   6.050  1.00  0.00     0.031 C 
ATOM     43  C   UNL     1       9.351 -12.111  -0.523  1.00  0.00     0.029 A 
ATOM     44  C   UNL     1      10.251 -12.993   0.212  1.00  0.00     0.049 A 
ATOM     45  H   UNL     1      10.056 -13.651   2.179  1.00  0.00     0.167 HD
ATOM     46  C   UNL     1       9.606 -14.774   6.408  1.00  0.00     0.031 A 
ATOM     47  C   UNL     1      11.382 -13.538  -0.277  1.00  0.00     0.031 A 
ATOM     48  C   UNL     1      10.782 -15.462   5.954  1.00  0.00     0.049 A 
ATOM     49  C   UNL     1      12.193 -14.443   0.608  1.00  0.00     0.074 A 
ATOM     50  C   UNL     1      11.588 -16.342   6.651  1.00  0.00     0.029 A 
ATOM     51  N   UNL     1      11.312 -15.352   4.677  1.00  0.00    -0.354 N 
ATOM     52  N   UNL     1      11.981 -14.776   1.860  1.00  0.00    -0.248 NA
ATOM     53  C   UNL     1      13.387 -15.058   0.012  1.00  0.00     0.031 C 
ATOM     54  C   UNL     1      12.629 -16.739   5.804  1.00  0.00     0.029 A 
ATOM     55  C   UNL     1      12.443 -16.140   4.567  1.00  0.00     0.049 A 
ATOM     56  H   UNL     1      10.938 -14.796   3.955  1.00  0.00     0.167 HD
ATOM     57  C   UNL     1      13.002 -15.658   2.195  1.00  0.00     0.074 A 
ATOM     58  C   UNL     1      13.822 -15.816   1.010  1.00  0.00     0.031 C 
ATOM     59  C   UNL     1      13.241 -16.281   3.375  1.00  0.00     0.031 A 
BRANCH  46  60
ATOM     60  C   UNL     1       9.179 -14.922   7.844  1.00  0.00    -0.014 A 
ATOM     61  C   UNL     1       8.005 -15.620   8.184  1.00  0.00     0.010 A 
ATOM     62  C   UNL     1       9.955 -14.350   8.867  1.00  0.00     0.010 A 
ATOM     63  C   UNL     1       7.582 -15.691   9.514  1.00  0.00     0.020 A 
ATOM     64  C   UNL     1       9.552 -14.446  10.203  1.00  0.00     0.020 A 
ATOM     65  C   UNL     1       8.355 -15.096  10.514  1.00  0.00     0.054 A 
BRANCH  65  66
ATOM     66  S   UNL     1       7.785 -15.200  12.232  1.00  0.00     0.124 S 
ATOM     67  O   UNL     1       6.707 -14.213  12.250  1.00  0.00    -0.237 OA
ATOM     68  O   UNL     1       7.361 -16.593  12.347  1.00  0.00    -0.237 OA
ATOM     69  O   UNL     1       8.968 -14.845  13.012  1.00  0.00    -0.744 OA
ENDBRANCH  65  66
ENDBRANCH  46  60
BRANCH  47  70
ATOM     70  C   UNL     1      11.784 -13.273  -1.685  1.00  0.00    -0.014 A 
ATOM     71  C   UNL     1      11.644 -14.274  -2.662  1.00  0.00     0.010 A 
ATOM     72  C   UNL     1      12.275 -12.011  -2.065  1.00  0.00     0.010 A 
ATOM     73  C   UNL     1      11.996 -14.023  -3.991  1.00  0.00     0.020 A 
ATOM     74  C   UNL     1      12.606 -11.748  -3.398  1.00  0.00     0.020 A 
ATOM     75  C   UNL     1      12.472 -12.759  -4.352  1.00  0.00     0.054 A 
BRANCH  75  76
ATOM     76  S   UNL     1      12.856 -12.433  -6.096  1.00  0.00     0.124 S 
ATOM     77  O   UNL     1      14.120 -13.143  -6.266  1.00  0.00    -0.237 OA
ATOM     78  O   UNL     1      11.706 -13.013  -6.786  1.00  0.00    -0.237 OA
ATOM     79  O   UNL     1      12.940 -10.976  -6.159  1.00  0.00    -0.744 OA
ENDBRANCH  75  76
ENDBRANCH  47  70
BRANCH  59  80
ATOM     80  C   UNL     1      14.418 -17.213   3.438  1.00  0.00    -0.014 A 
ATOM     81  C   UNL     1      15.733 -16.717   3.487  1.00  0.00     0.010 A 
ATOM     82  C   UNL     1      14.200 -18.600   3.514  1.00  0.00     0.010 A 
ATOM     83  C   UNL     1      16.812 -17.598   3.586  1.00  0.00     0.020 A 
ATOM     84  C   UNL     1      15.276 -19.481   3.637  1.00  0.00     0.020 A 
ATOM     85  C   UNL     1      16.576 -18.975   3.660  1.00  0.00     0.054 A 
BRANCH  85  86
ATOM     86  S   UNL     1      17.991 -20.095   3.838  1.00  0.00     0.124 S 
ATOM     87  O   UNL     1      18.543 -20.103   2.486  1.00  0.00    -0.237 OA
ATOM     88  O   UNL     1      18.808 -19.424   4.847  1.00  0.00    -0.237 OA
ATOM     89  O   UNL     1      17.384 -21.351   4.272  1.00  0.00    -0.744 OA
ENDBRANCH  85  86
ENDBRANCH  59  80
ENDBRANCH  33  34
ENDBRANCH  25  28
ENDBRANCH  23  24
ENDBRANCH  22  23
ENDBRANCH   1  22
TORSDOF 18
