REMARK SMILES O=C(NCCCCNC(=O)[C@@H]1[C@@H](C(=O)NCc2cc(F)cc(Br)c2)[C@@H]2C=C[C@H]1C2)c1ccc(-c2c3nc(c(-c4ccc(S(=O)(=O)[O-])cc4)c4ccc([nH]4)c(-c4ccc(S(=O)(=O)[O-])cc4)c4nc(c(-c5ccc(S(=O)(=O)[O-])cc5)c5ccc2[nH]5)C=C4)C=C3)cc1
REMARK SMILES IDX 5 1 4 2 3 3 1 4 2 5 30 7 31 8 89 9 32 10 88 11 33 12 34 13
REMARK SMILES IDX 35 14 82 15 36 16 87 17 81 18 83 19 37 20 86 21 80 22 79 23
REMARK SMILES IDX 38 25 68 26 49 27 67 28 50 29 53 30 66 31 84 32 51 33 52 34
REMARK SMILES IDX 65 36 85 37 54 38 39 39 40 40 48 41 41 42 47 43 42 44 43 45
REMARK SMILES IDX 44 46 45 47 46 48 69 49 70 50 78 51 71 52 77 53 72 54 73 55
REMARK SMILES IDX 74 56 75 57 76 58 55 59 56 60 64 61 57 62 63 63 58 64 59 65
REMARK SMILES IDX 60 66 61 67 62 68 6 69 7 70 8 71 9 72 10 74 11 75 12 76
REMARK SMILES IDX 28 77 25 78 27 79 29 80 26 81 13 82 14 83 15 84 16 86 17 87
REMARK SMILES IDX 18 88 24 89 19 90 22 91 20 92 21 93 23 94
REMARK H PARENT 3 6 83 24 53 35 8 73 15 85
REMARK Flexibility Score: inf
ROOT
ATOM      1  C   UNL     1       4.733  -2.631  -0.709  1.00  0.00     0.023 C 
ENDROOT
BRANCH   1   2
ATOM      2  C   UNL     1       4.495  -1.133  -0.548  1.00  0.00     0.116 C 
BRANCH   2   3
ATOM      3  N   UNL     1       3.096  -0.754  -0.677  1.00  0.00    -0.352 N 
ATOM      4  O   UNL     1       1.173   0.285  -0.114  1.00  0.00    -0.269 OA
ATOM      5  C   UNL     1       2.382   0.163   0.061  1.00  0.00     0.251 C 
ATOM      6  H   UNL     1       2.593  -1.214  -1.387  1.00  0.00     0.163 HD
BRANCH   5   7
ATOM      7  C   UNL     1       3.073   0.967   1.092  1.00  0.00     0.039 A 
ATOM      8  C   UNL     1       4.286   1.599   0.807  1.00  0.00     0.014 A 
ATOM      9  C   UNL     1       2.515   1.060   2.370  1.00  0.00     0.014 A 
ATOM     10  C   UNL     1       5.013   2.187   1.836  1.00  0.00     0.010 A 
ATOM     11  C   UNL     1       3.213   1.720   3.386  1.00  0.00     0.010 A 
ATOM     12  C   UNL     1       4.489   2.249   3.139  1.00  0.00    -0.014 A 
BRANCH  12  13
ATOM     13  C   UNL     1       5.296   2.882   4.214  1.00  0.00     0.031 A 
ATOM     14  C   UNL     1       5.830   2.071   5.366  1.00  0.00     0.074 A 
ATOM     15  C   UNL     1       5.597   4.191   4.117  1.00  0.00     0.049 A 
ATOM     16  N   UNL     1       6.616   2.450   6.343  1.00  0.00    -0.248 NA
ATOM     17  C   UNL     1       5.427   0.657   5.438  1.00  0.00     0.031 C 
ATOM     18  C   UNL     1       5.133   5.086   3.054  1.00  0.00     0.029 A 
ATOM     19  N   UNL     1       6.389   4.990   4.901  1.00  0.00    -0.354 N 
ATOM     20  C   UNL     1       6.779   1.335   7.158  1.00  0.00     0.074 A 
ATOM     21  C   UNL     1       5.997   0.269   6.571  1.00  0.00     0.031 C 
ATOM     22  C   UNL     1       5.699   6.292   3.216  1.00  0.00     0.029 A 
ATOM     23  C   UNL     1       6.523   6.271   4.419  1.00  0.00     0.049 A 
ATOM     24  H   UNL     1       6.820   4.677   5.729  1.00  0.00     0.167 HD
ATOM     25  C   UNL     1       7.515   1.210   8.289  1.00  0.00     0.031 A 
ATOM     26  C   UNL     1       7.232   7.314   4.888  1.00  0.00     0.031 A 
ATOM     27  C   UNL     1       8.308   2.266   8.863  1.00  0.00     0.049 A 
ATOM     28  C   UNL     1       8.051   7.145   6.134  1.00  0.00     0.074 A 
ATOM     29  C   UNL     1       9.117   2.223   9.986  1.00  0.00     0.029 A 
ATOM     30  N   UNL     1       8.394   3.555   8.360  1.00  0.00    -0.354 N 
ATOM     31  N   UNL     1       8.213   6.073   6.872  1.00  0.00    -0.248 NA
ATOM     32  C   UNL     1       8.783   8.326   6.608  1.00  0.00     0.031 C 
ATOM     33  C   UNL     1       9.663   3.497  10.183  1.00  0.00     0.029 A 
ATOM     34  C   UNL     1       9.228   4.321   9.158  1.00  0.00     0.049 A 
ATOM     35  H   UNL     1       7.930   3.879   7.554  1.00  0.00     0.167 HD
ATOM     36  C   UNL     1       9.080   6.447   7.891  1.00  0.00     0.074 A 
ATOM     37  C   UNL     1       9.421   7.837   7.663  1.00  0.00     0.031 C 
ATOM     38  C   UNL     1       9.551   5.705   8.923  1.00  0.00     0.031 A 
BRANCH  25  39
ATOM     39  C   UNL     1       7.476  -0.116   9.002  1.00  0.00    -0.014 A 
ATOM     40  C   UNL     1       8.153  -1.239   8.495  1.00  0.00     0.010 A 
ATOM     41  C   UNL     1       6.780  -0.229  10.220  1.00  0.00     0.010 A 
ATOM     42  C   UNL     1       8.103  -2.461   9.173  1.00  0.00     0.020 A 
ATOM     43  C   UNL     1       6.746  -1.443  10.912  1.00  0.00     0.020 A 
ATOM     44  C   UNL     1       7.393  -2.557  10.374  1.00  0.00     0.054 A 
BRANCH  44  45
ATOM     45  S   UNL     1       7.351  -4.149  11.242  1.00  0.00     0.124 S 
ATOM     46  O   UNL     1       6.379  -4.898  10.449  1.00  0.00    -0.237 OA
ATOM     47  O   UNL     1       8.733  -4.611  11.140  1.00  0.00    -0.237 OA
ATOM     48  O   UNL     1       6.915  -3.796  12.591  1.00  0.00    -0.744 OA
ENDBRANCH  44  45
ENDBRANCH  25  39
BRANCH  26  49
ATOM     49  C   UNL     1       7.206   8.607   4.156  1.00  0.00    -0.014 A 
ATOM     50  C   UNL     1       8.327   9.034   3.423  1.00  0.00     0.010 A 
ATOM     51  C   UNL     1       6.044   9.400   4.158  1.00  0.00     0.010 A 
ATOM     52  C   UNL     1       8.289  10.236   2.711  1.00  0.00     0.020 A 
ATOM     53  C   UNL     1       5.994  10.589   3.427  1.00  0.00     0.020 A 
ATOM     54  C   UNL     1       7.122  11.005   2.716  1.00  0.00     0.054 A 
BRANCH  54  55
ATOM     55  S   UNL     1       7.066  12.526   1.729  1.00  0.00     0.124 S 
ATOM     56  O   UNL     1       7.788  13.465   2.581  1.00  0.00    -0.237 OA
ATOM     57  O   UNL     1       7.747  12.134   0.498  1.00  0.00    -0.237 OA
ATOM     58  O   UNL     1       5.634  12.783   1.583  1.00  0.00    -0.744 OA
ENDBRANCH  54  55
ENDBRANCH  26  49
BRANCH  38  59
ATOM     59  C   UNL     1      10.505   6.380   9.869  1.00  0.00    -0.014 A 
ATOM     60  C   UNL     1      10.050   7.321  10.809  1.00  0.00     0.010 A 
ATOM     61  C   UNL     1      11.872   6.051   9.829  1.00  0.00     0.010 A 
ATOM     62  C   UNL     1      10.953   7.952  11.668  1.00  0.00     0.020 A 
ATOM     63  C   UNL     1      12.774   6.665  10.701  1.00  0.00     0.020 A 
ATOM     64  C   UNL     1      12.311   7.625  11.603  1.00  0.00     0.054 A 
BRANCH  64  65
ATOM     65  S   UNL     1      13.466   8.440  12.740  1.00  0.00     0.124 S 
ATOM     66  O   UNL     1      13.654   9.739  12.101  1.00  0.00    -0.237 OA
ATOM     67  O   UNL     1      12.723   8.460  13.998  1.00  0.00    -0.237 OA
ATOM     68  O   UNL     1      14.635   7.564  12.729  1.00  0.00    -0.744 OA
ENDBRANCH  64  65
ENDBRANCH  38  59
ENDBRANCH  12  13
ENDBRANCH   5   7
ENDBRANCH   2   3
ENDBRANCH   1   2
BRANCH   1  69
ATOM     69  C   UNL     1       4.284  -3.228  -2.045  1.00  0.00     0.023 C 
BRANCH  69  70
ATOM     70  C   UNL     1       4.872  -2.544  -3.278  1.00  0.00     0.116 C 
BRANCH  70  71
ATOM     71  N   UNL     1       6.312  -2.708  -3.340  1.00  0.00    -0.356 N 
ATOM     72  C   UNL     1       7.040  -3.600  -4.073  1.00  0.00     0.224 C 
ATOM     73  H   UNL     1       6.834  -2.093  -2.776  1.00  0.00     0.163 HD
ATOM     74  O   UNL     1       8.245  -3.701  -3.845  1.00  0.00    -0.275 OA
BRANCH  72  75
ATOM     75  C   UNL     1       6.330  -4.404  -5.149  1.00  0.00     0.098 C 
ATOM     76  C   UNL     1       7.187  -5.586  -5.718  1.00  0.00     0.098 C 
ATOM     77  C   UNL     1       6.052  -3.551  -6.418  1.00  0.00     0.025 C 
ATOM     78  C   UNL     1       7.194  -5.288  -7.242  1.00  0.00     0.025 C 
ATOM     79  C   UNL     1       7.353  -3.012  -6.976  1.00  0.00    -0.027 C 
ATOM     80  C   UNL     1       5.812  -4.652  -7.453  1.00  0.00     0.017 C 
ATOM     81  C   UNL     1       8.039  -4.055  -7.466  1.00  0.00    -0.027 C 
BRANCH  76  82
ATOM     82  C   UNL     1       6.543  -6.943  -5.479  1.00  0.00     0.224 C 
ATOM     83  O   UNL     1       5.343  -7.080  -5.244  1.00  0.00    -0.275 OA
ATOM     84  N   UNL     1       7.300  -8.070  -5.588  1.00  0.00    -0.352 N 
ATOM     85  H   UNL     1       6.797  -8.917  -5.565  1.00  0.00     0.163 HD
BRANCH  84  86
ATOM     86  C   UNL     1       8.733  -8.206  -5.732  1.00  0.00     0.151 C 
BRANCH  86  87
ATOM     87  C   UNL     1       9.421  -8.700  -4.480  1.00  0.00    -0.025 A 
ATOM     88  C   UNL     1       8.755  -8.895  -3.260  1.00  0.00     0.044 A 
ATOM     89  C   UNL     1      10.798  -8.984  -4.535  1.00  0.00     0.021 A 
ATOM     90  C   UNL     1       9.446  -9.376  -2.149  1.00  0.00     0.124 A 
ATOM     91  C   UNL     1      11.475  -9.460  -3.408  1.00  0.00     0.021 A 
ATOM     92  F   UNL     1       8.783  -9.574  -1.002  1.00  0.00    -0.207 F 
ATOM     93  C   UNL     1      10.802  -9.662  -2.209  1.00  0.00     0.055 A 
ATOM     94  Br  UNL     1      13.323  -9.842  -3.521  1.00  0.00    -0.051 Br
ENDBRANCH  86  87
ENDBRANCH  84  86
ENDBRANCH  76  82
ENDBRANCH  72  75
ENDBRANCH  70  71
ENDBRANCH  69  70
ENDBRANCH   1  69
TORSDOF 17
