REMARK SMILES CC(=O)Nc1cccc(-c2ccc(F)c(C(=O)NCCCCNC(=O)c3ccc(-c4c5nc(c(-c6ccc(S(=O)(=O)[O-])cc6)c6ccc([nH]6)c(-c6ccc(S(=O)(=O)[O-])cc6)c6nc(c(-c7ccc(S(=O)(=O)[O-])cc7)c7ccc4[nH]7)C=C6)C=C5)cc3)c2)c1
REMARK SMILES IDX 21 1 20 2 19 3 18 4 16 5 17 6 15 8 10 9 11 10 86 11 12 12
REMARK SMILES IDX 13 13 14 14 9 15 5 16 6 17 87 18 7 19 8 20 4 21 1 22 2 23
REMARK SMILES IDX 3 24 22 26 23 27 24 28 25 30 26 31 27 32 85 33 28 34 84 35
REMARK SMILES IDX 29 36 30 37 31 38 78 39 32 40 83 41 77 42 79 43 33 44 82 45
REMARK SMILES IDX 76 46 75 47 34 49 64 50 45 51 63 52 46 53 49 54 62 55 80 56
REMARK SMILES IDX 47 57 48 58 61 60 81 61 50 62 35 63 36 64 44 65 37 66 43 67
REMARK SMILES IDX 38 68 39 69 40 70 41 71 42 72 65 73 66 74 74 75 67 76 73 77
REMARK SMILES IDX 68 78 69 79 70 80 71 81 72 82 51 83 52 84 60 85 53 86 59 87
REMARK SMILES IDX 54 88 55 89 56 90 57 91 58 92
REMARK H PARENT 18 7 4 25 23 29 79 48 49 59
REMARK Flexibility Score: inf
ROOT
ATOM      1  C   UNL     1       7.893  -1.935   4.912  1.00  0.00     0.023 C 
ENDROOT
BRANCH   1   2
ATOM      2  C   UNL     1       7.099  -2.647   3.826  1.00  0.00     0.023 C 
BRANCH   2   3
ATOM      3  C   UNL     1       6.629  -1.801   2.651  1.00  0.00     0.116 C 
BRANCH   3   4
ATOM      4  N   UNL     1       7.688  -1.203   1.850  1.00  0.00    -0.352 N 
ATOM      5  C   UNL     1       7.850  -1.091   0.480  1.00  0.00     0.254 C 
ATOM      6  O   UNL     1       8.817  -0.467   0.052  1.00  0.00    -0.269 OA
ATOM      7  H   UNL     1       8.420  -0.807   2.377  1.00  0.00     0.163 HD
BRANCH   5   8
ATOM      8  C   UNL     1       6.906  -1.726  -0.473  1.00  0.00     0.076 A 
ATOM      9  C   UNL     1       4.693  -2.663  -0.920  1.00  0.00    -0.017 A 
ATOM     10  C   UNL     1       5.198  -3.259  -2.084  1.00  0.00     0.012 A 
ATOM     11  C   UNL     1       5.538  -1.799  -0.203  1.00  0.00     0.025 A 
ATOM     12  C   UNL     1       6.529  -3.056  -2.462  1.00  0.00     0.041 A 
ATOM     13  C   UNL     1       7.384  -2.325  -1.637  1.00  0.00     0.135 A 
ATOM     14  F   UNL     1       8.679  -2.262  -1.977  1.00  0.00    -0.206 F 
BRANCH   9  15
ATOM     15  C   UNL     1       3.403  -3.054  -0.319  1.00  0.00    -0.016 A 
ATOM     16  C   UNL     1       1.444  -2.475   1.031  1.00  0.00     0.041 A 
ATOM     17  C   UNL     1       1.213  -3.835   1.261  1.00  0.00     0.026 A 
ATOM     18  C   UNL     1       2.540  -2.099   0.249  1.00  0.00     0.034 A 
ATOM     19  C   UNL     1       2.022  -4.801   0.667  1.00  0.00     0.003 A 
ATOM     20  C   UNL     1       3.105  -4.413  -0.120  1.00  0.00     0.009 A 
BRANCH  16  21
ATOM     21  N   UNL     1       0.599  -1.565   1.686  1.00  0.00    -0.326 N 
ATOM     22  C   UNL     1       0.739   0.416   0.177  1.00  0.00     0.114 C 
ATOM     23  C   UNL     1       0.318  -0.250   1.457  1.00  0.00     0.221 C 
ATOM     24  O   UNL     1      -0.345   0.367   2.294  1.00  0.00    -0.275 OA
ATOM     25  H   UNL     1       0.119  -1.949   2.454  1.00  0.00     0.169 HD
ENDBRANCH  16  21
ENDBRANCH   9  15
ENDBRANCH   5   8
ENDBRANCH   3   4
ENDBRANCH   2   3
ENDBRANCH   1   2
BRANCH   1  26
ATOM     26  C   UNL     1       7.278  -0.658   5.473  1.00  0.00     0.116 C 
BRANCH  26  27
ATOM     27  N   UNL     1       5.939  -0.831   6.016  1.00  0.00    -0.352 N 
ATOM     28  C   UNL     1       5.426  -0.446   7.236  1.00  0.00     0.251 C 
ATOM     29  H   UNL     1       5.304  -1.292   5.422  1.00  0.00     0.163 HD
ATOM     30  O   UNL     1       4.279  -0.753   7.536  1.00  0.00    -0.269 OA
BRANCH  28  31
ATOM     31  C   UNL     1       6.275   0.294   8.200  1.00  0.00     0.039 A 
ATOM     32  C   UNL     1       6.281  -0.110   9.539  1.00  0.00     0.014 A 
ATOM     33  C   UNL     1       7.077   1.361   7.790  1.00  0.00     0.014 A 
ATOM     34  C   UNL     1       7.157   0.497  10.444  1.00  0.00     0.010 A 
ATOM     35  C   UNL     1       8.008   1.906   8.671  1.00  0.00     0.010 A 
ATOM     36  C   UNL     1       8.060   1.480  10.007  1.00  0.00    -0.014 A 
BRANCH  36  37
ATOM     37  C   UNL     1       9.063   2.076  10.929  1.00  0.00     0.031 A 
ATOM     38  C   UNL     1       9.024   3.550  11.236  1.00  0.00     0.074 A 
ATOM     39  C   UNL     1      10.051   1.309  11.434  1.00  0.00     0.049 A 
ATOM     40  N   UNL     1       9.849   4.264  11.958  1.00  0.00    -0.248 NA
ATOM     41  C   UNL     1       7.932   4.327  10.629  1.00  0.00     0.031 C 
ATOM     42  C   UNL     1      10.233  -0.121  11.175  1.00  0.00     0.029 A 
ATOM     43  N   UNL     1      11.095   1.629  12.267  1.00  0.00    -0.354 N 
ATOM     44  C   UNL     1       9.391   5.574  11.872  1.00  0.00     0.074 A 
ATOM     45  C   UNL     1       8.246   5.563  10.988  1.00  0.00     0.031 C 
ATOM     46  C   UNL     1      11.304  -0.560  11.857  1.00  0.00     0.029 A 
ATOM     47  C   UNL     1      11.906   0.560  12.573  1.00  0.00     0.049 A 
ATOM     48  H   UNL     1      11.249   2.538  12.612  1.00  0.00     0.167 HD
ATOM     49  C   UNL     1       9.864   6.684  12.488  1.00  0.00     0.031 A 
ATOM     50  C   UNL     1      13.009   0.489  13.343  1.00  0.00     0.031 A 
ATOM     51  C   UNL     1      10.988   6.691  13.385  1.00  0.00     0.049 A 
ATOM     52  C   UNL     1      13.502   1.730  14.037  1.00  0.00     0.074 A 
ATOM     53  C   UNL     1      11.512   7.754  14.101  1.00  0.00     0.029 A 
ATOM     54  N   UNL     1      11.759   5.581  13.696  1.00  0.00    -0.354 N 
ATOM     55  N   UNL     1      13.019   2.948  13.987  1.00  0.00    -0.248 NA
ATOM     56  C   UNL     1      14.677   1.581  14.906  1.00  0.00     0.031 C 
ATOM     57  C   UNL     1      12.622   7.293  14.817  1.00  0.00     0.029 A 
ATOM     58  C   UNL     1      12.759   5.934  14.586  1.00  0.00     0.049 A 
ATOM     59  H   UNL     1      11.616   4.676  13.336  1.00  0.00     0.167 HD
ATOM     60  C   UNL     1      13.812   3.704  14.843  1.00  0.00     0.074 A 
ATOM     61  C   UNL     1      14.798   2.803  15.405  1.00  0.00     0.031 C 
ATOM     62  C   UNL     1      13.729   5.024  15.141  1.00  0.00     0.031 A 
BRANCH  49  63
ATOM     63  C   UNL     1       9.157   7.984  12.209  1.00  0.00    -0.014 A 
ATOM     64  C   UNL     1       7.860   8.223  12.700  1.00  0.00     0.010 A 
ATOM     65  C   UNL     1       9.804   8.988  11.467  1.00  0.00     0.010 A 
ATOM     66  C   UNL     1       7.205   9.423  12.412  1.00  0.00     0.020 A 
ATOM     67  C   UNL     1       9.162  10.202  11.201  1.00  0.00     0.020 A 
ATOM     68  C   UNL     1       7.858  10.402  11.658  1.00  0.00     0.054 A 
BRANCH  68  69
ATOM     69  S   UNL     1       6.988  11.956  11.309  1.00  0.00     0.124 S 
ATOM     70  O   UNL     1       6.039  11.542  10.279  1.00  0.00    -0.237 OA
ATOM     71  O   UNL     1       6.402  12.294  12.603  1.00  0.00    -0.237 OA
ATOM     72  O   UNL     1       8.049  12.852  10.856  1.00  0.00    -0.744 OA
ENDBRANCH  68  69
ENDBRANCH  49  63
BRANCH  50  73
ATOM     73  C   UNL     1      13.704  -0.814  13.529  1.00  0.00    -0.014 A 
ATOM     74  C   UNL     1      13.623  -1.494  14.758  1.00  0.00     0.010 A 
ATOM     75  C   UNL     1      14.443  -1.387  12.478  1.00  0.00     0.010 A 
ATOM     76  C   UNL     1      14.284  -2.712  14.939  1.00  0.00     0.020 A 
ATOM     77  C   UNL     1      15.084  -2.618  12.648  1.00  0.00     0.020 A 
ATOM     78  C   UNL     1      15.011  -3.267  13.882  1.00  0.00     0.054 A 
BRANCH  78  79
ATOM     79  S   UNL     1      15.819  -4.874  14.123  1.00  0.00     0.124 S 
ATOM     80  O   UNL     1      16.973  -4.514  14.940  1.00  0.00    -0.237 OA
ATOM     81  O   UNL     1      14.783  -5.651  14.799  1.00  0.00    -0.237 OA
ATOM     82  O   UNL     1      16.124  -5.309  12.762  1.00  0.00    -0.744 OA
ENDBRANCH  78  79
ENDBRANCH  50  73
BRANCH  62  83
ATOM     83  C   UNL     1      14.699   5.567  16.155  1.00  0.00    -0.014 A 
ATOM     84  C   UNL     1      16.057   5.753  15.843  1.00  0.00     0.010 A 
ATOM     85  C   UNL     1      14.229   5.936  17.429  1.00  0.00     0.010 A 
ATOM     86  C   UNL     1      16.936   6.266  16.801  1.00  0.00     0.020 A 
ATOM     87  C   UNL     1      15.100   6.473  18.380  1.00  0.00     0.020 A 
ATOM     88  C   UNL     1      16.452   6.619  18.065  1.00  0.00     0.054 A 
BRANCH  88  89
ATOM     89  S   UNL     1      17.605   7.312  19.282  1.00  0.00     0.124 S 
ATOM     90  O   UNL     1      18.328   6.124  19.726  1.00  0.00    -0.237 OA
ATOM     91  O   UNL     1      18.382   8.261  18.487  1.00  0.00    -0.237 OA
ATOM     92  O   UNL     1      16.729   7.919  20.282  1.00  0.00    -0.744 OA
ENDBRANCH  88  89
ENDBRANCH  62  83
ENDBRANCH  36  37
ENDBRANCH  28  31
ENDBRANCH  26  27
ENDBRANCH   1  26
TORSDOF 16
