REMARK SMILES CCC[C@H](CNC(=O)N1C[C@H]2CCC[N@H+]2C[C@@H]1C)C(=O)NCCCCNC(=O)c1ccc(-c2c3nc(c(-c4ccc(S(=O)(=O)[O-])cc4)c4ccc([nH]4)c(-c4ccc(S(=O)(=O)[O-])cc4)c4nc(c(-c5ccc(S(=O)(=O)[O-])cc5)c5ccc2[nH]5)C=C4)C=C3)cc1
REMARK SMILES IDX 23 1 22 2 21 3 19 4 20 5 4 7 3 8 2 9 1 10 5 11 6 12 7 13
REMARK SMILES IDX 8 15 9 16 10 17 17 18 11 19 16 20 18 21 12 22 15 23 13 24
REMARK SMILES IDX 14 25 24 27 25 28 26 29 27 30 28 32 29 33 30 34 88 35 31 36
REMARK SMILES IDX 87 37 32 38 33 39 34 40 81 41 35 42 86 43 80 44 82 45 36 46
REMARK SMILES IDX 85 47 79 48 78 49 37 51 67 52 48 53 66 54 49 55 52 56 65 57
REMARK SMILES IDX 83 58 50 59 51 60 64 62 84 63 53 64 38 65 39 66 47 67 40 68
REMARK SMILES IDX 46 69 41 70 42 71 43 72 44 73 45 74 68 75 69 76 77 77 70 78
REMARK SMILES IDX 76 79 71 80 72 81 73 82 74 83 75 84 54 85 55 86 63 87 56 88
REMARK SMILES IDX 62 89 57 90 58 91 59 92 60 93 61 94
REMARK H PARENT 21 6 6 14 15 26 26 31 82 50 52 61
REMARK Flexibility Score: inf
ROOT
ATOM      1  C   UNL     1       0.562   2.230   5.645  1.00  0.00     0.023 C 
ENDROOT
BRANCH   1   2
ATOM      2  C   UNL     1      -0.344   2.977   4.663  1.00  0.00     0.116 C 
BRANCH   2   3
ATOM      3  N   UNL     1       0.430   3.795   3.752  1.00  0.00    -0.356 N 
ATOM      4  C   UNL     1       0.796   3.605   2.460  1.00  0.00     0.224 C 
ATOM      5  O   UNL     1       1.526   4.467   1.958  1.00  0.00    -0.275 OA
ATOM      6  H   UNL     1       0.748   4.641   4.142  1.00  0.00     0.163 HD
BRANCH   4   7
ATOM      7  C   UNL     1       0.361   2.408   1.615  1.00  0.00     0.097 C 
BRANCH   7   8
ATOM      8  C   UNL     1      -1.153   2.343   1.345  1.00  0.00     0.015 C 
BRANCH   8   9
ATOM      9  C   UNL     1      -1.635   3.357   0.298  1.00  0.00    -0.003 C 
ATOM     10  C   UNL     1      -1.250   2.966  -1.123  1.00  0.00     0.004 C 
ENDBRANCH   8   9
ENDBRANCH   7   8
BRANCH   7  11
ATOM     11  C   UNL     1       1.030   1.086   2.038  1.00  0.00     0.131 C 
BRANCH  11  12
ATOM     12  N   UNL     1       0.328   0.295   3.029  1.00  0.00    -0.337 N 
ATOM     13  C   UNL     1      -0.700  -0.563   2.865  1.00  0.00     0.318 C 
ATOM     14  H   UNL     1       0.647   0.399   3.954  1.00  0.00     0.165 HD
ATOM     15  O   UNL     1      -1.623  -0.502   3.677  1.00  0.00    -0.249 OA
BRANCH  13  16
ATOM     16  N   UNL     1      -0.656  -1.462   1.840  1.00  0.00    -0.311 N 
ATOM     17  C   UNL     1      -1.915  -2.075   1.424  1.00  0.00     0.186 C 
ATOM     18  C   UNL     1       0.585  -2.139   1.378  1.00  0.00     0.139 C 
ATOM     19  C   UNL     1      -1.915  -3.593   1.663  1.00  0.00     0.204 C 
ATOM     20  C   UNL     1       0.263  -3.411   0.539  1.00  0.00     0.287 C 
ATOM     21  C   UNL     1       1.529  -2.498   2.536  1.00  0.00     0.037 C 
ATOM     22  C   UNL     1      -3.100  -4.278   0.988  1.00  0.00     0.073 C 
ATOM     23  N   UNL     1      -0.706  -4.311   1.182  1.00  0.00    -0.329 N 
ATOM     24  C   UNL     1      -2.576  -5.665   0.681  1.00  0.00     0.068 C 
ATOM     25  C   UNL     1      -1.134  -5.396   0.294  1.00  0.00     0.262 C 
ATOM     26  H   UNL     1      -0.210  -4.706   1.981  1.00  0.00     0.348 HD
ENDBRANCH  13  16
ENDBRANCH  11  12
ENDBRANCH   7  11
ENDBRANCH   4   7
ENDBRANCH   2   3
ENDBRANCH   1   2
BRANCH   1  27
ATOM     27  C   UNL     1       1.078   3.052   6.817  1.00  0.00     0.023 C 
BRANCH  27  28
ATOM     28  C   UNL     1      -0.004   3.708   7.657  1.00  0.00     0.116 C 
BRANCH  28  29
ATOM     29  N   UNL     1      -1.016   2.783   8.142  1.00  0.00    -0.352 N 
ATOM     30  C   UNL     1      -1.724   2.848   9.322  1.00  0.00     0.251 C 
ATOM     31  H   UNL     1      -1.219   2.017   7.557  1.00  0.00     0.163 HD
ATOM     32  O   UNL     1      -2.477   1.947   9.649  1.00  0.00    -0.269 OA
BRANCH  30  33
ATOM     33  C   UNL     1      -1.516   4.017  10.204  1.00  0.00     0.039 A 
ATOM     34  C   UNL     1      -1.266   3.804  11.559  1.00  0.00     0.014 A 
ATOM     35  C   UNL     1      -1.514   5.311   9.676  1.00  0.00     0.014 A 
ATOM     36  C   UNL     1      -0.962   4.892  12.377  1.00  0.00     0.010 A 
ATOM     37  C   UNL     1      -1.111   6.377  10.467  1.00  0.00     0.010 A 
ATOM     38  C   UNL     1      -0.857   6.183  11.832  1.00  0.00    -0.014 A 
BRANCH  38  39
ATOM     39  C   UNL     1      -0.540   7.352  12.687  1.00  0.00     0.031 A 
ATOM     40  C   UNL     1      -1.554   8.454  12.844  1.00  0.00     0.074 A 
ATOM     41  C   UNL     1       0.664   7.440  13.285  1.00  0.00     0.049 A 
ATOM     42  N   UNL     1      -1.468   9.561  13.536  1.00  0.00    -0.248 NA
ATOM     43  C   UNL     1      -2.817   8.312  12.098  1.00  0.00     0.031 C 
ATOM     44  C   UNL     1       1.750   6.465  13.159  1.00  0.00     0.029 A 
ATOM     45  N   UNL     1       1.173   8.396  14.126  1.00  0.00    -0.354 N 
ATOM     46  C   UNL     1      -2.652  10.248  13.294  1.00  0.00     0.074 A 
ATOM     47  C   UNL     1      -3.409   9.471  12.340  1.00  0.00     0.031 C 
ATOM     48  C   UNL     1       2.780   6.852  13.930  1.00  0.00     0.029 A 
ATOM     49  C   UNL     1       2.440   8.114  14.580  1.00  0.00     0.049 A 
ATOM     50  H   UNL     1       0.678   9.209  14.380  1.00  0.00     0.167 HD
ATOM     51  C   UNL     1      -3.089  11.406  13.843  1.00  0.00     0.031 A 
ATOM     52  C   UNL     1       3.230   8.790  15.434  1.00  0.00     0.031 A 
ATOM     53  C   UNL     1      -2.346  12.161  14.814  1.00  0.00     0.049 A 
ATOM     54  C   UNL     1       2.712  10.060  16.054  1.00  0.00     0.074 A 
ATOM     55  C   UNL     1      -2.720  13.314  15.480  1.00  0.00     0.029 A 
ATOM     56  N   UNL     1      -1.077  11.830  15.264  1.00  0.00    -0.354 N 
ATOM     57  N   UNL     1       1.559  10.659  15.867  1.00  0.00    -0.248 NA
ATOM     58  C   UNL     1       3.595  10.734  17.015  1.00  0.00     0.031 C 
ATOM     59  C   UNL     1      -1.658  13.704  16.303  1.00  0.00     0.029 A 
ATOM     60  C   UNL     1      -0.645  12.765  16.189  1.00  0.00     0.049 A 
ATOM     61  H   UNL     1      -0.559  11.046  14.970  1.00  0.00     0.167 HD
ATOM     62  C   UNL     1       1.569  11.767  16.706  1.00  0.00     0.074 A 
ATOM     63  C   UNL     1       2.832  11.741  17.416  1.00  0.00     0.031 C 
ATOM     64  C   UNL     1       0.621  12.722  16.876  1.00  0.00     0.031 A 
BRANCH  51  65
ATOM     65  C   UNL     1      -4.438  11.913  13.404  1.00  0.00    -0.014 A 
ATOM     66  C   UNL     1      -5.619  11.236  13.761  1.00  0.00     0.010 A 
ATOM     67  C   UNL     1      -4.530  13.088  12.636  1.00  0.00     0.010 A 
ATOM     68  C   UNL     1      -6.862  11.695  13.319  1.00  0.00     0.020 A 
ATOM     69  C   UNL     1      -5.775  13.568  12.217  1.00  0.00     0.020 A 
ATOM     70  C   UNL     1      -6.931  12.857  12.545  1.00  0.00     0.054 A 
BRANCH  70  71
ATOM     71  S   UNL     1      -8.559  13.441  11.998  1.00  0.00     0.124 S 
ATOM     72  O   UNL     1      -8.884  12.481  10.946  1.00  0.00    -0.237 OA
ATOM     73  O   UNL     1      -9.363  13.335  13.214  1.00  0.00    -0.237 OA
ATOM     74  O   UNL     1      -8.303  14.804  11.541  1.00  0.00    -0.744 OA
ENDBRANCH  70  71
ENDBRANCH  51  65
BRANCH  52  75
ATOM     75  C   UNL     1       4.576   8.260  15.787  1.00  0.00    -0.014 A 
ATOM     76  C   UNL     1       4.822   7.733  17.067  1.00  0.00     0.010 A 
ATOM     77  C   UNL     1       5.618   8.274  14.842  1.00  0.00     0.010 A 
ATOM     78  C   UNL     1       6.090   7.252  17.405  1.00  0.00     0.020 A 
ATOM     79  C   UNL     1       6.881   7.769  15.168  1.00  0.00     0.020 A 
ATOM     80  C   UNL     1       7.112   7.274  16.452  1.00  0.00     0.054 A 
BRANCH  80  81
ATOM     81  S   UNL     1       8.739   6.604  16.898  1.00  0.00     0.124 S 
ATOM     82  O   UNL     1       9.272   7.652  17.762  1.00  0.00    -0.237 OA
ATOM     83  O   UNL     1       8.394   5.350  17.563  1.00  0.00    -0.237 OA
ATOM     84  O   UNL     1       9.410   6.452  15.609  1.00  0.00    -0.744 OA
ENDBRANCH  80  81
ENDBRANCH  52  75
BRANCH  64  85
ATOM     85  C   UNL     1       0.908  13.800  17.886  1.00  0.00    -0.014 A 
ATOM     86  C   UNL     1       1.873  14.791  17.638  1.00  0.00     0.010 A 
ATOM     87  C   UNL     1       0.181  13.833  19.090  1.00  0.00     0.010 A 
ATOM     88  C   UNL     1       2.142  15.769  18.599  1.00  0.00     0.020 A 
ATOM     89  C   UNL     1       0.426  14.827  20.040  1.00  0.00     0.020 A 
ATOM     90  C   UNL     1       1.421  15.776  19.797  1.00  0.00     0.054 A 
BRANCH  90  91
ATOM     91  S   UNL     1       1.777  17.063  21.024  1.00  0.00     0.124 S 
ATOM     92  O   UNL     1       3.034  16.592  21.599  1.00  0.00    -0.237 OA
ATOM     93  O   UNL     1       1.873  18.270  20.206  1.00  0.00    -0.237 OA
ATOM     94  O   UNL     1       0.624  17.015  21.920  1.00  0.00    -0.744 OA
ENDBRANCH  90  91
ENDBRANCH  64  85
ENDBRANCH  38  39
ENDBRANCH  30  33
ENDBRANCH  28  29
ENDBRANCH  27  28
ENDBRANCH   1  27
TORSDOF 19
