REMARK SMILES Cc1ccc([C@H](Nc2ccc(Cl)c(Br)c2)C(=O)NCCCCNC(=O)c2ccc(-c3c4nc(c(-c5ccc(S(=O)(=O)[O-])cc5)c5ccc([nH]5)c(-c5ccc(S(=O)(=O)[O-])cc5)c5nc(c(-c6ccc(S(=O)(=O)[O-])cc6)c6ccc3[nH]6)C=C5)C=C4)cc2)s1
REMARK SMILES IDX 21 1 20 2 19 3 18 4 16 5 17 6 6 8 5 9 1 10 2 11 3 12 86 13
REMARK SMILES IDX 4 14 7 15 8 17 9 18 15 19 10 20 13 21 11 22 14 23 12 24
REMARK SMILES IDX 22 25 23 26 24 27 25 29 26 30 27 31 85 32 28 33 84 34 29 35
REMARK SMILES IDX 30 36 31 37 78 38 32 39 83 40 77 41 79 42 33 43 82 44 76 45
REMARK SMILES IDX 75 46 34 48 64 49 45 50 63 51 46 52 49 53 62 54 80 55 47 56
REMARK SMILES IDX 48 57 61 59 81 60 50 61 35 62 36 63 44 64 37 65 43 66 38 67
REMARK SMILES IDX 39 68 40 69 41 70 42 71 65 72 66 73 74 74 67 75 73 76 68 77
REMARK SMILES IDX 69 78 70 79 71 80 72 81 51 82 52 83 60 84 53 85 59 86 54 87
REMARK SMILES IDX 55 88 56 89 57 90 58 91
REMARK H PARENT 18 7 7 16 23 28 79 47 49 58
REMARK Flexibility Score: inf
ROOT
ATOM      1  C   UNL     1       0.542   3.845  -2.397  1.00  0.00     0.023 C 
ENDROOT
BRANCH   1   2
ATOM      2  C   UNL     1       0.388   2.915  -1.195  1.00  0.00     0.023 C 
BRANCH   2   3
ATOM      3  C   UNL     1      -0.916   3.073  -0.422  1.00  0.00     0.116 C 
BRANCH   3   4
ATOM      4  N   UNL     1      -2.087   2.897  -1.261  1.00  0.00    -0.354 N 
ATOM      5  C   UNL     1      -3.115   2.006  -1.113  1.00  0.00     0.247 C 
ATOM      6  O   UNL     1      -4.076   2.112  -1.884  1.00  0.00    -0.272 OA
ATOM      7  H   UNL     1      -2.149   3.497  -2.039  1.00  0.00     0.163 HD
BRANCH   5   8
ATOM      8  C   UNL     1      -3.094   0.927   0.001  1.00  0.00     0.210 C 
BRANCH   8   9
ATOM      9  C   UNL     1      -3.322   1.639   1.341  1.00  0.00     0.037 A 
ATOM     10  C   UNL     1      -3.121   2.270   5.223  1.00  0.00     0.056 C 
ATOM     11  C   UNL     1      -3.308   2.260   3.745  1.00  0.00     0.002 A 
ATOM     12  C   UNL     1      -3.812   3.267   2.952  1.00  0.00     0.015 A 
ATOM     13  S   UNL     1      -2.900   0.877   2.825  1.00  0.00    -0.143 S 
ATOM     14  C   UNL     1      -3.849   2.900   1.579  1.00  0.00     0.018 A 
ENDBRANCH   8   9
BRANCH   8  15
ATOM     15  N   UNL     1      -1.887   0.072  -0.038  1.00  0.00    -0.369 N 
ATOM     16  H   UNL     1      -1.402  -0.017   0.814  1.00  0.00     0.161 HD
BRANCH  15  17
ATOM     17  C   UNL     1      -1.348  -0.619  -1.104  1.00  0.00     0.036 A 
ATOM     18  C   UNL     1      -1.659  -0.388  -2.447  1.00  0.00     0.027 A 
ATOM     19  C   UNL     1      -0.370  -1.592  -0.840  1.00  0.00     0.043 A 
ATOM     20  C   UNL     1      -1.000  -1.066  -3.484  1.00  0.00     0.024 A 
ATOM     21  C   UNL     1       0.273  -2.301  -1.867  1.00  0.00     0.038 A 
ATOM     22  C   UNL     1      -0.034  -2.026  -3.198  1.00  0.00     0.055 A 
ATOM     23  Br  UNL     1       1.545  -3.619  -1.359  1.00  0.00    -0.049 Br
ATOM     24  Cl  UNL     1       0.727  -2.826  -4.524  1.00  0.00    -0.083 Cl
ENDBRANCH  15  17
ENDBRANCH   8  15
ENDBRANCH   5   8
ENDBRANCH   3   4
ENDBRANCH   2   3
ENDBRANCH   1   2
BRANCH   1  25
ATOM     25  C   UNL     1       0.236   5.313  -2.134  1.00  0.00     0.116 C 
BRANCH  25  26
ATOM     26  N   UNL     1       1.076   5.910  -1.105  1.00  0.00    -0.352 N 
ATOM     27  C   UNL     1       1.701   7.137  -1.130  1.00  0.00     0.251 C 
ATOM     28  H   UNL     1       1.214   5.371  -0.293  1.00  0.00     0.163 HD
ATOM     29  O   UNL     1       2.439   7.489  -0.217  1.00  0.00    -0.269 OA
BRANCH  27  30
ATOM     30  C   UNL     1       1.502   7.997  -2.314  1.00  0.00     0.039 A 
ATOM     31  C   UNL     1       0.207   8.308  -2.737  1.00  0.00     0.014 A 
ATOM     32  C   UNL     1       2.612   8.367  -3.075  1.00  0.00     0.014 A 
ATOM     33  C   UNL     1       0.018   8.835  -4.009  1.00  0.00     0.010 A 
ATOM     34  C   UNL     1       2.419   8.965  -4.322  1.00  0.00     0.010 A 
ATOM     35  C   UNL     1       1.120   9.150  -4.823  1.00  0.00    -0.014 A 
BRANCH  35  36
ATOM     36  C   UNL     1       0.897   9.633  -6.209  1.00  0.00     0.031 A 
ATOM     37  C   UNL     1       1.310   8.791  -7.389  1.00  0.00     0.074 A 
ATOM     38  C   UNL     1       0.253  10.800  -6.406  1.00  0.00     0.049 A 
ATOM     39  N   UNL     1       1.212   9.063  -8.665  1.00  0.00    -0.248 NA
ATOM     40  C   UNL     1       1.904   7.472  -7.105  1.00  0.00     0.031 C 
ATOM     41  C   UNL     1      -0.252  11.670  -5.341  1.00  0.00     0.029 A 
ATOM     42  N   UNL     1      -0.121  11.437  -7.561  1.00  0.00    -0.354 N 
ATOM     43  C   UNL     1       1.738   7.963  -9.333  1.00  0.00     0.074 A 
ATOM     44  C   UNL     1       2.178   7.026  -8.324  1.00  0.00     0.031 C 
ATOM     45  C   UNL     1      -0.929  12.688  -5.892  1.00  0.00     0.029 A 
ATOM     46  C   UNL     1      -0.839  12.590  -7.346  1.00  0.00     0.049 A 
ATOM     47  H   UNL     1       0.103  11.101  -8.459  1.00  0.00     0.167 HD
ATOM     48  C   UNL     1       1.835   7.753 -10.667  1.00  0.00     0.031 A 
ATOM     49  C   UNL     1      -1.356  13.480  -8.216  1.00  0.00     0.031 A 
ATOM     50  C   UNL     1       1.381   8.684 -11.665  1.00  0.00     0.049 A 
ATOM     51  C   UNL     1      -1.155  13.267  -9.687  1.00  0.00     0.074 A 
ATOM     52  C   UNL     1       1.458   8.566 -13.043  1.00  0.00     0.029 A 
ATOM     53  N   UNL     1       0.754   9.891 -11.401  1.00  0.00    -0.354 N 
ATOM     54  N   UNL     1      -0.598  12.249 -10.297  1.00  0.00    -0.248 NA
ATOM     55  C   UNL     1      -1.631  14.326 -10.587  1.00  0.00     0.031 C 
ATOM     56  C   UNL     1       0.920   9.723 -13.610  1.00  0.00     0.029 A 
ATOM     57  C   UNL     1       0.456  10.536 -12.588  1.00  0.00     0.049 A 
ATOM     58  H   UNL     1       0.552  10.239 -10.502  1.00  0.00     0.167 HD
ATOM     59  C   UNL     1      -0.659  12.543 -11.654  1.00  0.00     0.074 A 
ATOM     60  C   UNL     1      -1.322  13.825 -11.778  1.00  0.00     0.031 C 
ATOM     61  C   UNL     1      -0.201  11.813 -12.698  1.00  0.00     0.031 A 
BRANCH  48  62
ATOM     62  C   UNL     1       2.455   6.469 -11.150  1.00  0.00    -0.014 A 
ATOM     63  C   UNL     1       3.718   6.494 -11.771  1.00  0.00     0.010 A 
ATOM     64  C   UNL     1       1.732   5.264 -11.116  1.00  0.00     0.010 A 
ATOM     65  C   UNL     1       4.234   5.346 -12.378  1.00  0.00     0.020 A 
ATOM     66  C   UNL     1       2.255   4.108 -11.704  1.00  0.00     0.020 A 
ATOM     67  C   UNL     1       3.492   4.163 -12.352  1.00  0.00     0.054 A 
BRANCH  67  68
ATOM     68  S   UNL     1       4.161   2.689 -13.174  1.00  0.00     0.124 S 
ATOM     69  O   UNL     1       3.898   2.974 -14.580  1.00  0.00    -0.237 OA
ATOM     70  O   UNL     1       5.567   2.712 -12.776  1.00  0.00    -0.237 OA
ATOM     71  O   UNL     1       3.380   1.596 -12.599  1.00  0.00    -0.744 OA
ENDBRANCH  67  68
ENDBRANCH  48  62
BRANCH  49  72
ATOM     72  C   UNL     1      -2.113  14.649  -7.694  1.00  0.00    -0.014 A 
ATOM     73  C   UNL     1      -1.453  15.661  -6.971  1.00  0.00     0.010 A 
ATOM     74  C   UNL     1      -3.509  14.712  -7.841  1.00  0.00     0.010 A 
ATOM     75  C   UNL     1      -2.180  16.682  -6.356  1.00  0.00     0.020 A 
ATOM     76  C   UNL     1      -4.237  15.748  -7.250  1.00  0.00     0.020 A 
ATOM     77  C   UNL     1      -3.571  16.709  -6.486  1.00  0.00     0.054 A 
BRANCH  77  78
ATOM     78  S   UNL     1      -4.504  18.016  -5.643  1.00  0.00     0.124 S 
ATOM     79  O   UNL     1      -4.582  17.495  -4.281  1.00  0.00    -0.237 OA
ATOM     80  O   UNL     1      -3.651  19.188  -5.819  1.00  0.00    -0.237 OA
ATOM     81  O   UNL     1      -5.768  18.055  -6.373  1.00  0.00    -0.744 OA
ENDBRANCH  77  78
ENDBRANCH  49  72
BRANCH  61  82
ATOM     82  C   UNL     1      -0.385  12.364 -14.085  1.00  0.00    -0.014 A 
ATOM     83  C   UNL     1      -1.311  11.762 -14.956  1.00  0.00     0.010 A 
ATOM     84  C   UNL     1       0.469  13.368 -14.572  1.00  0.00     0.010 A 
ATOM     85  C   UNL     1      -1.352  12.125 -16.304  1.00  0.00     0.020 A 
ATOM     86  C   UNL     1       0.415  13.749 -15.915  1.00  0.00     0.020 A 
ATOM     87  C   UNL     1      -0.475  13.104 -16.778  1.00  0.00     0.054 A 
BRANCH  87  88
ATOM     88  S   UNL     1      -0.500  13.522 -18.543  1.00  0.00     0.124 S 
ATOM     89  O   UNL     1       0.237  12.408 -19.132  1.00  0.00    -0.237 OA
ATOM     90  O   UNL     1      -1.929  13.562 -18.845  1.00  0.00    -0.237 OA
ATOM     91  O   UNL     1       0.175  14.817 -18.597  1.00  0.00    -0.744 OA
ENDBRANCH  87  88
ENDBRANCH  61  82
ENDBRANCH  35  36
ENDBRANCH  27  30
ENDBRANCH  25  26
ENDBRANCH   1  25
TORSDOF 17
