REMARK SMILES N#CCC[NH+]1CCN(c2cc(C(=O)NCCCCNC(=O)c3ccc(-c4c5nc(c(-c6ccc(S(=O)(=O)[O-])cc6)c6ccc([nH]6)c(-c6ccc(S(=O)(=O)[O-])cc6)c6nc(c(-c7ccc(S(=O)(=O)[O-])cc7)c7ccc4[nH]7)C=C6)C=C5)cc3)c3cc(NS(=O)(=O)c4ccccc4Cl)ccc3n2)CC1
REMARK SMILES IDX 16 1 15 2 14 3 12 4 13 5 11 7 9 8 10 9 99 10 98 11 82 12
REMARK SMILES IDX 97 13 83 14 96 15 84 16 8 17 5 18 6 19 101 20 7 22 100 23
REMARK SMILES IDX 4 24 3 25 2 26 1 27 85 28 86 30 87 31 88 32 89 33 90 34
REMARK SMILES IDX 94 35 91 36 93 37 95 38 92 39 17 40 18 41 19 42 20 43 21 45
REMARK SMILES IDX 22 46 23 47 81 48 24 49 80 50 25 51 26 52 27 53 74 54 28 55
REMARK SMILES IDX 79 56 73 57 75 58 29 59 78 60 72 61 71 62 30 64 60 65 41 66
REMARK SMILES IDX 59 67 42 68 45 69 58 70 76 71 43 72 44 73 57 75 77 76 46 77
REMARK SMILES IDX 31 78 32 79 40 80 33 81 39 82 34 83 35 84 36 85 37 86 38 87
REMARK SMILES IDX 61 88 62 89 70 90 63 91 69 92 64 93 65 94 66 95 67 96 68 97
REMARK SMILES IDX 47 98 48 99 56 100 49 101 55 102 50 103 51 104 52 105 53 106
REMARK SMILES IDX 54 107
REMARK H PARENT 14 6 5 21 85 29 19 44 75 63 45 74
REMARK Flexibility Score: inf
ROOT
ATOM      1  C   UNL     1       3.956 -10.415   3.466  1.00  0.00     0.023 C 
ENDROOT
BRANCH   1   2
ATOM      2  C   UNL     1       4.592  -9.497   2.380  1.00  0.00     0.116 C 
BRANCH   2   3
ATOM      3  N   UNL     1       3.930  -8.184   2.176  1.00  0.00    -0.352 N 
ATOM      4  C   UNL     1       4.585  -7.018   1.782  1.00  0.00     0.252 C 
ATOM      5  O   UNL     1       4.496  -6.664   0.606  1.00  0.00    -0.269 OA
ATOM      6  H   UNL     1       2.959  -8.133   2.330  1.00  0.00     0.163 HD
BRANCH   4   7
ATOM      7  C   UNL     1       5.159  -6.046   2.780  1.00  0.00     0.052 A 
ATOM      8  C   UNL     1       5.552  -3.703   3.296  1.00  0.00     0.130 A 
ATOM      9  C   UNL     1       5.245  -4.715   2.379  1.00  0.00     0.061 A 
ATOM     10  N   UNL     1       5.979  -3.985   4.538  1.00  0.00    -0.231 NA
ATOM     11  C   UNL     1       6.062  -5.277   4.892  1.00  0.00     0.074 A 
ATOM     12  C   UNL     1       5.627  -6.326   4.055  1.00  0.00     0.015 A 
ATOM     13  C   UNL     1       6.581  -5.633   6.129  1.00  0.00     0.031 A 
ATOM     14  C   UNL     1       5.758  -7.628   4.500  1.00  0.00     0.038 A 
ATOM     15  C   UNL     1       6.970  -6.959   6.366  1.00  0.00     0.029 A 
ATOM     16  C   UNL     1       6.770  -7.924   5.379  1.00  0.00     0.050 A 
BRANCH   8  17
ATOM     17  N   UNL     1       5.184  -2.406   2.992  1.00  0.00    -0.345 N 
ATOM     18  N   UNL     1       3.928   0.202   2.746  1.00  0.00    -0.331 N 
ATOM     19  C   UNL     1       3.127  -1.023   2.859  1.00  0.00     0.284 C 
ATOM     20  C   UNL     1       5.086   0.024   3.657  1.00  0.00     0.284 C 
ATOM     21  H   UNL     1       3.323   0.980   3.009  1.00  0.00     0.348 HD
ATOM     22  C   UNL     1       3.849  -2.288   2.413  1.00  0.00     0.179 C 
ATOM     23  C   UNL     1       5.965  -1.229   3.380  1.00  0.00     0.179 C 
BRANCH  18  24
ATOM     24  C   UNL     1       4.342   0.634   1.394  1.00  0.00     0.277 C 
BRANCH  24  25
ATOM     25  C   UNL     1       3.779   0.009   0.100  1.00  0.00     0.181 C 
BRANCH  25  26
ATOM     26  C   UNL     1       2.259   0.009   0.100  1.00  0.00     0.068 C 
ATOM     27  N   UNL     1       0.998   0.009   0.100  1.00  0.00    -0.198 NA
ENDBRANCH  25  26
ENDBRANCH  24  25
ENDBRANCH  18  24
ENDBRANCH   8  17
BRANCH  16  28
ATOM     28  N   UNL     1       8.002  -8.428   4.761  1.00  0.00    -0.280 N 
ATOM     29  H   UNL     1       8.830  -7.901   4.829  1.00  0.00     0.180 HD
BRANCH  28  30
ATOM     30  S   UNL     1       8.018  -9.932   3.914  1.00  0.00     0.263 S 
ATOM     31  O   UNL     1       9.236 -10.559   4.354  1.00  0.00    -0.201 OA
ATOM     32  O   UNL     1       6.730 -10.531   4.190  1.00  0.00    -0.201 OA
BRANCH  30  33
ATOM     33  C   UNL     1       8.242  -9.609   2.147  1.00  0.00     0.106 A 
ATOM     34  C   UNL     1       9.333  -8.782   1.851  1.00  0.00     0.024 A 
ATOM     35  C   UNL     1       7.571 -10.172   1.038  1.00  0.00     0.061 A 
ATOM     36  C   UNL     1       9.669  -8.461   0.527  1.00  0.00     0.002 A 
ATOM     37  C   UNL     1       7.818  -9.720  -0.271  1.00  0.00     0.022 A 
ATOM     38  Cl  UNL     1       6.605 -11.581   0.926  1.00  0.00    -0.083 Cl
ATOM     39  C   UNL     1       8.877  -8.880  -0.531  1.00  0.00     0.002 A 
ENDBRANCH  30  33
ENDBRANCH  28  30
ENDBRANCH  16  28
ENDBRANCH   4   7
ENDBRANCH   2   3
ENDBRANCH   1   2
BRANCH   1  40
ATOM     40  C   UNL     1       4.086 -11.982   3.430  1.00  0.00     0.023 C 
BRANCH  40  41
ATOM     41  C   UNL     1       5.390 -12.825   3.452  1.00  0.00     0.116 C 
BRANCH  41  42
ATOM     42  N   UNL     1       5.987 -13.262   4.699  1.00  0.00    -0.352 N 
ATOM     43  C   UNL     1       7.033 -14.175   4.798  1.00  0.00     0.251 C 
ATOM     44  H   UNL     1       5.627 -12.886   5.535  1.00  0.00     0.163 HD
ATOM     45  O   UNL     1       7.658 -14.309   5.846  1.00  0.00    -0.269 OA
BRANCH  43  46
ATOM     46  C   UNL     1       7.380 -15.043   3.638  1.00  0.00     0.039 A 
ATOM     47  C   UNL     1       6.915 -16.361   3.638  1.00  0.00     0.014 A 
ATOM     48  C   UNL     1       8.176 -14.593   2.577  1.00  0.00     0.014 A 
ATOM     49  C   UNL     1       7.179 -17.201   2.548  1.00  0.00     0.010 A 
ATOM     50  C   UNL     1       8.414 -15.429   1.469  1.00  0.00     0.010 A 
ATOM     51  C   UNL     1       7.897 -16.735   1.432  1.00  0.00    -0.014 A 
BRANCH  51  52
ATOM     52  C   UNL     1       8.021 -17.600   0.220  1.00  0.00     0.031 A 
ATOM     53  C   UNL     1       9.332 -18.232  -0.168  1.00  0.00     0.074 A 
ATOM     54  C   UNL     1       6.923 -17.831  -0.532  1.00  0.00     0.049 A 
ATOM     55  N   UNL     1       9.590 -19.061  -1.150  1.00  0.00    -0.248 NA
ATOM     56  C   UNL     1      10.505 -17.882   0.645  1.00  0.00     0.031 C 
ATOM     57  C   UNL     1       5.597 -17.262  -0.275  1.00  0.00     0.029 A 
ATOM     58  N   UNL     1       6.734 -18.608  -1.650  1.00  0.00    -0.354 N 
ATOM     59  C   UNL     1      10.952 -19.335  -1.073  1.00  0.00     0.074 A 
ATOM     60  C   UNL     1      11.472 -18.550   0.028  1.00  0.00     0.031 C 
ATOM     61  C   UNL     1       4.729 -17.733  -1.184  1.00  0.00     0.029 A 
ATOM     62  C   UNL     1       5.436 -18.610  -2.111  1.00  0.00     0.049 A 
ATOM     63  H   UNL     1       7.459 -19.116  -2.081  1.00  0.00     0.167 HD
ATOM     64  C   UNL     1      11.698 -20.172  -1.838  1.00  0.00     0.031 A 
ATOM     65  C   UNL     1       4.873 -19.244  -3.161  1.00  0.00     0.031 A 
ATOM     66  C   UNL     1      11.177 -20.940  -2.942  1.00  0.00     0.049 A 
ATOM     67  C   UNL     1       5.728 -20.142  -4.014  1.00  0.00     0.074 A 
ATOM     68  C   UNL     1      11.841 -21.841  -3.756  1.00  0.00     0.029 A 
ATOM     69  N   UNL     1       9.865 -20.890  -3.393  1.00  0.00    -0.354 N 
ATOM     70  N   UNL     1       6.999 -20.438  -3.879  1.00  0.00    -0.248 NA
ATOM     71  C   UNL     1       5.074 -20.796  -5.156  1.00  0.00     0.031 C 
ATOM     72  C   UNL     1      10.947 -22.291  -4.734  1.00  0.00     0.029 A 
ATOM     73  C   UNL     1       9.709 -21.717  -4.493  1.00  0.00     0.049 A 
ATOM     74  H   UNL     1       9.150 -20.346  -2.990  1.00  0.00     0.167 HD
ATOM     75  C   UNL     1       7.294 -21.324  -4.909  1.00  0.00     0.074 A 
ATOM     76  C   UNL     1       6.063 -21.535  -5.644  1.00  0.00     0.031 C 
ATOM     77  C   UNL     1       8.477 -21.907  -5.220  1.00  0.00     0.031 A 
BRANCH  64  78
ATOM     78  C   UNL     1      13.170 -20.286  -1.521  1.00  0.00    -0.014 A 
ATOM     79  C   UNL     1      13.615 -20.923  -0.348  1.00  0.00     0.010 A 
ATOM     80  C   UNL     1      14.125 -19.785  -2.425  1.00  0.00     0.010 A 
ATOM     81  C   UNL     1      14.980 -21.010  -0.060  1.00  0.00     0.020 A 
ATOM     82  C   UNL     1      15.494 -19.894  -2.155  1.00  0.00     0.020 A 
ATOM     83  C   UNL     1      15.912 -20.488  -0.963  1.00  0.00     0.054 A 
BRANCH  83  84
ATOM     84  S   UNL     1      17.678 -20.618  -0.564  1.00  0.00     0.124 S 
ATOM     85  O   UNL     1      17.816 -19.642   0.513  1.00  0.00    -0.237 OA
ATOM     86  O   UNL     1      17.815 -22.016  -0.165  1.00  0.00    -0.237 OA
ATOM     87  O   UNL     1      18.344 -20.262  -1.815  1.00  0.00    -0.744 OA
ENDBRANCH  83  84
ENDBRANCH  64  78
BRANCH  65  88
ATOM     88  C   UNL     1       3.425 -19.050  -3.463  1.00  0.00    -0.014 A 
ATOM     89  C   UNL     1       2.504 -20.098  -3.291  1.00  0.00     0.010 A 
ATOM     90  C   UNL     1       2.957 -17.802  -3.917  1.00  0.00     0.010 A 
ATOM     91  C   UNL     1       1.147 -19.907  -3.578  1.00  0.00     0.020 A 
ATOM     92  C   UNL     1       1.598 -17.598  -4.177  1.00  0.00     0.020 A 
ATOM     93  C   UNL     1       0.703 -18.656  -4.016  1.00  0.00     0.054 A 
BRANCH  93  94
ATOM     94  S   UNL     1      -1.069 -18.414  -4.329  1.00  0.00     0.124 S 
ATOM     95  O   UNL     1      -1.263 -19.156  -5.571  1.00  0.00    -0.237 OA
ATOM     96  O   UNL     1      -1.683 -18.999  -3.139  1.00  0.00    -0.237 OA
ATOM     97  O   UNL     1      -1.202 -16.963  -4.438  1.00  0.00    -0.744 OA
ENDBRANCH  93  94
ENDBRANCH  65  88
BRANCH  77  98
ATOM     98  C   UNL     1       8.499 -22.837  -6.404  1.00  0.00    -0.014 A 
ATOM     99  C   UNL     1       8.416 -22.340  -7.717  1.00  0.00     0.010 A 
ATOM    100  C   UNL     1       8.669 -24.219  -6.204  1.00  0.00     0.010 A 
ATOM    101  C   UNL     1       8.479 -23.211  -8.808  1.00  0.00     0.020 A 
ATOM    102  C   UNL     1       8.760 -25.090  -7.293  1.00  0.00     0.020 A 
ATOM    103  C   UNL     1       8.653 -24.581  -8.589  1.00  0.00     0.054 A 
BRANCH 103 104
ATOM    104  S   UNL     1       8.789 -25.682 -10.023  1.00  0.00     0.124 S 
ATOM    105  O   UNL     1       7.413 -25.720 -10.510  1.00  0.00    -0.237 OA
ATOM    106  O   UNL     1       9.739 -24.977 -10.880  1.00  0.00    -0.237 OA
ATOM    107  O   UNL     1       9.284 -26.934  -9.454  1.00  0.00    -0.744 OA
ENDBRANCH 103 104
ENDBRANCH  77  98
ENDBRANCH  51  52
ENDBRANCH  43  46
ENDBRANCH  41  42
ENDBRANCH  40  41
ENDBRANCH   1  40
TORSDOF 21
