REMARK SMILES O=C(NCCCCNC(=O)c1cc(S(=O)(=O)NNC(=O)[C@H]2C=C(c3ccccc3)N=N2)ccc1F)c1ccc(-c2c3nc(c(-c4ccc(S(=O)(=O)[O-])cc4)c4ccc([nH]4)c(-c4ccc(S(=O)(=O)[O-])cc4)c4nc(c(-c5ccc(S(=O)(=O)[O-])cc5)c5ccc2[nH]5)C=C4)C=C3)cc1
REMARK SMILES IDX 6 1 5 2 4 3 3 4 1 5 2 6 36 8 37 9 95 10 38 11 94 12 39 13
REMARK SMILES IDX 40 14 41 15 88 16 42 17 93 18 87 19 89 20 43 21 92 22 86 23
REMARK SMILES IDX 85 24 44 26 74 27 55 28 73 29 56 30 59 31 72 32 90 33 57 34
REMARK SMILES IDX 58 35 71 37 91 38 60 39 45 40 46 41 54 42 47 43 53 44 48 45
REMARK SMILES IDX 49 46 50 47 51 48 52 49 75 50 76 51 84 52 77 53 83 54 78 55
REMARK SMILES IDX 79 56 80 57 81 58 82 59 61 60 62 61 70 62 63 63 69 64 64 65
REMARK SMILES IDX 65 66 66 67 67 68 68 69 7 70 8 71 9 72 10 74 11 75 12 76
REMARK SMILES IDX 34 77 13 78 33 79 35 80 32 81 14 82 15 83 16 84 17 85 18 87
REMARK SMILES IDX 19 88 20 90 21 91 22 92 31 93 23 94 30 95 24 96 25 97 29 98
REMARK SMILES IDX 26 99 28 100 27 101
REMARK H PARENT 3 7 89 25 59 36 8 73 17 86 18 89
REMARK Flexibility Score: inf
ROOT
ATOM      1  C   UNL     1       4.377   7.940 -11.368  1.00  0.00     0.023 C 
ENDROOT
BRANCH   1   2
ATOM      2  C   UNL     1       4.086   7.774 -12.863  1.00  0.00     0.023 C 
BRANCH   2   3
ATOM      3  C   UNL     1       5.187   7.106 -13.685  1.00  0.00     0.116 C 
BRANCH   3   4
ATOM      4  N   UNL     1       5.608   5.814 -13.187  1.00  0.00    -0.352 N 
ATOM      5  O   UNL     1       6.014   3.669 -12.940  1.00  0.00    -0.269 OA
ATOM      6  C   UNL     1       5.256   4.514 -13.426  1.00  0.00     0.251 C 
ATOM      7  H   UNL     1       6.321   5.888 -12.511  1.00  0.00     0.163 HD
BRANCH   6   8
ATOM      8  C   UNL     1       4.040   4.047 -14.154  1.00  0.00     0.039 A 
ATOM      9  C   UNL     1       3.125   4.845 -14.841  1.00  0.00     0.014 A 
ATOM     10  C   UNL     1       3.791   2.660 -14.086  1.00  0.00     0.014 A 
ATOM     11  C   UNL     1       1.965   4.280 -15.385  1.00  0.00     0.010 A 
ATOM     12  C   UNL     1       2.638   2.094 -14.624  1.00  0.00     0.010 A 
ATOM     13  C   UNL     1       1.702   2.910 -15.247  1.00  0.00    -0.014 A 
BRANCH  13  14
ATOM     14  C   UNL     1       0.510   2.344 -15.886  1.00  0.00     0.031 A 
ATOM     15  C   UNL     1       0.491   2.442 -17.375  1.00  0.00     0.074 A 
ATOM     16  C   UNL     1      -0.454   1.646 -15.246  1.00  0.00     0.049 A 
ATOM     17  N   UNL     1      -0.318   3.123 -18.118  1.00  0.00    -0.248 NA
ATOM     18  C   UNL     1       1.569   1.778 -18.124  1.00  0.00     0.031 C 
ATOM     19  C   UNL     1      -0.473   1.183 -13.856  1.00  0.00     0.029 A 
ATOM     20  N   UNL     1      -1.606   1.114 -15.755  1.00  0.00    -0.354 N 
ATOM     21  C   UNL     1       0.026   2.838 -19.439  1.00  0.00     0.074 A 
ATOM     22  C   UNL     1       1.268   2.107 -19.382  1.00  0.00     0.031 C 
ATOM     23  C   UNL     1      -1.455   0.262 -13.700  1.00  0.00     0.029 A 
ATOM     24  C   UNL     1      -2.229   0.183 -14.928  1.00  0.00     0.049 A 
ATOM     25  H   UNL     1      -1.965   1.368 -16.635  1.00  0.00     0.167 HD
ATOM     26  C   UNL     1      -0.826   3.066 -20.478  1.00  0.00     0.031 A 
ATOM     27  C   UNL     1      -3.281  -0.619 -15.242  1.00  0.00     0.031 A 
ATOM     28  C   UNL     1      -1.923   3.912 -20.096  1.00  0.00     0.049 A 
ATOM     29  C   UNL     1      -3.978   0.002 -16.393  1.00  0.00     0.074 A 
ATOM     30  C   UNL     1      -2.044   5.209 -19.641  1.00  0.00     0.029 A 
ATOM     31  N   UNL     1      -3.120   3.298 -19.816  1.00  0.00    -0.354 N 
ATOM     32  N   UNL     1      -4.605   1.142 -16.326  1.00  0.00    -0.248 NA
ATOM     33  C   UNL     1      -3.610  -0.435 -17.730  1.00  0.00     0.031 C 
ATOM     34  C   UNL     1      -3.095   5.159 -18.680  1.00  0.00     0.029 A 
ATOM     35  C   UNL     1      -3.595   3.855 -18.659  1.00  0.00     0.049 A 
ATOM     36  H   UNL     1      -3.554   2.591 -20.347  1.00  0.00     0.167 HD
ATOM     37  C   UNL     1      -4.335   1.764 -17.535  1.00  0.00     0.074 A 
ATOM     38  C   UNL     1      -3.790   0.711 -18.391  1.00  0.00     0.031 C 
ATOM     39  C   UNL     1      -4.327   3.124 -17.647  1.00  0.00     0.031 A 
BRANCH  26  40
ATOM     40  C   UNL     1      -0.879   2.237 -21.739  1.00  0.00    -0.014 A 
ATOM     41  C   UNL     1      -1.778   2.612 -22.761  1.00  0.00     0.010 A 
ATOM     42  C   UNL     1      -0.302   0.956 -21.833  1.00  0.00     0.010 A 
ATOM     43  C   UNL     1      -2.144   1.717 -23.775  1.00  0.00     0.020 A 
ATOM     44  C   UNL     1      -0.629   0.071 -22.864  1.00  0.00     0.020 A 
ATOM     45  C   UNL     1      -1.578   0.444 -23.808  1.00  0.00     0.054 A 
BRANCH  45  46
ATOM     46  S   UNL     1      -2.150  -0.745 -25.048  1.00  0.00     0.124 S 
ATOM     47  O   UNL     1      -3.536  -0.958 -24.643  1.00  0.00    -0.237 OA
ATOM     48  O   UNL     1      -1.958  -0.009 -26.294  1.00  0.00    -0.237 OA
ATOM     49  O   UNL     1      -1.259  -1.888 -24.861  1.00  0.00    -0.744 OA
ENDBRANCH  45  46
ENDBRANCH  26  40
BRANCH  27  50
ATOM     50  C   UNL     1      -3.523  -2.033 -14.843  1.00  0.00    -0.014 A 
ATOM     51  C   UNL     1      -4.774  -2.651 -15.048  1.00  0.00     0.010 A 
ATOM     52  C   UNL     1      -2.429  -2.867 -14.540  1.00  0.00     0.010 A 
ATOM     53  C   UNL     1      -4.909  -4.053 -15.010  1.00  0.00     0.020 A 
ATOM     54  C   UNL     1      -2.556  -4.263 -14.498  1.00  0.00     0.020 A 
ATOM     55  C   UNL     1      -3.791  -4.852 -14.756  1.00  0.00     0.054 A 
BRANCH  55  56
ATOM     56  S   UNL     1      -3.929  -6.662 -14.885  1.00  0.00     0.124 S 
ATOM     57  O   UNL     1      -4.727  -6.999 -13.710  1.00  0.00    -0.237 OA
ATOM     58  O   UNL     1      -4.594  -6.842 -16.173  1.00  0.00    -0.237 OA
ATOM     59  O   UNL     1      -2.540  -7.117 -14.841  1.00  0.00    -0.744 OA
ENDBRANCH  55  56
ENDBRANCH  27  50
BRANCH  39  60
ATOM     60  C   UNL     1      -4.906   3.956 -16.528  1.00  0.00    -0.014 A 
ATOM     61  C   UNL     1      -4.371   4.001 -15.226  1.00  0.00     0.010 A 
ATOM     62  C   UNL     1      -5.907   4.879 -16.878  1.00  0.00     0.010 A 
ATOM     63  C   UNL     1      -4.829   4.954 -14.301  1.00  0.00     0.020 A 
ATOM     64  C   UNL     1      -6.353   5.839 -15.969  1.00  0.00     0.020 A 
ATOM     65  C   UNL     1      -5.811   5.874 -14.684  1.00  0.00     0.054 A 
BRANCH  65  66
ATOM     66  S   UNL     1      -6.329   7.170 -13.523  1.00  0.00     0.124 S 
ATOM     67  O   UNL     1      -7.071   6.417 -12.516  1.00  0.00    -0.237 OA
ATOM     68  O   UNL     1      -5.056   7.734 -13.076  1.00  0.00    -0.237 OA
ATOM     69  O   UNL     1      -7.139   8.070 -14.344  1.00  0.00    -0.744 OA
ENDBRANCH  65  66
ENDBRANCH  39  60
ENDBRANCH  13  14
ENDBRANCH   6   8
ENDBRANCH   3   4
ENDBRANCH   2   3
ENDBRANCH   1   2
BRANCH   1  70
ATOM     70  C   UNL     1       5.675   8.656 -11.004  1.00  0.00     0.116 C 
BRANCH  70  71
ATOM     71  N   UNL     1       5.709  10.050 -11.419  1.00  0.00    -0.352 N 
ATOM     72  C   UNL     1       5.989  11.174 -10.679  1.00  0.00     0.254 C 
ATOM     73  H   UNL     1       5.501  10.212 -12.368  1.00  0.00     0.163 HD
ATOM     74  O   UNL     1       5.945  12.288 -11.193  1.00  0.00    -0.269 OA
BRANCH  72  75
ATOM     75  C   UNL     1       6.280  11.068  -9.239  1.00  0.00     0.076 A 
ATOM     76  C   UNL     1       5.538  11.849  -8.348  1.00  0.00     0.038 A 
ATOM     77  C   UNL     1       7.288  10.239  -8.752  1.00  0.00     0.136 A 
ATOM     78  C   UNL     1       5.748  11.714  -6.969  1.00  0.00     0.085 A 
ATOM     79  C   UNL     1       7.473  10.078  -7.379  1.00  0.00     0.041 A 
ATOM     80  F   UNL     1       8.088   9.560  -9.587  1.00  0.00    -0.206 F 
ATOM     81  C   UNL     1       6.681  10.795  -6.479  1.00  0.00     0.025 A 
BRANCH  78  82
ATOM     82  S   UNL     1       4.887  12.850  -5.913  1.00  0.00     0.257 S 
ATOM     83  O   UNL     1       5.228  14.180  -6.364  1.00  0.00    -0.205 OA
ATOM     84  O   UNL     1       3.521  12.389  -5.807  1.00  0.00    -0.205 OA
BRANCH  82  85
ATOM     85  N   UNL     1       5.573  12.670  -4.363  1.00  0.00    -0.123 NA
ATOM     86  H   UNL     1       5.493  11.684  -4.114  1.00  0.00     0.167 HD
BRANCH  85  87
ATOM     87  N   UNL     1       6.953  13.047  -4.163  1.00  0.00    -0.275 N 
ATOM     88  C   UNL     1       7.468  13.648  -3.046  1.00  0.00     0.265 C 
ATOM     89  H   UNL     1       7.581  12.853  -4.896  1.00  0.00     0.186 HD
ATOM     90  O   UNL     1       8.699  13.683  -2.931  1.00  0.00    -0.271 OA
BRANCH  88  91
ATOM     91  C   UNL     1       6.544  14.242  -1.975  1.00  0.00     0.244 C 
ATOM     92  C   UNL     1       7.162  15.494  -1.464  1.00  0.00     0.042 C 
ATOM     93  N   UNL     1       5.281  14.752  -2.583  1.00  0.00    -0.171 NA
ATOM     94  C   UNL     1       6.369  16.481  -1.882  1.00  0.00     0.091 C 
ATOM     95  N   UNL     1       5.243  16.014  -2.510  1.00  0.00    -0.155 NA
BRANCH  94  96
ATOM     96  C   UNL     1       6.668  17.907  -1.750  1.00  0.00     0.002 A 
ATOM     97  C   UNL     1       5.731  18.782  -1.188  1.00  0.00     0.010 A 
ATOM     98  C   UNL     1       7.888  18.423  -2.213  1.00  0.00     0.010 A 
ATOM     99  C   UNL     1       6.019  20.144  -1.070  1.00  0.00     0.001 A 
ATOM    100  C   UNL     1       8.171  19.786  -2.105  1.00  0.00     0.001 A 
ATOM    101  C   UNL     1       7.238  20.645  -1.528  1.00  0.00     0.000 A 
ENDBRANCH  94  96
ENDBRANCH  88  91
ENDBRANCH  85  87
ENDBRANCH  82  85
ENDBRANCH  78  82
ENDBRANCH  72  75
ENDBRANCH  70  71
ENDBRANCH   1  70
TORSDOF 19
