REMARK SMILES O=C(NCCCCNC(=O)[C@@H]1CCC(=O)N(CCCOC2CCCCC2)[C@H]1c1ccco1)c1ccc(-c2c3nc(c(-c4ccc(S(=O)(=O)[O-])cc4)c4ccc([nH]4)c(-c4ccc(S(=O)(=O)[O-])cc4)c4nc(c(-c5ccc(S(=O)(=O)[O-])cc5)c5ccc2[nH]5)C=C4)C=C3)cc1
REMARK SMILES IDX 6 1 5 2 4 3 3 4 1 5 2 6 33 8 34 9 92 10 35 11 91 12 36 13
REMARK SMILES IDX 37 14 38 15 85 16 39 17 90 18 84 19 86 20 40 21 89 22 83 23
REMARK SMILES IDX 82 24 41 26 71 27 52 28 70 29 53 30 56 31 69 32 87 33 54 34
REMARK SMILES IDX 55 35 68 37 88 38 57 39 42 40 43 41 51 42 44 43 50 44 45 45
REMARK SMILES IDX 46 46 47 47 48 48 49 49 72 50 73 51 81 52 74 53 80 54 75 55
REMARK SMILES IDX 76 56 77 57 78 58 79 59 58 60 59 61 67 62 60 63 66 64 61 65
REMARK SMILES IDX 62 66 63 67 64 68 65 69 7 70 8 71 9 72 10 74 11 75 12 76
REMARK SMILES IDX 27 77 13 78 16 79 14 80 15 81 28 82 29 83 32 84 30 85 31 86
REMARK SMILES IDX 17 87 18 88 19 89 20 90 21 91 22 92 26 93 23 94 25 95 24 96
REMARK H PARENT 3 7 86 25 56 36 8 73
REMARK Flexibility Score: inf
ROOT
ATOM      1  C   UNL     1       4.703   1.064  -3.340  1.00  0.00     0.023 C 
ENDROOT
BRANCH   1   2
ATOM      2  C   UNL     1       5.205  -0.020  -2.392  1.00  0.00     0.023 C 
BRANCH   2   3
ATOM      3  C   UNL     1       4.666   0.060  -0.970  1.00  0.00     0.116 C 
BRANCH   3   4
ATOM      4  N   UNL     1       3.220   0.214  -0.858  1.00  0.00    -0.352 N 
ATOM      5  O   UNL     1       1.201  -0.052   0.140  1.00  0.00    -0.269 OA
ATOM      6  C   UNL     1       2.404  -0.213   0.175  1.00  0.00     0.251 C 
ATOM      7  H   UNL     1       2.772   0.675  -1.604  1.00  0.00     0.163 HD
BRANCH   6   8
ATOM      8  C   UNL     1       3.051  -0.918   1.304  1.00  0.00     0.039 A 
ATOM      9  C   UNL     1       4.165  -0.345   1.913  1.00  0.00     0.014 A 
ATOM     10  C   UNL     1       2.637  -2.209   1.639  1.00  0.00     0.014 A 
ATOM     11  C   UNL     1       4.987  -1.139   2.692  1.00  0.00     0.010 A 
ATOM     12  C   UNL     1       3.404  -2.966   2.530  1.00  0.00     0.010 A 
ATOM     13  C   UNL     1       4.613  -2.455   3.026  1.00  0.00    -0.014 A 
BRANCH  13  14
ATOM     14  C   UNL     1       5.497  -3.223   3.940  1.00  0.00     0.031 A 
ATOM     15  C   UNL     1       6.177  -4.495   3.509  1.00  0.00     0.074 A 
ATOM     16  C   UNL     1       5.756  -2.691   5.151  1.00  0.00     0.049 A 
ATOM     17  N   UNL     1       7.034  -5.229   4.175  1.00  0.00    -0.248 NA
ATOM     18  C   UNL     1       5.856  -5.022   2.172  1.00  0.00     0.031 C 
ATOM     19  C   UNL     1       5.141  -1.466   5.678  1.00  0.00     0.029 A 
ATOM     20  N   UNL     1       6.634  -3.066   6.133  1.00  0.00    -0.354 N 
ATOM     21  C   UNL     1       7.333  -6.313   3.356  1.00  0.00     0.074 A 
ATOM     22  C   UNL     1       6.555  -6.150   2.147  1.00  0.00     0.031 C 
ATOM     23  C   UNL     1       5.729  -1.141   6.836  1.00  0.00     0.029 A 
ATOM     24  C   UNL     1       6.691  -2.178   7.181  1.00  0.00     0.049 A 
ATOM     25  H   UNL     1       7.170  -3.890   6.092  1.00  0.00     0.167 HD
ATOM     26  C   UNL     1       8.177  -7.346   3.596  1.00  0.00     0.031 A 
ATOM     27  C   UNL     1       7.423  -2.197   8.309  1.00  0.00     0.031 A 
ATOM     28  C   UNL     1       8.952  -7.494   4.803  1.00  0.00     0.049 A 
ATOM     29  C   UNL     1       8.359  -3.343   8.538  1.00  0.00     0.074 A 
ATOM     30  C   UNL     1       9.828  -8.510   5.147  1.00  0.00     0.029 A 
ATOM     31  N   UNL     1       8.952  -6.595   5.860  1.00  0.00    -0.354 N 
ATOM     32  N   UNL     1       8.607  -4.367   7.757  1.00  0.00    -0.248 NA
ATOM     33  C   UNL     1       9.104  -3.343   9.801  1.00  0.00     0.031 C 
ATOM     34  C   UNL     1      10.330  -8.243   6.427  1.00  0.00     0.029 A 
ATOM     35  C   UNL     1       9.805  -7.036   6.859  1.00  0.00     0.049 A 
ATOM     36  H   UNL     1       8.424  -5.765   5.896  1.00  0.00     0.167 HD
ATOM     37  C   UNL     1       9.530  -5.144   8.442  1.00  0.00     0.074 A 
ATOM     38  C   UNL     1       9.830  -4.446   9.677  1.00  0.00     0.031 C 
ATOM     39  C   UNL     1      10.070  -6.337   8.090  1.00  0.00     0.031 A 
BRANCH  26  40
ATOM     40  C   UNL     1       8.296  -8.419   2.543  1.00  0.00    -0.014 A 
ATOM     41  C   UNL     1       8.998  -8.191   1.346  1.00  0.00     0.010 A 
ATOM     42  C   UNL     1       7.759  -9.698   2.785  1.00  0.00     0.010 A 
ATOM     43  C   UNL     1       9.138  -9.212   0.400  1.00  0.00     0.020 A 
ATOM     44  C   UNL     1       7.916 -10.728   1.852  1.00  0.00     0.020 A 
ATOM     45  C   UNL     1       8.595 -10.475   0.659  1.00  0.00     0.054 A 
BRANCH  45  46
ATOM     46  S   UNL     1       8.825 -11.793  -0.568  1.00  0.00     0.124 S 
ATOM     47  O   UNL     1       7.896 -11.389  -1.620  1.00  0.00    -0.237 OA
ATOM     48  O   UNL     1      10.242 -11.675  -0.903  1.00  0.00    -0.237 OA
ATOM     49  O   UNL     1       8.458 -13.008   0.155  1.00  0.00    -0.744 OA
ENDBRANCH  45  46
ENDBRANCH  26  40
BRANCH  27  50
ATOM     50  C   UNL     1       7.250  -1.115   9.314  1.00  0.00    -0.014 A 
ATOM     51  C   UNL     1       8.268  -0.178   9.553  1.00  0.00     0.010 A 
ATOM     52  C   UNL     1       6.030  -0.995  10.007  1.00  0.00     0.010 A 
ATOM     53  C   UNL     1       8.074   0.854  10.476  1.00  0.00     0.020 A 
ATOM     54  C   UNL     1       5.820   0.053  10.903  1.00  0.00     0.020 A 
ATOM     55  C   UNL     1       6.849   0.964  11.143  1.00  0.00     0.054 A 
BRANCH  55  56
ATOM     56  S   UNL     1       6.587   2.346  12.287  1.00  0.00     0.124 S 
ATOM     57  O   UNL     1       7.277   1.881  13.485  1.00  0.00    -0.237 OA
ATOM     58  O   UNL     1       7.214   3.465  11.588  1.00  0.00    -0.237 OA
ATOM     59  O   UNL     1       5.131   2.427  12.392  1.00  0.00    -0.744 OA
ENDBRANCH  55  56
ENDBRANCH  27  50
BRANCH  39  60
ATOM     60  C   UNL     1      11.037  -6.947   9.065  1.00  0.00    -0.014 A 
ATOM     61  C   UNL     1      10.584  -7.508  10.273  1.00  0.00     0.010 A 
ATOM     62  C   UNL     1      12.412  -6.954   8.774  1.00  0.00     0.010 A 
ATOM     63  C   UNL     1      11.497  -8.018  11.198  1.00  0.00     0.020 A 
ATOM     64  C   UNL     1      13.325  -7.486   9.686  1.00  0.00     0.020 A 
ATOM     65  C   UNL     1      12.863  -7.994  10.902  1.00  0.00     0.054 A 
BRANCH  65  66
ATOM     66  S   UNL     1      14.033  -8.660  12.118  1.00  0.00     0.124 S 
ATOM     67  O   UNL     1      14.092  -7.582  13.101  1.00  0.00    -0.237 OA
ATOM     68  O   UNL     1      13.372  -9.884  12.565  1.00  0.00    -0.237 OA
ATOM     69  O   UNL     1      15.254  -8.866  11.343  1.00  0.00    -0.744 OA
ENDBRANCH  65  66
ENDBRANCH  39  60
ENDBRANCH  13  14
ENDBRANCH   6   8
ENDBRANCH   3   4
ENDBRANCH   2   3
ENDBRANCH   1   2
BRANCH   1  70
ATOM     70  C   UNL     1       4.953   2.497  -2.877  1.00  0.00     0.116 C 
BRANCH  70  71
ATOM     71  N   UNL     1       6.120   3.075  -3.505  1.00  0.00    -0.356 N 
ATOM     72  C   UNL     1       6.317   3.871  -4.574  1.00  0.00     0.225 C 
ATOM     73  H   UNL     1       6.958   2.832  -3.050  1.00  0.00     0.163 HD
ATOM     74  O   UNL     1       7.489   4.248  -4.728  1.00  0.00    -0.275 OA
BRANCH  72  75
ATOM     75  C   UNL     1       5.269   4.376  -5.568  1.00  0.00     0.109 C 
ATOM     76  C   UNL     1       3.777   4.149  -5.447  1.00  0.00     0.026 C 
ATOM     77  C   UNL     1       5.729   4.010  -6.995  1.00  0.00     0.164 C 
ATOM     78  C   UNL     1       3.293   2.819  -5.986  1.00  0.00     0.101 C 
ATOM     79  N   UNL     1       5.338   2.660  -7.424  1.00  0.00    -0.332 N 
ATOM     80  C   UNL     1       4.154   2.081  -6.993  1.00  0.00     0.223 C 
ATOM     81  O   UNL     1       3.788   0.961  -7.359  1.00  0.00    -0.275 OA
BRANCH  77  82
ATOM     82  C   UNL     1       5.261   5.033  -7.992  1.00  0.00     0.127 A 
ATOM     83  C   UNL     1       5.726   6.294  -8.313  1.00  0.00     0.048 A 
ATOM     84  O   UNL     1       4.173   4.733  -8.761  1.00  0.00    -0.467 OA
ATOM     85  C   UNL     1       4.887   6.779  -9.344  1.00  0.00     0.042 A 
ATOM     86  C   UNL     1       3.966   5.789  -9.587  1.00  0.00     0.195 A 
ENDBRANCH  77  82
BRANCH  79  87
ATOM     87  C   UNL     1       6.209   1.854  -8.310  1.00  0.00     0.122 C 
BRANCH  87  88
ATOM     88  C   UNL     1       6.914   2.526  -9.498  1.00  0.00     0.050 C 
BRANCH  88  89
ATOM     89  C   UNL     1       8.192   3.345  -9.266  1.00  0.00     0.162 C 
BRANCH  89  90
ATOM     90  O   UNL     1       9.411   2.611  -9.232  1.00  0.00    -0.378 OA
BRANCH  90  91
ATOM     91  C   UNL     1       9.841   1.933  -8.046  1.00  0.00     0.118 C 
ATOM     92  C   UNL     1       9.252   2.409  -6.712  1.00  0.00     0.032 C 
ATOM     93  C   UNL     1       9.726   0.429  -8.304  1.00  0.00     0.032 C 
ATOM     94  C   UNL     1       9.458   1.463  -5.532  1.00  0.00     0.003 C 
ATOM     95  C   UNL     1      10.055  -0.407  -7.076  1.00  0.00     0.003 C 
ATOM     96  C   UNL     1       9.186   0.009  -5.900  1.00  0.00     0.000 C 
ENDBRANCH  90  91
ENDBRANCH  89  90
ENDBRANCH  88  89
ENDBRANCH  87  88
ENDBRANCH  79  87
ENDBRANCH  72  75
ENDBRANCH  70  71
ENDBRANCH   1  70
TORSDOF 20
