REMARK SMILES O=C(C[C@H](NC(=O)[C@]12C[C@H]3C[C@H](C[C@H](C3)C1)C2)c1cccc([N+](=O)[O-])c1)NCCCCNC(=O)c1ccc(-c2c3nc(c(-c4ccc(S(=O)(=O)[O-])cc4)c4ccc([nH]4)c(-c4ccc(S(=O)(=O)[O-])cc4)c4nc(c(-c5ccc(S(=O)(=O)[O-])cc5)c5ccc2[nH]5)C=C4)C=C3)cc1
REMARK SMILES IDX 29 1 28 2 27 3 1 4 2 5 3 7 4 8 18 9 19 10 26 11 20 12 22 13
REMARK SMILES IDX 21 14 23 15 24 16 25 17 5 18 6 19 7 21 8 22 9 23 16 24 17 25
REMARK SMILES IDX 10 26 14 27 12 28 11 29 15 30 13 31 30 32 31 33 32 34 33 35
REMARK SMILES IDX 34 37 35 38 36 39 94 40 37 41 93 42 38 43 39 44 40 45 87 46
REMARK SMILES IDX 41 47 92 48 86 49 88 50 42 51 91 52 85 53 84 54 43 56 73 57
REMARK SMILES IDX 54 58 72 59 55 60 58 61 71 62 89 63 56 64 57 65 70 67 90 68
REMARK SMILES IDX 59 69 44 70 45 71 53 72 46 73 52 74 47 75 48 76 49 77 50 78
REMARK SMILES IDX 51 79 74 80 75 81 83 82 76 83 82 84 77 85 78 86 79 87 80 88
REMARK SMILES IDX 81 89 60 90 61 91 69 92 62 93 68 94 63 95 64 96 65 97 66 98
REMARK SMILES IDX 67 99
REMARK H PARENT 27 6 5 20 32 36 88 55 58 66
REMARK Flexibility Score: inf
ROOT
ATOM      1  C   UNL     1       2.526   0.557   3.913  1.00  0.00     0.023 C 
ENDROOT
BRANCH   1   2
ATOM      2  C   UNL     1       2.763  -0.413   2.753  1.00  0.00     0.116 C 
BRANCH   2   3
ATOM      3  N   UNL     1       3.115   0.310   1.549  1.00  0.00    -0.356 N 
ATOM      4  O   UNL     1       5.313  -0.367   1.415  1.00  0.00    -0.275 OA
ATOM      5  C   UNL     1       4.395   0.354   1.044  1.00  0.00     0.222 C 
ATOM      6  H   UNL     1       2.405   0.793   1.068  1.00  0.00     0.163 HD
BRANCH   5   7
ATOM      7  C   UNL     1       4.553   1.400  -0.030  1.00  0.00     0.129 C 
BRANCH   7   8
ATOM      8  C   UNL     1       4.230   0.938  -1.466  1.00  0.00     0.122 C 
BRANCH   8   9
ATOM      9  C   UNL     1       5.548   0.851  -2.214  1.00  0.00    -0.018 A 
ATOM     10  C   UNL     1       6.348  -0.303  -2.192  1.00  0.00     0.006 A 
ATOM     11  C   UNL     1       5.911   1.924  -3.056  1.00  0.00     0.091 A 
ATOM     12  C   UNL     1       7.404  -0.443  -3.102  1.00  0.00     0.007 A 
ATOM     13  C   UNL     1       6.955   1.764  -3.974  1.00  0.00     0.269 A 
ATOM     14  C   UNL     1       7.691   0.575  -4.017  1.00  0.00     0.085 A 
BRANCH  13  15
ATOM     15  N   UNL     1       7.191   2.808  -4.975  1.00  0.00     0.062 N 
ATOM     16  O   UNL     1       7.787   2.486  -6.013  1.00  0.00    -0.258 OA
ATOM     17  O   UNL     1       6.763   3.945  -4.728  1.00  0.00    -0.258 OA
ENDBRANCH  13  15
ENDBRANCH   8   9
BRANCH   8  18
ATOM     18  N   UNL     1       3.347  -0.245  -1.573  1.00  0.00    -0.348 N 
ATOM     19  C   UNL     1       2.602  -0.866  -2.532  1.00  0.00     0.226 C 
ATOM     20  H   UNL     1       3.278  -0.716  -0.711  1.00  0.00     0.164 HD
ATOM     21  O   UNL     1       1.761  -1.655  -2.077  1.00  0.00    -0.274 OA
BRANCH  19  22
ATOM     22  C   UNL     1       2.722  -0.679  -4.067  1.00  0.00     0.050 C 
ATOM     23  C   UNL     1       1.971  -1.825  -4.818  1.00  0.00     0.020 C 
ATOM     24  C   UNL     1       4.178  -0.783  -4.521  1.00  0.00     0.020 C 
ATOM     25  C   UNL     1       2.113   0.651  -4.555  1.00  0.00     0.020 C 
ATOM     26  C   UNL     1       2.148  -1.704  -6.349  1.00  0.00    -0.010 C 
ATOM     27  C   UNL     1       4.372  -0.624  -6.023  1.00  0.00    -0.010 C 
ATOM     28  C   UNL     1       2.296   0.800  -6.085  1.00  0.00    -0.010 C 
ATOM     29  C   UNL     1       1.584  -0.352  -6.816  1.00  0.00     0.007 C 
ATOM     30  C   UNL     1       3.639  -1.768  -6.714  1.00  0.00     0.007 C 
ATOM     31  C   UNL     1       3.792   0.741  -6.435  1.00  0.00     0.007 C 
ENDBRANCH  19  22
ENDBRANCH   8  18
ENDBRANCH   7   8
ENDBRANCH   5   7
ENDBRANCH   2   3
ENDBRANCH   1   2
BRANCH   1  32
ATOM     32  C   UNL     1       1.455   1.624   3.651  1.00  0.00     0.023 C 
BRANCH  32  33
ATOM     33  C   UNL     1       0.095   1.089   3.213  1.00  0.00     0.116 C 
BRANCH  33  34
ATOM     34  N   UNL     1      -0.512   0.228   4.213  1.00  0.00    -0.352 N 
ATOM     35  C   UNL     1      -1.774   0.281   4.753  1.00  0.00     0.251 C 
ATOM     36  H   UNL     1       0.062  -0.497   4.551  1.00  0.00     0.163 HD
ATOM     37  O   UNL     1      -2.055  -0.430   5.717  1.00  0.00    -0.269 OA
BRANCH  35  38
ATOM     38  C   UNL     1      -2.781   1.212   4.199  1.00  0.00     0.039 A 
ATOM     39  C   UNL     1      -3.550   1.976   5.080  1.00  0.00     0.014 A 
ATOM     40  C   UNL     1      -2.966   1.337   2.819  1.00  0.00     0.014 A 
ATOM     41  C   UNL     1      -4.457   2.912   4.577  1.00  0.00     0.010 A 
ATOM     42  C   UNL     1      -3.816   2.321   2.319  1.00  0.00     0.010 A 
ATOM     43  C   UNL     1      -4.571   3.120   3.192  1.00  0.00    -0.014 A 
BRANCH  43  44
ATOM     44  C   UNL     1      -5.460   4.178   2.642  1.00  0.00     0.031 A 
ATOM     45  C   UNL     1      -6.627   3.812   1.763  1.00  0.00     0.074 A 
ATOM     46  C   UNL     1      -5.185   5.474   2.890  1.00  0.00     0.049 A 
ATOM     47  N   UNL     1      -7.481   4.599   1.161  1.00  0.00    -0.248 NA
ATOM     48  C   UNL     1      -6.851   2.379   1.510  1.00  0.00     0.031 C 
ATOM     49  C   UNL     1      -4.070   5.963   3.705  1.00  0.00     0.029 A 
ATOM     50  N   UNL     1      -5.824   6.621   2.485  1.00  0.00    -0.354 N 
ATOM     51  C   UNL     1      -8.330   3.762   0.445  1.00  0.00     0.074 A 
ATOM     52  C   UNL     1      -7.861   2.410   0.652  1.00  0.00     0.031 C 
ATOM     53  C   UNL     1      -4.128   7.303   3.774  1.00  0.00     0.029 A 
ATOM     54  C   UNL     1      -5.251   7.774   2.969  1.00  0.00     0.049 A 
ATOM     55  H   UNL     1      -6.617   6.617   1.901  1.00  0.00     0.167 HD
ATOM     56  C   UNL     1      -9.411   4.089  -0.303  1.00  0.00     0.031 A 
ATOM     57  C   UNL     1      -5.587   9.066   2.787  1.00  0.00     0.031 A 
ATOM     58  C   UNL     1      -9.883   5.435  -0.496  1.00  0.00     0.049 A 
ATOM     59  C   UNL     1      -6.778   9.403   1.932  1.00  0.00     0.074 A 
ATOM     60  C   UNL     1     -11.005   5.859  -1.188  1.00  0.00     0.029 A 
ATOM     61  N   UNL     1      -9.264   6.574  -0.003  1.00  0.00    -0.354 N 
ATOM     62  N   UNL     1      -7.599   8.592   1.308  1.00  0.00    -0.248 NA
ATOM     63  C   UNL     1      -7.091  10.828   1.763  1.00  0.00     0.031 C 
ATOM     64  C   UNL     1     -11.028   7.256  -1.170  1.00  0.00     0.029 A 
ATOM     65  C   UNL     1      -9.962   7.701  -0.404  1.00  0.00     0.049 A 
ATOM     66  H   UNL     1      -8.450   6.580   0.549  1.00  0.00     0.167 HD
ATOM     67  C   UNL     1      -8.546   9.409   0.700  1.00  0.00     0.074 A 
ATOM     68  C   UNL     1      -8.202  10.774   1.040  1.00  0.00     0.031 C 
ATOM     69  C   UNL     1      -9.609   9.057  -0.065  1.00  0.00     0.031 A 
BRANCH  56  70
ATOM     70  C   UNL     1     -10.158   2.972  -0.986  1.00  0.00    -0.014 A 
ATOM     71  C   UNL     1     -10.923   2.049  -0.251  1.00  0.00     0.010 A 
ATOM     72  C   UNL     1     -10.153   2.889  -2.391  1.00  0.00     0.010 A 
ATOM     73  C   UNL     1     -11.645   1.047  -0.905  1.00  0.00     0.020 A 
ATOM     74  C   UNL     1     -10.897   1.908  -3.051  1.00  0.00     0.020 A 
ATOM     75  C   UNL     1     -11.630   0.985  -2.302  1.00  0.00     0.054 A 
BRANCH  75  76
ATOM     76  S   UNL     1     -12.616  -0.296  -3.125  1.00  0.00     0.124 S 
ATOM     77  O   UNL     1     -11.870  -1.508  -2.797  1.00  0.00    -0.237 OA
ATOM     78  O   UNL     1     -13.917  -0.164  -2.474  1.00  0.00    -0.237 OA
ATOM     79  O   UNL     1     -12.585   0.092  -4.534  1.00  0.00    -0.744 OA
ENDBRANCH  75  76
ENDBRANCH  56  70
BRANCH  57  80
ATOM     80  C   UNL     1      -4.800  10.139   3.455  1.00  0.00    -0.014 A 
ATOM     81  C   UNL     1      -5.362  10.879   4.511  1.00  0.00     0.010 A 
ATOM     82  C   UNL     1      -3.478  10.413   3.058  1.00  0.00     0.010 A 
ATOM     83  C   UNL     1      -4.622  11.877   5.151  1.00  0.00     0.020 A 
ATOM     84  C   UNL     1      -2.725  11.390   3.715  1.00  0.00     0.020 A 
ATOM     85  C   UNL     1      -3.305  12.121   4.753  1.00  0.00     0.054 A 
BRANCH  85  86
ATOM     86  S   UNL     1      -2.342  13.374   5.646  1.00  0.00     0.124 S 
ATOM     87  O   UNL     1      -2.974  14.614   5.205  1.00  0.00    -0.237 OA
ATOM     88  O   UNL     1      -2.569  13.008   7.042  1.00  0.00    -0.237 OA
ATOM     89  O   UNL     1      -0.978  13.161   5.168  1.00  0.00    -0.744 OA
ENDBRANCH  85  86
ENDBRANCH  57  80
BRANCH  69  90
ATOM     90  C   UNL     1     -10.505  10.160  -0.564  1.00  0.00    -0.014 A 
ATOM     91  C   UNL     1     -10.080  11.058  -1.560  1.00  0.00     0.010 A 
ATOM     92  C   UNL     1     -11.819  10.261  -0.069  1.00  0.00     0.010 A 
ATOM     93  C   UNL     1     -10.941  12.055  -2.026  1.00  0.00     0.020 A 
ATOM     94  C   UNL     1     -12.693  11.235  -0.556  1.00  0.00     0.020 A 
ATOM     95  C   UNL     1     -12.243  12.136  -1.522  1.00  0.00     0.054 A 
BRANCH  95  96
ATOM     96  S   UNL     1     -13.354  13.411  -2.178  1.00  0.00     0.124 S 
ATOM     97  O   UNL     1     -12.795  14.629  -1.598  1.00  0.00    -0.237 OA
ATOM     98  O   UNL     1     -13.186  13.269  -3.622  1.00  0.00    -0.237 OA
ATOM     99  O   UNL     1     -14.667  13.024  -1.668  1.00  0.00    -0.744 OA
ENDBRANCH  95  96
ENDBRANCH  69  90
ENDBRANCH  43  44
ENDBRANCH  35  38
ENDBRANCH  33  34
ENDBRANCH  32  33
ENDBRANCH   1  32
TORSDOF 19
