REMARK SMILES [NH3+][C@@H](CC(=O)NCCCCNC(=O)c1ccc(-c2c3nc(c(-c4ccc(S(=O)(=O)[O-])cc4)c4ccc([nH]4)c(-c4ccc(S(=O)(=O)[O-])cc4)c4nc(c(-c5ccc(S(=O)(=O)[O-])cc5)c5ccc2[nH]5)C=C4)C=C3)cc1)[NH+]1CCOCC1
REMARK SMILES IDX 9 1 8 2 7 3 6 4 4 5 5 6 3 8 2 9 1 10 74 14 75 15 79 16 76 18
REMARK SMILES IDX 78 19 77 20 10 21 11 22 12 23 13 25 14 26 15 27 73 28 16 29
REMARK SMILES IDX 72 30 17 31 18 32 19 33 66 34 20 35 71 36 65 37 67 38 21 39
REMARK SMILES IDX 70 40 64 41 63 42 22 44 52 45 33 46 51 47 34 48 37 49 50 50
REMARK SMILES IDX 68 51 35 52 36 53 49 55 69 56 38 57 23 58 24 59 32 60 25 61
REMARK SMILES IDX 31 62 26 63 27 64 28 65 29 66 30 67 53 68 54 69 62 70 55 71
REMARK SMILES IDX 61 72 56 73 57 74 58 75 59 76 60 77 39 78 40 79 48 80 41 81
REMARK SMILES IDX 47 82 42 83 43 84 44 85 45 86 46 87
REMARK H PARENT 6 7 1 11 1 12 1 13 74 17 11 24 67 43 37 54
REMARK Flexibility Score: inf
ROOT
ATOM      1  C   UNL     1       0.529   3.245   1.730  1.00  0.00     0.023 C 
ENDROOT
BRANCH   1   2
ATOM      2  C   UNL     1       1.076   2.005   1.031  1.00  0.00     0.023 C 
BRANCH   2   3
ATOM      3  C   UNL     1       1.789   1.008   1.943  1.00  0.00     0.116 C 
BRANCH   3   4
ATOM      4  N   UNL     1       0.830   0.245   2.711  1.00  0.00    -0.356 N 
ATOM      5  C   UNL     1       0.388  -1.032   2.533  1.00  0.00     0.232 C 
ATOM      6  O   UNL     1      -0.478  -1.452   3.304  1.00  0.00    -0.275 OA
ATOM      7  H   UNL     1       0.437   0.720   3.479  1.00  0.00     0.163 HD
BRANCH   5   8
ATOM      8  C   UNL     1       1.031  -1.940   1.502  1.00  0.00     0.232 C 
BRANCH   8   9
ATOM      9  C   UNL     1       0.527  -1.882   0.046  1.00  0.00     0.389 C 
BRANCH   9  10
ATOM     10  N   UNL     1       1.245  -0.943  -0.796  1.00  0.00    -0.308 N 
ATOM     11  H   UNL     1       2.249  -1.082  -0.681  1.00  0.00     0.349 HD
ATOM     12  H   UNL     1       1.001   0.010  -0.528  1.00  0.00     0.349 HD
ATOM     13  H   UNL     1       0.990  -1.098  -1.772  1.00  0.00     0.349 HD
ENDBRANCH   9  10
BRANCH   9  14
ATOM     14  N   UNL     1      -0.923  -1.748  -0.060  1.00  0.00    -0.282 N 
ATOM     15  C   UNL     1      -1.548  -2.984  -0.583  1.00  0.00     0.296 C 
ATOM     16  C   UNL     1      -1.500  -0.619  -0.816  1.00  0.00     0.296 C 
ATOM     17  H   UNL     1      -1.145  -1.549   0.916  1.00  0.00     0.353 HD
ATOM     18  C   UNL     1      -1.416  -3.110  -2.111  1.00  0.00     0.222 C 
ATOM     19  C   UNL     1      -1.449  -0.769  -2.348  1.00  0.00     0.222 C 
ATOM     20  O   UNL     1      -2.042  -2.004  -2.774  1.00  0.00    -0.370 OA
ENDBRANCH   9  14
ENDBRANCH   8   9
ENDBRANCH   5   8
ENDBRANCH   3   4
ENDBRANCH   2   3
ENDBRANCH   1   2
BRANCH   1  21
ATOM     21  C   UNL     1       1.586   4.121   2.381  1.00  0.00     0.116 C 
BRANCH  21  22
ATOM     22  N   UNL     1       2.621   4.551   1.453  1.00  0.00    -0.352 N 
ATOM     23  C   UNL     1       3.270   5.759   1.393  1.00  0.00     0.251 C 
ATOM     24  H   UNL     1       2.892   3.888   0.779  1.00  0.00     0.163 HD
ATOM     25  O   UNL     1       4.037   5.995   0.463  1.00  0.00    -0.269 OA
BRANCH  23  26
ATOM     26  C   UNL     1       3.008   6.779   2.429  1.00  0.00     0.039 A 
ATOM     27  C   UNL     1       2.800   8.101   2.034  1.00  0.00     0.014 A 
ATOM     28  C   UNL     1       2.938   6.427   3.781  1.00  0.00     0.014 A 
ATOM     29  C   UNL     1       2.470   9.059   2.992  1.00  0.00     0.010 A 
ATOM     30  C   UNL     1       2.516   7.362   4.718  1.00  0.00     0.010 A 
ATOM     31  C   UNL     1       2.296   8.691   4.337  1.00  0.00    -0.014 A 
BRANCH  31  32
ATOM     32  C   UNL     1       1.901   9.698   5.352  1.00  0.00     0.031 A 
ATOM     33  C   UNL     1       2.831  10.039   6.484  1.00  0.00     0.074 A 
ATOM     34  C   UNL     1       0.690  10.284   5.265  1.00  0.00     0.049 A 
ATOM     35  N   UNL     1       2.680  10.926   7.434  1.00  0.00    -0.248 NA
ATOM     36  C   UNL     1       4.082   9.267   6.581  1.00  0.00     0.031 C 
ATOM     37  C   UNL     1      -0.327   9.984   4.254  1.00  0.00     0.029 A 
ATOM     38  N   UNL     1       0.114  11.264   6.033  1.00  0.00    -0.354 N 
ATOM     39  C   UNL     1       3.806  10.810   8.242  1.00  0.00     0.074 A 
ATOM     40  C   UNL     1       4.599   9.726   7.710  1.00  0.00     0.031 C 
ATOM     41  C   UNL     1      -1.379  10.798   4.433  1.00  0.00     0.029 A 
ATOM     42  C   UNL     1      -1.125  11.657   5.585  1.00  0.00     0.049 A 
ATOM     43  H   UNL     1       0.547  11.649   6.829  1.00  0.00     0.167 HD
ATOM     44  C   UNL     1       4.163  11.558   9.313  1.00  0.00     0.031 A 
ATOM     45  C   UNL     1      -1.955  12.615   6.040  1.00  0.00     0.031 A 
ATOM     46  C   UNL     1       3.375  12.646   9.829  1.00  0.00     0.049 A 
ATOM     47  C   UNL     1      -1.521  13.458   7.207  1.00  0.00     0.074 A 
ATOM     48  C   UNL     1       3.670  13.504  10.874  1.00  0.00     0.029 A 
ATOM     49  N   UNL     1       2.137  13.027   9.334  1.00  0.00    -0.354 N 
ATOM     50  N   UNL     1      -0.416  13.385   7.911  1.00  0.00    -0.248 NA
ATOM     51  C   UNL     1      -2.435  14.529   7.624  1.00  0.00     0.031 C 
ATOM     52  C   UNL     1       2.588  14.376  11.039  1.00  0.00     0.029 A 
ATOM     53  C   UNL     1       1.647  14.099  10.060  1.00  0.00     0.049 A 
ATOM     54  H   UNL     1       1.674  12.598   8.579  1.00  0.00     0.167 HD
ATOM     55  C   UNL     1      -0.488  14.420   8.836  1.00  0.00     0.074 A 
ATOM     56  C   UNL     1      -1.737  15.114   8.588  1.00  0.00     0.031 C 
ATOM     57  C   UNL     1       0.398  14.770   9.802  1.00  0.00     0.031 A 
BRANCH  44  58
ATOM     58  C   UNL     1       5.467  11.222   9.990  1.00  0.00    -0.014 A 
ATOM     59  C   UNL     1       6.698  11.456   9.349  1.00  0.00     0.010 A 
ATOM     60  C   UNL     1       5.465  10.687  11.290  1.00  0.00     0.010 A 
ATOM     61  C   UNL     1       7.900  11.118   9.977  1.00  0.00     0.020 A 
ATOM     62  C   UNL     1       6.666  10.376  11.934  1.00  0.00     0.020 A 
ATOM     63  C   UNL     1       7.876  10.576  11.265  1.00  0.00     0.054 A 
BRANCH  63  64
ATOM     64  S   UNL     1       9.451  10.162  12.063  1.00  0.00     0.124 S 
ATOM     65  O   UNL     1       9.847   8.957  11.338  1.00  0.00    -0.237 OA
ATOM     66  O   UNL     1      10.264  11.347  11.802  1.00  0.00    -0.237 OA
ATOM     67  O   UNL     1       9.087   9.955  13.463  1.00  0.00    -0.744 OA
ENDBRANCH  63  64
ENDBRANCH  44  58
BRANCH  45  68
ATOM     68  C   UNL     1      -3.253  12.860   5.355  1.00  0.00    -0.014 A 
ATOM     69  C   UNL     1      -3.445  14.020   4.583  1.00  0.00     0.010 A 
ATOM     70  C   UNL     1      -4.298  11.924   5.453  1.00  0.00     0.010 A 
ATOM     71  C   UNL     1      -4.665  14.249   3.939  1.00  0.00     0.020 A 
ATOM     72  C   UNL     1      -5.510  12.136   4.789  1.00  0.00     0.020 A 
ATOM     73  C   UNL     1      -5.689  13.305   4.045  1.00  0.00     0.054 A 
BRANCH  73  74
ATOM     74  S   UNL     1      -7.245  13.597   3.158  1.00  0.00     0.124 S 
ATOM     75  O   UNL     1      -7.869  14.633   3.974  1.00  0.00    -0.237 OA
ATOM     76  O   UNL     1      -6.782  14.021   1.839  1.00  0.00    -0.237 OA
ATOM     77  O   UNL     1      -7.904  12.293   3.188  1.00  0.00    -0.744 OA
ENDBRANCH  73  74
ENDBRANCH  45  68
BRANCH  57  78
ATOM     78  C   UNL     1       0.062  15.977  10.635  1.00  0.00    -0.014 A 
ATOM     79  C   UNL     1      -0.978  15.948  11.581  1.00  0.00     0.010 A 
ATOM     80  C   UNL     1       0.817  17.154  10.480  1.00  0.00     0.010 A 
ATOM     81  C   UNL     1      -1.293  17.093  12.317  1.00  0.00     0.020 A 
ATOM     82  C   UNL     1       0.524  18.291  11.236  1.00  0.00     0.020 A 
ATOM     83  C   UNL     1      -0.544  18.260  12.134  1.00  0.00     0.054 A 
BRANCH  83  84
ATOM     84  S   UNL     1      -0.967  19.732  13.104  1.00  0.00     0.124 S 
ATOM     85  O   UNL     1      -2.171  20.205  12.426  1.00  0.00    -0.237 OA
ATOM     86  O   UNL     1      -1.173  19.187  14.444  1.00  0.00    -0.237 OA
ATOM     87  O   UNL     1       0.207  20.589  12.961  1.00  0.00    -0.744 OA
ENDBRANCH  83  84
ENDBRANCH  57  78
ENDBRANCH  31  32
ENDBRANCH  23  26
ENDBRANCH  21  22
ENDBRANCH   1  21
TORSDOF 17
