REMARK SMILES O=C1NC[C@@H](CSc2ccnc(C(=O)NCCCCNC(=O)c3ccc(-c4c5nc(c(-c6ccc(S(=O)(=O)[O-])cc6)c6ccc([nH]6)c(-c6ccc(S(=O)(=O)[O-])cc6)c6nc(c(-c7ccc(S(=O)(=O)[O-])cc7)c7ccc4[nH]7)C=C6)C=C5)cc3)c2)O1
REMARK SMILES IDX 17 1 16 2 15 3 13 4 14 5 12 7 8 8 9 9 83 10 10 11 11 12 7 13
REMARK SMILES IDX 6 14 5 15 1 16 2 17 3 18 84 19 4 20 18 22 19 23 20 24 21 25
REMARK SMILES IDX 22 27 23 28 24 29 82 30 25 31 81 32 26 33 27 34 28 35 75 36
REMARK SMILES IDX 29 37 80 38 74 39 76 40 30 41 79 42 73 43 72 44 31 46 61 47
REMARK SMILES IDX 42 48 60 49 43 50 46 51 59 52 77 53 44 54 45 55 58 57 78 58
REMARK SMILES IDX 47 59 32 60 33 61 41 62 34 63 40 64 35 65 36 66 37 67 38 68
REMARK SMILES IDX 39 69 62 70 63 71 71 72 64 73 70 74 65 75 66 76 67 77 68 78
REMARK SMILES IDX 69 79 48 80 49 81 57 82 50 83 56 84 51 85 52 86 53 87 54 88
REMARK SMILES IDX 55 89
REMARK H PARENT 15 6 3 21 20 26 76 45 46 56
REMARK Flexibility Score: inf
ROOT
ATOM      1  C   UNL     1       3.953  -1.927  -6.141  1.00  0.00     0.023 C 
ENDROOT
BRANCH   1   2
ATOM      2  C   UNL     1       2.665  -2.753  -6.129  1.00  0.00     0.116 C 
BRANCH   2   3
ATOM      3  N   UNL     1       2.912  -4.016  -5.463  1.00  0.00    -0.351 N 
ATOM      4  C   UNL     1       2.717  -4.435  -4.167  1.00  0.00     0.269 C 
ATOM      5  O   UNL     1       3.144  -5.553  -3.872  1.00  0.00    -0.268 OA
ATOM      6  H   UNL     1       3.294  -4.707  -6.051  1.00  0.00     0.163 HD
BRANCH   4   7
ATOM      7  C   UNL     1       1.942  -3.637  -3.154  1.00  0.00     0.129 A 
ATOM      8  C   UNL     1       0.887  -1.650  -2.355  1.00  0.00     0.011 A 
ATOM      9  C   UNL     1       0.080  -2.442  -1.546  1.00  0.00     0.035 A 
ATOM     10  C   UNL     1       1.867  -2.252  -3.142  1.00  0.00     0.049 A 
ATOM     11  C   UNL     1       0.329  -3.797  -1.498  1.00  0.00     0.113 A 
ATOM     12  N   UNL     1       1.230  -4.405  -2.286  1.00  0.00    -0.251 NA
BRANCH   8  13
ATOM     13  S   UNL     1       0.527   0.084  -2.532  1.00  0.00    -0.122 SA
BRANCH  13  14
ATOM     14  C   UNL     1       1.778   0.858  -1.440  1.00  0.00     0.122 C 
BRANCH  14  15
ATOM     15  C   UNL     1       1.448   0.940   0.058  1.00  0.00     0.208 C 
ATOM     16  O   UNL     1      -1.820   0.344   1.001  1.00  0.00    -0.225 OA
ATOM     17  C   UNL     1      -0.613   0.349   0.819  1.00  0.00     0.407 C 
ATOM     18  N   UNL     1       0.225  -0.677   1.134  1.00  0.00    -0.318 N 
ATOM     19  O   UNL     1       0.096   1.382   0.281  1.00  0.00    -0.443 OA
ATOM     20  C   UNL     1       1.574  -0.358   0.830  1.00  0.00     0.165 C 
ATOM     21  H   UNL     1      -0.068  -1.533   1.523  1.00  0.00     0.167 HD
ENDBRANCH  14  15
ENDBRANCH  13  14
ENDBRANCH   8  13
ENDBRANCH   4   7
ENDBRANCH   2   3
ENDBRANCH   1   2
BRANCH   1  22
ATOM     22  C   UNL     1       4.938  -2.358  -7.232  1.00  0.00     0.023 C 
BRANCH  22  23
ATOM     23  C   UNL     1       4.399  -2.231  -8.653  1.00  0.00     0.116 C 
BRANCH  23  24
ATOM     24  N   UNL     1       3.912  -0.893  -8.956  1.00  0.00    -0.352 N 
ATOM     25  C   UNL     1       3.964  -0.221 -10.152  1.00  0.00     0.251 C 
ATOM     26  H   UNL     1       3.490  -0.409  -8.210  1.00  0.00     0.163 HD
ATOM     27  O   UNL     1       3.638   0.959 -10.216  1.00  0.00    -0.269 OA
BRANCH  25  28
ATOM     28  C   UNL     1       4.457  -0.935 -11.345  1.00  0.00     0.039 A 
ATOM     29  C   UNL     1       5.456  -0.346 -12.119  1.00  0.00     0.014 A 
ATOM     30  C   UNL     1       3.971  -2.208 -11.657  1.00  0.00     0.014 A 
ATOM     31  C   UNL     1       6.010  -1.063 -13.178  1.00  0.00     0.010 A 
ATOM     32  C   UNL     1       4.585  -2.953 -12.656  1.00  0.00     0.010 A 
ATOM     33  C   UNL     1       5.606  -2.385 -13.432  1.00  0.00    -0.014 A 
BRANCH  33  34
ATOM     34  C   UNL     1       6.246  -3.182 -14.508  1.00  0.00     0.031 A 
ATOM     35  C   UNL     1       5.434  -3.664 -15.679  1.00  0.00     0.074 A 
ATOM     36  C   UNL     1       7.553  -3.499 -14.408  1.00  0.00     0.049 A 
ATOM     37  N   UNL     1       5.822  -4.359 -16.718  1.00  0.00    -0.248 NA
ATOM     38  C   UNL     1       3.996  -3.348 -15.674  1.00  0.00     0.031 C 
ATOM     39  C   UNL     1       8.431  -3.134 -13.293  1.00  0.00     0.029 A 
ATOM     40  N   UNL     1       8.373  -4.195 -15.260  1.00  0.00    -0.354 N 
ATOM     41  C   UNL     1       4.680  -4.568 -17.481  1.00  0.00     0.074 A 
ATOM     42  C   UNL     1       3.574  -3.984 -16.757  1.00  0.00     0.031 C 
ATOM     43  C   UNL     1       9.674  -3.569 -13.551  1.00  0.00     0.029 A 
ATOM     44  C   UNL     1       9.675  -4.281 -14.825  1.00  0.00     0.049 A 
ATOM     45  H   UNL     1       8.059  -4.595 -16.103  1.00  0.00     0.167 HD
ATOM     46  C   UNL     1       4.565  -5.170 -18.689  1.00  0.00     0.031 A 
ATOM     47  C   UNL     1      10.750  -4.866 -15.388  1.00  0.00     0.031 A 
ATOM     48  C   UNL     1       5.672  -5.747 -19.404  1.00  0.00     0.049 A 
ATOM     49  C   UNL     1      10.594  -5.539 -16.724  1.00  0.00     0.074 A 
ATOM     50  C   UNL     1       5.672  -6.333 -20.658  1.00  0.00     0.029 A 
ATOM     51  N   UNL     1       6.973  -5.819 -18.929  1.00  0.00    -0.354 N 
ATOM     52  N   UNL     1       9.520  -5.656 -17.469  1.00  0.00    -0.248 NA
ATOM     53  C   UNL     1      11.800  -6.146 -17.304  1.00  0.00     0.031 C 
ATOM     54  C   UNL     1       6.959  -6.817 -20.913  1.00  0.00     0.029 A 
ATOM     55  C   UNL     1       7.778  -6.466 -19.851  1.00  0.00     0.049 A 
ATOM     56  H   UNL     1       7.278  -5.462 -18.064  1.00  0.00     0.167 HD
ATOM     57  C   UNL     1       9.927  -6.325 -18.618  1.00  0.00     0.074 A 
ATOM     58  C   UNL     1      11.349  -6.566 -18.478  1.00  0.00     0.031 C 
ATOM     59  C   UNL     1       9.191  -6.705 -19.693  1.00  0.00     0.031 A 
BRANCH  46  60
ATOM     60  C   UNL     1       3.192  -5.238 -19.307  1.00  0.00    -0.014 A 
ATOM     61  C   UNL     1       2.536  -4.077 -19.756  1.00  0.00     0.010 A 
ATOM     62  C   UNL     1       2.566  -6.486 -19.482  1.00  0.00     0.010 A 
ATOM     63  C   UNL     1       1.264  -4.158 -20.329  1.00  0.00     0.020 A 
ATOM     64  C   UNL     1       1.308  -6.574 -20.085  1.00  0.00     0.020 A 
ATOM     65  C   UNL     1       0.658  -5.407 -20.491  1.00  0.00     0.054 A 
BRANCH  65  66
ATOM     66  S   UNL     1      -0.979  -5.483 -21.266  1.00  0.00     0.124 S 
ATOM     67  O   UNL     1      -1.830  -4.901 -20.231  1.00  0.00    -0.237 OA
ATOM     68  O   UNL     1      -0.802  -4.667 -22.465  1.00  0.00    -0.237 OA
ATOM     69  O   UNL     1      -1.183  -6.908 -21.511  1.00  0.00    -0.744 OA
ENDBRANCH  65  66
ENDBRANCH  46  60
BRANCH  47  70
ATOM     70  C   UNL     1      12.069  -4.824 -14.698  1.00  0.00    -0.014 A 
ATOM     71  C   UNL     1      13.135  -4.075 -15.228  1.00  0.00     0.010 A 
ATOM     72  C   UNL     1      12.265  -5.531 -13.497  1.00  0.00     0.010 A 
ATOM     73  C   UNL     1      14.376  -4.052 -14.584  1.00  0.00     0.020 A 
ATOM     74  C   UNL     1      13.493  -5.484 -12.832  1.00  0.00     0.020 A 
ATOM     75  C   UNL     1      14.546  -4.754 -13.388  1.00  0.00     0.054 A 
BRANCH  75  76
ATOM     76  S   UNL     1      16.150  -4.671 -12.545  1.00  0.00     0.124 S 
ATOM     77  O   UNL     1      16.998  -5.470 -13.425  1.00  0.00    -0.237 OA
ATOM     78  O   UNL     1      16.424  -3.236 -12.532  1.00  0.00    -0.237 OA
ATOM     79  O   UNL     1      15.879  -5.258 -11.234  1.00  0.00    -0.744 OA
ENDBRANCH  75  76
ENDBRANCH  47  70
BRANCH  59  80
ATOM     80  C   UNL     1       9.918  -7.393 -20.819  1.00  0.00    -0.014 A 
ATOM     81  C   UNL     1      10.439  -8.691 -20.673  1.00  0.00     0.010 A 
ATOM     82  C   UNL     1      10.047  -6.739 -22.059  1.00  0.00     0.010 A 
ATOM     83  C   UNL     1      11.115  -9.304 -21.732  1.00  0.00     0.020 A 
ATOM     84  C   UNL     1      10.690  -7.363 -23.131  1.00  0.00     0.020 A 
ATOM     85  C   UNL     1      11.237  -8.635 -22.954  1.00  0.00     0.054 A 
BRANCH  85  86
ATOM     86  S   UNL     1      12.096  -9.464 -24.319  1.00  0.00     0.124 S 
ATOM     87  O   UNL     1      13.486  -9.416 -23.877  1.00  0.00    -0.237 OA
ATOM     88  O   UNL     1      11.482 -10.790 -24.324  1.00  0.00    -0.237 OA
ATOM     89  O   UNL     1      11.783  -8.634 -25.480  1.00  0.00    -0.744 OA
ENDBRANCH  85  86
ENDBRANCH  59  80
ENDBRANCH  33  34
ENDBRANCH  25  28
ENDBRANCH  23  24
ENDBRANCH  22  23
ENDBRANCH   1  22
TORSDOF 17
