REMARK SMILES C[NH+](C)Cc1noc(C[C@@](C)(C(=O)NCCCCNC(=O)c2ccc(-c3c4nc(c(-c5ccc(S(=O)(=O)[O-])cc5)c5ccc([nH]5)c(-c5ccc(S(=O)(=O)[O-])cc5)c5nc(c(-c6ccc(S(=O)(=O)[O-])cc6)c6ccc3[nH]6)C=C5)C=C4)cc2)c2ccccc2)n1
REMARK SMILES IDX 16 1 15 2 14 3 12 4 13 5 10 7 11 8 9 9 8 10 5 11 6 12 88 13
REMARK SMILES IDX 7 14 4 15 2 16 1 17 3 18 82 20 83 21 87 22 84 23 86 24 85 25
REMARK SMILES IDX 17 26 18 27 19 28 20 29 21 31 22 32 23 33 81 34 24 35 80 36
REMARK SMILES IDX 25 37 26 38 27 39 74 40 28 41 79 42 73 43 75 44 29 45 78 46
REMARK SMILES IDX 72 47 71 48 30 50 60 51 41 52 59 53 42 54 45 55 58 56 76 57
REMARK SMILES IDX 43 58 44 59 57 61 77 62 46 63 31 64 32 65 40 66 33 67 39 68
REMARK SMILES IDX 34 69 35 70 36 71 37 72 38 73 61 74 62 75 70 76 63 77 69 78
REMARK SMILES IDX 64 79 65 80 66 81 67 82 68 83 47 84 48 85 56 86 49 87 55 88
REMARK SMILES IDX 50 89 51 90 52 91 53 92 54 93
REMARK H PARENT 14 6 2 19 19 30 75 49 45 60
REMARK Flexibility Score: inf
ROOT
ATOM      1  C   UNL     1      -3.144  -1.276   6.278  1.00  0.00     0.023 C 
ENDROOT
BRANCH   1   2
ATOM      2  C   UNL     1      -2.189  -0.319   6.986  1.00  0.00     0.116 C 
BRANCH   2   3
ATOM      3  N   UNL     1      -0.926  -0.962   7.317  1.00  0.00    -0.355 N 
ATOM      4  C   UNL     1       0.369  -0.735   6.947  1.00  0.00     0.230 C 
ATOM      5  O   UNL     1       1.199  -1.450   7.516  1.00  0.00    -0.274 OA
ATOM      6  H   UNL     1      -1.026  -1.720   7.937  1.00  0.00     0.163 HD
BRANCH   4   7
ATOM      7  C   UNL     1       0.766   0.364   5.912  1.00  0.00     0.080 C 
ATOM      8  C   UNL     1       0.412   1.712   6.591  1.00  0.00     0.027 C 
BRANCH   7   9
ATOM      9  C   UNL     1      -0.001   0.078   4.598  1.00  0.00     0.122 C 
BRANCH   9  10
ATOM     10  C   UNL     1       0.183   1.083   3.527  1.00  0.00     0.228 A 
ATOM     11  C   UNL     1       0.506   2.119   1.746  1.00  0.00     0.226 A 
ATOM     12  N   UNL     1      -0.334   2.922   2.416  1.00  0.00    -0.056 NA
ATOM     13  N   UNL     1       0.878   0.985   2.422  1.00  0.00    -0.190 NA
ATOM     14  O   UNL     1      -0.566   2.221   3.601  1.00  0.00    -0.339 OA
BRANCH  11  15
ATOM     15  C   UNL     1       0.922   2.377   0.332  1.00  0.00     0.344 C 
BRANCH  15  16
ATOM     16  N   UNL     1       0.393   1.401  -0.653  1.00  0.00    -0.333 N 
ATOM     17  C   UNL     1       0.930   0.054  -0.451  1.00  0.00     0.332 C 
ATOM     18  C   UNL     1      -1.069   1.375  -0.671  1.00  0.00     0.332 C 
ATOM     19  H   UNL     1       0.713   1.725  -1.566  1.00  0.00     0.348 HD
ENDBRANCH  15  16
ENDBRANCH  11  15
ENDBRANCH   9  10
ENDBRANCH   7   9
BRANCH   7  20
ATOM     20  C   UNL     1       2.286   0.330   5.548  1.00  0.00    -0.032 A 
ATOM     21  C   UNL     1       2.944  -0.889   5.292  1.00  0.00     0.005 A 
ATOM     22  C   UNL     1       3.030   1.511   5.353  1.00  0.00     0.005 A 
ATOM     23  C   UNL     1       4.289  -0.925   4.910  1.00  0.00     0.000 A 
ATOM     24  C   UNL     1       4.371   1.475   4.961  1.00  0.00     0.000 A 
ATOM     25  C   UNL     1       5.003   0.256   4.747  1.00  0.00     0.000 A 
ENDBRANCH   7  20
ENDBRANCH   4   7
ENDBRANCH   2   3
ENDBRANCH   1   2
BRANCH   1  26
ATOM     26  C   UNL     1      -3.674  -2.405   7.161  1.00  0.00     0.023 C 
BRANCH  26  27
ATOM     27  C   UNL     1      -4.302  -1.951   8.473  1.00  0.00     0.116 C 
BRANCH  27  28
ATOM     28  N   UNL     1      -5.364  -0.975   8.281  1.00  0.00    -0.352 N 
ATOM     29  C   UNL     1      -6.609  -0.931   8.854  1.00  0.00     0.251 C 
ATOM     30  H   UNL     1      -5.160  -0.244   7.653  1.00  0.00     0.163 HD
ATOM     31  O   UNL     1      -7.435  -0.113   8.456  1.00  0.00    -0.269 OA
BRANCH  29  32
ATOM     32  C   UNL     1      -6.957  -1.885   9.926  1.00  0.00     0.039 A 
ATOM     33  C   UNL     1      -8.204  -2.512   9.891  1.00  0.00     0.014 A 
ATOM     34  C   UNL     1      -6.055  -2.167  10.956  1.00  0.00     0.014 A 
ATOM     35  C   UNL     1      -8.527  -3.453  10.868  1.00  0.00     0.010 A 
ATOM     36  C   UNL     1      -6.342  -3.174  11.872  1.00  0.00     0.010 A 
ATOM     37  C   UNL     1      -7.590  -3.811  11.853  1.00  0.00    -0.014 A 
BRANCH  37  38
ATOM     38  C   UNL     1      -7.924  -4.827  12.882  1.00  0.00     0.031 A 
ATOM     39  C   UNL     1      -7.977  -4.445  14.337  1.00  0.00     0.074 A 
ATOM     40  C   UNL     1      -8.160  -6.100  12.509  1.00  0.00     0.049 A 
ATOM     41  N   UNL     1      -8.287  -5.184  15.372  1.00  0.00    -0.248 NA
ATOM     42  C   UNL     1      -7.609  -3.061  14.678  1.00  0.00     0.031 C 
ATOM     43  C   UNL     1      -8.078  -6.609  11.137  1.00  0.00     0.029 A 
ATOM     44  N   UNL     1      -8.523  -7.196  13.249  1.00  0.00    -0.354 N 
ATOM     45  C   UNL     1      -8.150  -4.356  16.481  1.00  0.00     0.074 A 
ATOM     46  C   UNL     1      -7.654  -3.086  16.001  1.00  0.00     0.031 C 
ATOM     47  C   UNL     1      -8.419  -7.907  11.131  1.00  0.00     0.029 A 
ATOM     48  C   UNL     1      -8.710  -8.331  12.497  1.00  0.00     0.049 A 
ATOM     49  H   UNL     1      -8.638  -7.172  14.226  1.00  0.00     0.167 HD
ATOM     50  C   UNL     1      -8.440  -4.616  17.779  1.00  0.00     0.031 A 
ATOM     51  C   UNL     1      -9.080  -9.573  12.863  1.00  0.00     0.031 A 
ATOM     52  C   UNL     1      -8.922  -5.886  18.254  1.00  0.00     0.049 A 
ATOM     53  C   UNL     1      -9.403  -9.843  14.306  1.00  0.00     0.074 A 
ATOM     54  C   UNL     1      -9.277  -6.247  19.542  1.00  0.00     0.029 A 
ATOM     55  N   UNL     1      -9.111  -7.008  17.459  1.00  0.00    -0.354 N 
ATOM     56  N   UNL     1      -9.332  -9.028  15.333  1.00  0.00    -0.248 NA
ATOM     57  C   UNL     1      -9.883 -11.190  14.635  1.00  0.00     0.031 C 
ATOM     58  C   UNL     1      -9.629  -7.602  19.534  1.00  0.00     0.029 A 
ATOM     59  C   UNL     1      -9.563  -8.066  18.230  1.00  0.00     0.049 A 
ATOM     60  H   UNL     1      -8.948  -7.045  16.489  1.00  0.00     0.167 HD
ATOM     61  C   UNL     1      -9.786  -9.758  16.427  1.00  0.00     0.074 A 
ATOM     62  C   UNL     1     -10.147 -11.070  15.928  1.00  0.00     0.031 C 
ATOM     63  C   UNL     1      -9.900  -9.374  17.724  1.00  0.00     0.031 A 
BRANCH  50  64
ATOM     64  C   UNL     1      -8.232  -3.495  18.767  1.00  0.00    -0.014 A 
ATOM     65  C   UNL     1      -9.018  -2.327  18.718  1.00  0.00     0.010 A 
ATOM     66  C   UNL     1      -7.237  -3.603  19.755  1.00  0.00     0.010 A 
ATOM     67  C   UNL     1      -8.771  -1.267  19.594  1.00  0.00     0.020 A 
ATOM     68  C   UNL     1      -7.011  -2.559  20.657  1.00  0.00     0.020 A 
ATOM     69  C   UNL     1      -7.763  -1.387  20.553  1.00  0.00     0.054 A 
BRANCH  69  70
ATOM     70  S   UNL     1      -7.457   0.009  21.670  1.00  0.00     0.124 S 
ATOM     71  O   UNL     1      -6.827   0.977  20.776  1.00  0.00    -0.237 OA
ATOM     72  O   UNL     1      -8.802   0.356  22.124  1.00  0.00    -0.237 OA
ATOM     73  O   UNL     1      -6.582  -0.552  22.696  1.00  0.00    -0.744 OA
ENDBRANCH  69  70
ENDBRANCH  50  64
BRANCH  51  74
ATOM     74  C   UNL     1      -9.191 -10.640  11.830  1.00  0.00    -0.014 A 
ATOM     75  C   UNL     1     -10.446 -11.133  11.431  1.00  0.00     0.010 A 
ATOM     76  C   UNL     1      -8.032 -11.137  11.205  1.00  0.00     0.010 A 
ATOM     77  C   UNL     1     -10.539 -12.108  10.433  1.00  0.00     0.020 A 
ATOM     78  C   UNL     1      -8.123 -12.089  10.187  1.00  0.00     0.020 A 
ATOM     79  C   UNL     1      -9.377 -12.574   9.812  1.00  0.00     0.054 A 
BRANCH  79  80
ATOM     80  S   UNL     1      -9.528 -13.781   8.465  1.00  0.00     0.124 S 
ATOM     81  O   UNL     1      -9.911 -14.992   9.182  1.00  0.00    -0.237 OA
ATOM     82  O   UNL     1     -10.565 -13.186   7.625  1.00  0.00    -0.237 OA
ATOM     83  O   UNL     1      -8.192 -13.800   7.872  1.00  0.00    -0.744 OA
ENDBRANCH  79  80
ENDBRANCH  51  74
BRANCH  63  84
ATOM     84  C   UNL     1     -10.476 -10.379  18.689  1.00  0.00    -0.014 A 
ATOM     85  C   UNL     1      -9.778 -11.548  19.043  1.00  0.00     0.010 A 
ATOM     86  C   UNL     1     -11.739 -10.139  19.262  1.00  0.00     0.010 A 
ATOM     87  C   UNL     1     -10.360 -12.487  19.900  1.00  0.00     0.020 A 
ATOM     88  C   UNL     1     -12.309 -11.056  20.147  1.00  0.00     0.020 A 
ATOM     89  C   UNL     1     -11.626 -12.238  20.440  1.00  0.00     0.054 A 
BRANCH  89  90
ATOM     90  S   UNL     1     -12.363 -13.473  21.544  1.00  0.00     0.124 S 
ATOM     91  O   UNL     1     -12.731 -14.533  20.610  1.00  0.00    -0.237 OA
ATOM     92  O   UNL     1     -11.263 -13.789  22.453  1.00  0.00    -0.237 OA
ATOM     93  O   UNL     1     -13.485 -12.764  22.157  1.00  0.00    -0.744 OA
ENDBRANCH  89  90
ENDBRANCH  63  84
ENDBRANCH  37  38
ENDBRANCH  29  32
ENDBRANCH  27  28
ENDBRANCH  26  27
ENDBRANCH   1  26
TORSDOF 19
