REMARK SMILES Cc1c(C(=O)NCCCCNC(=O)c2ccc(-c3c4nc(c(-c5ccc(S(=O)(=O)[O-])cc5)c5ccc([nH]5)c(-c5ccc(S(=O)(=O)[O-])cc5)c5nc(c(-c6ccc(S(=O)(=O)[O-])cc6)c6ccc3[nH]6)C=C5)C=C4)cc2)oc2c1/C(=N/NC(=O)C(c1ccccc1)c1ccccc1)CCC2
REMARK SMILES IDX 8 1 7 2 6 3 4 4 5 5 3 7 1 8 2 9 76 10 74 11 75 12 77 13
REMARK SMILES IDX 97 14 78 15 95 16 96 17 79 18 80 19 81 21 82 22 83 23 84 24
REMARK SMILES IDX 88 25 85 26 87 27 86 28 89 29 90 30 94 31 91 32 93 33 92 34
REMARK SMILES IDX 9 35 10 36 11 37 12 38 13 40 14 41 15 42 73 43 16 44 72 45
REMARK SMILES IDX 17 46 18 47 19 48 66 49 20 50 71 51 65 52 67 53 21 54 70 55
REMARK SMILES IDX 64 56 63 57 22 59 52 60 33 61 51 62 34 63 37 64 50 65 68 66
REMARK SMILES IDX 35 67 36 68 49 70 69 71 38 72 23 73 24 74 32 75 25 76 31 77
REMARK SMILES IDX 26 78 27 79 28 80 29 81 30 82 53 83 54 84 62 85 55 86 61 87
REMARK SMILES IDX 56 88 57 89 58 90 59 91 60 92 39 93 40 94 48 95 41 96 47 97
REMARK SMILES IDX 42 98 43 99 44 100 45 101 46 102
REMARK H PARENT 6 6 79 20 11 39 67 58 37 69
REMARK Flexibility Score: inf
ROOT
ATOM      1  C   UNL     1      -2.509  -1.544   5.518  1.00  0.00     0.023 C 
ENDROOT
BRANCH   1   2
ATOM      2  C   UNL     1      -1.078  -2.012   5.206  1.00  0.00     0.116 C 
BRANCH   2   3
ATOM      3  N   UNL     1      -0.964  -2.673   3.905  1.00  0.00    -0.349 N 
ATOM      4  C   UNL     1      -0.655  -2.144   2.658  1.00  0.00     0.287 C 
ATOM      5  O   UNL     1      -0.519  -2.923   1.719  1.00  0.00    -0.266 OA
ATOM      6  H   UNL     1      -1.131  -3.643   3.915  1.00  0.00     0.163 HD
BRANCH   4   7
ATOM      7  C   UNL     1      -0.469  -0.713   2.546  1.00  0.00     0.195 A 
ATOM      8  C   UNL     1       0.800  -0.230   0.328  1.00  0.00     0.049 C 
ATOM      9  C   UNL     1       0.161   0.124   1.623  1.00  0.00     0.010 A 
ATOM     10  C   UNL     1       0.227   1.399   2.270  1.00  0.00     0.043 A 
ATOM     11  O   UNL     1      -0.936   0.032   3.582  1.00  0.00    -0.455 OA
ATOM     12  C   UNL     1      -0.378   1.230   3.490  1.00  0.00     0.114 A 
ATOM     13  C   UNL     1       0.847   2.675   1.951  1.00  0.00     0.072 C 
ATOM     14  C   UNL     1      -0.385   2.067   4.698  1.00  0.00     0.076 C 
ATOM     15  N   UNL     1       1.045   2.840   0.674  1.00  0.00    -0.177 NA
ATOM     16  C   UNL     1       1.125   3.458   3.243  1.00  0.00     0.059 C 
ATOM     17  C   UNL     1      -0.002   3.468   4.288  1.00  0.00     0.014 C 
BRANCH  15  18
ATOM     18  N   UNL     1       1.492   3.810  -0.185  1.00  0.00    -0.246 N 
ATOM     19  C   UNL     1       1.792   5.159  -0.132  1.00  0.00     0.252 C 
ATOM     20  H   UNL     1       1.639   3.446  -1.088  1.00  0.00     0.193 HD
ATOM     21  O   UNL     1       2.039   5.750  -1.192  1.00  0.00    -0.272 OA
BRANCH  19  22
ATOM     22  C   UNL     1       1.840   5.903   1.196  1.00  0.00     0.140 C 
BRANCH  22  23
ATOM     23  C   UNL     1       0.347   6.036   1.724  1.00  0.00    -0.031 A 
ATOM     24  C   UNL     1      -0.029   6.901   2.761  1.00  0.00     0.005 A 
ATOM     25  C   UNL     1      -0.726   5.286   1.155  1.00  0.00     0.005 A 
ATOM     26  C   UNL     1      -1.359   6.923   3.248  1.00  0.00     0.000 A 
ATOM     27  C   UNL     1      -2.023   5.253   1.675  1.00  0.00     0.000 A 
ATOM     28  C   UNL     1      -2.342   6.075   2.735  1.00  0.00     0.000 A 
ENDBRANCH  22  23
BRANCH  22  29
ATOM     29  C   UNL     1       3.059   5.311   2.027  1.00  0.00    -0.031 A 
ATOM     30  C   UNL     1       3.805   4.195   1.542  1.00  0.00     0.005 A 
ATOM     31  C   UNL     1       3.416   5.756   3.310  1.00  0.00     0.005 A 
ATOM     32  C   UNL     1       4.640   3.418   2.351  1.00  0.00     0.000 A 
ATOM     33  C   UNL     1       4.309   5.005   4.110  1.00  0.00     0.000 A 
ATOM     34  C   UNL     1       4.873   3.811   3.653  1.00  0.00     0.000 A 
ENDBRANCH  22  29
ENDBRANCH  19  22
ENDBRANCH  15  18
ENDBRANCH   4   7
ENDBRANCH   2   3
ENDBRANCH   1   2
BRANCH   1  35
ATOM     35  C   UNL     1      -3.469  -2.676   5.901  1.00  0.00     0.023 C 
BRANCH  35  36
ATOM     36  C   UNL     1      -3.105  -3.402   7.192  1.00  0.00     0.116 C 
BRANCH  36  37
ATOM     37  N   UNL     1      -3.209  -2.550   8.374  1.00  0.00    -0.352 N 
ATOM     38  C   UNL     1      -2.751  -2.816   9.655  1.00  0.00     0.251 C 
ATOM     39  H   UNL     1      -3.657  -1.683   8.245  1.00  0.00     0.163 HD
ATOM     40  O   UNL     1      -3.252  -2.273  10.622  1.00  0.00    -0.269 OA
BRANCH  38  41
ATOM     41  C   UNL     1      -1.629  -3.763   9.815  1.00  0.00     0.039 A 
ATOM     42  C   UNL     1      -1.630  -4.726  10.827  1.00  0.00     0.014 A 
ATOM     43  C   UNL     1      -0.574  -3.681   8.910  1.00  0.00     0.014 A 
ATOM     44  C   UNL     1      -0.600  -5.667  10.860  1.00  0.00     0.010 A 
ATOM     45  C   UNL     1       0.372  -4.677   8.867  1.00  0.00     0.010 A 
ATOM     46  C   UNL     1       0.387  -5.651   9.861  1.00  0.00    -0.014 A 
BRANCH  46  47
ATOM     47  C   UNL     1       1.377  -6.720   9.769  1.00  0.00     0.031 A 
ATOM     48  C   UNL     1       0.811  -8.088   9.618  1.00  0.00     0.074 A 
ATOM     49  C   UNL     1       2.697  -6.496   9.595  1.00  0.00     0.049 A 
ATOM     50  N   UNL     1       0.801  -9.034  10.496  1.00  0.00    -0.248 NA
ATOM     51  C   UNL     1       0.050  -8.405   8.398  1.00  0.00     0.031 C 
ATOM     52  C   UNL     1       3.382  -5.215   9.388  1.00  0.00     0.029 A 
ATOM     53  N   UNL     1       3.704  -7.399   9.444  1.00  0.00    -0.354 N 
ATOM     54  C   UNL     1       0.234 -10.140   9.870  1.00  0.00     0.074 A 
ATOM     55  C   UNL     1      -0.376  -9.643   8.662  1.00  0.00     0.031 C 
ATOM     56  C   UNL     1       4.623  -5.440   8.900  1.00  0.00     0.029 A 
ATOM     57  C   UNL     1       4.881  -6.869   8.928  1.00  0.00     0.049 A 
ATOM     58  H   UNL     1       3.606  -8.350   9.679  1.00  0.00     0.167 HD
ATOM     59  C   UNL     1       0.513 -11.412  10.276  1.00  0.00     0.031 A 
ATOM     60  C   UNL     1       5.979  -7.559   8.526  1.00  0.00     0.031 A 
ATOM     61  C   UNL     1       1.242 -11.419  11.519  1.00  0.00     0.049 A 
ATOM     62  C   UNL     1       5.915  -8.891   9.175  1.00  0.00     0.074 A 
ATOM     63  C   UNL     1       0.996 -10.965  12.799  1.00  0.00     0.029 A 
ATOM     64  N   UNL     1       2.603 -11.602  11.431  1.00  0.00    -0.354 N 
ATOM     65  N   UNL     1       6.027  -9.063  10.462  1.00  0.00    -0.248 NA
ATOM     66  C   UNL     1       5.277  -9.981   8.455  1.00  0.00     0.031 C 
ATOM     67  C   UNL     1       2.245 -10.445  13.247  1.00  0.00     0.029 A 
ATOM     68  C   UNL     1       3.199 -10.684  12.254  1.00  0.00     0.049 A 
ATOM     69  H   UNL     1       3.065 -12.273  10.877  1.00  0.00     0.167 HD
ATOM     70  C   UNL     1       5.093 -10.041  10.770  1.00  0.00     0.074 A 
ATOM     71  C   UNL     1       4.741 -10.643   9.485  1.00  0.00     0.031 C 
ATOM     72  C   UNL     1       4.488 -10.078  11.995  1.00  0.00     0.031 A 
BRANCH  59  73
ATOM     73  C   UNL     1       0.495 -12.629   9.382  1.00  0.00    -0.014 A 
ATOM     74  C   UNL     1       0.749 -13.892   9.960  1.00  0.00     0.010 A 
ATOM     75  C   UNL     1       0.515 -12.555   7.976  1.00  0.00     0.010 A 
ATOM     76  C   UNL     1       1.081 -15.002   9.173  1.00  0.00     0.020 A 
ATOM     77  C   UNL     1       0.800 -13.668   7.179  1.00  0.00     0.020 A 
ATOM     78  C   UNL     1       1.117 -14.877   7.786  1.00  0.00     0.054 A 
BRANCH  78  79
ATOM     79  S   UNL     1       1.641 -16.290   6.785  1.00  0.00     0.124 S 
ATOM     80  O   UNL     1       3.042 -16.429   7.171  1.00  0.00    -0.237 OA
ATOM     81  O   UNL     1       0.746 -17.346   7.250  1.00  0.00    -0.237 OA
ATOM     82  O   UNL     1       1.409 -15.842   5.414  1.00  0.00    -0.744 OA
ENDBRANCH  78  79
ENDBRANCH  59  73
BRANCH  60  83
ATOM     83  C   UNL     1       6.924  -7.252   7.423  1.00  0.00    -0.014 A 
ATOM     84  C   UNL     1       8.145  -7.944   7.305  1.00  0.00     0.010 A 
ATOM     85  C   UNL     1       6.493  -6.491   6.317  1.00  0.00     0.010 A 
ATOM     86  C   UNL     1       8.867  -7.938   6.099  1.00  0.00     0.020 A 
ATOM     87  C   UNL     1       7.212  -6.475   5.115  1.00  0.00     0.020 A 
ATOM     88  C   UNL     1       8.381  -7.224   5.002  1.00  0.00     0.054 A 
BRANCH  88  89
ATOM     89  S   UNL     1       9.206  -7.390   3.389  1.00  0.00     0.124 S 
ATOM     90  O   UNL     1      10.453  -6.661   3.600  1.00  0.00    -0.237 OA
ATOM     91  O   UNL     1       9.335  -8.837   3.245  1.00  0.00    -0.237 OA
ATOM     92  O   UNL     1       8.270  -6.760   2.458  1.00  0.00    -0.744 OA
ENDBRANCH  88  89
ENDBRANCH  60  83
BRANCH  72  93
ATOM     93  C   UNL     1       5.078  -9.255  13.117  1.00  0.00    -0.014 A 
ATOM     94  C   UNL     1       5.235  -7.855  13.080  1.00  0.00     0.010 A 
ATOM     95  C   UNL     1       5.360  -9.927  14.320  1.00  0.00     0.010 A 
ATOM     96  C   UNL     1       5.701  -7.157  14.205  1.00  0.00     0.020 A 
ATOM     97  C   UNL     1       5.801  -9.236  15.449  1.00  0.00     0.020 A 
ATOM     98  C   UNL     1       5.985  -7.856  15.383  1.00  0.00     0.054 A 
BRANCH  98  99
ATOM     99  S   UNL     1       6.570  -6.951  16.843  1.00  0.00     0.124 S 
ATOM    100  O   UNL     1       7.900  -6.511  16.431  1.00  0.00    -0.237 OA
ATOM    101  O   UNL     1       5.574  -5.893  16.991  1.00  0.00    -0.237 OA
ATOM    102  O   UNL     1       6.554  -7.957  17.905  1.00  0.00    -0.744 OA
ENDBRANCH  98  99
ENDBRANCH  72  93
ENDBRANCH  46  47
ENDBRANCH  38  41
ENDBRANCH  36  37
ENDBRANCH  35  36
ENDBRANCH   1  35
TORSDOF 18
