REMARK SMILES C[C@@H](C(=O)NCCCCNC(=O)c1ccc(-c2c3nc(c(-c4ccc(S(=O)(=O)[O-])cc4)c4ccc([nH]4)c(-c4ccc(S(=O)(=O)[O-])cc4)c4nc(c(-c5ccc(S(=O)(=O)[O-])cc5)c5ccc2[nH]5)C=C4)C=C3)cc1)c1ccc(Cc2ccco2)cc1F
REMARK SMILES IDX 7 1 6 2 5 3 3 4 4 5 2 7 1 8 73 9 74 10 84 11 75 12 83 13
REMARK SMILES IDX 85 14 76 15 77 16 78 17 79 18 82 19 80 20 81 21 8 22 9 23
REMARK SMILES IDX 10 24 11 25 12 27 13 28 14 29 72 30 15 31 71 32 16 33 17 34
REMARK SMILES IDX 18 35 65 36 19 37 70 38 64 39 66 40 20 41 69 42 63 43 62 44
REMARK SMILES IDX 21 46 51 47 32 48 50 49 33 50 36 51 49 52 67 53 34 54 35 55
REMARK SMILES IDX 48 57 68 58 37 59 22 60 23 61 31 62 24 63 30 64 25 65 26 66
REMARK SMILES IDX 27 67 28 68 29 69 52 70 53 71 61 72 54 73 60 74 55 75 56 76
REMARK SMILES IDX 57 77 58 78 59 79 38 80 39 81 47 82 40 83 46 84 41 85 42 86
REMARK SMILES IDX 43 87 44 88 45 89
REMARK H PARENT 5 6 10 26 66 45 36 56
REMARK Flexibility Score: inf
ROOT
ATOM      1  C   UNL     1       4.284   0.970  -0.246  1.00  0.00     0.023 C 
ENDROOT
BRANCH   1   2
ATOM      2  C   UNL     1       3.411   1.453   0.917  1.00  0.00     0.116 C 
BRANCH   2   3
ATOM      3  N   UNL     1       2.391   2.374   0.455  1.00  0.00    -0.356 N 
ATOM      4  C   UNL     1       1.081   2.141   0.144  1.00  0.00     0.227 C 
ATOM      5  O   UNL     1       0.535   2.983  -0.571  1.00  0.00    -0.274 OA
ATOM      6  H   UNL     1       2.687   3.307   0.350  1.00  0.00     0.163 HD
BRANCH   4   7
ATOM      7  C   UNL     1       0.382   0.868   0.657  1.00  0.00     0.108 C 
ATOM      8  C   UNL     1       0.696  -0.250  -0.349  1.00  0.00     0.023 C 
BRANCH   7   9
ATOM      9  C   UNL     1      -1.127   0.985   0.910  1.00  0.00    -0.000 A 
ATOM     10  C   UNL     1      -1.814   2.208   0.896  1.00  0.00     0.008 A 
ATOM     11  C   UNL     1      -1.892  -0.157   1.191  1.00  0.00     0.127 A 
ATOM     12  C   UNL     1      -3.207   2.264   1.021  1.00  0.00     0.005 A 
ATOM     13  C   UNL     1      -3.281  -0.110   1.338  1.00  0.00     0.043 A 
ATOM     14  F   UNL     1      -1.300  -1.353   1.329  1.00  0.00    -0.207 F 
ATOM     15  C   UNL     1      -3.961   1.105   1.224  1.00  0.00    -0.038 A 
BRANCH  15  16
ATOM     16  C   UNL     1      -5.469   1.161   1.287  1.00  0.00     0.111 C 
BRANCH  16  17
ATOM     17  C   UNL     1      -6.005   1.832   2.504  1.00  0.00     0.108 A 
ATOM     18  C   UNL     1      -5.924   3.119   3.000  1.00  0.00     0.046 A 
ATOM     19  O   UNL     1      -6.790   1.072   3.322  1.00  0.00    -0.469 OA
ATOM     20  C   UNL     1      -6.688   3.141   4.190  1.00  0.00     0.042 A 
ATOM     21  C   UNL     1      -7.197   1.873   4.340  1.00  0.00     0.195 A 
ENDBRANCH  16  17
ENDBRANCH  15  16
ENDBRANCH   7   9
ENDBRANCH   4   7
ENDBRANCH   2   3
ENDBRANCH   1   2
BRANCH   1  22
ATOM     22  C   UNL     1       5.053   2.071  -0.981  1.00  0.00     0.023 C 
BRANCH  22  23
ATOM     23  C   UNL     1       6.025   2.861  -0.117  1.00  0.00     0.116 C 
BRANCH  23  24
ATOM     24  N   UNL     1       7.063   2.024   0.465  1.00  0.00    -0.352 N 
ATOM     25  C   UNL     1       8.409   2.279   0.569  1.00  0.00     0.251 C 
ATOM     26  H   UNL     1       6.761   1.161   0.832  1.00  0.00     0.163 HD
ATOM     27  O   UNL     1       9.176   1.406   0.961  1.00  0.00    -0.269 OA
BRANCH  25  28
ATOM     28  C   UNL     1       8.922   3.607   0.174  1.00  0.00     0.039 A 
ATOM     29  C   UNL     1      10.016   3.684  -0.693  1.00  0.00     0.014 A 
ATOM     30  C   UNL     1       8.299   4.770   0.634  1.00  0.00     0.014 A 
ATOM     31  C   UNL     1      10.445   4.931  -1.152  1.00  0.00     0.010 A 
ATOM     32  C   UNL     1       8.685   6.003   0.124  1.00  0.00     0.010 A 
ATOM     33  C   UNL     1       9.762   6.097  -0.771  1.00  0.00    -0.014 A 
BRANCH  33  34
ATOM     34  C   UNL     1      10.156   7.436  -1.273  1.00  0.00     0.031 A 
ATOM     35  C   UNL     1      10.647   8.475  -0.302  1.00  0.00     0.074 A 
ATOM     36  C   UNL     1       9.975   7.752  -2.569  1.00  0.00     0.049 A 
ATOM     37  N   UNL     1      10.887   9.744  -0.501  1.00  0.00    -0.248 NA
ATOM     38  C   UNL     1      10.861   8.030   1.085  1.00  0.00     0.031 C 
ATOM     39  C   UNL     1       9.477   6.843  -3.604  1.00  0.00     0.029 A 
ATOM     40  N   UNL     1      10.168   8.937  -3.234  1.00  0.00    -0.354 N 
ATOM     41  C   UNL     1      11.243  10.258   0.740  1.00  0.00     0.074 A 
ATOM     42  C   UNL     1      11.153   9.171   1.690  1.00  0.00     0.031 C 
ATOM     43  C   UNL     1       9.414   7.501  -4.773  1.00  0.00     0.029 A 
ATOM     44  C   UNL     1       9.824   8.887  -4.563  1.00  0.00     0.049 A 
ATOM     45  H   UNL     1      10.521   9.747  -2.799  1.00  0.00     0.167 HD
ATOM     46  C   UNL     1      11.621  11.519   1.058  1.00  0.00     0.031 A 
ATOM     47  C   UNL     1       9.822   9.851  -5.505  1.00  0.00     0.031 A 
ATOM     48  C   UNL     1      11.731  12.590   0.106  1.00  0.00     0.049 A 
ATOM     49  C   UNL     1      10.263  11.240  -5.136  1.00  0.00     0.074 A 
ATOM     50  C   UNL     1      12.156  13.890   0.316  1.00  0.00     0.029 A 
ATOM     51  N   UNL     1      11.417  12.484  -1.241  1.00  0.00    -0.354 N 
ATOM     52  N   UNL     1      10.636  11.699  -3.965  1.00  0.00    -0.248 NA
ATOM     53  C   UNL     1      10.292  12.237  -6.214  1.00  0.00     0.031 C 
ATOM     54  C   UNL     1      12.066  14.579  -0.897  1.00  0.00     0.029 A 
ATOM     55  C   UNL     1      11.630  13.696  -1.873  1.00  0.00     0.049 A 
ATOM     56  H   UNL     1      11.090  11.666  -1.682  1.00  0.00     0.167 HD
ATOM     57  C   UNL     1      10.975  13.032  -4.173  1.00  0.00     0.074 A 
ATOM     58  C   UNL     1      10.764  13.303  -5.580  1.00  0.00     0.031 C 
ATOM     59  C   UNL     1      11.425  13.945  -3.278  1.00  0.00     0.031 A 
BRANCH  46  60
ATOM     60  C   UNL     1      11.925  11.800   2.505  1.00  0.00    -0.014 A 
ATOM     61  C   UNL     1      13.068  11.264   3.127  1.00  0.00     0.010 A 
ATOM     62  C   UNL     1      11.054  12.610   3.256  1.00  0.00     0.010 A 
ATOM     63  C   UNL     1      13.301  11.481   4.487  1.00  0.00     0.020 A 
ATOM     64  C   UNL     1      11.299  12.854   4.611  1.00  0.00     0.020 A 
ATOM     65  C   UNL     1      12.408  12.266   5.223  1.00  0.00     0.054 A 
BRANCH  65  66
ATOM     66  S   UNL     1      12.723  12.521   6.991  1.00  0.00     0.124 S 
ATOM     67  O   UNL     1      12.296  11.245   7.558  1.00  0.00    -0.237 OA
ATOM     68  O   UNL     1      14.161  12.775   7.030  1.00  0.00    -0.237 OA
ATOM     69  O   UNL     1      11.882  13.667   7.330  1.00  0.00    -0.744 OA
ENDBRANCH  65  66
ENDBRANCH  46  60
BRANCH  47  70
ATOM     70  C   UNL     1       9.405   9.520  -6.894  1.00  0.00    -0.014 A 
ATOM     71  C   UNL     1      10.367   9.403  -7.912  1.00  0.00     0.010 A 
ATOM     72  C   UNL     1       8.053   9.274  -7.196  1.00  0.00     0.010 A 
ATOM     73  C   UNL     1       9.985   9.050  -9.210  1.00  0.00     0.020 A 
ATOM     74  C   UNL     1       7.670   8.900  -8.488  1.00  0.00     0.020 A 
ATOM     75  C   UNL     1       8.639   8.796  -9.488  1.00  0.00     0.054 A 
BRANCH  75  76
ATOM     76  S   UNL     1       8.177   8.262 -11.160  1.00  0.00     0.124 S 
ATOM     77  O   UNL     1       8.264   9.510 -11.912  1.00  0.00    -0.237 OA
ATOM     78  O   UNL     1       9.199   7.265 -11.468  1.00  0.00    -0.237 OA
ATOM     79  O   UNL     1       6.829   7.726 -10.987  1.00  0.00    -0.744 OA
ENDBRANCH  75  76
ENDBRANCH  47  70
BRANCH  59  80
ATOM     80  C   UNL     1      11.769  15.315  -3.794  1.00  0.00    -0.014 A 
ATOM     81  C   UNL     1      10.767  16.246  -4.117  1.00  0.00     0.010 A 
ATOM     82  C   UNL     1      13.120  15.701  -3.876  1.00  0.00     0.010 A 
ATOM     83  C   UNL     1      11.112  17.537  -4.530  1.00  0.00     0.020 A 
ATOM     84  C   UNL     1      13.467  16.996  -4.267  1.00  0.00     0.020 A 
ATOM     85  C   UNL     1      12.460  17.904  -4.600  1.00  0.00     0.054 A 
BRANCH  85  86
ATOM     86  S   UNL     1      12.881  19.604  -5.071  1.00  0.00     0.124 S 
ATOM     87  O   UNL     1      12.656  19.584  -6.513  1.00  0.00    -0.237 OA
ATOM     88  O   UNL     1      11.930  20.398  -4.296  1.00  0.00    -0.237 OA
ATOM     89  O   UNL     1      14.277  19.741  -4.660  1.00  0.00    -0.744 OA
ENDBRANCH  85  86
ENDBRANCH  59  80
ENDBRANCH  33  34
ENDBRANCH  25  28
ENDBRANCH  23  24
ENDBRANCH  22  23
ENDBRANCH   1  22
TORSDOF 17
