REMARK SMILES CC1(C)CCCC[C@@]1(C(=O)NCCCCNC(=O)c1ccc(-c2c3nc(c(-c4ccc(S(=O)(=O)[O-])cc4)c4ccc([nH]4)c(-c4ccc(S(=O)(=O)[O-])cc4)c4nc(c(-c5ccc(S(=O)(=O)[O-])cc5)c5ccc2[nH]5)C=C4)C=C3)cc1)[NH+]1CC[NH2+]CC1
REMARK SMILES IDX 14 1 13 2 12 3 11 4 9 5 10 6 8 8 1 9 2 10 3 11 4 12 5 13
REMARK SMILES IDX 7 14 6 15 79 16 80 17 84 18 81 20 83 21 82 22 15 25 16 26
REMARK SMILES IDX 17 27 18 29 19 30 20 31 78 32 21 33 77 34 22 35 23 36 24 37
REMARK SMILES IDX 71 38 25 39 76 40 70 41 72 42 26 43 75 44 69 45 68 46 27 48
REMARK SMILES IDX 57 49 38 50 56 51 39 52 42 53 55 54 73 55 40 56 41 57 54 59
REMARK SMILES IDX 74 60 43 61 28 62 29 63 37 64 30 65 36 66 31 67 32 68 33 69
REMARK SMILES IDX 34 70 35 71 58 72 59 73 67 74 60 75 66 76 61 77 62 78 63 79
REMARK SMILES IDX 64 80 65 81 44 82 45 83 53 84 46 85 52 86 47 87 48 88 49 89
REMARK SMILES IDX 50 90 51 91
REMARK H PARENT 11 7 79 19 82 23 82 24 16 28 72 47 42 58
REMARK Flexibility Score: inf
ROOT
ATOM      1  C   UNL     1      -2.785  -6.321   2.645  1.00  0.00     0.023 C 
ENDROOT
BRANCH   1   2
ATOM      2  C   UNL     1      -2.160  -5.766   1.366  1.00  0.00     0.023 C 
BRANCH   2   3
ATOM      3  C   UNL     1      -2.115  -4.247   1.245  1.00  0.00     0.116 C 
BRANCH   3   4
ATOM      4  N   UNL     1      -1.222  -3.616   2.194  1.00  0.00    -0.351 N 
ATOM      5  C   UNL     1      -0.311  -2.606   2.170  1.00  0.00     0.281 C 
ATOM      6  O   UNL     1       0.140  -2.379   3.304  1.00  0.00    -0.268 OA
ATOM      7  H   UNL     1      -1.292  -4.024   3.087  1.00  0.00     0.163 HD
BRANCH   5   8
ATOM      8  C   UNL     1       0.305  -1.863   0.863  1.00  0.00     0.182 C 
ATOM      9  C   UNL     1       1.103   0.626   0.158  1.00  0.00     0.018 C 
ATOM     10  C   UNL     1       0.481  -0.281   1.263  1.00  0.00     0.029 C 
ATOM     11  C   UNL     1       1.380  -0.032   2.501  1.00  0.00     0.018 C 
ATOM     12  C   UNL     1      -0.935   0.302   1.563  1.00  0.00     0.013 C 
ATOM     13  C   UNL     1      -1.883   0.197   0.369  1.00  0.00     0.001 C 
ATOM     14  C   UNL     1      -0.634  -1.889  -0.377  1.00  0.00     0.080 C 
ATOM     15  C   UNL     1      -1.997  -1.229  -0.145  1.00  0.00     0.007 C 
BRANCH   8  16
ATOM     16  N   UNL     1       1.639  -2.549   0.577  1.00  0.00    -0.313 N 
ATOM     17  C   UNL     1       2.303  -2.213  -0.699  1.00  0.00     0.325 C 
ATOM     18  C   UNL     1       1.594  -4.032   0.697  1.00  0.00     0.325 C 
ATOM     19  H   UNL     1       2.208  -2.149   1.323  1.00  0.00     0.349 HD
ATOM     20  C   UNL     1       3.679  -2.900  -0.870  1.00  0.00     0.322 C 
ATOM     21  C   UNL     1       2.954  -4.734   0.447  1.00  0.00     0.322 C 
ATOM     22  N   UNL     1       3.580  -4.365  -0.832  1.00  0.00    -0.337 N 
ATOM     23  H   UNL     1       4.511  -4.778  -0.895  1.00  0.00     0.346 HD
ATOM     24  H   UNL     1       3.025  -4.708  -1.615  1.00  0.00     0.346 HD
ENDBRANCH   8  16
ENDBRANCH   5   8
ENDBRANCH   3   4
ENDBRANCH   2   3
ENDBRANCH   1   2
BRANCH   1  25
ATOM     25  C   UNL     1      -4.148  -5.753   3.036  1.00  0.00     0.116 C 
BRANCH  25  26
ATOM     26  N   UNL     1      -5.138  -5.804   1.969  1.00  0.00    -0.352 N 
ATOM     27  C   UNL     1      -6.437  -6.253   2.000  1.00  0.00     0.251 C 
ATOM     28  H   UNL     1      -4.831  -5.467   1.096  1.00  0.00     0.163 HD
ATOM     29  O   UNL     1      -7.104  -6.270   0.969  1.00  0.00    -0.269 OA
BRANCH  27  30
ATOM     30  C   UNL     1      -7.011  -6.758   3.265  1.00  0.00     0.039 A 
ATOM     31  C   UNL     1      -7.634  -8.009   3.267  1.00  0.00     0.014 A 
ATOM     32  C   UNL     1      -6.893  -6.028   4.450  1.00  0.00     0.014 A 
ATOM     33  C   UNL     1      -8.051  -8.571   4.476  1.00  0.00     0.010 A 
ATOM     34  C   UNL     1      -7.247  -6.619   5.660  1.00  0.00     0.010 A 
ATOM     35  C   UNL     1      -7.815  -7.902   5.688  1.00  0.00    -0.014 A 
BRANCH  35  36
ATOM     36  C   UNL     1      -8.117  -8.541   6.995  1.00  0.00     0.031 A 
ATOM     37  C   UNL     1      -9.138  -7.934   7.918  1.00  0.00     0.074 A 
ATOM     38  C   UNL     1      -7.403  -9.616   7.390  1.00  0.00     0.049 A 
ATOM     39  N   UNL     1      -9.468  -8.295   9.131  1.00  0.00    -0.248 NA
ATOM     40  C   UNL     1      -9.862  -6.748   7.428  1.00  0.00     0.031 C 
ATOM     41  C   UNL     1      -6.339 -10.262   6.615  1.00  0.00     0.029 A 
ATOM     42  N   UNL     1      -7.451 -10.345   8.553  1.00  0.00    -0.354 N 
ATOM     43  C   UNL     1     -10.408  -7.367   9.561  1.00  0.00     0.074 A 
ATOM     44  C   UNL     1     -10.577  -6.408   8.491  1.00  0.00     0.031 C 
ATOM     45  C   UNL     1      -5.845 -11.295   7.319  1.00  0.00     0.029 A 
ATOM     46  C   UNL     1      -6.529 -11.366   8.605  1.00  0.00     0.049 A 
ATOM     47  H   UNL     1      -8.085 -10.155   9.281  1.00  0.00     0.167 HD
ATOM     48  C   UNL     1     -11.080  -7.324  10.735  1.00  0.00     0.031 A 
ATOM     49  C   UNL     1      -6.257 -12.253   9.582  1.00  0.00     0.031 A 
ATOM     50  C   UNL     1     -10.945  -8.303  11.780  1.00  0.00     0.049 A 
ATOM     51  C   UNL     1      -7.053 -12.209  10.858  1.00  0.00     0.074 A 
ATOM     52  C   UNL     1     -11.656  -8.397  12.964  1.00  0.00     0.029 A 
ATOM     53  N   UNL     1     -10.044  -9.355  11.769  1.00  0.00    -0.354 N 
ATOM     54  N   UNL     1      -8.006 -11.377  11.204  1.00  0.00    -0.248 NA
ATOM     55  C   UNL     1      -6.746 -13.230  11.870  1.00  0.00     0.031 C 
ATOM     56  C   UNL     1     -11.157  -9.484  13.688  1.00  0.00     0.029 A 
ATOM     57  C   UNL     1     -10.167 -10.092  12.934  1.00  0.00     0.049 A 
ATOM     58  H   UNL     1      -9.411  -9.550  11.041  1.00  0.00     0.167 HD
ATOM     59  C   UNL     1      -8.430 -11.792  12.462  1.00  0.00     0.074 A 
ATOM     60  C   UNL     1      -7.641 -12.956  12.808  1.00  0.00     0.031 C 
ATOM     61  C   UNL     1      -9.384 -11.255  13.259  1.00  0.00     0.031 A 
BRANCH  48  62
ATOM     62  C   UNL     1     -12.037  -6.185  10.959  1.00  0.00    -0.014 A 
ATOM     63  C   UNL     1     -13.275  -6.138  10.295  1.00  0.00     0.010 A 
ATOM     64  C   UNL     1     -11.728  -5.195  11.909  1.00  0.00     0.010 A 
ATOM     65  C   UNL     1     -14.180  -5.107  10.562  1.00  0.00     0.020 A 
ATOM     66  C   UNL     1     -12.640  -4.175  12.196  1.00  0.00     0.020 A 
ATOM     67  C   UNL     1     -13.857  -4.133  11.512  1.00  0.00     0.054 A 
BRANCH  67  68
ATOM     68  S   UNL     1     -15.077  -2.842  11.883  1.00  0.00     0.124 S 
ATOM     69  O   UNL     1     -14.975  -1.986  10.704  1.00  0.00    -0.237 OA
ATOM     70  O   UNL     1     -16.320  -3.599  12.002  1.00  0.00    -0.237 OA
ATOM     71  O   UNL     1     -14.589  -2.251  13.126  1.00  0.00    -0.744 OA
ENDBRANCH  67  68
ENDBRANCH  48  62
BRANCH  49  72
ATOM     72  C   UNL     1      -5.180 -13.265   9.401  1.00  0.00    -0.014 A 
ATOM     73  C   UNL     1      -5.497 -14.624   9.230  1.00  0.00     0.010 A 
ATOM     74  C   UNL     1      -3.829 -12.875   9.425  1.00  0.00     0.010 A 
ATOM     75  C   UNL     1      -4.483 -15.581   9.126  1.00  0.00     0.020 A 
ATOM     76  C   UNL     1      -2.812 -13.826   9.293  1.00  0.00     0.020 A 
ATOM     77  C   UNL     1      -3.146 -15.175   9.164  1.00  0.00     0.054 A 
BRANCH  77  78
ATOM     78  S   UNL     1      -1.842 -16.427   9.009  1.00  0.00     0.124 S 
ATOM     79  O   UNL     1      -1.815 -17.002  10.350  1.00  0.00    -0.237 OA
ATOM     80  O   UNL     1      -2.360 -17.299   7.957  1.00  0.00    -0.237 OA
ATOM     81  O   UNL     1      -0.665 -15.646   8.636  1.00  0.00    -0.744 OA
ENDBRANCH  77  78
ENDBRANCH  49  72
BRANCH  61  82
ATOM     82  C   UNL     1      -9.661 -11.941  14.568  1.00  0.00    -0.014 A 
ATOM     83  C   UNL     1      -8.769 -11.831  15.649  1.00  0.00     0.010 A 
ATOM     84  C   UNL     1     -10.860 -12.658  14.735  1.00  0.00     0.010 A 
ATOM     85  C   UNL     1      -9.059 -12.450  16.867  1.00  0.00     0.020 A 
ATOM     86  C   UNL     1     -11.165 -13.257  15.960  1.00  0.00     0.020 A 
ATOM     87  C   UNL     1     -10.255 -13.160  17.014  1.00  0.00     0.054 A 
BRANCH  87  88
ATOM     88  S   UNL     1     -10.634 -13.915  18.620  1.00  0.00     0.124 S 
ATOM     89  O   UNL     1      -9.779 -15.098  18.608  1.00  0.00    -0.237 OA
ATOM     90  O   UNL     1     -10.249 -12.871  19.567  1.00  0.00    -0.237 OA
ATOM     91  O   UNL     1     -12.069 -14.181  18.546  1.00  0.00    -0.744 OA
ENDBRANCH  87  88
ENDBRANCH  61  82
ENDBRANCH  35  36
ENDBRANCH  27  30
ENDBRANCH  25  26
ENDBRANCH   1  25
TORSDOF 15
