REMARK SMILES C[C@H](C[NH3+])CS/C=C/C(=O)NCCCCNC(=O)c1ccc(-c2c3nc(c(-c4ccc(S(=O)(=O)[O-])cc4)c4ccc([nH]4)c(-c4ccc(S(=O)(=O)[O-])cc4)c4nc(c(-c5ccc(S(=O)(=O)[O-])cc5)c5ccc2[nH]5)C=C4)C=C3)cc1
REMARK SMILES IDX 12 1 11 2 9 3 10 4 8 6 7 7 6 8 5 9 2 10 1 11 3 12 4 13 13 17
REMARK SMILES IDX 14 18 15 19 16 20 17 21 18 23 19 24 20 25 78 26 21 27 77 28
REMARK SMILES IDX 22 29 23 30 24 31 71 32 25 33 76 34 70 35 72 36 26 37 75 38
REMARK SMILES IDX 69 39 68 40 27 42 57 43 38 44 56 45 39 46 42 47 55 48 73 49
REMARK SMILES IDX 40 50 41 51 54 53 74 54 43 55 28 56 29 57 37 58 30 59 36 60
REMARK SMILES IDX 31 61 32 62 33 63 34 64 35 65 58 66 59 67 67 68 60 69 66 70
REMARK SMILES IDX 61 71 62 72 63 73 64 74 65 75 44 76 45 77 53 78 46 79 52 80
REMARK SMILES IDX 47 81 48 82 49 83 50 84 51 85
REMARK H PARENT 11 5 4 14 4 15 4 16 16 22 72 41 42 52
REMARK Flexibility Score: inf
ROOT
ATOM      1  C   UNL     1      -0.978   4.179   1.999  1.00  0.00     0.116 C 
ENDROOT
BRANCH   1   2
ATOM      2  N   UNL     1      -0.167   3.125   2.575  1.00  0.00    -0.353 N 
ATOM      3  C   UNL     1      -0.269   1.782   2.405  1.00  0.00     0.244 C 
ATOM      4  O   UNL     1       0.371   1.009   3.114  1.00  0.00    -0.270 OA
ATOM      5  H   UNL     1       0.558   3.424   3.170  1.00  0.00     0.163 HD
BRANCH   3   6
ATOM      6  C   UNL     1      -1.160   1.225   1.366  1.00  0.00     0.078 C 
ATOM      7  C   UNL     1      -0.987   1.566   0.082  1.00  0.00     0.046 C 
BRANCH   7   8
ATOM      8  S   UNL     1      -1.718   0.717  -1.226  1.00  0.00    -0.133 SA
BRANCH   8   9
ATOM      9  C   UNL     1      -0.868  -0.904  -1.133  1.00  0.00     0.083 C 
BRANCH   9  10
ATOM     10  C   UNL     1       0.671  -0.889  -1.287  1.00  0.00     0.051 C 
ATOM     11  C   UNL     1       1.137  -2.263  -1.791  1.00  0.00     0.014 C 
BRANCH  10  12
ATOM     12  C   UNL     1       1.473  -0.519  -0.020  1.00  0.00     0.262 C 
BRANCH  12  13
ATOM     13  N   UNL     1       1.208  -1.371   1.136  1.00  0.00    -0.357 N 
ATOM     14  H   UNL     1       0.229  -1.278   1.410  1.00  0.00     0.344 HD
ATOM     15  H   UNL     1       1.806  -1.086   1.912  1.00  0.00     0.344 HD
ATOM     16  H   UNL     1       1.403  -2.342   0.895  1.00  0.00     0.344 HD
ENDBRANCH  12  13
ENDBRANCH  10  12
ENDBRANCH   9  10
ENDBRANCH   8   9
ENDBRANCH   7   8
ENDBRANCH   3   6
ENDBRANCH   1   2
BRANCH   1  17
ATOM     17  C   UNL     1      -2.293   4.346   2.753  1.00  0.00     0.023 C 
BRANCH  17  18
ATOM     18  C   UNL     1      -2.157   5.068   4.095  1.00  0.00     0.023 C 
BRANCH  18  19
ATOM     19  C   UNL     1      -1.482   6.434   4.029  1.00  0.00     0.116 C 
BRANCH  19  20
ATOM     20  N   UNL     1      -2.038   7.302   3.002  1.00  0.00    -0.352 N 
ATOM     21  C   UNL     1      -2.160   8.668   3.010  1.00  0.00     0.251 C 
ATOM     22  H   UNL     1      -2.371   6.849   2.194  1.00  0.00     0.163 HD
ATOM     23  O   UNL     1      -2.753   9.239   2.100  1.00  0.00    -0.269 OA
BRANCH  21  24
ATOM     24  C   UNL     1      -1.599   9.436   4.138  1.00  0.00     0.039 A 
ATOM     25  C   UNL     1      -2.398  10.398   4.758  1.00  0.00     0.014 A 
ATOM     26  C   UNL     1      -0.300   9.192   4.591  1.00  0.00     0.014 A 
ATOM     27  C   UNL     1      -1.903  11.091   5.863  1.00  0.00     0.010 A 
ATOM     28  C   UNL     1       0.160   9.825   5.740  1.00  0.00     0.010 A 
ATOM     29  C   UNL     1      -0.629  10.795   6.375  1.00  0.00    -0.014 A 
BRANCH  29  30
ATOM     30  C   UNL     1      -0.097  11.524   7.552  1.00  0.00     0.031 A 
ATOM     31  C   UNL     1       1.113  12.407   7.403  1.00  0.00     0.074 A 
ATOM     32  C   UNL     1      -0.682  11.366   8.755  1.00  0.00     0.049 A 
ATOM     33  N   UNL     1       1.722  13.129   8.308  1.00  0.00    -0.248 NA
ATOM     34  C   UNL     1       1.738  12.467   6.070  1.00  0.00     0.031 C 
ATOM     35  C   UNL     1      -1.826  10.492   9.035  1.00  0.00     0.029 A 
ATOM     36  N   UNL     1      -0.399  11.937   9.969  1.00  0.00    -0.354 N 
ATOM     37  C   UNL     1       2.805  13.712   7.660  1.00  0.00     0.074 A 
ATOM     38  C   UNL     1       2.806  13.216   6.303  1.00  0.00     0.031 C 
ATOM     39  C   UNL     1      -2.167  10.614  10.328  1.00  0.00     0.029 A 
ATOM     40  C   UNL     1      -1.251  11.548  10.976  1.00  0.00     0.049 A 
ATOM     41  H   UNL     1       0.345  12.567  10.107  1.00  0.00     0.167 HD
ATOM     42  C   UNL     1       3.704  14.602   8.144  1.00  0.00     0.031 A 
ATOM     43  C   UNL     1      -1.294  11.910  12.272  1.00  0.00     0.031 A 
ATOM     44  C   UNL     1       3.684  15.110   9.490  1.00  0.00     0.049 A 
ATOM     45  C   UNL     1      -0.304  12.925  12.777  1.00  0.00     0.074 A 
ATOM     46  C   UNL     1       4.512  16.058  10.064  1.00  0.00     0.029 A 
ATOM     47  N   UNL     1       2.787  14.714  10.470  1.00  0.00    -0.354 N 
ATOM     48  N   UNL     1       0.670  13.520  12.129  1.00  0.00    -0.248 NA
ATOM     49  C   UNL     1      -0.437  13.337  14.180  1.00  0.00     0.031 C 
ATOM     50  C   UNL     1       4.144  16.201  11.406  1.00  0.00     0.029 A 
ATOM     51  C   UNL     1       3.048  15.389  11.649  1.00  0.00     0.049 A 
ATOM     52  H   UNL     1       2.070  14.051  10.345  1.00  0.00     0.167 HD
ATOM     53  C   UNL     1       1.243  14.404  13.038  1.00  0.00     0.074 A 
ATOM     54  C   UNL     1       0.494  14.276  14.271  1.00  0.00     0.031 C 
ATOM     55  C   UNL     1       2.290  15.249  12.867  1.00  0.00     0.031 A 
BRANCH  42  56
ATOM     56  C   UNL     1       4.782  15.085   7.209  1.00  0.00    -0.014 A 
ATOM     57  C   UNL     1       4.480  15.923   6.120  1.00  0.00     0.010 A 
ATOM     58  C   UNL     1       6.123  14.731   7.447  1.00  0.00     0.010 A 
ATOM     59  C   UNL     1       5.492  16.369   5.266  1.00  0.00     0.020 A 
ATOM     60  C   UNL     1       7.142  15.199   6.613  1.00  0.00     0.020 A 
ATOM     61  C   UNL     1       6.818  16.004   5.519  1.00  0.00     0.054 A 
BRANCH  61  62
ATOM     62  S   UNL     1       8.115  16.628   4.416  1.00  0.00     0.124 S 
ATOM     63  O   UNL     1       7.887  15.841   3.206  1.00  0.00    -0.237 OA
ATOM     64  O   UNL     1       7.790  18.048   4.311  1.00  0.00    -0.237 OA
ATOM     65  O   UNL     1       9.353  16.326   5.130  1.00  0.00    -0.744 OA
ENDBRANCH  61  62
ENDBRANCH  42  56
BRANCH  43  66
ATOM     66  C   UNL     1      -2.329  11.335  13.176  1.00  0.00    -0.014 A 
ATOM     67  C   UNL     1      -3.376  12.134  13.670  1.00  0.00     0.010 A 
ATOM     68  C   UNL     1      -2.269   9.981  13.552  1.00  0.00     0.010 A 
ATOM     69  C   UNL     1      -4.323  11.599  14.548  1.00  0.00     0.020 A 
ATOM     70  C   UNL     1      -3.232   9.435  14.405  1.00  0.00     0.020 A 
ATOM     71  C   UNL     1      -4.244  10.252  14.911  1.00  0.00     0.054 A 
BRANCH  71  72
ATOM     72  S   UNL     1      -5.502   9.570  16.027  1.00  0.00     0.124 S 
ATOM     73  O   UNL     1      -5.112  10.145  17.311  1.00  0.00    -0.237 OA
ATOM     74  O   UNL     1      -6.744  10.082  15.453  1.00  0.00    -0.237 OA
ATOM     75  O   UNL     1      -5.318   8.125  15.905  1.00  0.00    -0.744 OA
ENDBRANCH  71  72
ENDBRANCH  43  66
BRANCH  55  76
ATOM     76  C   UNL     1       2.652  16.139  14.027  1.00  0.00    -0.014 A 
ATOM     77  C   UNL     1       3.229  15.622  15.200  1.00  0.00     0.010 A 
ATOM     78  C   UNL     1       2.425  17.524  13.927  1.00  0.00     0.010 A 
ATOM     79  C   UNL     1       3.518  16.466  16.275  1.00  0.00     0.020 A 
ATOM     80  C   UNL     1       2.744  18.376  14.986  1.00  0.00     0.020 A 
ATOM     81  C   UNL     1       3.266  17.838  16.163  1.00  0.00     0.054 A 
BRANCH  81  82
ATOM     82  S   UNL     1       3.649  18.915  17.570  1.00  0.00     0.124 S 
ATOM     83  O   UNL     1       2.559  18.607  18.492  1.00  0.00    -0.237 OA
ATOM     84  O   UNL     1       4.971  18.449  17.981  1.00  0.00    -0.237 OA
ATOM     85  O   UNL     1       3.619  20.258  16.996  1.00  0.00    -0.744 OA
ENDBRANCH  81  82
ENDBRANCH  55  76
ENDBRANCH  29  30
ENDBRANCH  21  24
ENDBRANCH  19  20
ENDBRANCH  18  19
ENDBRANCH  17  18
ENDBRANCH   1  17
TORSDOF 19
