REMARK SMILES Cc1c(NS(=O)(=O)c2ccc3c(c2)COC3)cccc1C(=O)NCCCCNC(=O)c1ccc(-c2c3nc(c(-c4ccc(S(=O)(=O)[O-])cc4)c4ccc([nH]4)c(-c4ccc(S(=O)(=O)[O-])cc4)c4nc(c(-c5ccc(S(=O)(=O)[O-])cc5)c5ccc2[nH]5)C=C4)C=C3)cc1
REMARK SMILES IDX 25 1 24 2 23 3 21 4 22 5 20 7 1 8 2 9 3 10 17 11 19 12 18 13
REMARK SMILES IDX 4 14 5 16 6 17 7 18 8 19 9 20 13 21 10 22 12 23 11 24 14 25
REMARK SMILES IDX 16 26 15 27 26 28 27 29 28 30 29 31 30 33 31 34 32 35 90 36
REMARK SMILES IDX 33 37 89 38 34 39 35 40 36 41 83 42 37 43 88 44 82 45 84 46
REMARK SMILES IDX 38 47 87 48 81 49 80 50 39 52 69 53 50 54 68 55 51 56 54 57
REMARK SMILES IDX 67 58 85 59 52 60 53 61 66 63 86 64 55 65 40 66 41 67 49 68
REMARK SMILES IDX 42 69 48 70 43 71 44 72 45 73 46 74 47 75 70 76 71 77 79 78
REMARK SMILES IDX 72 79 78 80 73 81 74 82 75 83 76 84 77 85 56 86 57 87 65 88
REMARK SMILES IDX 58 89 64 90 59 91 60 92 61 93 62 94 63 95
REMARK H PARENT 23 6 4 15 28 32 84 51 54 62
REMARK Flexibility Score: inf
ROOT
ATOM      1  C   UNL     1       4.418   1.183  -1.241  1.00  0.00     0.023 C 
ENDROOT
BRANCH   1   2
ATOM      2  C   UNL     1       3.552   1.647  -0.055  1.00  0.00     0.116 C 
BRANCH   2   3
ATOM      3  N   UNL     1       2.401   2.425  -0.504  1.00  0.00    -0.352 N 
ATOM      4  C   UNL     1       1.055   2.168  -0.476  1.00  0.00     0.251 C 
ATOM      5  O   UNL     1       0.273   3.014  -0.910  1.00  0.00    -0.269 OA
ATOM      6  H   UNL     1       2.636   3.295  -0.901  1.00  0.00     0.163 HD
BRANCH   4   7
ATOM      7  C   UNL     1       0.491   0.929   0.116  1.00  0.00     0.044 A 
ATOM      8  C   UNL     1       1.651  -0.613  -1.532  1.00  0.00     0.047 C 
ATOM      9  C   UNL     1       0.763  -0.377  -0.344  1.00  0.00    -0.014 A 
ATOM     10  C   UNL     1       0.149  -1.479   0.300  1.00  0.00     0.053 A 
ATOM     11  C   UNL     1      -0.770  -1.254   1.332  1.00  0.00     0.027 A 
ATOM     12  C   UNL     1      -0.493   1.129   1.096  1.00  0.00     0.014 A 
ATOM     13  C   UNL     1      -1.123   0.044   1.697  1.00  0.00     0.003 A 
BRANCH  10  14
ATOM     14  N   UNL     1       0.385  -2.778  -0.253  1.00  0.00    -0.279 N 
ATOM     15  H   UNL     1       1.112  -2.838  -0.914  1.00  0.00     0.180 HD
BRANCH  14  16
ATOM     16  S   UNL     1      -0.414  -4.198   0.081  1.00  0.00     0.261 S 
ATOM     17  O   UNL     1       0.044  -5.154  -0.906  1.00  0.00    -0.201 OA
ATOM     18  O   UNL     1      -0.298  -4.471   1.497  1.00  0.00    -0.201 OA
BRANCH  16  19
ATOM     19  C   UNL     1      -2.144  -3.925  -0.254  1.00  0.00     0.088 A 
ATOM     20  C   UNL     1      -3.038  -4.845   0.330  1.00  0.00     0.022 A 
ATOM     21  C   UNL     1      -2.605  -2.734  -0.821  1.00  0.00     0.028 A 
ATOM     22  C   UNL     1      -4.389  -4.527   0.456  1.00  0.00     0.008 A 
ATOM     23  C   UNL     1      -3.932  -2.404  -0.609  1.00  0.00    -0.015 A 
ATOM     24  C   UNL     1      -4.800  -3.275   0.034  1.00  0.00    -0.017 A 
ATOM     25  C   UNL     1      -4.634  -1.125  -0.885  1.00  0.00     0.196 C 
ATOM     26  C   UNL     1      -6.112  -2.609   0.222  1.00  0.00     0.196 C 
ATOM     27  O   UNL     1      -5.887  -1.234  -0.167  1.00  0.00    -0.372 OA
ENDBRANCH  16  19
ENDBRANCH  14  16
ENDBRANCH  10  14
ENDBRANCH   4   7
ENDBRANCH   2   3
ENDBRANCH   1   2
BRANCH   1  28
ATOM     28  C   UNL     1       5.159   2.300  -1.975  1.00  0.00     0.023 C 
BRANCH  28  29
ATOM     29  C   UNL     1       6.426   2.710  -1.249  1.00  0.00     0.116 C 
BRANCH  29  30
ATOM     30  N   UNL     1       7.652   2.192  -1.840  1.00  0.00    -0.352 N 
ATOM     31  C   UNL     1       8.949   2.474  -1.446  1.00  0.00     0.251 C 
ATOM     32  H   UNL     1       7.548   1.577  -2.602  1.00  0.00     0.163 HD
ATOM     33  O   UNL     1       9.917   2.278  -2.174  1.00  0.00    -0.269 OA
BRANCH  31  34
ATOM     34  C   UNL     1       9.136   2.884  -0.039  1.00  0.00     0.039 A 
ATOM     35  C   UNL     1       9.735   1.950   0.814  1.00  0.00     0.014 A 
ATOM     36  C   UNL     1       8.409   3.957   0.465  1.00  0.00     0.014 A 
ATOM     37  C   UNL     1       9.431   1.973   2.172  1.00  0.00     0.010 A 
ATOM     38  C   UNL     1       8.004   3.897   1.782  1.00  0.00     0.010 A 
ATOM     39  C   UNL     1       8.477   2.880   2.626  1.00  0.00    -0.014 A 
BRANCH  39  40
ATOM     40  C   UNL     1       7.857   2.823   3.946  1.00  0.00     0.031 A 
ATOM     41  C   UNL     1       8.149   3.896   4.927  1.00  0.00     0.074 A 
ATOM     42  C   UNL     1       6.931   1.879   4.232  1.00  0.00     0.049 A 
ATOM     43  N   UNL     1       7.936   3.813   6.198  1.00  0.00    -0.248 NA
ATOM     44  C   UNL     1       8.785   5.153   4.540  1.00  0.00     0.031 C 
ATOM     45  C   UNL     1       5.978   1.902   5.341  1.00  0.00     0.029 A 
ATOM     46  N   UNL     1       6.793   0.593   3.704  1.00  0.00    -0.354 N 
ATOM     47  C   UNL     1       8.077   5.081   6.720  1.00  0.00     0.074 A 
ATOM     48  C   UNL     1       8.720   5.843   5.679  1.00  0.00     0.031 C 
ATOM     49  C   UNL     1       5.598   0.643   5.607  1.00  0.00     0.029 A 
ATOM     50  C   UNL     1       6.407  -0.231   4.776  1.00  0.00     0.049 A 
ATOM     51  H   UNL     1       6.937   0.320   2.769  1.00  0.00     0.167 HD
ATOM     52  C   UNL     1       7.484   5.384   7.911  1.00  0.00     0.031 A 
ATOM     53  C   UNL     1       7.140  -1.290   5.233  1.00  0.00     0.031 A 
ATOM     54  C   UNL     1       6.976   4.182   8.574  1.00  0.00     0.049 A 
ATOM     55  C   UNL     1       7.533  -1.152   6.690  1.00  0.00     0.074 A 
ATOM     56  C   UNL     1       5.708   3.648   8.736  1.00  0.00     0.029 A 
ATOM     57  N   UNL     1       7.872   3.182   8.940  1.00  0.00    -0.354 N 
ATOM     58  N   UNL     1       7.423  -0.043   7.369  1.00  0.00    -0.248 NA
ATOM     59  C   UNL     1       8.125  -2.226   7.484  1.00  0.00     0.031 C 
ATOM     60  C   UNL     1       5.853   2.281   9.098  1.00  0.00     0.029 A 
ATOM     61  C   UNL     1       7.205   1.999   9.193  1.00  0.00     0.049 A 
ATOM     62  H   UNL     1       8.847   3.302   9.009  1.00  0.00     0.167 HD
ATOM     63  C   UNL     1       7.917  -0.219   8.633  1.00  0.00     0.074 A 
ATOM     64  C   UNL     1       8.333  -1.610   8.663  1.00  0.00     0.031 C 
ATOM     65  C   UNL     1       7.953   0.798   9.543  1.00  0.00     0.031 A 
BRANCH  52  66
ATOM     66  C   UNL     1       7.101   6.797   8.322  1.00  0.00    -0.014 A 
ATOM     67  C   UNL     1       6.093   6.992   9.290  1.00  0.00     0.010 A 
ATOM     68  C   UNL     1       7.609   7.971   7.731  1.00  0.00     0.010 A 
ATOM     69  C   UNL     1       5.560   8.263   9.573  1.00  0.00     0.020 A 
ATOM     70  C   UNL     1       7.077   9.243   7.987  1.00  0.00     0.020 A 
ATOM     71  C   UNL     1       6.039   9.381   8.896  1.00  0.00     0.054 A 
BRANCH  71  72
ATOM     72  S   UNL     1       5.291  11.002   9.196  1.00  0.00     0.124 S 
ATOM     73  O   UNL     1       3.894  10.775   8.834  1.00  0.00    -0.237 OA
ATOM     74  O   UNL     1       5.550  11.210  10.617  1.00  0.00    -0.237 OA
ATOM     75  O   UNL     1       6.022  11.894   8.297  1.00  0.00    -0.744 OA
ENDBRANCH  71  72
ENDBRANCH  52  66
BRANCH  53  76
ATOM     76  C   UNL     1       7.943  -1.976   4.184  1.00  0.00    -0.014 A 
ATOM     77  C   UNL     1       7.229  -2.719   3.219  1.00  0.00     0.010 A 
ATOM     78  C   UNL     1       9.240  -1.527   3.877  1.00  0.00     0.010 A 
ATOM     79  C   UNL     1       7.709  -2.828   1.913  1.00  0.00     0.020 A 
ATOM     80  C   UNL     1       9.726  -1.643   2.566  1.00  0.00     0.020 A 
ATOM     81  C   UNL     1       8.919  -2.220   1.581  1.00  0.00     0.054 A 
BRANCH  81  82
ATOM     82  S   UNL     1       9.301  -1.997  -0.184  1.00  0.00     0.124 S 
ATOM     83  O   UNL     1       9.235  -3.362  -0.696  1.00  0.00    -0.237 OA
ATOM     84  O   UNL     1       8.217  -1.111  -0.610  1.00  0.00    -0.237 OA
ATOM     85  O   UNL     1      10.630  -1.394  -0.164  1.00  0.00    -0.744 OA
ENDBRANCH  81  82
ENDBRANCH  53  76
BRANCH  65  86
ATOM     86  C   UNL     1       8.638   0.753  10.886  1.00  0.00    -0.014 A 
ATOM     87  C   UNL     1       9.742  -0.064  11.181  1.00  0.00     0.010 A 
ATOM     88  C   UNL     1       8.242   1.681  11.879  1.00  0.00     0.010 A 
ATOM     89  C   UNL     1      10.381   0.002  12.428  1.00  0.00     0.020 A 
ATOM     90  C   UNL     1       8.898   1.785  13.108  1.00  0.00     0.020 A 
ATOM     91  C   UNL     1       9.953   0.923  13.385  1.00  0.00     0.054 A 
BRANCH  91  92
ATOM     92  S   UNL     1      10.823   1.051  14.969  1.00  0.00     0.124 S 
ATOM     93  O   UNL     1      10.104   0.077  15.785  1.00  0.00    -0.237 OA
ATOM     94  O   UNL     1      12.195   0.687  14.621  1.00  0.00    -0.237 OA
ATOM     95  O   UNL     1      10.635   2.449  15.348  1.00  0.00    -0.744 OA
ENDBRANCH  91  92
ENDBRANCH  65  86
ENDBRANCH  39  40
ENDBRANCH  31  34
ENDBRANCH  29  30
ENDBRANCH  28  29
ENDBRANCH   1  28
TORSDOF 17
