REMARK SMILES O=C(NCCCCNC(=O)c1ccc(-c2c3nc(c(-c4ccc(S(=O)(=O)[O-])cc4)c4ccc([nH]4)c(-c4ccc(S(=O)(=O)[O-])cc4)c4nc(c(-c5ccc(S(=O)(=O)[O-])cc5)c5ccc2[nH]5)C=C4)C=C3)cc1)C1=Cc2cc(Cl)c(Cl)cc2O[C@@H]1C(F)(F)F
REMARK SMILES IDX 6 1 5 2 4 3 3 4 1 5 2 6 71 8 72 9 82 10 73 11 81 12 74 13
REMARK SMILES IDX 80 14 75 15 79 16 76 17 77 18 78 19 83 20 84 21 85 22 86 23
REMARK SMILES IDX 7 24 8 25 9 26 10 28 11 29 12 30 70 31 13 32 69 33 14 34
REMARK SMILES IDX 15 35 16 36 63 37 17 38 68 39 62 40 64 41 18 42 67 43 61 44
REMARK SMILES IDX 60 45 19 47 49 48 30 49 48 50 31 51 34 52 47 53 65 54 32 55
REMARK SMILES IDX 33 56 46 58 66 59 35 60 20 61 21 62 29 63 22 64 28 65 23 66
REMARK SMILES IDX 24 67 25 68 26 69 27 70 50 71 51 72 59 73 52 74 58 75 53 76
REMARK SMILES IDX 54 77 55 78 56 79 57 80 36 81 37 82 45 83 38 84 44 85 39 86
REMARK SMILES IDX 40 87 41 88 42 89 43 90
REMARK H PARENT 3 7 8 27 64 46 34 57
REMARK Flexibility Score: inf
ROOT
ATOM      1  C   UNL     1       4.067   4.131   1.773  1.00  0.00     0.023 C 
ENDROOT
BRANCH   1   2
ATOM      2  C   UNL     1       4.403   3.391   0.485  1.00  0.00     0.023 C 
BRANCH   2   3
ATOM      3  C   UNL     1       4.055   1.907   0.455  1.00  0.00     0.116 C 
BRANCH   3   4
ATOM      4  N   UNL     1       2.775   1.582  -0.158  1.00  0.00    -0.352 N 
ATOM      5  O   UNL     1       1.177   0.286  -1.070  1.00  0.00    -0.270 OA
ATOM      6  C   UNL     1       2.362   0.430  -0.774  1.00  0.00     0.251 C 
ATOM      7  H   UNL     1       2.102   2.300  -0.123  1.00  0.00     0.163 HD
BRANCH   6   8
ATOM      8  C   UNL     1       3.291  -0.713  -1.017  1.00  0.00     0.067 C 
ATOM      9  C   UNL     1       4.534  -0.498  -1.477  1.00  0.00     0.025 C 
ATOM     10  C   UNL     1       3.021  -1.903  -0.126  1.00  0.00     0.314 C 
ATOM     11  C   UNL     1       5.581  -0.838  -0.497  1.00  0.00     0.019 A 
ATOM     12  O   UNL     1       4.002  -2.024   0.939  1.00  0.00    -0.475 OA
ATOM     13  C   UNL     1       6.834  -0.228  -0.630  1.00  0.00     0.034 A 
ATOM     14  C   UNL     1       5.237  -1.478   0.702  1.00  0.00     0.129 A 
ATOM     15  C   UNL     1       7.705  -0.186   0.462  1.00  0.00     0.060 A 
ATOM     16  C   UNL     1       6.122  -1.468   1.777  1.00  0.00     0.069 A 
ATOM     17  Cl  UNL     1       9.163   0.722   0.279  1.00  0.00    -0.083 Cl
ATOM     18  C   UNL     1       7.344  -0.796   1.669  1.00  0.00     0.063 A 
ATOM     19  Cl  UNL     1       8.329  -0.699   3.084  1.00  0.00    -0.083 Cl
BRANCH  10  20
ATOM     20  C   UNL     1       2.933  -3.202  -0.948  1.00  0.00     0.429 C 
ATOM     21  F   UNL     1       2.581  -4.256  -0.174  1.00  0.00    -0.167 F 
ATOM     22  F   UNL     1       2.008  -3.112  -1.935  1.00  0.00    -0.167 F 
ATOM     23  F   UNL     1       4.111  -3.518  -1.540  1.00  0.00    -0.167 F 
ENDBRANCH  10  20
ENDBRANCH   6   8
ENDBRANCH   3   4
ENDBRANCH   2   3
ENDBRANCH   1   2
BRANCH   1  24
ATOM     24  C   UNL     1       4.652   3.561   3.066  1.00  0.00     0.116 C 
BRANCH  24  25
ATOM     25  N   UNL     1       6.097   3.375   3.058  1.00  0.00    -0.352 N 
ATOM     26  C   UNL     1       7.032   3.717   4.011  1.00  0.00     0.251 C 
ATOM     27  H   UNL     1       6.459   2.940   2.253  1.00  0.00     0.163 HD
ATOM     28  O   UNL     1       8.223   3.509   3.796  1.00  0.00    -0.269 OA
BRANCH  26  29
ATOM     29  C   UNL     1       6.614   4.393   5.262  1.00  0.00     0.039 A 
ATOM     30  C   UNL     1       7.317   5.529   5.674  1.00  0.00     0.014 A 
ATOM     31  C   UNL     1       5.508   3.956   5.993  1.00  0.00     0.014 A 
ATOM     32  C   UNL     1       6.840   6.287   6.746  1.00  0.00     0.010 A 
ATOM     33  C   UNL     1       4.984   4.760   7.004  1.00  0.00     0.010 A 
ATOM     34  C   UNL     1       5.633   5.945   7.379  1.00  0.00    -0.014 A 
BRANCH  34  35
ATOM     35  C   UNL     1       5.018   6.858   8.379  1.00  0.00     0.031 A 
ATOM     36  C   UNL     1       4.820   6.428   9.807  1.00  0.00     0.074 A 
ATOM     37  C   UNL     1       4.585   8.072   7.979  1.00  0.00     0.049 A 
ATOM     38  N   UNL     1       4.352   7.119  10.816  1.00  0.00    -0.248 NA
ATOM     39  C   UNL     1       5.163   5.037  10.140  1.00  0.00     0.031 C 
ATOM     40  C   UNL     1       4.643   8.582   6.605  1.00  0.00     0.029 A 
ATOM     41  N   UNL     1       4.024   9.104   8.688  1.00  0.00    -0.354 N 
ATOM     42  C   UNL     1       4.330   6.245  11.897  1.00  0.00     0.074 A 
ATOM     43  C   UNL     1       4.784   4.961  11.408  1.00  0.00     0.031 C 
ATOM     44  C   UNL     1       4.194   9.847   6.585  1.00  0.00     0.029 A 
ATOM     45  C   UNL     1       3.790  10.229   7.933  1.00  0.00     0.049 A 
ATOM     46  H   UNL     1       3.808   9.044   9.647  1.00  0.00     0.167 HD
ATOM     47  C   UNL     1       3.985   6.492  13.184  1.00  0.00     0.031 A 
ATOM     48  C   UNL     1       3.326  11.443   8.287  1.00  0.00     0.031 A 
ATOM     49  C   UNL     1       3.546   7.773  13.671  1.00  0.00     0.049 A 
ATOM     50  C   UNL     1       2.994  11.708   9.728  1.00  0.00     0.074 A 
ATOM     51  C   UNL     1       3.247   8.146  14.971  1.00  0.00     0.029 A 
ATOM     52  N   UNL     1       3.338   8.892  12.878  1.00  0.00    -0.354 N 
ATOM     53  N   UNL     1       3.072  10.896  10.754  1.00  0.00    -0.248 NA
ATOM     54  C   UNL     1       2.530  13.062  10.059  1.00  0.00     0.031 C 
ATOM     55  C   UNL     1       2.817   9.479  14.957  1.00  0.00     0.029 A 
ATOM     56  C   UNL     1       2.895   9.950  13.656  1.00  0.00     0.049 A 
ATOM     57  H   UNL     1       3.483   8.929  11.905  1.00  0.00     0.167 HD
ATOM     58  C   UNL     1       2.691  11.647  11.859  1.00  0.00     0.074 A 
ATOM     59  C   UNL     1       2.400  12.983  11.376  1.00  0.00     0.031 C 
ATOM     60  C   UNL     1       2.593  11.268  13.158  1.00  0.00     0.031 A 
BRANCH  47  61
ATOM     61  C   UNL     1       4.064   5.340  14.152  1.00  0.00    -0.014 A 
ATOM     62  C   UNL     1       5.305   4.807  14.548  1.00  0.00     0.010 A 
ATOM     63  C   UNL     1       2.884   4.789  14.681  1.00  0.00     0.010 A 
ATOM     64  C   UNL     1       5.362   3.709  15.410  1.00  0.00     0.020 A 
ATOM     65  C   UNL     1       2.937   3.707  15.566  1.00  0.00     0.020 A 
ATOM     66  C   UNL     1       4.176   3.159  15.905  1.00  0.00     0.054 A 
BRANCH  66  67
ATOM     67  S   UNL     1       4.275   1.730  17.019  1.00  0.00     0.124 S 
ATOM     68  O   UNL     1       4.578   0.646  16.087  1.00  0.00    -0.237 OA
ATOM     69  O   UNL     1       5.360   2.101  17.924  1.00  0.00    -0.237 OA
ATOM     70  O   UNL     1       2.950   1.675  17.630  1.00  0.00    -0.744 OA
ENDBRANCH  66  67
ENDBRANCH  47  61
BRANCH  48  71
ATOM     71  C   UNL     1       3.216  12.522   7.267  1.00  0.00    -0.014 A 
ATOM     72  C   UNL     1       4.134  13.587   7.263  1.00  0.00     0.010 A 
ATOM     73  C   UNL     1       2.212  12.480   6.284  1.00  0.00     0.010 A 
ATOM     74  C   UNL     1       4.043  14.598   6.303  1.00  0.00     0.020 A 
ATOM     75  C   UNL     1       2.132  13.477   5.307  1.00  0.00     0.020 A 
ATOM     76  C   UNL     1       3.044  14.536   5.329  1.00  0.00     0.054 A 
BRANCH  76  77
ATOM     77  S   UNL     1       2.984  15.824   4.052  1.00  0.00     0.124 S 
ATOM     78  O   UNL     1       2.408  16.948   4.782  1.00  0.00    -0.237 OA
ATOM     79  O   UNL     1       4.389  15.964   3.677  1.00  0.00    -0.237 OA
ATOM     80  O   UNL     1       2.129  15.240   3.020  1.00  0.00    -0.744 OA
ENDBRANCH  76  77
ENDBRANCH  48  71
BRANCH  60  81
ATOM     81  C   UNL     1       2.175  12.324  14.145  1.00  0.00    -0.014 A 
ATOM     82  C   UNL     1       0.853  12.805  14.180  1.00  0.00     0.010 A 
ATOM     83  C   UNL     1       3.118  12.841  15.051  1.00  0.00     0.010 A 
ATOM     84  C   UNL     1       0.497  13.825  15.067  1.00  0.00     0.020 A 
ATOM     85  C   UNL     1       2.759  13.841  15.957  1.00  0.00     0.020 A 
ATOM     86  C   UNL     1       1.456  14.344  15.942  1.00  0.00     0.054 A 
BRANCH  86  87
ATOM     87  S   UNL     1       0.976  15.669  17.084  1.00  0.00     0.124 S 
ATOM     88  O   UNL     1       0.986  16.839  16.210  1.00  0.00    -0.237 OA
ATOM     89  O   UNL     1      -0.343  15.239  17.544  1.00  0.00    -0.237 OA
ATOM     90  O   UNL     1       2.023  15.641  18.103  1.00  0.00    -0.744 OA
ENDBRANCH  86  87
ENDBRANCH  60  81
ENDBRANCH  34  35
ENDBRANCH  26  29
ENDBRANCH  24  25
ENDBRANCH   1  24
TORSDOF 15
