REMARK SMILES Cc1nsc(NC(=O)c2ccc(N)cc2)c1C(=O)NCCCCNC(=O)c1ccc(-c2c3nc(c(-c4ccc(S(=O)(=O)[O-])cc4)c4ccc([nH]4)c(-c4ccc(S(=O)(=O)[O-])cc4)c4nc(c(-c5ccc(S(=O)(=O)[O-])cc5)c5ccc2[nH]5)C=C4)C=C3)cc1
REMARK SMILES IDX 21 1 20 2 19 3 17 4 18 5 16 7 1 8 2 9 3 10 4 11 5 12 6 13
REMARK SMILES IDX 7 14 8 16 9 17 10 18 15 19 11 20 14 21 12 22 13 23 22 26
REMARK SMILES IDX 23 27 24 28 25 29 26 31 27 32 28 33 86 34 29 35 85 36 30 37
REMARK SMILES IDX 31 38 32 39 79 40 33 41 84 42 78 43 80 44 34 45 83 46 77 47
REMARK SMILES IDX 76 48 35 50 65 51 46 52 64 53 47 54 50 55 63 56 81 57 48 58
REMARK SMILES IDX 49 59 62 61 82 62 51 63 36 64 37 65 45 66 38 67 44 68 39 69
REMARK SMILES IDX 40 70 41 71 42 72 43 73 66 74 67 75 75 76 68 77 74 78 69 79
REMARK SMILES IDX 70 80 71 81 72 82 73 83 52 84 53 85 61 86 54 87 60 88 55 89
REMARK SMILES IDX 56 90 57 91 58 92 59 93
REMARK H PARENT 19 6 6 15 13 24 13 25 24 30 80 49 50 60
REMARK Flexibility Score: inf
ROOT
ATOM      1  C   UNL     1      -1.541   2.174  -0.405  1.00  0.00     0.023 C 
ENDROOT
BRANCH   1   2
ATOM      2  C   UNL     1      -0.413   1.541   0.408  1.00  0.00     0.116 C 
BRANCH   2   3
ATOM      3  N   UNL     1      -0.612   1.403   1.836  1.00  0.00    -0.352 N 
ATOM      4  C   UNL     1      -0.383   0.324   2.670  1.00  0.00     0.256 C 
ATOM      5  O   UNL     1      -0.601   0.490   3.871  1.00  0.00    -0.269 OA
ATOM      6  H   UNL     1      -0.966   2.205   2.284  1.00  0.00     0.163 HD
BRANCH   4   7
ATOM      7  C   UNL     1      -0.048  -1.002   2.146  1.00  0.00     0.097 A 
ATOM      8  C   UNL     1       1.819  -0.635   0.286  1.00  0.00     0.069 C 
ATOM      9  C   UNL     1       0.797  -1.419   1.039  1.00  0.00     0.066 A 
ATOM     10  N   UNL     1       0.641  -2.682   0.635  1.00  0.00    -0.195 NA
ATOM     11  S   UNL     1      -0.372  -3.440   1.685  1.00  0.00    -0.017 S 
ATOM     12  C   UNL     1      -0.439  -2.167   2.813  1.00  0.00     0.129 A 
BRANCH  12  13
ATOM     13  N   UNL     1      -0.936  -2.308   4.101  1.00  0.00    -0.312 N 
ATOM     14  C   UNL     1      -1.149  -3.430   4.881  1.00  0.00     0.256 C 
ATOM     15  H   UNL     1      -1.179  -1.460   4.537  1.00  0.00     0.171 HD
ATOM     16  O   UNL     1      -1.776  -3.342   5.937  1.00  0.00    -0.269 OA
BRANCH  14  17
ATOM     17  C   UNL     1      -0.640  -4.764   4.503  1.00  0.00     0.040 A 
ATOM     18  C   UNL     1       0.712  -4.980   4.220  1.00  0.00     0.016 A 
ATOM     19  C   UNL     1      -1.558  -5.809   4.376  1.00  0.00     0.016 A 
ATOM     20  C   UNL     1       1.109  -6.197   3.655  1.00  0.00     0.026 A 
ATOM     21  C   UNL     1      -1.145  -7.028   3.834  1.00  0.00     0.026 A 
ATOM     22  C   UNL     1       0.178  -7.216   3.426  1.00  0.00     0.031 A 
BRANCH  22  23
ATOM     23  N   UNL     1       0.556  -8.381   2.786  1.00  0.00    -0.399 N 
ATOM     24  H   UNL     1       1.490  -8.506   2.501  1.00  0.00     0.156 HD
ATOM     25  H   UNL     1      -0.110  -9.087   2.615  1.00  0.00     0.156 HD
ENDBRANCH  22  23
ENDBRANCH  14  17
ENDBRANCH  12  13
ENDBRANCH   4   7
ENDBRANCH   2   3
ENDBRANCH   1   2
BRANCH   1  26
ATOM     26  C   UNL     1      -1.862   3.653  -0.197  1.00  0.00     0.023 C 
BRANCH  26  27
ATOM     27  C   UNL     1      -0.674   4.598  -0.276  1.00  0.00     0.116 C 
BRANCH  27  28
ATOM     28  N   UNL     1      -0.008   4.639  -1.580  1.00  0.00    -0.352 N 
ATOM     29  C   UNL     1       1.007   5.507  -1.977  1.00  0.00     0.251 C 
ATOM     30  H   UNL     1      -0.310   3.982  -2.249  1.00  0.00     0.163 HD
ATOM     31  O   UNL     1       1.251   5.699  -3.153  1.00  0.00    -0.269 OA
BRANCH  29  32
ATOM     32  C   UNL     1       1.793   6.177  -0.917  1.00  0.00     0.039 A 
ATOM     33  C   UNL     1       2.170   7.522  -0.984  1.00  0.00     0.014 A 
ATOM     34  C   UNL     1       2.099   5.411   0.201  1.00  0.00     0.014 A 
ATOM     35  C   UNL     1       2.780   8.102   0.130  1.00  0.00     0.010 A 
ATOM     36  C   UNL     1       2.496   6.027   1.354  1.00  0.00     0.010 A 
ATOM     37  C   UNL     1       2.921   7.347   1.305  1.00  0.00    -0.014 A 
BRANCH  37  38
ATOM     38  C   UNL     1       3.390   7.922   2.561  1.00  0.00     0.031 A 
ATOM     39  C   UNL     1       2.546   9.043   3.048  1.00  0.00     0.074 A 
ATOM     40  C   UNL     1       4.312   7.301   3.334  1.00  0.00     0.049 A 
ATOM     41  N   UNL     1       2.831  10.302   3.038  1.00  0.00    -0.248 NA
ATOM     42  C   UNL     1       1.143   8.758   3.405  1.00  0.00     0.031 C 
ATOM     43  C   UNL     1       4.960   6.002   3.083  1.00  0.00     0.029 A 
ATOM     44  N   UNL     1       4.775   7.619   4.574  1.00  0.00    -0.354 N 
ATOM     45  C   UNL     1       1.756  10.928   3.662  1.00  0.00     0.074 A 
ATOM     46  C   UNL     1       0.668   9.987   3.616  1.00  0.00     0.031 C 
ATOM     47  C   UNL     1       5.519   5.538   4.224  1.00  0.00     0.029 A 
ATOM     48  C   UNL     1       5.436   6.579   5.230  1.00  0.00     0.049 A 
ATOM     49  H   UNL     1       4.654   8.509   4.975  1.00  0.00     0.167 HD
ATOM     50  C   UNL     1       1.951  12.008   4.471  1.00  0.00     0.031 A 
ATOM     51  C   UNL     1       5.883   6.567   6.512  1.00  0.00     0.031 A 
ATOM     52  C   UNL     1       3.305  12.493   4.355  1.00  0.00     0.049 A 
ATOM     53  C   UNL     1       6.011   7.981   6.926  1.00  0.00     0.074 A 
ATOM     54  C   UNL     1       4.073  13.079   3.373  1.00  0.00     0.029 A 
ATOM     55  N   UNL     1       4.165  11.976   5.293  1.00  0.00    -0.354 N 
ATOM     56  N   UNL     1       6.854   8.809   6.373  1.00  0.00    -0.248 NA
ATOM     57  C   UNL     1       4.921   8.602   7.662  1.00  0.00     0.031 C 
ATOM     58  C   UNL     1       5.402  12.615   3.604  1.00  0.00     0.029 A 
ATOM     59  C   UNL     1       5.415  11.828   4.758  1.00  0.00     0.049 A 
ATOM     60  H   UNL     1       3.918  11.745   6.218  1.00  0.00     0.167 HD
ATOM     61  C   UNL     1       6.166  10.008   6.301  1.00  0.00     0.074 A 
ATOM     62  C   UNL     1       5.062   9.865   7.247  1.00  0.00     0.031 C 
ATOM     63  C   UNL     1       6.382  10.872   5.265  1.00  0.00     0.031 A 
BRANCH  50  64
ATOM     64  C   UNL     1       1.144  12.295   5.725  1.00  0.00    -0.014 A 
ATOM     65  C   UNL     1       1.485  13.429   6.494  1.00  0.00     0.010 A 
ATOM     66  C   UNL     1       0.282  11.358   6.330  1.00  0.00     0.010 A 
ATOM     67  C   UNL     1       1.051  13.574   7.819  1.00  0.00     0.020 A 
ATOM     68  C   UNL     1      -0.188  11.511   7.636  1.00  0.00     0.020 A 
ATOM     69  C   UNL     1       0.226  12.604   8.385  1.00  0.00     0.054 A 
BRANCH  69  70
ATOM     70  S   UNL     1      -0.257  12.749  10.122  1.00  0.00     0.124 S 
ATOM     71  O   UNL     1       1.025  12.598  10.803  1.00  0.00    -0.237 OA
ATOM     72  O   UNL     1      -0.848  14.084  10.165  1.00  0.00    -0.237 OA
ATOM     73  O   UNL     1      -1.200  11.649  10.307  1.00  0.00    -0.744 OA
ENDBRANCH  69  70
ENDBRANCH  50  64
BRANCH  51  74
ATOM     74  C   UNL     1       5.966   5.438   7.474  1.00  0.00    -0.014 A 
ATOM     75  C   UNL     1       6.766   5.508   8.632  1.00  0.00     0.010 A 
ATOM     76  C   UNL     1       5.021   4.394   7.399  1.00  0.00     0.010 A 
ATOM     77  C   UNL     1       6.589   4.603   9.697  1.00  0.00     0.020 A 
ATOM     78  C   UNL     1       4.838   3.490   8.456  1.00  0.00     0.020 A 
ATOM     79  C   UNL     1       5.610   3.610   9.609  1.00  0.00     0.054 A 
BRANCH  79  80
ATOM     80  S   UNL     1       5.275   2.547  11.049  1.00  0.00     0.124 S 
ATOM     81  O   UNL     1       6.479   1.724  11.116  1.00  0.00    -0.237 OA
ATOM     82  O   UNL     1       5.111   3.515  12.130  1.00  0.00    -0.237 OA
ATOM     83  O   UNL     1       4.057   1.831  10.672  1.00  0.00    -0.744 OA
ENDBRANCH  79  80
ENDBRANCH  51  74
BRANCH  63  84
ATOM     84  C   UNL     1       7.665  10.729   4.484  1.00  0.00    -0.014 A 
ATOM     85  C   UNL     1       7.999   9.620   3.682  1.00  0.00     0.010 A 
ATOM     86  C   UNL     1       8.525  11.841   4.487  1.00  0.00     0.010 A 
ATOM     87  C   UNL     1       9.180   9.622   2.920  1.00  0.00     0.020 A 
ATOM     88  C   UNL     1       9.688  11.857   3.717  1.00  0.00     0.020 A 
ATOM     89  C   UNL     1      10.017  10.743   2.946  1.00  0.00     0.054 A 
BRANCH  89  90
ATOM     90  S   UNL     1      11.528  10.762   1.940  1.00  0.00     0.124 S 
ATOM     91  O   UNL     1      12.360   9.759   2.599  1.00  0.00    -0.237 OA
ATOM     92  O   UNL     1      11.039  10.401   0.612  1.00  0.00    -0.237 OA
ATOM     93  O   UNL     1      12.009  12.138   2.060  1.00  0.00    -0.744 OA
ENDBRANCH  89  90
ENDBRANCH  63  84
ENDBRANCH  37  38
ENDBRANCH  29  32
ENDBRANCH  27  28
ENDBRANCH  26  27
ENDBRANCH   1  26
TORSDOF 17
