REMARK SMILES O=C(CCN1C(=O)/C(=C\c2ccc(-c3cccc(Cl)c3)o2)SC1=S)NCCCCNC(=O)c1ccc(-c2c3nc(c(-c4ccc(S(=O)(=O)[O-])cc4)c4ccc([nH]4)c(-c4ccc(S(=O)(=O)[O-])cc4)c4nc(c(-c5ccc(S(=O)(=O)[O-])cc5)c5ccc2[nH]5)C=C4)C=C3)cc1
REMARK SMILES IDX 27 1 26 2 25 3 1 4 2 5 3 7 4 8 5 9 6 10 23 11 7 12 8 13
REMARK SMILES IDX 22 14 24 15 9 16 10 17 11 18 21 19 12 20 13 21 14 22 15 23
REMARK SMILES IDX 20 24 16 25 18 26 17 27 19 28 28 29 29 30 30 31 31 32 32 34
REMARK SMILES IDX 33 35 34 36 92 37 35 38 91 39 36 40 37 41 38 42 85 43 39 44
REMARK SMILES IDX 90 45 84 46 86 47 40 48 89 49 83 50 82 51 41 53 71 54 52 55
REMARK SMILES IDX 70 56 53 57 56 58 69 59 87 60 54 61 55 62 68 64 88 65 57 66
REMARK SMILES IDX 42 67 43 68 51 69 44 70 50 71 45 72 46 73 47 74 48 75 49 76
REMARK SMILES IDX 72 77 73 78 81 79 74 80 80 81 75 82 76 83 77 84 78 85 79 86
REMARK SMILES IDX 58 87 59 88 67 89 60 90 66 91 61 92 62 93 63 94 64 95 65 96
REMARK H PARENT 25 6 30 33 86 52 56 63
REMARK Flexibility Score: inf
ROOT
ATOM      1  C   UNL     1       2.165  -3.037   1.726  1.00  0.00     0.023 C 
ENDROOT
BRANCH   1   2
ATOM      2  C   UNL     1       1.857  -1.551   1.927  1.00  0.00     0.116 C 
BRANCH   2   3
ATOM      3  N   UNL     1       2.541  -0.729   0.948  1.00  0.00    -0.356 N 
ATOM      4  O   UNL     1       0.694   0.415   0.219  1.00  0.00    -0.275 OA
ATOM      5  C   UNL     1       1.895   0.172   0.138  1.00  0.00     0.221 C 
ATOM      6  H   UNL     1       3.517  -0.821   0.859  1.00  0.00     0.163 HD
BRANCH   5   7
ATOM      7  C   UNL     1       2.748   0.768  -0.961  1.00  0.00     0.122 C 
BRANCH   7   8
ATOM      8  C   UNL     1       3.944   1.609  -0.515  1.00  0.00     0.137 C 
BRANCH   8   9
ATOM      9  N   UNL     1       5.048   0.964   0.220  1.00  0.00    -0.292 N 
ATOM     10  C   UNL     1       5.614   1.680   1.276  1.00  0.00     0.266 C 
ATOM     11  C   UNL     1       5.744  -0.165  -0.158  1.00  0.00     0.148 C 
ATOM     12  O   UNL     1       5.208   2.761   1.685  1.00  0.00    -0.268 OA
ATOM     13  C   UNL     1       6.801   0.965   1.824  1.00  0.00     0.084 C 
ATOM     14  S   UNL     1       6.869  -0.610   1.116  1.00  0.00    -0.054 SA
ATOM     15  S   UNL     1       5.601  -1.076  -1.543  1.00  0.00    -0.052 S 
ATOM     16  C   UNL     1       7.795   1.406   2.606  1.00  0.00     0.068 C 
BRANCH  16  17
ATOM     17  C   UNL     1       7.987   2.748   3.021  1.00  0.00     0.128 A 
ATOM     18  C   UNL     1       7.171   3.654   3.686  1.00  0.00     0.051 A 
ATOM     19  O   UNL     1       9.196   3.369   2.807  1.00  0.00    -0.457 OA
ATOM     20  C   UNL     1       7.910   4.851   3.874  1.00  0.00     0.051 A 
ATOM     21  C   UNL     1       9.145   4.628   3.312  1.00  0.00     0.134 A 
BRANCH  21  22
ATOM     22  C   UNL     1      10.358   5.412   3.162  1.00  0.00     0.019 A 
ATOM     23  C   UNL     1      10.897   6.104   4.254  1.00  0.00     0.012 A 
ATOM     24  C   UNL     1      11.004   5.485   1.921  1.00  0.00     0.032 A 
ATOM     25  C   UNL     1      12.067   6.855   4.110  1.00  0.00     0.002 A 
ATOM     26  C   UNL     1      12.161   6.250   1.778  1.00  0.00     0.041 A 
ATOM     27  C   UNL     1      12.697   6.933   2.868  1.00  0.00     0.020 A 
ATOM     28  Cl  UNL     1      12.927   6.363   0.240  1.00  0.00    -0.084 Cl
ENDBRANCH  21  22
ENDBRANCH  16  17
ENDBRANCH   8   9
ENDBRANCH   7   8
ENDBRANCH   5   7
ENDBRANCH   2   3
ENDBRANCH   1   2
BRANCH   1  29
ATOM     29  C   UNL     1       3.645  -3.425   1.828  1.00  0.00     0.023 C 
BRANCH  29  30
ATOM     30  C   UNL     1       4.348  -3.033   3.125  1.00  0.00     0.116 C 
BRANCH  30  31
ATOM     31  N   UNL     1       3.801  -3.709   4.287  1.00  0.00    -0.352 N 
ATOM     32  C   UNL     1       4.450  -4.382   5.295  1.00  0.00     0.251 C 
ATOM     33  H   UNL     1       2.820  -3.682   4.365  1.00  0.00     0.163 HD
ATOM     34  O   UNL     1       3.792  -5.016   6.116  1.00  0.00    -0.269 OA
BRANCH  32  35
ATOM     35  C   UNL     1       5.931  -4.374   5.385  1.00  0.00     0.039 A 
ATOM     36  C   UNL     1       6.588  -5.572   5.684  1.00  0.00     0.014 A 
ATOM     37  C   UNL     1       6.673  -3.203   5.207  1.00  0.00     0.014 A 
ATOM     38  C   UNL     1       7.984  -5.608   5.745  1.00  0.00     0.010 A 
ATOM     39  C   UNL     1       8.068  -3.252   5.210  1.00  0.00     0.010 A 
ATOM     40  C   UNL     1       8.740  -4.455   5.477  1.00  0.00    -0.014 A 
BRANCH  40  41
ATOM     41  C   UNL     1      10.227  -4.498   5.458  1.00  0.00     0.031 A 
ATOM     42  C   UNL     1      11.030  -3.725   6.470  1.00  0.00     0.074 A 
ATOM     43  C   UNL     1      10.863  -5.191   4.491  1.00  0.00     0.049 A 
ATOM     44  N   UNL     1      12.329  -3.599   6.569  1.00  0.00    -0.248 NA
ATOM     45  C   UNL     1      10.274  -2.983   7.491  1.00  0.00     0.031 C 
ATOM     46  C   UNL     1      10.208  -5.958   3.429  1.00  0.00     0.029 A 
ATOM     47  N   UNL     1      12.203  -5.356   4.240  1.00  0.00    -0.354 N 
ATOM     48  C   UNL     1      12.547  -2.755   7.652  1.00  0.00     0.074 A 
ATOM     49  C   UNL     1      11.245  -2.365   8.149  1.00  0.00     0.031 C 
ATOM     50  C   UNL     1      11.147  -6.524   2.653  1.00  0.00     0.029 A 
ATOM     51  C   UNL     1      12.467  -6.132   3.136  1.00  0.00     0.049 A 
ATOM     52  H   UNL     1      12.908  -4.956   4.798  1.00  0.00     0.167 HD
ATOM     53  C   UNL     1      13.722  -2.352   8.195  1.00  0.00     0.031 A 
ATOM     54  C   UNL     1      13.637  -6.483   2.567  1.00  0.00     0.031 A 
ATOM     55  C   UNL     1      15.019  -2.742   7.707  1.00  0.00     0.049 A 
ATOM     56  C   UNL     1      14.928  -6.015   3.179  1.00  0.00     0.074 A 
ATOM     57  C   UNL     1      16.264  -2.420   8.220  1.00  0.00     0.029 A 
ATOM     58  N   UNL     1      15.242  -3.537   6.593  1.00  0.00    -0.354 N 
ATOM     59  N   UNL     1      15.112  -5.260   4.236  1.00  0.00    -0.248 NA
ATOM     60  C   UNL     1      16.170  -6.455   2.528  1.00  0.00     0.031 C 
ATOM     61  C   UNL     1      17.240  -2.982   7.390  1.00  0.00     0.029 A 
ATOM     62  C   UNL     1      16.603  -3.700   6.391  1.00  0.00     0.049 A 
ATOM     63  H   UNL     1      14.536  -3.929   6.029  1.00  0.00     0.167 HD
ATOM     64  C   UNL     1      16.490  -5.155   4.389  1.00  0.00     0.074 A 
ATOM     65  C   UNL     1      17.092  -5.935   3.327  1.00  0.00     0.031 C 
ATOM     66  C   UNL     1      17.192  -4.475   5.329  1.00  0.00     0.031 A 
BRANCH  53  67
ATOM     67  C   UNL     1      13.656  -1.430   9.384  1.00  0.00    -0.014 A 
ATOM     68  C   UNL     1      13.215  -1.893  10.637  1.00  0.00     0.010 A 
ATOM     69  C   UNL     1      14.072  -0.092   9.257  1.00  0.00     0.010 A 
ATOM     70  C   UNL     1      13.146  -1.023  11.729  1.00  0.00     0.020 A 
ATOM     71  C   UNL     1      14.029   0.774  10.354  1.00  0.00     0.020 A 
ATOM     72  C   UNL     1      13.547   0.307  11.578  1.00  0.00     0.054 A 
BRANCH  72  73
ATOM     73  S   UNL     1      13.452   1.413  13.013  1.00  0.00     0.124 S 
ATOM     74  O   UNL     1      12.014   1.654  13.111  1.00  0.00    -0.237 OA
ATOM     75  O   UNL     1      14.027   0.603  14.083  1.00  0.00    -0.237 OA
ATOM     76  O   UNL     1      14.250   2.570  12.613  1.00  0.00    -0.744 OA
ENDBRANCH  72  73
ENDBRANCH  53  67
BRANCH  54  77
ATOM     77  C   UNL     1      13.637  -7.335   1.347  1.00  0.00    -0.014 A 
ATOM     78  C   UNL     1      14.049  -8.678   1.414  1.00  0.00     0.010 A 
ATOM     79  C   UNL     1      13.206  -6.812   0.114  1.00  0.00     0.010 A 
ATOM     80  C   UNL     1      14.042  -9.478   0.268  1.00  0.00     0.020 A 
ATOM     81  C   UNL     1      13.173  -7.616  -1.028  1.00  0.00     0.020 A 
ATOM     82  C   UNL     1      13.601  -8.942  -0.946  1.00  0.00     0.054 A 
BRANCH  82  83
ATOM     83  S   UNL     1      13.542 -10.016  -2.408  1.00  0.00     0.124 S 
ATOM     84  O   UNL     1      14.952 -10.110  -2.772  1.00  0.00    -0.237 OA
ATOM     85  O   UNL     1      12.941 -11.238  -1.879  1.00  0.00    -0.237 OA
ATOM     86  O   UNL     1      12.700  -9.272  -3.342  1.00  0.00    -0.744 OA
ENDBRANCH  82  83
ENDBRANCH  54  77
BRANCH  66  87
ATOM     87  C   UNL     1      18.695  -4.565   5.273  1.00  0.00    -0.014 A 
ATOM     88  C   UNL     1      19.429  -3.891   4.281  1.00  0.00     0.010 A 
ATOM     89  C   UNL     1      19.384  -5.292   6.261  1.00  0.00     0.010 A 
ATOM     90  C   UNL     1      20.825  -3.967   4.261  1.00  0.00     0.020 A 
ATOM     91  C   UNL     1      20.780  -5.350   6.259  1.00  0.00     0.020 A 
ATOM     92  C   UNL     1      21.491  -4.698   5.250  1.00  0.00     0.054 A 
BRANCH  92  93
ATOM     93  S   UNL     1      23.305  -4.745   5.230  1.00  0.00     0.124 S 
ATOM     94  O   UNL     1      23.573  -5.665   4.128  1.00  0.00    -0.237 OA
ATOM     95  O   UNL     1      23.661  -3.349   4.984  1.00  0.00    -0.237 OA
ATOM     96  O   UNL     1      23.653  -5.245   6.558  1.00  0.00    -0.744 OA
ENDBRANCH  92  93
ENDBRANCH  66  87
ENDBRANCH  40  41
ENDBRANCH  32  35
ENDBRANCH  30  31
ENDBRANCH  29  30
ENDBRANCH   1  29
TORSDOF 18
