REMARK SMILES COc1ccccc1-c1ccc(O)c(C(=O)NCCCCNC(=O)c2ccc(-c3c4nc(c(-c5ccc(S(=O)(=O)[O-])cc5)c5ccc([nH]5)c(-c5ccc(S(=O)(=O)[O-])cc5)c5nc(c(-c6ccc(S(=O)(=O)[O-])cc6)c6ccc3[nH]6)C=C5)C=C4)cc2)c1
REMARK SMILES IDX 20 1 19 2 18 3 17 4 15 5 16 6 14 8 9 9 10 10 85 11 11 12
REMARK SMILES IDX 12 13 8 14 3 15 4 16 5 17 7 18 6 19 2 20 1 21 13 22 21 24
REMARK SMILES IDX 22 25 23 26 24 28 25 29 26 30 84 31 27 32 83 33 28 34 29 35
REMARK SMILES IDX 30 36 77 37 31 38 82 39 76 40 78 41 32 42 81 43 75 44 74 45
REMARK SMILES IDX 33 47 63 48 44 49 62 50 45 51 48 52 61 53 79 54 46 55 47 56
REMARK SMILES IDX 60 58 80 59 49 60 34 61 35 62 43 63 36 64 42 65 37 66 38 67
REMARK SMILES IDX 39 68 40 69 41 70 64 71 65 72 73 73 66 74 72 75 67 76 68 77
REMARK SMILES IDX 69 78 70 79 71 80 50 81 51 82 59 83 52 84 58 85 53 86 54 87
REMARK SMILES IDX 55 88 56 89 57 90
REMARK H PARENT 17 7 13 23 22 27 78 46 48 57
REMARK Flexibility Score: inf
ROOT
ATOM      1  C   UNL     1       3.790   4.924  -2.561  1.00  0.00     0.023 C 
ENDROOT
BRANCH   1   2
ATOM      2  C   UNL     1       3.338   3.889  -1.528  1.00  0.00     0.023 C 
BRANCH   2   3
ATOM      3  C   UNL     1       3.051   2.502  -2.110  1.00  0.00     0.116 C 
BRANCH   3   4
ATOM      4  N   UNL     1       4.283   1.774  -2.362  1.00  0.00    -0.352 N 
ATOM      5  C   UNL     1       4.974   0.842  -1.629  1.00  0.00     0.255 C 
ATOM      6  O   UNL     1       5.962   0.318  -2.151  1.00  0.00    -0.269 OA
ATOM      7  H   UNL     1       4.704   1.992  -3.225  1.00  0.00     0.163 HD
BRANCH   5   8
ATOM      8  C   UNL     1       4.575   0.368  -0.273  1.00  0.00     0.082 A 
ATOM      9  C   UNL     1       3.288   0.581   1.804  1.00  0.00    -0.014 A 
ATOM     10  C   UNL     1       3.733  -0.683   2.206  1.00  0.00     0.013 A 
ATOM     11  C   UNL     1       3.778   1.113   0.599  1.00  0.00     0.026 A 
ATOM     12  C   UNL     1       4.603  -1.411   1.395  1.00  0.00     0.047 A 
ATOM     13  C   UNL     1       5.006  -0.896   0.163  1.00  0.00     0.128 A 
BRANCH   9  14
ATOM     14  C   UNL     1       2.259   1.317   2.555  1.00  0.00     0.024 A 
ATOM     15  C   UNL     1       1.003   1.634   1.990  1.00  0.00     0.126 A 
ATOM     16  C   UNL     1       0.070   2.403   2.690  1.00  0.00     0.047 A 
ATOM     17  C   UNL     1       0.355   2.841   3.980  1.00  0.00     0.004 A 
ATOM     18  C   UNL     1       2.522   1.769   3.859  1.00  0.00     0.012 A 
ATOM     19  C   UNL     1       1.579   2.524   4.565  1.00  0.00     0.001 A 
BRANCH  15  20
ATOM     20  O   UNL     1       0.646   1.305   0.703  1.00  0.00    -0.496 OA
ATOM     21  C   UNL     1       0.483  -0.102   0.520  1.00  0.00     0.278 C 
ENDBRANCH  15  20
ENDBRANCH   9  14
BRANCH  13  22
ATOM     22  O   UNL     1       5.829  -1.706  -0.578  1.00  0.00    -0.507 OA
ATOM     23  H   UNL     1       6.089  -2.542  -0.242  1.00  0.00     0.293 HD
ENDBRANCH  13  22
ENDBRANCH   5   8
ENDBRANCH   3   4
ENDBRANCH   2   3
ENDBRANCH   1   2
BRANCH   1  24
ATOM     24  C   UNL     1       2.735   5.299  -3.594  1.00  0.00     0.116 C 
BRANCH  24  25
ATOM     25  N   UNL     1       1.535   5.881  -3.010  1.00  0.00    -0.352 N 
ATOM     26  C   UNL     1       0.684   6.803  -3.575  1.00  0.00     0.251 C 
ATOM     27  H   UNL     1       1.305   5.578  -2.102  1.00  0.00     0.163 HD
ATOM     28  O   UNL     1      -0.239   7.282  -2.930  1.00  0.00    -0.269 OA
BRANCH  26  29
ATOM     29  C   UNL     1       0.939   7.240  -4.963  1.00  0.00     0.039 A 
ATOM     30  C   UNL     1       1.093   8.604  -5.224  1.00  0.00     0.014 A 
ATOM     31  C   UNL     1       1.099   6.297  -5.981  1.00  0.00     0.014 A 
ATOM     32  C   UNL     1       1.487   9.018  -6.497  1.00  0.00     0.010 A 
ATOM     33  C   UNL     1       1.548   6.708  -7.231  1.00  0.00     0.010 A 
ATOM     34  C   UNL     1       1.758   8.070  -7.497  1.00  0.00    -0.014 A 
BRANCH  34  35
ATOM     35  C   UNL     1       2.284   8.470  -8.825  1.00  0.00     0.031 A 
ATOM     36  C   UNL     1       1.461   8.234 -10.060  1.00  0.00     0.074 A 
ATOM     37  C   UNL     1       3.539   8.952  -8.928  1.00  0.00     0.049 A 
ATOM     38  N   UNL     1       1.793   8.394 -11.314  1.00  0.00    -0.248 NA
ATOM     39  C   UNL     1       0.095   7.724  -9.857  1.00  0.00     0.031 C 
ATOM     40  C   UNL     1       4.453   9.188  -7.808  1.00  0.00     0.029 A 
ATOM     41  N   UNL     1       4.269   9.313 -10.032  1.00  0.00    -0.354 N 
ATOM     42  C   UNL     1       0.691   7.979 -12.051  1.00  0.00     0.074 A 
ATOM     43  C   UNL     1      -0.307   7.530 -11.104  1.00  0.00     0.031 C 
ATOM     44  C   UNL     1       5.617   9.664  -8.282  1.00  0.00     0.029 A 
ATOM     45  C   UNL     1       5.546   9.731  -9.738  1.00  0.00     0.049 A 
ATOM     46  H   UNL     1       3.913   9.275 -10.949  1.00  0.00     0.167 HD
ATOM     47  C   UNL     1       0.520   7.982 -13.395  1.00  0.00     0.031 A 
ATOM     48  C   UNL     1       6.551  10.113 -10.549  1.00  0.00     0.031 A 
ATOM     49  C   UNL     1       1.505   8.450 -14.332  1.00  0.00     0.049 A 
ATOM     50  C   UNL     1       6.333  10.122 -12.036  1.00  0.00     0.074 A 
ATOM     51  C   UNL     1       1.403   8.548 -15.709  1.00  0.00     0.029 A 
ATOM     52  N   UNL     1       2.770   8.902 -13.989  1.00  0.00    -0.354 N 
ATOM     53  N   UNL     1       5.264   9.776 -12.712  1.00  0.00    -0.248 NA
ATOM     54  C   UNL     1       7.454  10.580 -12.870  1.00  0.00     0.031 C 
ATOM     55  C   UNL     1       2.621   9.029 -16.202  1.00  0.00     0.029 A 
ATOM     56  C   UNL     1       3.464   9.269 -15.129  1.00  0.00     0.049 A 
ATOM     57  H   UNL     1       3.122   8.954 -13.072  1.00  0.00     0.167 HD
ATOM     58  C   UNL     1       5.574   9.996 -14.049  1.00  0.00     0.074 A 
ATOM     59  C   UNL     1       6.927  10.514 -14.086  1.00  0.00     0.031 C 
ATOM     60  C   UNL     1       4.807   9.790 -15.146  1.00  0.00     0.031 A 
BRANCH  47  61
ATOM     61  C   UNL     1      -0.784   7.455 -13.927  1.00  0.00    -0.014 A 
ATOM     62  C   UNL     1      -1.974   8.189 -13.782  1.00  0.00     0.010 A 
ATOM     63  C   UNL     1      -0.815   6.223 -14.605  1.00  0.00     0.010 A 
ATOM     64  C   UNL     1      -3.182   7.681 -14.266  1.00  0.00     0.020 A 
ATOM     65  C   UNL     1      -2.018   5.722 -15.113  1.00  0.00     0.020 A 
ATOM     66  C   UNL     1      -3.197   6.446 -14.923  1.00  0.00     0.054 A 
BRANCH  66  67
ATOM     67  S   UNL     1      -4.775   5.813 -15.554  1.00  0.00     0.124 S 
ATOM     68  O   UNL     1      -5.415   5.333 -14.332  1.00  0.00    -0.237 OA
ATOM     69  O   UNL     1      -5.381   6.998 -16.156  1.00  0.00    -0.237 OA
ATOM     70  O   UNL     1      -4.377   4.773 -16.499  1.00  0.00    -0.744 OA
ENDBRANCH  66  67
ENDBRANCH  47  61
BRANCH  48  71
ATOM     71  C   UNL     1       7.856  10.529  -9.968  1.00  0.00    -0.014 A 
ATOM     72  C   UNL     1       8.223  11.886  -9.949  1.00  0.00     0.010 A 
ATOM     73  C   UNL     1       8.729   9.575  -9.417  1.00  0.00     0.010 A 
ATOM     74  C   UNL     1       9.448  12.280  -9.404  1.00  0.00     0.020 A 
ATOM     75  C   UNL     1       9.945   9.968  -8.851  1.00  0.00     0.020 A 
ATOM     76  C   UNL     1      10.302  11.318  -8.858  1.00  0.00     0.054 A 
BRANCH  76  77
ATOM     77  S   UNL     1      11.864  11.855  -8.106  1.00  0.00     0.124 S 
ATOM     78  O   UNL     1      12.698  12.094  -9.279  1.00  0.00    -0.237 OA
ATOM     79  O   UNL     1      11.464  13.046  -7.360  1.00  0.00    -0.237 OA
ATOM     80  O   UNL     1      12.252  10.715  -7.280  1.00  0.00    -0.744 OA
ENDBRANCH  76  77
ENDBRANCH  48  71
BRANCH  60  81
ATOM     81  C   UNL     1       5.394  10.155 -16.481  1.00  0.00    -0.014 A 
ATOM     82  C   UNL     1       6.351   9.334 -17.101  1.00  0.00     0.010 A 
ATOM     83  C   UNL     1       4.925  11.297 -17.154  1.00  0.00     0.010 A 
ATOM     84  C   UNL     1       6.842   9.659 -18.368  1.00  0.00     0.020 A 
ATOM     85  C   UNL     1       5.399  11.614 -18.430  1.00  0.00     0.020 A 
ATOM     86  C   UNL     1       6.362  10.797 -19.025  1.00  0.00     0.054 A 
BRANCH  86  87
ATOM     87  S   UNL     1       6.966  11.164 -20.696  1.00  0.00     0.124 S 
ATOM     88  O   UNL     1       8.287  11.725 -20.425  1.00  0.00    -0.237 OA
ATOM     89  O   UNL     1       6.960   9.852 -21.338  1.00  0.00    -0.237 OA
ATOM     90  O   UNL     1       5.982  12.110 -21.218  1.00  0.00    -0.744 OA
ENDBRANCH  86  87
ENDBRANCH  60  81
ENDBRANCH  34  35
ENDBRANCH  26  29
ENDBRANCH  24  25
ENDBRANCH   1  24
TORSDOF 17
