REMARK SMILES CC(C)OCCS(=O)(=O)Nc1ccc(O)c(C(=O)NCCCCNC(=O)c2ccc(-c3c4nc(c(-c5ccc(S(=O)(=O)[O-])cc5)c5ccc([nH]5)c(-c5ccc(S(=O)(=O)[O-])cc5)c5nc(c(-c6ccc(S(=O)(=O)[O-])cc6)c6ccc3[nH]6)C=C5)C=C4)cc2)c1
REMARK SMILES IDX 20 1 19 2 17 3 18 4 16 6 11 7 12 8 87 9 13 10 14 11 10 12
REMARK SMILES IDX 7 14 8 15 9 16 6 17 5 18 4 19 2 20 1 21 3 22 15 23 21 25
REMARK SMILES IDX 22 26 23 27 24 28 25 29 26 31 27 32 28 33 86 34 29 35 85 36
REMARK SMILES IDX 30 37 31 38 32 39 79 40 33 41 84 42 78 43 80 44 34 45 83 46
REMARK SMILES IDX 77 47 76 48 35 50 65 51 46 52 64 53 47 54 50 55 63 56 81 57
REMARK SMILES IDX 48 58 49 59 62 61 82 62 51 63 36 64 37 65 45 66 38 67 44 68
REMARK SMILES IDX 39 69 40 70 41 71 42 72 43 73 66 74 67 75 75 76 68 77 74 78
REMARK SMILES IDX 69 79 70 80 71 81 72 82 73 83 52 84 53 85 61 86 54 87 60 88
REMARK SMILES IDX 55 89 56 90 57 91 58 92 59 93
REMARK H PARENT 19 5 10 13 15 24 24 30 80 49 50 60
REMARK Flexibility Score: inf
ROOT
ATOM      1  C   UNL     1      -2.280   2.782   7.097  1.00  0.00     0.116 C 
ENDROOT
BRANCH   1   2
ATOM      2  N   UNL     1      -0.998   3.436   6.987  1.00  0.00    -0.352 N 
ATOM      3  C   UNL     1      -0.091   3.458   5.963  1.00  0.00     0.255 C 
ATOM      4  O   UNL     1       0.976   4.043   6.168  1.00  0.00    -0.269 OA
ATOM      5  H   UNL     1      -0.731   3.952   7.782  1.00  0.00     0.163 HD
BRANCH   3   6
ATOM      6  C   UNL     1      -0.319   2.873   4.609  1.00  0.00     0.083 A 
ATOM      7  C   UNL     1       0.315   3.063   2.263  1.00  0.00     0.050 A 
ATOM      8  C   UNL     1      -0.253   1.825   2.070  1.00  0.00     0.030 A 
ATOM      9  C   UNL     1       0.338   3.562   3.555  1.00  0.00     0.044 A 
ATOM     10  C   UNL     1      -0.965   1.155   3.032  1.00  0.00     0.049 A 
ATOM     11  C   UNL     1      -0.998   1.679   4.305  1.00  0.00     0.128 A 
BRANCH   7  12
ATOM     12  N   UNL     1       1.112   3.611   1.223  1.00  0.00    -0.283 N 
ATOM     13  H   UNL     1       2.060   3.796   1.412  1.00  0.00     0.180 HD
BRANCH  12  14
ATOM     14  S   UNL     1       0.526   3.961  -0.308  1.00  0.00     0.235 S 
ATOM     15  O   UNL     1       1.584   3.585  -1.218  1.00  0.00    -0.207 OA
ATOM     16  O   UNL     1       0.093   5.347  -0.260  1.00  0.00    -0.207 OA
BRANCH  14  17
ATOM     17  C   UNL     1      -0.942   2.981  -0.701  1.00  0.00     0.188 C 
BRANCH  17  18
ATOM     18  C   UNL     1      -0.717   1.672  -1.470  1.00  0.00     0.178 C 
BRANCH  18  19
ATOM     19  O   UNL     1      -0.748   0.509  -0.639  1.00  0.00    -0.378 OA
BRANCH  19  20
ATOM     20  C   UNL     1       0.411  -0.333  -0.541  1.00  0.00     0.112 C 
ATOM     21  C   UNL     1       0.321  -1.480  -1.530  1.00  0.00     0.038 C 
ATOM     22  C   UNL     1       1.765   0.367  -0.604  1.00  0.00     0.038 C 
ENDBRANCH  19  20
ENDBRANCH  18  19
ENDBRANCH  17  18
ENDBRANCH  14  17
ENDBRANCH  12  14
ENDBRANCH   7  12
BRANCH  11  23
ATOM     23  O   UNL     1      -1.650   0.894   5.195  1.00  0.00    -0.507 OA
ATOM     24  H   UNL     1      -2.078   0.113   4.904  1.00  0.00     0.293 HD
ENDBRANCH  11  23
ENDBRANCH   3   6
ENDBRANCH   1   2
BRANCH   1  25
ATOM     25  C   UNL     1      -2.108   1.388   7.717  1.00  0.00     0.023 C 
BRANCH  25  26
ATOM     26  C   UNL     1      -2.053   1.345   9.233  1.00  0.00     0.023 C 
BRANCH  26  27
ATOM     27  C   UNL     1      -3.291   1.905   9.896  1.00  0.00     0.116 C 
BRANCH  27  28
ATOM     28  N   UNL     1      -4.528   1.288   9.433  1.00  0.00    -0.352 N 
ATOM     29  C   UNL     1      -5.726   1.245  10.102  1.00  0.00     0.251 C 
ATOM     30  H   UNL     1      -4.501   0.856   8.549  1.00  0.00     0.163 HD
ATOM     31  O   UNL     1      -6.673   0.599   9.671  1.00  0.00    -0.269 OA
BRANCH  29  32
ATOM     32  C   UNL     1      -5.807   1.962  11.386  1.00  0.00     0.039 A 
ATOM     33  C   UNL     1      -6.152   1.252  12.534  1.00  0.00     0.014 A 
ATOM     34  C   UNL     1      -5.405   3.300  11.456  1.00  0.00     0.014 A 
ATOM     35  C   UNL     1      -6.048   1.881  13.772  1.00  0.00     0.010 A 
ATOM     36  C   UNL     1      -5.202   3.885  12.695  1.00  0.00     0.010 A 
ATOM     37  C   UNL     1      -5.543   3.190  13.864  1.00  0.00    -0.014 A 
BRANCH  37  38
ATOM     38  C   UNL     1      -5.405   3.862  15.176  1.00  0.00     0.031 A 
ATOM     39  C   UNL     1      -6.217   5.094  15.466  1.00  0.00     0.074 A 
ATOM     40  C   UNL     1      -4.535   3.381  16.086  1.00  0.00     0.049 A 
ATOM     41  N   UNL     1      -6.246   5.823  16.551  1.00  0.00    -0.248 NA
ATOM     42  C   UNL     1      -7.092   5.590  14.389  1.00  0.00     0.031 C 
ATOM     43  C   UNL     1      -3.660   2.220  15.895  1.00  0.00     0.029 A 
ATOM     44  N   UNL     1      -4.250   3.804  17.358  1.00  0.00    -0.354 N 
ATOM     45  C   UNL     1      -7.133   6.859  16.284  1.00  0.00     0.074 A 
ATOM     46  C   UNL     1      -7.564   6.710  14.913  1.00  0.00     0.031 C 
ATOM     47  C   UNL     1      -2.973   1.997  17.027  1.00  0.00     0.029 A 
ATOM     48  C   UNL     1      -3.326   3.018  18.007  1.00  0.00     0.049 A 
ATOM     49  H   UNL     1      -4.668   4.595  17.769  1.00  0.00     0.167 HD
ATOM     50  C   UNL     1      -7.577   7.830  17.115  1.00  0.00     0.031 A 
ATOM     51  C   UNL     1      -2.827   3.111  19.255  1.00  0.00     0.031 A 
ATOM     52  C   UNL     1      -7.151   7.966  18.481  1.00  0.00     0.049 A 
ATOM     53  C   UNL     1      -3.320   4.213  20.154  1.00  0.00     0.074 A 
ATOM     54  C   UNL     1      -7.570   8.886  19.424  1.00  0.00     0.029 A 
ATOM     55  N   UNL     1      -6.208   7.157  19.098  1.00  0.00    -0.354 N 
ATOM     56  N   UNL     1      -4.214   5.141  19.906  1.00  0.00    -0.248 NA
ATOM     57  C   UNL     1      -2.747   4.271  21.505  1.00  0.00     0.031 C 
ATOM     58  C   UNL     1      -6.839   8.668  20.596  1.00  0.00     0.029 A 
ATOM     59  C   UNL     1      -6.013   7.572  20.403  1.00  0.00     0.049 A 
ATOM     60  H   UNL     1      -5.746   6.400  18.670  1.00  0.00     0.167 HD
ATOM     61  C   UNL     1      -4.332   5.876  21.081  1.00  0.00     0.074 A 
ATOM     62  C   UNL     1      -3.432   5.271  22.043  1.00  0.00     0.031 C 
ATOM     63  C   UNL     1      -5.113   6.953  21.343  1.00  0.00     0.031 A 
BRANCH  50  64
ATOM     64  C   UNL     1      -8.577   8.812  16.565  1.00  0.00    -0.014 A 
ATOM     65  C   UNL     1      -9.886   8.409  16.240  1.00  0.00     0.010 A 
ATOM     66  C   UNL     1      -8.217  10.162  16.400  1.00  0.00     0.010 A 
ATOM     67  C   UNL     1     -10.802   9.327  15.722  1.00  0.00     0.020 A 
ATOM     68  C   UNL     1      -9.141  11.090  15.912  1.00  0.00     0.020 A 
ATOM     69  C   UNL     1     -10.423  10.662  15.561  1.00  0.00     0.054 A 
BRANCH  69  70
ATOM     70  S   UNL     1     -11.645  11.837  14.914  1.00  0.00     0.124 S 
ATOM     71  O   UNL     1     -11.741  11.430  13.514  1.00  0.00    -0.237 OA
ATOM     72  O   UNL     1     -12.822  11.555  15.732  1.00  0.00    -0.237 OA
ATOM     73  O   UNL     1     -11.028  13.141  15.143  1.00  0.00    -0.744 OA
ENDBRANCH  69  70
ENDBRANCH  50  64
BRANCH  51  74
ATOM     74  C   UNL     1      -1.823   2.121  19.736  1.00  0.00    -0.014 A 
ATOM     75  C   UNL     1      -2.155   1.196  20.742  1.00  0.00     0.010 A 
ATOM     76  C   UNL     1      -0.526   2.099  19.192  1.00  0.00     0.010 A 
ATOM     77  C   UNL     1      -1.202   0.289  21.215  1.00  0.00     0.020 A 
ATOM     78  C   UNL     1       0.420   1.173  19.640  1.00  0.00     0.020 A 
ATOM     79  C   UNL     1       0.080   0.283  20.660  1.00  0.00     0.054 A 
BRANCH  79  80
ATOM     80  S   UNL     1       1.290  -0.925  21.266  1.00  0.00     0.124 S 
ATOM     81  O   UNL     1       1.611  -0.397  22.588  1.00  0.00    -0.237 OA
ATOM     82  O   UNL     1       0.526  -2.171  21.250  1.00  0.00    -0.237 OA
ATOM     83  O   UNL     1       2.368  -0.853  20.283  1.00  0.00    -0.744 OA
ENDBRANCH  79  80
ENDBRANCH  51  74
BRANCH  63  84
ATOM     84  C   UNL     1      -5.058   7.525  22.735  1.00  0.00    -0.014 A 
ATOM     85  C   UNL     1      -3.929   8.227  23.192  1.00  0.00     0.010 A 
ATOM     86  C   UNL     1      -6.180   7.407  23.576  1.00  0.00     0.010 A 
ATOM     87  C   UNL     1      -3.910   8.770  24.479  1.00  0.00     0.020 A 
ATOM     88  C   UNL     1      -6.177   7.976  24.850  1.00  0.00     0.020 A 
ATOM     89  C   UNL     1      -5.035   8.642  25.299  1.00  0.00     0.054 A 
BRANCH  89  90
ATOM     90  S   UNL     1      -5.001   9.395  26.949  1.00  0.00     0.124 S 
ATOM     91  O   UNL     1      -4.092   8.506  27.669  1.00  0.00    -0.237 OA
ATOM     92  O   UNL     1      -4.486  10.735  26.678  1.00  0.00    -0.237 OA
ATOM     93  O   UNL     1      -6.395   9.345  27.382  1.00  0.00    -0.744 OA
ENDBRANCH  89  90
ENDBRANCH  63  84
ENDBRANCH  37  38
ENDBRANCH  29  32
ENDBRANCH  27  28
ENDBRANCH  26  27
ENDBRANCH  25  26
ENDBRANCH   1  25
TORSDOF 21
