REMARK SMILES C[C@@H]1C(C(=O)NCCCCNC(=O)c2ccc(-c3c4nc(c(-c5ccc(S(=O)(=O)[O-])cc5)c5ccc([nH]5)c(-c5ccc(S(=O)(=O)[O-])cc5)c5nc(c(-c6ccc(S(=O)(=O)[O-])cc6)c6ccc3[nH]6)C=C5)C=C4)cc2)=NC2=C1C(=O)C[C@H](c1ccccc1)C2
REMARK SMILES IDX 9 1 8 2 7 3 6 4 4 5 5 6 3 8 1 9 2 10 76 11 74 12 75 13 77 14
REMARK SMILES IDX 87 15 78 16 79 17 80 18 81 19 82 20 86 21 83 22 85 23 84 24
REMARK SMILES IDX 10 25 11 26 12 27 13 29 14 30 15 31 73 32 16 33 72 34 17 35
REMARK SMILES IDX 18 36 19 37 66 38 20 39 71 40 65 41 67 42 21 43 70 44 64 45
REMARK SMILES IDX 63 46 22 48 52 49 33 50 51 51 34 52 37 53 50 54 68 55 35 56
REMARK SMILES IDX 36 57 49 59 69 60 38 61 23 62 24 63 32 64 25 65 31 66 26 67
REMARK SMILES IDX 27 68 28 69 29 70 30 71 53 72 54 73 62 74 55 75 61 76 56 77
REMARK SMILES IDX 57 78 58 79 59 80 60 81 39 82 40 83 48 84 41 85 47 86 42 87
REMARK SMILES IDX 43 88 44 89 45 90 46 91
REMARK H PARENT 6 7 11 28 67 47 37 58
REMARK Flexibility Score: inf
ROOT
ATOM      1  C   UNL     1       5.045  -1.602   0.153  1.00  0.00     0.023 C 
ENDROOT
BRANCH   1   2
ATOM      2  C   UNL     1       3.667  -1.909  -0.426  1.00  0.00     0.023 C 
BRANCH   2   3
ATOM      3  C   UNL     1       2.512  -0.918  -0.252  1.00  0.00     0.116 C 
BRANCH   3   4
ATOM      4  N   UNL     1       2.648   0.426  -0.778  1.00  0.00    -0.351 N 
ATOM      5  C   UNL     1       1.657   1.316  -1.192  1.00  0.00     0.266 C 
ATOM      6  O   UNL     1       1.889   2.520  -1.166  1.00  0.00    -0.268 OA
ATOM      7  H   UNL     1       3.572   0.758  -0.855  1.00  0.00     0.163 HD
BRANCH   5   8
ATOM      8  C   UNL     1       0.358   0.839  -1.845  1.00  0.00     0.113 C 
ATOM      9  C   UNL     1      -1.754   0.279  -0.618  1.00  0.00     0.020 C 
ATOM     10  C   UNL     1      -0.506  -0.270  -1.307  1.00  0.00     0.076 C 
ATOM     11  C   UNL     1      -0.808  -0.752  -2.692  1.00  0.00     0.026 C 
ATOM     12  N   UNL     1      -0.038   1.308  -3.004  1.00  0.00    -0.251 NA
ATOM     13  C   UNL     1      -0.771   0.275  -3.548  1.00  0.00     0.049 C 
ATOM     14  C   UNL     1      -0.254  -2.017  -3.230  1.00  0.00     0.161 C 
ATOM     15  C   UNL     1      -0.773   0.042  -5.030  1.00  0.00     0.065 C 
ATOM     16  O   UNL     1      -0.355  -3.045  -2.560  1.00  0.00    -0.294 OA
ATOM     17  C   UNL     1       0.556  -2.000  -4.546  1.00  0.00     0.089 C 
ATOM     18  C   UNL     1       0.541  -0.678  -5.383  1.00  0.00     0.033 C 
BRANCH  18  19
ATOM     19  C   UNL     1       1.779   0.237  -5.279  1.00  0.00    -0.044 A 
ATOM     20  C   UNL     1       1.656   1.638  -5.412  1.00  0.00     0.004 A 
ATOM     21  C   UNL     1       3.071  -0.259  -5.060  1.00  0.00     0.004 A 
ATOM     22  C   UNL     1       2.723   2.505  -5.176  1.00  0.00     0.000 A 
ATOM     23  C   UNL     1       4.153   0.610  -4.850  1.00  0.00     0.000 A 
ATOM     24  C   UNL     1       3.973   1.990  -4.876  1.00  0.00     0.000 A 
ENDBRANCH  18  19
ENDBRANCH   5   8
ENDBRANCH   3   4
ENDBRANCH   2   3
ENDBRANCH   1   2
BRANCH   1  25
ATOM     25  C   UNL     1       5.073  -1.152   1.602  1.00  0.00     0.116 C 
BRANCH  25  26
ATOM     26  N   UNL     1       4.604  -2.145   2.568  1.00  0.00    -0.352 N 
ATOM     27  C   UNL     1       4.635  -2.037   3.957  1.00  0.00     0.251 C 
ATOM     28  H   UNL     1       4.227  -2.976   2.199  1.00  0.00     0.163 HD
ATOM     29  O   UNL     1       4.517  -3.014   4.671  1.00  0.00    -0.269 OA
BRANCH  27  30
ATOM     30  C   UNL     1       4.826  -0.690   4.538  1.00  0.00     0.039 A 
ATOM     31  C   UNL     1       5.732  -0.453   5.576  1.00  0.00     0.014 A 
ATOM     32  C   UNL     1       4.133   0.360   3.947  1.00  0.00     0.014 A 
ATOM     33  C   UNL     1       6.010   0.867   5.937  1.00  0.00     0.010 A 
ATOM     34  C   UNL     1       4.540   1.648   4.176  1.00  0.00     0.010 A 
ATOM     35  C   UNL     1       5.432   1.919   5.210  1.00  0.00    -0.014 A 
BRANCH  35  36
ATOM     36  C   UNL     1       5.817   3.309   5.444  1.00  0.00     0.031 A 
ATOM     37  C   UNL     1       7.277   3.602   5.356  1.00  0.00     0.074 A 
ATOM     38  C   UNL     1       4.914   4.315   5.471  1.00  0.00     0.049 A 
ATOM     39  N   UNL     1       8.057   4.031   6.292  1.00  0.00    -0.248 NA
ATOM     40  C   UNL     1       7.978   3.285   4.100  1.00  0.00     0.031 C 
ATOM     41  C   UNL     1       3.465   4.243   5.235  1.00  0.00     0.029 A 
ATOM     42  N   UNL     1       5.130   5.654   5.554  1.00  0.00    -0.354 N 
ATOM     43  C   UNL     1       9.301   4.237   5.700  1.00  0.00     0.074 A 
ATOM     44  C   UNL     1       9.238   3.601   4.407  1.00  0.00     0.031 C 
ATOM     45  C   UNL     1       3.002   5.468   4.909  1.00  0.00     0.029 A 
ATOM     46  C   UNL     1       4.070   6.431   5.098  1.00  0.00     0.049 A 
ATOM     47  H   UNL     1       5.964   6.041   5.905  1.00  0.00     0.167 HD
ATOM     48  C   UNL     1      10.212   5.112   6.215  1.00  0.00     0.031 A 
ATOM     49  C   UNL     1       4.086   7.763   4.840  1.00  0.00     0.031 A 
ATOM     50  C   UNL     1       9.869   5.518   7.554  1.00  0.00     0.049 A 
ATOM     51  C   UNL     1       5.235   8.329   5.592  1.00  0.00     0.074 A 
ATOM     52  C   UNL     1       9.629   4.845   8.736  1.00  0.00     0.029 A 
ATOM     53  N   UNL     1       9.309   6.766   7.715  1.00  0.00    -0.354 N 
ATOM     54  N   UNL     1       5.304   8.336   6.896  1.00  0.00    -0.248 NA
ATOM     55  C   UNL     1       6.511   8.453   4.903  1.00  0.00     0.031 C 
ATOM     56  C   UNL     1       8.506   5.512   9.308  1.00  0.00     0.029 A 
ATOM     57  C   UNL     1       8.190   6.600   8.492  1.00  0.00     0.049 A 
ATOM     58  H   UNL     1       9.647   7.613   7.345  1.00  0.00     0.167 HD
ATOM     59  C   UNL     1       6.624   8.019   7.185  1.00  0.00     0.074 A 
ATOM     60  C   UNL     1       7.339   8.201   5.921  1.00  0.00     0.031 C 
ATOM     61  C   UNL     1       6.971   7.367   8.336  1.00  0.00     0.031 A 
BRANCH  48  62
ATOM     62  C   UNL     1      11.203   5.886   5.380  1.00  0.00    -0.014 A 
ATOM     63  C   UNL     1      12.173   6.683   6.022  1.00  0.00     0.010 A 
ATOM     64  C   UNL     1      11.045   6.069   3.991  1.00  0.00     0.010 A 
ATOM     65  C   UNL     1      12.901   7.653   5.319  1.00  0.00     0.020 A 
ATOM     66  C   UNL     1      11.798   7.000   3.272  1.00  0.00     0.020 A 
ATOM     67  C   UNL     1      12.698   7.812   3.948  1.00  0.00     0.054 A 
BRANCH  67  68
ATOM     68  S   UNL     1      13.567   9.132   3.066  1.00  0.00     0.124 S 
ATOM     69  O   UNL     1      12.961  10.328   3.642  1.00  0.00    -0.237 OA
ATOM     70  O   UNL     1      14.959   8.886   3.433  1.00  0.00    -0.237 OA
ATOM     71  O   UNL     1      13.244   8.876   1.664  1.00  0.00    -0.744 OA
ENDBRANCH  67  68
ENDBRANCH  48  62
BRANCH  49  72
ATOM     72  C   UNL     1       3.382   8.480   3.745  1.00  0.00    -0.014 A 
ATOM     73  C   UNL     1       3.358   9.886   3.697  1.00  0.00     0.010 A 
ATOM     74  C   UNL     1       2.958   7.784   2.592  1.00  0.00     0.010 A 
ATOM     75  C   UNL     1       2.994  10.566   2.520  1.00  0.00     0.020 A 
ATOM     76  C   UNL     1       2.582   8.454   1.420  1.00  0.00     0.020 A 
ATOM     77  C   UNL     1       2.630   9.844   1.381  1.00  0.00     0.054 A 
BRANCH  77  78
ATOM     78  S   UNL     1       2.356  10.720  -0.188  1.00  0.00     0.124 S 
ATOM     79  O   UNL     1       1.090  11.405   0.054  1.00  0.00    -0.237 OA
ATOM     80  O   UNL     1       3.533  11.581  -0.280  1.00  0.00    -0.237 OA
ATOM     81  O   UNL     1       2.302   9.647  -1.179  1.00  0.00    -0.744 OA
ENDBRANCH  77  78
ENDBRANCH  49  72
BRANCH  61  82
ATOM     82  C   UNL     1       5.939   7.203   9.433  1.00  0.00    -0.014 A 
ATOM     83  C   UNL     1       4.704   6.546   9.259  1.00  0.00     0.010 A 
ATOM     84  C   UNL     1       6.315   7.571  10.737  1.00  0.00     0.010 A 
ATOM     85  C   UNL     1       3.864   6.287  10.354  1.00  0.00     0.020 A 
ATOM     86  C   UNL     1       5.494   7.299  11.835  1.00  0.00     0.020 A 
ATOM     87  C   UNL     1       4.267   6.666  11.638  1.00  0.00     0.054 A 
BRANCH  87  88
ATOM     88  S   UNL     1       3.204   6.286  13.060  1.00  0.00     0.124 S 
ATOM     89  O   UNL     1       2.059   7.167  12.844  1.00  0.00    -0.237 OA
ATOM     90  O   UNL     1       2.939   4.859  12.898  1.00  0.00    -0.237 OA
ATOM     91  O   UNL     1       4.033   6.625  14.216  1.00  0.00    -0.744 OA
ENDBRANCH  87  88
ENDBRANCH  61  82
ENDBRANCH  35  36
ENDBRANCH  27  30
ENDBRANCH  25  26
ENDBRANCH   1  25
TORSDOF 15
