REMARK SMILES CCOc1ccc(-c2ccc(=O)n(CC(=O)NCCCCNC(=O)c3ccc(-c4c5nc(c(-c6ccc(S(=O)(=O)[O-])cc6)c6ccc([nH]6)c(-c6ccc(S(=O)(=O)[O-])cc6)c6nc(c(-c7ccc(S(=O)(=O)[O-])cc7)c7ccc4[nH]7)C=C6)C=C5)cc3)n2)cc1
REMARK SMILES IDX 19 1 18 2 17 3 15 4 16 5 14 7 13 8 8 9 9 10 85 11 10 12
REMARK SMILES IDX 11 13 12 14 7 15 4 16 5 17 87 18 6 19 86 20 3 21 2 22 1 23
REMARK SMILES IDX 20 24 21 25 22 26 23 27 24 29 25 30 26 31 84 32 27 33 83 34
REMARK SMILES IDX 28 35 29 36 30 37 77 38 31 39 82 40 76 41 78 42 32 43 81 44
REMARK SMILES IDX 75 45 74 46 33 48 63 49 44 50 62 51 45 52 48 53 61 54 79 55
REMARK SMILES IDX 46 56 47 57 60 59 80 60 49 61 34 62 35 63 43 64 36 65 42 66
REMARK SMILES IDX 37 67 38 68 39 69 40 70 41 71 64 72 65 73 73 74 66 75 72 76
REMARK SMILES IDX 67 77 68 78 69 79 70 80 71 81 50 82 51 83 59 84 52 85 58 86
REMARK SMILES IDX 53 87 54 88 55 89 56 90 57 91
REMARK H PARENT 17 6 22 28 78 47 48 58
REMARK Flexibility Score: inf
ROOT
ATOM      1  C   UNL     1       7.325   5.526   3.767  1.00  0.00     0.023 C 
ENDROOT
BRANCH   1   2
ATOM      2  C   UNL     1       7.626   6.161   2.410  1.00  0.00     0.116 C 
BRANCH   2   3
ATOM      3  N   UNL     1       9.048   6.274   2.161  1.00  0.00    -0.354 N 
ATOM      4  C   UNL     1       9.836   5.522   1.334  1.00  0.00     0.241 C 
ATOM      5  O   UNL     1      10.970   5.950   1.094  1.00  0.00    -0.273 OA
ATOM      6  H   UNL     1       9.510   6.989   2.654  1.00  0.00     0.163 HD
BRANCH   4   7
ATOM      7  C   UNL     1       9.278   4.302   0.592  1.00  0.00     0.248 C 
BRANCH   7   8
ATOM      8  N   UNL     1       8.652   3.328   1.477  1.00  0.00    -0.220 N 
ATOM      9  C   UNL     1       6.713   2.352   2.197  1.00  0.00     0.091 A 
ATOM     10  C   UNL     1       7.410   1.598   3.257  1.00  0.00     0.036 A 
ATOM     11  N   UNL     1       7.290   3.151   1.357  1.00  0.00    -0.169 NA
ATOM     12  C   UNL     1       8.741   1.698   3.275  1.00  0.00     0.075 A 
ATOM     13  C   UNL     1       9.455   2.572   2.319  1.00  0.00     0.267 A 
ATOM     14  O   UNL     1      10.681   2.606   2.345  1.00  0.00    -0.268 OA
BRANCH   9  15
ATOM     15  C   UNL     1       5.256   2.129   2.087  1.00  0.00     0.002 A 
ATOM     16  C   UNL     1       2.527   1.694   1.773  1.00  0.00     0.119 A 
ATOM     17  C   UNL     1       3.021   2.128   3.004  1.00  0.00     0.047 A 
ATOM     18  C   UNL     1       3.385   1.533   0.686  1.00  0.00     0.047 A 
ATOM     19  C   UNL     1       4.394   2.341   3.169  1.00  0.00     0.014 A 
ATOM     20  C   UNL     1       4.752   1.742   0.843  1.00  0.00     0.014 A 
BRANCH  16  21
ATOM     21  O   UNL     1       1.175   1.562   1.620  1.00  0.00    -0.494 OA
BRANCH  21  22
ATOM     22  C   UNL     1       0.752   0.200   1.475  1.00  0.00     0.226 C 
ATOM     23  C   UNL     1       0.737  -0.244   0.020  1.00  0.00     0.049 C 
ENDBRANCH  21  22
ENDBRANCH  16  21
ENDBRANCH   9  15
ENDBRANCH   7   8
ENDBRANCH   4   7
ENDBRANCH   2   3
ENDBRANCH   1   2
BRANCH   1  24
ATOM     24  C   UNL     1       7.691   6.392   4.974  1.00  0.00     0.023 C 
BRANCH  24  25
ATOM     25  C   UNL     1       7.032   7.764   5.008  1.00  0.00     0.116 C 
BRANCH  25  26
ATOM     26  N   UNL     1       5.580   7.695   5.016  1.00  0.00    -0.352 N 
ATOM     27  C   UNL     1       4.689   8.449   5.739  1.00  0.00     0.251 C 
ATOM     28  H   UNL     1       5.182   7.017   4.423  1.00  0.00     0.163 HD
ATOM     29  O   UNL     1       3.497   8.148   5.739  1.00  0.00    -0.269 OA
BRANCH  27  30
ATOM     30  C   UNL     1       5.168   9.601   6.535  1.00  0.00     0.039 A 
ATOM     31  C   UNL     1       4.640   9.808   7.811  1.00  0.00     0.014 A 
ATOM     32  C   UNL     1       6.125  10.483   6.024  1.00  0.00     0.014 A 
ATOM     33  C   UNL     1       5.099  10.876   8.586  1.00  0.00     0.010 A 
ATOM     34  C   UNL     1       6.645  11.491   6.831  1.00  0.00     0.010 A 
ATOM     35  C   UNL     1       6.119  11.716   8.110  1.00  0.00    -0.014 A 
BRANCH  35  36
ATOM     36  C   UNL     1       6.599  12.872   8.912  1.00  0.00     0.031 A 
ATOM     37  C   UNL     1       6.410  14.275   8.390  1.00  0.00     0.074 A 
ATOM     38  C   UNL     1       7.217  12.667  10.093  1.00  0.00     0.049 A 
ATOM     39  N   UNL     1       6.781  15.411   8.923  1.00  0.00    -0.248 NA
ATOM     40  C   UNL     1       5.736  14.420   7.087  1.00  0.00     0.031 C 
ATOM     41  C   UNL     1       7.492  11.359  10.693  1.00  0.00     0.029 A 
ATOM     42  N   UNL     1       7.723  13.560  11.004  1.00  0.00    -0.354 N 
ATOM     43  C   UNL     1       6.387  16.398   8.025  1.00  0.00     0.074 A 
ATOM     44  C   UNL     1       5.816  15.726   6.880  1.00  0.00     0.031 C 
ATOM     45  C   UNL     1       8.085  11.537  11.886  1.00  0.00     0.029 A 
ATOM     46  C   UNL     1       8.267  12.966  12.119  1.00  0.00     0.049 A 
ATOM     47  H   UNL     1       7.698  14.536  10.872  1.00  0.00     0.167 HD
ATOM     48  C   UNL     1       6.456  17.744   8.155  1.00  0.00     0.031 A 
ATOM     49  C   UNL     1       8.848  13.513  13.206  1.00  0.00     0.031 A 
ATOM     50  C   UNL     1       7.010  18.415   9.299  1.00  0.00     0.049 A 
ATOM     51  C   UNL     1       8.937  15.014  13.308  1.00  0.00     0.074 A 
ATOM     52  C   UNL     1       7.109  19.776   9.535  1.00  0.00     0.029 A 
ATOM     53  N   UNL     1       7.546  17.777  10.407  1.00  0.00    -0.354 N 
ATOM     54  N   UNL     1       8.517  15.928  12.466  1.00  0.00    -0.248 NA
ATOM     55  C   UNL     1       9.560  15.557  14.524  1.00  0.00     0.031 C 
ATOM     56  C   UNL     1       7.744  19.961  10.767  1.00  0.00     0.029 A 
ATOM     57  C   UNL     1       7.981  18.716  11.327  1.00  0.00     0.049 A 
ATOM     58  H   UNL     1       7.608  16.802  10.523  1.00  0.00     0.167 HD
ATOM     59  C   UNL     1       8.784  17.152  13.073  1.00  0.00     0.074 A 
ATOM     60  C   UNL     1       9.380  16.859  14.359  1.00  0.00     0.031 C 
ATOM     61  C   UNL     1       8.557  18.407  12.610  1.00  0.00     0.031 A 
BRANCH  48  62
ATOM     62  C   UNL     1       5.890  18.584   7.039  1.00  0.00    -0.014 A 
ATOM     63  C   UNL     1       4.502  18.639   6.816  1.00  0.00     0.010 A 
ATOM     64  C   UNL     1       6.742  19.379   6.251  1.00  0.00     0.010 A 
ATOM     65  C   UNL     1       3.977  19.455   5.812  1.00  0.00     0.020 A 
ATOM     66  C   UNL     1       6.218  20.220   5.264  1.00  0.00     0.020 A 
ATOM     67  C   UNL     1       4.838  20.246   5.046  1.00  0.00     0.054 A 
BRANCH  67  68
ATOM     68  S   UNL     1       4.119  21.343   3.794  1.00  0.00     0.124 S 
ATOM     69  O   UNL     1       3.655  20.390   2.788  1.00  0.00    -0.237 OA
ATOM     70  O   UNL     1       3.069  22.032   4.539  1.00  0.00    -0.237 OA
ATOM     71  O   UNL     1       5.241  22.184   3.382  1.00  0.00    -0.744 OA
ENDBRANCH  67  68
ENDBRANCH  48  62
BRANCH  49  72
ATOM     72  C   UNL     1       9.390  12.651  14.295  1.00  0.00    -0.014 A 
ATOM     73  C   UNL     1       8.824  12.679  15.583  1.00  0.00     0.010 A 
ATOM     74  C   UNL     1      10.517  11.841  14.066  1.00  0.00     0.010 A 
ATOM     75  C   UNL     1       9.410  11.966  16.633  1.00  0.00     0.020 A 
ATOM     76  C   UNL     1      11.084  11.096  15.104  1.00  0.00     0.020 A 
ATOM     77  C   UNL     1      10.543  11.185  16.388  1.00  0.00     0.054 A 
BRANCH  77  78
ATOM     78  S   UNL     1      11.300  10.281  17.766  1.00  0.00     0.124 S 
ATOM     79  O   UNL     1      11.938  11.356  18.519  1.00  0.00    -0.237 OA
ATOM     80  O   UNL     1      10.146   9.657  18.407  1.00  0.00    -0.237 OA
ATOM     81  O   UNL     1      12.213   9.352  17.104  1.00  0.00    -0.744 OA
ENDBRANCH  77  78
ENDBRANCH  49  72
BRANCH  61  82
ATOM     82  C   UNL     1       8.889  19.553  13.530  1.00  0.00    -0.014 A 
ATOM     83  C   UNL     1      10.217  19.870  13.867  1.00  0.00     0.010 A 
ATOM     84  C   UNL     1       7.845  20.336  14.057  1.00  0.00     0.010 A 
ATOM     85  C   UNL     1      10.490  20.907  14.764  1.00  0.00     0.020 A 
ATOM     86  C   UNL     1       8.115  21.396  14.925  1.00  0.00     0.020 A 
ATOM     87  C   UNL     1       9.436  21.658  15.293  1.00  0.00     0.054 A 
BRANCH  87  88
ATOM     88  S   UNL     1       9.814  22.997  16.455  1.00  0.00     0.124 S 
ATOM     89  O   UNL     1      10.173  22.258  17.662  1.00  0.00    -0.237 OA
ATOM     90  O   UNL     1      10.915  23.694  15.794  1.00  0.00    -0.237 OA
ATOM     91  O   UNL     1       8.565  23.751  16.535  1.00  0.00    -0.744 OA
ENDBRANCH  87  88
ENDBRANCH  61  82
ENDBRANCH  35  36
ENDBRANCH  27  30
ENDBRANCH  25  26
ENDBRANCH  24  25
ENDBRANCH   1  24
TORSDOF 18
