REMARK SMILES C[C@H](C(=O)NCCCCNC(=O)c1ccc(-c2c3nc(c(-c4ccc(S(=O)(=O)[O-])cc4)c4ccc([nH]4)c(-c4ccc(S(=O)(=O)[O-])cc4)c4nc(c(-c5ccc(S(=O)(=O)[O-])cc5)c5ccc2[nH]5)C=C4)C=C3)cc1)[N@@H+]1CCc2ccccc2C1
REMARK SMILES IDX 8 1 7 2 6 3 5 4 3 5 4 6 2 8 1 9 73 10 74 11 82 12 75 14
REMARK SMILES IDX 81 15 76 16 80 17 77 18 79 19 78 20 9 21 10 22 11 23 12 25
REMARK SMILES IDX 13 26 14 27 72 28 15 29 71 30 16 31 17 32 18 33 65 34 19 35
REMARK SMILES IDX 70 36 64 37 66 38 20 39 69 40 63 41 62 42 21 44 51 45 32 46
REMARK SMILES IDX 50 47 33 48 36 49 49 50 67 51 34 52 35 53 48 55 68 56 37 57
REMARK SMILES IDX 22 58 23 59 31 60 24 61 30 62 25 63 26 64 27 65 28 66 29 67
REMARK SMILES IDX 52 68 53 69 61 70 54 71 60 72 55 73 56 74 57 75 58 76 59 77
REMARK SMILES IDX 38 78 39 79 47 80 40 81 46 82 41 83 42 84 43 85 44 86 45 87
REMARK H PARENT 5 7 73 13 10 24 66 43 36 54
REMARK Flexibility Score: inf
ROOT
ATOM      1  C   UNL     1      -0.371   3.617   2.132  1.00  0.00     0.023 C 
ENDROOT
BRANCH   1   2
ATOM      2  C   UNL     1      -0.682   3.329   0.664  1.00  0.00     0.023 C 
BRANCH   2   3
ATOM      3  C   UNL     1       0.537   2.939  -0.163  1.00  0.00     0.116 C 
BRANCH   3   4
ATOM      4  N   UNL     1       1.062   1.645   0.229  1.00  0.00    -0.351 N 
ATOM      5  C   UNL     1       0.906   0.433  -0.399  1.00  0.00     0.278 C 
ATOM      6  O   UNL     1       1.472  -0.541   0.095  1.00  0.00    -0.268 OA
ATOM      7  H   UNL     1       1.601   1.634   1.053  1.00  0.00     0.163 HD
BRANCH   5   8
ATOM      8  C   UNL     1       0.091   0.411  -1.711  1.00  0.00     0.271 C 
ATOM      9  C   UNL     1       1.064   0.873  -2.815  1.00  0.00     0.086 C 
BRANCH   8  10
ATOM     10  N   UNL     1      -0.673  -0.829  -2.007  1.00  0.00    -0.321 N 
ATOM     11  C   UNL     1      -1.355  -1.465  -0.847  1.00  0.00     0.267 C 
ATOM     12  C   UNL     1      -0.017  -1.804  -2.869  1.00  0.00     0.299 C 
ATOM     13  H   UNL     1      -1.423  -0.442  -2.580  1.00  0.00     0.349 HD
ATOM     14  C   UNL     1      -1.335  -3.028  -0.824  1.00  0.00     0.097 C 
ATOM     15  C   UNL     1       0.782  -2.792  -2.077  1.00  0.00     0.010 A 
ATOM     16  C   UNL     1       0.071  -3.511  -1.101  1.00  0.00    -0.034 A 
ATOM     17  C   UNL     1       2.158  -2.958  -2.213  1.00  0.00     0.010 A 
ATOM     18  C   UNL     1       0.702  -4.531  -0.396  1.00  0.00     0.004 A 
ATOM     19  C   UNL     1       2.807  -3.914  -1.438  1.00  0.00     0.001 A 
ATOM     20  C   UNL     1       2.074  -4.730  -0.570  1.00  0.00     0.000 A 
ENDBRANCH   8  10
ENDBRANCH   5   8
ENDBRANCH   3   4
ENDBRANCH   2   3
ENDBRANCH   1   2
BRANCH   1  21
ATOM     21  C   UNL     1       0.795   4.572   2.371  1.00  0.00     0.116 C 
BRANCH  21  22
ATOM     22  N   UNL     1       0.676   5.816   1.621  1.00  0.00    -0.352 N 
ATOM     23  C   UNL     1       0.881   7.105   2.045  1.00  0.00     0.251 C 
ATOM     24  H   UNL     1       0.413   5.718   0.677  1.00  0.00     0.163 HD
ATOM     25  O   UNL     1       0.629   8.049   1.302  1.00  0.00    -0.269 OA
BRANCH  23  26
ATOM     26  C   UNL     1       1.363   7.339   3.418  1.00  0.00     0.039 A 
ATOM     27  C   UNL     1       0.642   8.204   4.242  1.00  0.00     0.014 A 
ATOM     28  C   UNL     1       2.478   6.651   3.907  1.00  0.00     0.014 A 
ATOM     29  C   UNL     1       0.987   8.313   5.589  1.00  0.00     0.010 A 
ATOM     30  C   UNL     1       2.777   6.710   5.264  1.00  0.00     0.010 A 
ATOM     31  C   UNL     1       2.023   7.526   6.121  1.00  0.00    -0.014 A 
BRANCH  31  32
ATOM     32  C   UNL     1       2.287   7.501   7.581  1.00  0.00     0.031 A 
ATOM     33  C   UNL     1       3.598   7.990   8.127  1.00  0.00     0.074 A 
ATOM     34  C   UNL     1       1.362   6.966   8.405  1.00  0.00     0.049 A 
ATOM     35  N   UNL     1       4.022   7.992   9.364  1.00  0.00    -0.248 NA
ATOM     36  C   UNL     1       4.568   8.528   7.159  1.00  0.00     0.031 C 
ATOM     37  C   UNL     1       0.070   6.413   7.986  1.00  0.00     0.029 A 
ATOM     38  N   UNL     1       1.369   6.788   9.766  1.00  0.00    -0.354 N 
ATOM     39  C   UNL     1       5.308   8.516   9.323  1.00  0.00     0.074 A 
ATOM     40  C   UNL     1       5.612   8.786   7.935  1.00  0.00     0.031 C 
ATOM     41  C   UNL     1      -0.597   5.979   9.067  1.00  0.00     0.029 A 
ATOM     42  C   UNL     1       0.234   6.178  10.250  1.00  0.00     0.049 A 
ATOM     43  H   UNL     1       2.115   7.070  10.342  1.00  0.00     0.167 HD
ATOM     44  C   UNL     1       6.152   8.763  10.353  1.00  0.00     0.031 A 
ATOM     45  C   UNL     1      -0.096   5.804  11.501  1.00  0.00     0.031 A 
ATOM     46  C   UNL     1       5.838   8.502  11.733  1.00  0.00     0.049 A 
ATOM     47  C   UNL     1       0.872   6.073  12.621  1.00  0.00     0.074 A 
ATOM     48  C   UNL     1       6.600   8.786  12.853  1.00  0.00     0.029 A 
ATOM     49  N   UNL     1       4.678   7.890  12.183  1.00  0.00    -0.354 N 
ATOM     50  N   UNL     1       2.046   6.657  12.572  1.00  0.00    -0.248 NA
ATOM     51  C   UNL     1       0.470   5.638  13.966  1.00  0.00     0.031 C 
ATOM     52  C   UNL     1       5.930   8.288  13.975  1.00  0.00     0.029 A 
ATOM     53  C   UNL     1       4.722   7.751  13.560  1.00  0.00     0.049 A 
ATOM     54  H   UNL     1       3.934   7.597  11.608  1.00  0.00     0.167 HD
ATOM     55  C   UNL     1       2.513   6.676  13.882  1.00  0.00     0.074 A 
ATOM     56  C   UNL     1       1.484   6.072  14.703  1.00  0.00     0.031 C 
ATOM     57  C   UNL     1       3.691   7.145  14.362  1.00  0.00     0.031 A 
BRANCH  44  58
ATOM     58  C   UNL     1       7.504   9.344  10.036  1.00  0.00    -0.014 A 
ATOM     59  C   UNL     1       7.641  10.680   9.620  1.00  0.00     0.010 A 
ATOM     60  C   UNL     1       8.660   8.570  10.248  1.00  0.00     0.010 A 
ATOM     61  C   UNL     1       8.909  11.227   9.407  1.00  0.00     0.020 A 
ATOM     62  C   UNL     1       9.931   9.122  10.060  1.00  0.00     0.020 A 
ATOM     63  C   UNL     1      10.046  10.446   9.634  1.00  0.00     0.054 A 
BRANCH  63  64
ATOM     64  S   UNL     1      11.678  11.206   9.414  1.00  0.00     0.124 S 
ATOM     65  O   UNL     1      11.749  11.353   7.962  1.00  0.00    -0.237 OA
ATOM     66  O   UNL     1      11.553  12.452  10.165  1.00  0.00    -0.237 OA
ATOM     67  O   UNL     1      12.598  10.226   9.986  1.00  0.00    -0.744 OA
ENDBRANCH  63  64
ENDBRANCH  44  58
BRANCH  45  68
ATOM     68  C   UNL     1      -1.390   5.114  11.765  1.00  0.00    -0.014 A 
ATOM     69  C   UNL     1      -2.397   5.739  12.521  1.00  0.00     0.010 A 
ATOM     70  C   UNL     1      -1.611   3.812  11.279  1.00  0.00     0.010 A 
ATOM     71  C   UNL     1      -3.584   5.062  12.818  1.00  0.00     0.020 A 
ATOM     72  C   UNL     1      -2.810   3.145  11.544  1.00  0.00     0.020 A 
ATOM     73  C   UNL     1      -3.781   3.768  12.329  1.00  0.00     0.054 A 
BRANCH  73  74
ATOM     74  S   UNL     1      -5.336   2.914  12.711  1.00  0.00     0.124 S 
ATOM     75  O   UNL     1      -5.157   2.575  14.119  1.00  0.00    -0.237 OA
ATOM     76  O   UNL     1      -6.337   3.940  12.428  1.00  0.00    -0.237 OA
ATOM     77  O   UNL     1      -5.338   1.781  11.788  1.00  0.00    -0.744 OA
ENDBRANCH  73  74
ENDBRANCH  45  68
BRANCH  57  78
ATOM     78  C   UNL     1       3.924   7.040  15.846  1.00  0.00    -0.014 A 
ATOM     79  C   UNL     1       4.165   5.797  16.456  1.00  0.00     0.010 A 
ATOM     80  C   UNL     1       3.956   8.208  16.630  1.00  0.00     0.010 A 
ATOM     81  C   UNL     1       4.403   5.719  17.831  1.00  0.00     0.020 A 
ATOM     82  C   UNL     1       4.224   8.137  17.999  1.00  0.00     0.020 A 
ATOM     83  C   UNL     1       4.433   6.891  18.593  1.00  0.00     0.054 A 
BRANCH  83  84
ATOM     84  S   UNL     1       4.790   6.766  20.367  1.00  0.00     0.124 S 
ATOM     85  O   UNL     1       3.553   6.190  20.886  1.00  0.00    -0.237 OA
ATOM     86  O   UNL     1       5.956   5.886  20.397  1.00  0.00    -0.237 OA
ATOM     87  O   UNL     1       5.049   8.148  20.767  1.00  0.00    -0.744 OA
ENDBRANCH  83  84
ENDBRANCH  57  78
ENDBRANCH  31  32
ENDBRANCH  23  26
ENDBRANCH  21  22
ENDBRANCH   1  21
TORSDOF 15
