REMARK SMILES Nc1c(N2CCCC2)ncnc1N1CCC(C(=O)NCCCCNC(=O)c2ccc(-c3c4nc(c(-c5ccc(S(=O)(=O)[O-])cc5)c5ccc([nH]5)c(-c5ccc(S(=O)(=O)[O-])cc5)c5nc(c(-c6ccc(S(=O)(=O)[O-])cc6)c6ccc3[nH]6)C=C5)C=C4)cc2)CC1
REMARK SMILES IDX 22 1 21 2 20 3 19 4 17 5 18 6 16 8 13 9 14 10 88 11 15 12
REMARK SMILES IDX 87 13 12 14 2 15 3 16 9 17 11 18 10 19 1 20 4 23 5 24 8 25
REMARK SMILES IDX 6 26 7 27 23 28 24 29 25 30 26 32 27 33 28 34 86 35 29 36
REMARK SMILES IDX 85 37 30 38 31 39 32 40 79 41 33 42 84 43 78 44 80 45 34 46
REMARK SMILES IDX 83 47 77 48 76 49 35 51 65 52 46 53 64 54 47 55 50 56 63 57
REMARK SMILES IDX 81 58 48 59 49 60 62 62 82 63 51 64 36 65 37 66 45 67 38 68
REMARK SMILES IDX 44 69 39 70 40 71 41 72 42 73 43 74 66 75 67 76 75 77 68 78
REMARK SMILES IDX 74 79 69 80 70 81 71 82 72 83 73 84 52 85 53 86 61 87 54 88
REMARK SMILES IDX 60 89 55 90 56 91 57 92 58 93 59 94
REMARK H PARENT 19 7 1 21 1 22 24 31 80 50 50 61
REMARK Flexibility Score: inf
ROOT
ATOM      1  C   UNL     1       0.689   8.377  -2.678  1.00  0.00     0.023 C 
ENDROOT
BRANCH   1   2
ATOM      2  C   UNL     1       0.890   7.038  -1.970  1.00  0.00     0.023 C 
BRANCH   2   3
ATOM      3  C   UNL     1       0.859   5.821  -2.890  1.00  0.00     0.116 C 
BRANCH   3   4
ATOM      4  N   UNL     1       1.999   5.791  -3.794  1.00  0.00    -0.356 N 
ATOM      5  C   UNL     1       3.046   4.925  -3.873  1.00  0.00     0.223 C 
ATOM      6  O   UNL     1       3.897   5.117  -4.745  1.00  0.00    -0.275 OA
ATOM      7  H   UNL     1       2.015   6.517  -4.459  1.00  0.00     0.163 HD
BRANCH   5   8
ATOM      8  C   UNL     1       3.165   3.731  -2.939  1.00  0.00     0.082 C 
ATOM      9  N   UNL     1       2.019   2.202  -0.841  1.00  0.00    -0.355 N 
ATOM     10  C   UNL     1       3.145   3.034  -0.480  1.00  0.00     0.119 C 
ATOM     11  C   UNL     1       1.963   1.628  -2.173  1.00  0.00     0.119 C 
ATOM     12  C   UNL     1       3.324   4.168  -1.475  1.00  0.00     0.035 C 
ATOM     13  C   UNL     1       2.045   2.720  -3.224  1.00  0.00     0.035 C 
BRANCH   9  14
ATOM     14  C   UNL     1       0.926   2.112   0.008  1.00  0.00     0.157 A 
ATOM     15  C   UNL     1       0.453   0.850   0.400  1.00  0.00     0.118 A 
ATOM     16  C   UNL     1      -0.698   0.823   1.206  1.00  0.00     0.157 A 
ATOM     17  N   UNL     1      -1.352   1.947   1.538  1.00  0.00    -0.217 NA
ATOM     18  N   UNL     1       0.323   3.248   0.399  1.00  0.00    -0.217 NA
ATOM     19  C   UNL     1      -0.792   3.099   1.134  1.00  0.00     0.226 A 
BRANCH  15  20
ATOM     20  N   UNL     1       1.145  -0.332   0.074  1.00  0.00    -0.393 N 
ATOM     21  H   UNL     1       0.792  -1.205   0.361  1.00  0.00     0.156 HD
ATOM     22  H   UNL     1       1.983  -0.286  -0.442  1.00  0.00     0.156 HD
ENDBRANCH  15  20
BRANCH  16  23
ATOM     23  N   UNL     1      -1.203  -0.391   1.620  1.00  0.00    -0.355 N 
ATOM     24  C   UNL     1      -0.486  -1.252   2.539  1.00  0.00     0.118 C 
ATOM     25  C   UNL     1      -2.625  -0.669   1.632  1.00  0.00     0.118 C 
ATOM     26  C   UNL     1      -1.258  -2.552   2.361  1.00  0.00     0.023 C 
ATOM     27  C   UNL     1      -2.707  -2.080   2.238  1.00  0.00     0.023 C 
ENDBRANCH  16  23
ENDBRANCH   9  14
ENDBRANCH   5   8
ENDBRANCH   3   4
ENDBRANCH   2   3
ENDBRANCH   1   2
BRANCH   1  28
ATOM     28  C   UNL     1      -0.567   8.471  -3.537  1.00  0.00     0.116 C 
BRANCH  28  29
ATOM     29  N   UNL     1      -1.786   8.178  -2.797  1.00  0.00    -0.352 N 
ATOM     30  C   UNL     1      -2.969   8.876  -2.782  1.00  0.00     0.251 C 
ATOM     31  H   UNL     1      -1.759   7.373  -2.232  1.00  0.00     0.163 HD
ATOM     32  O   UNL     1      -3.865   8.561  -2.003  1.00  0.00    -0.269 OA
BRANCH  30  33
ATOM     33  C   UNL     1      -3.137  10.029  -3.687  1.00  0.00     0.039 A 
ATOM     34  C   UNL     1      -3.568  11.247  -3.156  1.00  0.00     0.014 A 
ATOM     35  C   UNL     1      -2.828   9.915  -5.046  1.00  0.00     0.014 A 
ATOM     36  C   UNL     1      -3.620  12.374  -3.978  1.00  0.00     0.010 A 
ATOM     37  C   UNL     1      -2.820  11.053  -5.846  1.00  0.00     0.010 A 
ATOM     38  C   UNL     1      -3.213  12.292  -5.319  1.00  0.00    -0.014 A 
BRANCH  38  39
ATOM     39  C   UNL     1      -3.195  13.490  -6.192  1.00  0.00     0.031 A 
ATOM     40  C   UNL     1      -4.136  13.579  -7.360  1.00  0.00     0.074 A 
ATOM     41  C   UNL     1      -2.302  14.472  -5.963  1.00  0.00     0.049 A 
ATOM     42  N   UNL     1      -4.227  14.508  -8.275  1.00  0.00    -0.248 NA
ATOM     43  C   UNL     1      -5.085  12.467  -7.532  1.00  0.00     0.031 C 
ATOM     44  C   UNL     1      -1.325  14.494  -4.872  1.00  0.00     0.029 A 
ATOM     45  N   UNL     1      -2.072  15.644  -6.638  1.00  0.00    -0.354 N 
ATOM     46  C   UNL     1      -5.236  14.092  -9.135  1.00  0.00     0.074 A 
ATOM     47  C   UNL     1      -5.691  12.803  -8.661  1.00  0.00     0.031 C 
ATOM     48  C   UNL     1      -0.628  15.641  -4.930  1.00  0.00     0.029 A 
ATOM     49  C   UNL     1      -1.078  16.415  -6.083  1.00  0.00     0.049 A 
ATOM     50  H   UNL     1      -2.572  15.909  -7.444  1.00  0.00     0.167 HD
ATOM     51  C   UNL     1      -5.753  14.733 -10.209  1.00  0.00     0.031 A 
ATOM     52  C   UNL     1      -0.584  17.610  -6.460  1.00  0.00     0.031 A 
ATOM     53  C   UNL     1      -5.303  16.016 -10.678  1.00  0.00     0.049 A 
ATOM     54  C   UNL     1      -1.149  18.287  -7.677  1.00  0.00     0.074 A 
ATOM     55  C   UNL     1      -5.776  16.757 -11.746  1.00  0.00     0.029 A 
ATOM     56  N   UNL     1      -4.277  16.750 -10.102  1.00  0.00    -0.354 N 
ATOM     57  N   UNL     1      -2.113  17.884  -8.470  1.00  0.00    -0.248 NA
ATOM     58  C   UNL     1      -0.560  19.581  -8.049  1.00  0.00     0.031 C 
ATOM     59  C   UNL     1      -5.011  17.926 -11.837  1.00  0.00     0.029 A 
ATOM     60  C   UNL     1      -4.093  17.931 -10.799  1.00  0.00     0.049 A 
ATOM     61  H   UNL     1      -3.757  16.472  -9.314  1.00  0.00     0.167 HD
ATOM     62  C   UNL     1      -2.259  18.883  -9.425  1.00  0.00     0.074 A 
ATOM     63  C   UNL     1      -1.292  19.914  -9.105  1.00  0.00     0.031 C 
ATOM     64  C   UNL     1      -3.118  18.941 -10.472  1.00  0.00     0.031 A 
BRANCH  51  65
ATOM     65  C   UNL     1      -6.870  14.045 -10.945  1.00  0.00    -0.014 A 
ATOM     66  C   UNL     1      -8.152  13.945 -10.373  1.00  0.00     0.010 A 
ATOM     67  C   UNL     1      -6.644  13.502 -12.222  1.00  0.00     0.010 A 
ATOM     68  C   UNL     1      -9.175  13.272 -11.045  1.00  0.00     0.020 A 
ATOM     69  C   UNL     1      -7.673  12.850 -12.908  1.00  0.00     0.020 A 
ATOM     70  C   UNL     1      -8.927  12.722 -12.306  1.00  0.00     0.054 A 
BRANCH  70  71
ATOM     71  S   UNL     1     -10.274  11.856 -13.156  1.00  0.00     0.124 S 
ATOM     72  O   UNL     1     -10.347  10.605 -12.405  1.00  0.00    -0.237 OA
ATOM     73  O   UNL     1     -11.404  12.763 -12.976  1.00  0.00    -0.237 OA
ATOM     74  O   UNL     1      -9.792  11.730 -14.530  1.00  0.00    -0.744 OA
ENDBRANCH  70  71
ENDBRANCH  51  65
BRANCH  52  75
ATOM     75  C   UNL     1       0.482  18.255  -5.649  1.00  0.00    -0.014 A 
ATOM     76  C   UNL     1       0.170  19.346  -4.819  1.00  0.00     0.010 A 
ATOM     77  C   UNL     1       1.799  17.762  -5.670  1.00  0.00     0.010 A 
ATOM     78  C   UNL     1       1.157  19.932  -4.021  1.00  0.00     0.020 A 
ATOM     79  C   UNL     1       2.784  18.334  -4.858  1.00  0.00     0.020 A 
ATOM     80  C   UNL     1       2.456  19.419  -4.042  1.00  0.00     0.054 A 
BRANCH  80  81
ATOM     81  S   UNL     1       3.700  20.148  -2.939  1.00  0.00     0.124 S 
ATOM     82  O   UNL     1       3.975  21.423  -3.593  1.00  0.00    -0.237 OA
ATOM     83  O   UNL     1       2.984  20.230  -1.668  1.00  0.00    -0.237 OA
ATOM     84  O   UNL     1       4.793  19.179  -2.968  1.00  0.00    -0.744 OA
ENDBRANCH  80  81
ENDBRANCH  52  75
BRANCH  64  85
ATOM     85  C   UNL     1      -3.064  20.165 -11.343  1.00  0.00    -0.014 A 
ATOM     86  C   UNL     1      -2.029  20.342 -12.277  1.00  0.00     0.010 A 
ATOM     87  C   UNL     1      -4.100  21.115 -11.274  1.00  0.00     0.010 A 
ATOM     88  C   UNL     1      -2.020  21.460 -13.115  1.00  0.00     0.020 A 
ATOM     89  C   UNL     1      -4.105  22.223 -12.125  1.00  0.00     0.020 A 
ATOM     90  C   UNL     1      -3.059  22.392 -13.035  1.00  0.00     0.054 A 
BRANCH  90  91
ATOM     91  S   UNL     1      -3.054  23.805 -14.173  1.00  0.00     0.124 S 
ATOM     92  O   UNL     1      -2.006  24.649 -13.606  1.00  0.00    -0.237 OA
ATOM     93  O   UNL     1      -2.734  23.182 -15.456  1.00  0.00    -0.237 OA
ATOM     94  O   UNL     1      -4.410  24.339 -14.069  1.00  0.00    -0.744 OA
ENDBRANCH  90  91
ENDBRANCH  64  85
ENDBRANCH  38  39
ENDBRANCH  30  33
ENDBRANCH  28  29
ENDBRANCH   1  28
TORSDOF 17
