REMARK SMILES C[C@@H](CC(=O)NCCCCNC(=O)c1ccc(-c2c3nc(c(-c4ccc(S(=O)(=O)[O-])cc4)c4ccc([nH]4)c(-c4ccc(S(=O)(=O)[O-])cc4)c4nc(c(-c5ccc(S(=O)(=O)[O-])cc5)c5ccc2[nH]5)C=C4)C=C3)cc1)CC(=O)N1C[C@H](C)[C@@H](C)C1
REMARK SMILES IDX 8 1 7 2 6 3 4 4 5 5 3 7 2 8 1 9 74 10 75 11 76 12 77 13
REMARK SMILES IDX 78 14 83 15 79 16 81 17 80 18 82 19 9 20 10 21 11 22 12 23
REMARK SMILES IDX 13 25 14 26 15 27 73 28 16 29 72 30 17 31 18 32 19 33 66 34
REMARK SMILES IDX 20 35 71 36 65 37 67 38 21 39 70 40 64 41 63 42 22 44 52 45
REMARK SMILES IDX 33 46 51 47 34 48 37 49 50 50 68 51 35 52 36 53 49 55 69 56
REMARK SMILES IDX 38 57 23 58 24 59 32 60 25 61 31 62 26 63 27 64 28 65 29 66
REMARK SMILES IDX 30 67 53 68 54 69 62 70 55 71 61 72 56 73 57 74 58 75 59 76
REMARK SMILES IDX 60 77 39 78 40 79 48 80 41 81 47 82 42 83 43 84 44 85 45 86
REMARK SMILES IDX 46 87
REMARK H PARENT 6 6 11 24 67 43 37 54
REMARK Flexibility Score: inf
ROOT
ATOM      1  C   UNL     1       1.097   1.958   1.202  1.00  0.00     0.023 C 
ENDROOT
BRANCH   1   2
ATOM      2  C   UNL     1       1.715   0.980   2.198  1.00  0.00     0.116 C 
BRANCH   2   3
ATOM      3  N   UNL     1       0.691   0.266   2.932  1.00  0.00    -0.356 N 
ATOM      4  C   UNL     1       0.183  -0.981   2.740  1.00  0.00     0.220 C 
ATOM      5  O   UNL     1      -0.759  -1.341   3.448  1.00  0.00    -0.275 OA
ATOM      6  H   UNL     1       0.302   0.761   3.689  1.00  0.00     0.163 HD
BRANCH   4   7
ATOM      7  C   UNL     1       0.774  -1.924   1.701  1.00  0.00     0.103 C 
BRANCH   7   8
ATOM      8  C   UNL     1       0.351  -1.757   0.217  1.00  0.00     0.004 C 
ATOM      9  C   UNL     1       1.539  -1.274  -0.613  1.00  0.00     0.009 C 
BRANCH   8  10
ATOM     10  C   UNL     1      -0.956  -0.968   0.042  1.00  0.00     0.104 C 
BRANCH  10  11
ATOM     11  C   UNL     1      -1.479  -0.679  -1.362  1.00  0.00     0.222 C 
ATOM     12  O   UNL     1      -2.181  -1.494  -1.959  1.00  0.00    -0.275 OA
ATOM     13  N   UNL     1      -1.259   0.608  -1.835  1.00  0.00    -0.342 N 
ATOM     14  C   UNL     1      -2.293   1.321  -2.571  1.00  0.00     0.123 C 
ATOM     15  C   UNL     1       0.058   1.061  -2.250  1.00  0.00     0.123 C 
ATOM     16  C   UNL     1      -1.568   2.029  -3.719  1.00  0.00     0.010 C 
ATOM     17  C   UNL     1      -0.162   2.276  -3.149  1.00  0.00     0.010 C 
ATOM     18  C   UNL     1      -1.524   1.131  -4.957  1.00  0.00     0.010 C 
ATOM     19  C   UNL     1      -0.063   3.583  -2.361  1.00  0.00     0.010 C 
ENDBRANCH  10  11
ENDBRANCH   8  10
ENDBRANCH   7   8
ENDBRANCH   4   7
ENDBRANCH   2   3
ENDBRANCH   1   2
BRANCH   1  20
ATOM     20  C   UNL     1       0.519   3.236   1.799  1.00  0.00     0.023 C 
BRANCH  20  21
ATOM     21  C   UNL     1       1.568   4.192   2.337  1.00  0.00     0.116 C 
BRANCH  21  22
ATOM     22  N   UNL     1       2.525   4.614   1.326  1.00  0.00    -0.352 N 
ATOM     23  C   UNL     1       3.138   5.835   1.165  1.00  0.00     0.251 C 
ATOM     24  H   UNL     1       2.769   3.929   0.662  1.00  0.00     0.163 HD
ATOM     25  O   UNL     1       3.835   6.039   0.184  1.00  0.00    -0.269 OA
BRANCH  23  26
ATOM     26  C   UNL     1       2.908   6.901   2.166  1.00  0.00     0.039 A 
ATOM     27  C   UNL     1       2.686   8.203   1.716  1.00  0.00     0.014 A 
ATOM     28  C   UNL     1       2.881   6.616   3.534  1.00  0.00     0.014 A 
ATOM     29  C   UNL     1       2.378   9.204   2.638  1.00  0.00     0.010 A 
ATOM     30  C   UNL     1       2.471   7.589   4.437  1.00  0.00     0.010 A 
ATOM     31  C   UNL     1       2.232   8.898   4.002  1.00  0.00    -0.014 A 
BRANCH  31  32
ATOM     32  C   UNL     1       1.840   9.945   4.978  1.00  0.00     0.031 A 
ATOM     33  C   UNL     1       2.770  10.327   6.098  1.00  0.00     0.074 A 
ATOM     34  C   UNL     1       0.630  10.530   4.869  1.00  0.00     0.049 A 
ATOM     35  N   UNL     1       2.619  11.249   7.014  1.00  0.00    -0.248 NA
ATOM     36  C   UNL     1       4.019   9.557   6.228  1.00  0.00     0.031 C 
ATOM     37  C   UNL     1      -0.388  10.193   3.870  1.00  0.00     0.029 A 
ATOM     38  N   UNL     1       0.056  11.540   5.598  1.00  0.00    -0.354 N 
ATOM     39  C   UNL     1       3.743  11.163   7.828  1.00  0.00     0.074 A 
ATOM     40  C   UNL     1       4.533  10.056   7.342  1.00  0.00     0.031 C 
ATOM     41  C   UNL     1      -1.437  11.018   4.015  1.00  0.00     0.029 A 
ATOM     42  C   UNL     1      -1.182  11.919   5.134  1.00  0.00     0.049 A 
ATOM     43  H   UNL     1       0.489  11.954   6.379  1.00  0.00     0.167 HD
ATOM     44  C   UNL     1       4.101  11.953   8.868  1.00  0.00     0.031 A 
ATOM     45  C   UNL     1      -2.011  12.895   5.552  1.00  0.00     0.031 A 
ATOM     46  C   UNL     1       3.315  13.061   9.340  1.00  0.00     0.049 A 
ATOM     47  C   UNL     1      -1.578  13.778   6.689  1.00  0.00     0.074 A 
ATOM     48  C   UNL     1       3.612  13.960  10.349  1.00  0.00     0.029 A 
ATOM     49  N   UNL     1       2.076  13.423   8.833  1.00  0.00    -0.354 N 
ATOM     50  N   UNL     1      -0.473  13.732   7.396  1.00  0.00    -0.248 NA
ATOM     51  C   UNL     1      -2.494  14.861   7.069  1.00  0.00     0.031 C 
ATOM     52  C   UNL     1       2.530  14.836  10.485  1.00  0.00     0.029 A 
ATOM     53  C   UNL     1       1.587  14.521   9.519  1.00  0.00     0.049 A 
ATOM     54  H   UNL     1       1.612  12.966   8.095  1.00  0.00     0.167 HD
ATOM     55  C   UNL     1      -0.548  14.799   8.284  1.00  0.00     0.074 A 
ATOM     56  C   UNL     1      -1.797  15.482   8.010  1.00  0.00     0.031 C 
ATOM     57  C   UNL     1       0.338  15.182   9.238  1.00  0.00     0.031 A 
BRANCH  44  58
ATOM     58  C   UNL     1       5.404  11.642   9.560  1.00  0.00    -0.014 A 
ATOM     59  C   UNL     1       6.637  11.835   8.909  1.00  0.00     0.010 A 
ATOM     60  C   UNL     1       5.400  11.178  10.887  1.00  0.00     0.010 A 
ATOM     61  C   UNL     1       7.837  11.527   9.554  1.00  0.00     0.020 A 
ATOM     62  C   UNL     1       6.600  10.897  11.548  1.00  0.00     0.020 A 
ATOM     63  C   UNL     1       7.810  11.056  10.870  1.00  0.00     0.054 A 
BRANCH  63  64
ATOM     64  S   UNL     1       9.384  10.683  11.690  1.00  0.00     0.124 S 
ATOM     65  O   UNL     1       9.790   9.452  11.015  1.00  0.00    -0.237 OA
ATOM     66  O   UNL     1      10.192  11.861  11.385  1.00  0.00    -0.237 OA
ATOM     67  O   UNL     1       9.016  10.530  13.095  1.00  0.00    -0.744 OA
ENDBRANCH  63  64
ENDBRANCH  44  58
BRANCH  45  68
ATOM     68  C   UNL     1      -3.309  13.115   4.857  1.00  0.00    -0.014 A 
ATOM     69  C   UNL     1      -3.509  14.255   4.059  1.00  0.00     0.010 A 
ATOM     70  C   UNL     1      -4.349  12.174   4.977  1.00  0.00     0.010 A 
ATOM     71  C   UNL     1      -4.731  14.462   3.411  1.00  0.00     0.020 A 
ATOM     72  C   UNL     1      -5.561  12.363   4.306  1.00  0.00     0.020 A 
ATOM     73  C   UNL     1      -5.748  13.512   3.537  1.00  0.00     0.054 A 
BRANCH  73  74
ATOM     74  S   UNL     1      -7.307  13.775   2.645  1.00  0.00     0.124 S 
ATOM     75  O   UNL     1      -7.926  14.843   3.424  1.00  0.00    -0.237 OA
ATOM     76  O   UNL     1      -6.846  14.149   1.310  1.00  0.00    -0.237 OA
ATOM     77  O   UNL     1      -7.969  12.475   2.726  1.00  0.00    -0.744 OA
ENDBRANCH  73  74
ENDBRANCH  45  68
BRANCH  57  78
ATOM     78  C   UNL     1       0.002  16.420  10.027  1.00  0.00    -0.014 A 
ATOM     79  C   UNL     1      -1.051  16.434  10.959  1.00  0.00     0.010 A 
ATOM     80  C   UNL     1       0.770  17.585   9.842  1.00  0.00     0.010 A 
ATOM     81  C   UNL     1      -1.366  17.607  11.650  1.00  0.00     0.020 A 
ATOM     82  C   UNL     1       0.479  18.750  10.555  1.00  0.00     0.020 A 
ATOM     83  C   UNL     1      -0.603  18.759  11.438  1.00  0.00     0.054 A 
BRANCH  83  84
ATOM     84  S   UNL     1      -1.028  20.269  12.347  1.00  0.00     0.124 S 
ATOM     85  O   UNL     1      -2.232  20.713  11.650  1.00  0.00    -0.237 OA
ATOM     86  O   UNL     1      -1.234  19.777  13.708  1.00  0.00    -0.237 OA
ATOM     87  O   UNL     1       0.145  21.122  12.171  1.00  0.00    -0.744 OA
ENDBRANCH  83  84
ENDBRANCH  57  78
ENDBRANCH  31  32
ENDBRANCH  23  26
ENDBRANCH  21  22
ENDBRANCH  20  21
ENDBRANCH   1  20
TORSDOF 17
