REMARK SMILES Cc1c(CC(=O)NCCCCNC(=O)c2ccc(-c3c4nc(c(-c5ccc(S(=O)(=O)[O-])cc5)c5ccc([nH]5)c(-c5ccc(S(=O)(=O)[O-])cc5)c5nc(c(-c6ccc(S(=O)(=O)[O-])cc6)c6ccc3[nH]6)C=C5)C=C4)cc2)cccc1-c1ccn(C(F)F)c(=O)c1
REMARK SMILES IDX 9 1 8 2 7 3 5 4 6 5 4 7 3 8 1 9 2 10 78 11 75 12 77 13 76 14
REMARK SMILES IDX 79 15 80 16 88 17 81 18 86 19 82 20 87 21 83 22 84 23 85 24
REMARK SMILES IDX 10 25 11 26 12 27 13 28 14 30 15 31 16 32 74 33 17 34 73 35
REMARK SMILES IDX 18 36 19 37 20 38 67 39 21 40 72 41 66 42 68 43 22 44 71 45
REMARK SMILES IDX 65 46 64 47 23 49 53 50 34 51 52 52 35 53 38 54 51 55 69 56
REMARK SMILES IDX 36 57 37 58 50 60 70 61 39 62 24 63 25 64 33 65 26 66 32 67
REMARK SMILES IDX 27 68 28 69 29 70 30 71 31 72 54 73 55 74 63 75 56 76 62 77
REMARK SMILES IDX 57 78 58 79 59 80 60 81 61 82 40 83 41 84 49 85 42 86 48 87
REMARK SMILES IDX 43 88 44 89 45 90 46 91 47 92
REMARK H PARENT 7 6 12 29 68 48 38 59
REMARK Flexibility Score: inf
ROOT
ATOM      1  C   UNL     1       0.648  -0.160   3.336  1.00  0.00     0.023 C 
ENDROOT
BRANCH   1   2
ATOM      2  C   UNL     1       1.445  -1.434   3.015  1.00  0.00     0.116 C 
BRANCH   2   3
ATOM      3  N   UNL     1       0.609  -2.561   2.627  1.00  0.00    -0.356 N 
ATOM      4  C   UNL     1       0.324  -3.051   1.386  1.00  0.00     0.224 C 
ATOM      5  O   UNL     1      -0.420  -4.031   1.294  1.00  0.00    -0.275 OA
ATOM      6  H   UNL     1       0.185  -3.043   3.374  1.00  0.00     0.163 HD
BRANCH   4   7
ATOM      7  C   UNL     1       0.915  -2.396   0.143  1.00  0.00     0.135 C 
BRANCH   7   8
ATOM      8  C   UNL     1       0.307  -1.036  -0.152  1.00  0.00    -0.035 A 
ATOM      9  C   UNL     1       2.575   0.141  -0.299  1.00  0.00     0.045 C 
ATOM     10  C   UNL     1       1.063   0.158  -0.262  1.00  0.00    -0.040 A 
ATOM     11  C   UNL     1       0.369   1.392  -0.382  1.00  0.00    -0.015 A 
ATOM     12  C   UNL     1      -1.099  -0.978  -0.259  1.00  0.00     0.004 A 
ATOM     13  C   UNL     1      -1.035   1.412  -0.461  1.00  0.00     0.009 A 
ATOM     14  C   UNL     1      -1.764   0.232  -0.414  1.00  0.00     0.001 A 
BRANCH  11  15
ATOM     15  C   UNL     1       1.067   2.697  -0.353  1.00  0.00    -0.011 A 
ATOM     16  C   UNL     1       1.926   3.169  -1.421  1.00  0.00     0.027 A 
ATOM     17  C   UNL     1       0.926   3.448   0.755  1.00  0.00     0.080 A 
ATOM     18  C   UNL     1       2.634   4.294  -1.270  1.00  0.00     0.095 A 
ATOM     19  C   UNL     1       1.618   4.759   0.884  1.00  0.00     0.255 A 
ATOM     20  N   UNL     1       2.514   5.065  -0.128  1.00  0.00    -0.258 N 
ATOM     21  O   UNL     1       1.345   5.479   1.836  1.00  0.00    -0.269 OA
BRANCH  20  22
ATOM     22  C   UNL     1       3.280   6.274   0.029  1.00  0.00     0.451 C 
ATOM     23  F   UNL     1       2.482   7.368  -0.037  1.00  0.00    -0.185 F 
ATOM     24  F   UNL     1       3.944   6.302   1.207  1.00  0.00    -0.185 F 
ENDBRANCH  20  22
ENDBRANCH  11  15
ENDBRANCH   7   8
ENDBRANCH   4   7
ENDBRANCH   2   3
ENDBRANCH   1   2
BRANCH   1  25
ATOM     25  C   UNL     1      -0.412  -0.309   4.434  1.00  0.00     0.023 C 
BRANCH  25  26
ATOM     26  C   UNL     1       0.173  -0.654   5.797  1.00  0.00     0.116 C 
BRANCH  26  27
ATOM     27  N   UNL     1       0.416   0.492   6.653  1.00  0.00    -0.352 N 
ATOM     28  C   UNL     1       0.840   0.375   7.969  1.00  0.00     0.251 C 
ATOM     29  H   UNL     1       0.275   1.393   6.282  1.00  0.00     0.163 HD
ATOM     30  O   UNL     1       0.348   0.996   8.896  1.00  0.00    -0.269 OA
BRANCH  28  31
ATOM     31  C   UNL     1       2.019  -0.501   8.168  1.00  0.00     0.039 A 
ATOM     32  C   UNL     1       3.287   0.084   8.185  1.00  0.00     0.014 A 
ATOM     33  C   UNL     1       1.874  -1.887   8.113  1.00  0.00     0.014 A 
ATOM     34  C   UNL     1       4.419  -0.727   8.053  1.00  0.00     0.010 A 
ATOM     35  C   UNL     1       3.004  -2.680   7.910  1.00  0.00     0.010 A 
ATOM     36  C   UNL     1       4.288  -2.109   7.837  1.00  0.00    -0.014 A 
BRANCH  36  37
ATOM     37  C   UNL     1       5.408  -2.941   7.345  1.00  0.00     0.031 A 
ATOM     38  C   UNL     1       5.980  -4.110   8.098  1.00  0.00     0.074 A 
ATOM     39  C   UNL     1       6.064  -2.646   6.192  1.00  0.00     0.049 A 
ATOM     40  N   UNL     1       7.255  -4.390   8.106  1.00  0.00    -0.248 NA
ATOM     41  C   UNL     1       5.183  -5.049   8.887  1.00  0.00     0.031 C 
ATOM     42  C   UNL     1       6.975  -3.548   5.484  1.00  0.00     0.029 A 
ATOM     43  N   UNL     1       6.241  -1.427   5.537  1.00  0.00    -0.354 N 
ATOM     44  C   UNL     1       7.402  -5.641   8.658  1.00  0.00     0.074 A 
ATOM     45  C   UNL     1       6.098  -5.976   9.198  1.00  0.00     0.031 C 
ATOM     46  C   UNL     1       7.835  -2.815   4.766  1.00  0.00     0.029 A 
ATOM     47  C   UNL     1       7.547  -1.415   5.016  1.00  0.00     0.049 A 
ATOM     48  H   UNL     1       5.574  -0.707   5.456  1.00  0.00     0.167 HD
ATOM     49  C   UNL     1       8.530  -6.393   8.509  1.00  0.00     0.031 A 
ATOM     50  C   UNL     1       8.459  -0.409   5.124  1.00  0.00     0.031 A 
ATOM     51  C   UNL     1       9.539  -5.844   7.613  1.00  0.00     0.049 A 
ATOM     52  C   UNL     1       9.847  -0.836   5.532  1.00  0.00     0.074 A 
ATOM     53  C   UNL     1       9.887  -6.144   6.305  1.00  0.00     0.029 A 
ATOM     54  N   UNL     1      10.286  -4.732   7.969  1.00  0.00    -0.354 N 
ATOM     55  N   UNL     1      10.163  -2.049   5.873  1.00  0.00    -0.248 NA
ATOM     56  C   UNL     1      10.959   0.100   5.712  1.00  0.00     0.031 C 
ATOM     57  C   UNL     1      10.873  -5.225   5.878  1.00  0.00     0.029 A 
ATOM     58  C   UNL     1      11.097  -4.343   6.917  1.00  0.00     0.049 A 
ATOM     59  H   UNL     1      10.246  -4.284   8.845  1.00  0.00     0.167 HD
ATOM     60  C   UNL     1      11.423  -2.050   6.417  1.00  0.00     0.074 A 
ATOM     61  C   UNL     1      11.907  -0.698   6.232  1.00  0.00     0.031 C 
ATOM     62  C   UNL     1      11.931  -3.159   7.026  1.00  0.00     0.031 A 
BRANCH  49  63
ATOM     63  C   UNL     1       8.543  -7.832   8.963  1.00  0.00    -0.014 A 
ATOM     64  C   UNL     1       8.954  -8.846   8.074  1.00  0.00     0.010 A 
ATOM     65  C   UNL     1       8.085  -8.226  10.239  1.00  0.00     0.010 A 
ATOM     66  C   UNL     1       8.781 -10.198   8.381  1.00  0.00     0.020 A 
ATOM     67  C   UNL     1       7.885  -9.581  10.550  1.00  0.00     0.020 A 
ATOM     68  C   UNL     1       8.209 -10.556   9.601  1.00  0.00     0.054 A 
BRANCH  68  69
ATOM     69  S   UNL     1       7.770 -12.300   9.860  1.00  0.00     0.124 S 
ATOM     70  O   UNL     1       7.270 -12.704   8.546  1.00  0.00    -0.237 OA
ATOM     71  O   UNL     1       9.046 -12.889  10.252  1.00  0.00    -0.237 OA
ATOM     72  O   UNL     1       6.753 -12.245  10.908  1.00  0.00    -0.744 OA
ENDBRANCH  68  69
ENDBRANCH  49  63
BRANCH  50  73
ATOM     73  C   UNL     1       7.894   0.924   5.428  1.00  0.00    -0.014 A 
ATOM     74  C   UNL     1       7.161   1.578   4.419  1.00  0.00     0.010 A 
ATOM     75  C   UNL     1       7.774   1.350   6.762  1.00  0.00     0.010 A 
ATOM     76  C   UNL     1       6.206   2.535   4.758  1.00  0.00     0.020 A 
ATOM     77  C   UNL     1       6.820   2.314   7.103  1.00  0.00     0.020 A 
ATOM     78  C   UNL     1       6.002   2.850   6.104  1.00  0.00     0.054 A 
BRANCH  78  79
ATOM     79  S   UNL     1       4.509   3.791   6.545  1.00  0.00     0.124 S 
ATOM     80  O   UNL     1       4.733   5.060   5.863  1.00  0.00    -0.237 OA
ATOM     81  O   UNL     1       3.453   2.940   5.996  1.00  0.00    -0.237 OA
ATOM     82  O   UNL     1       4.562   3.838   8.003  1.00  0.00    -0.744 OA
ENDBRANCH  78  79
ENDBRANCH  50  73
BRANCH  62  83
ATOM     83  C   UNL     1      13.263  -3.254   7.723  1.00  0.00    -0.014 A 
ATOM     84  C   UNL     1      13.853  -2.186   8.423  1.00  0.00     0.010 A 
ATOM     85  C   UNL     1      13.918  -4.510   7.774  1.00  0.00     0.010 A 
ATOM     86  C   UNL     1      15.072  -2.350   9.100  1.00  0.00     0.020 A 
ATOM     87  C   UNL     1      15.118  -4.691   8.469  1.00  0.00     0.020 A 
ATOM     88  C   UNL     1      15.697  -3.600   9.116  1.00  0.00     0.054 A 
BRANCH  88  89
ATOM     89  S   UNL     1      17.236  -3.850  10.047  1.00  0.00     0.124 S 
ATOM     90  O   UNL     1      18.239  -3.853   8.986  1.00  0.00    -0.237 OA
ATOM     91  O   UNL     1      17.282  -2.696  10.944  1.00  0.00    -0.237 OA
ATOM     92  O   UNL     1      17.016  -5.133  10.708  1.00  0.00    -0.744 OA
ENDBRANCH  88  89
ENDBRANCH  62  83
ENDBRANCH  36  37
ENDBRANCH  28  31
ENDBRANCH  26  27
ENDBRANCH  25  26
ENDBRANCH   1  25
TORSDOF 17
