REMARK SMILES O=C(CNS(=O)(=O)c1ccc(F)c(F)c1)NCCCCNC(=O)c1ccc(-c2c3nc(c(-c4ccc(S(=O)(=O)[O-])cc4)c4ccc([nH]4)c(-c4ccc(S(=O)(=O)[O-])cc4)c4nc(c(-c5ccc(S(=O)(=O)[O-])cc5)c5ccc2[nH]5)C=C4)C=C3)cc1
REMARK SMILES IDX 18 1 17 2 16 3 1 4 2 5 3 7 4 8 5 10 6 11 7 12 8 13 9 14
REMARK SMILES IDX 15 15 10 16 13 17 11 18 14 19 12 20 19 21 20 22 21 23 22 24
REMARK SMILES IDX 23 26 24 27 25 28 83 29 26 30 82 31 27 32 28 33 29 34 76 35
REMARK SMILES IDX 30 36 81 37 75 38 77 39 31 40 80 41 74 42 73 43 32 45 62 46
REMARK SMILES IDX 43 47 61 48 44 49 47 50 60 51 78 52 45 53 46 54 59 56 79 57
REMARK SMILES IDX 48 58 33 59 34 60 42 61 35 62 41 63 36 64 37 65 38 66 39 67
REMARK SMILES IDX 40 68 63 69 64 70 72 71 65 72 71 73 66 74 67 75 68 76 69 77
REMARK SMILES IDX 70 78 49 79 50 80 58 81 51 82 57 83 52 84 53 85 54 86 55 87
REMARK SMILES IDX 56 88
REMARK H PARENT 16 6 4 9 21 25 77 44 47 55
REMARK Flexibility Score: inf
ROOT
ATOM      1  C   UNL     1       2.477  -2.942   1.498  1.00  0.00     0.023 C 
ENDROOT
BRANCH   1   2
ATOM      2  C   UNL     1       2.163  -1.490   1.851  1.00  0.00     0.116 C 
BRANCH   2   3
ATOM      3  N   UNL     1       2.702  -0.549   0.890  1.00  0.00    -0.355 N 
ATOM      4  O   UNL     1       0.700  -0.074  -0.134  1.00  0.00    -0.274 OA
ATOM      5  C   UNL     1       1.905   0.125  -0.015  1.00  0.00     0.235 C 
ATOM      6  H   UNL     1       3.672  -0.384   0.881  1.00  0.00     0.163 HD
BRANCH   5   7
ATOM      7  C   UNL     1       2.643   1.131  -0.891  1.00  0.00     0.198 C 
BRANCH   7   8
ATOM      8  N   UNL     1       3.921   1.559  -0.275  1.00  0.00    -0.202 NA
ATOM      9  H   UNL     1       4.499   0.729  -0.146  1.00  0.00     0.141 HD
BRANCH   8  10
ATOM     10  S   UNL     1       4.823   2.686  -1.151  1.00  0.00     0.241 S 
ATOM     11  O   UNL     1       3.904   3.459  -1.954  1.00  0.00    -0.207 OA
ATOM     12  O   UNL     1       5.709   3.299  -0.189  1.00  0.00    -0.207 OA
BRANCH  10  13
ATOM     13  C   UNL     1       5.834   1.736  -2.251  1.00  0.00     0.085 A 
ATOM     14  C   UNL     1       5.910   0.341  -2.170  1.00  0.00     0.025 A 
ATOM     15  C   UNL     1       6.538   2.435  -3.239  1.00  0.00     0.064 A 
ATOM     16  C   UNL     1       6.690  -0.359  -3.096  1.00  0.00     0.044 A 
ATOM     17  C   UNL     1       7.313   1.725  -4.148  1.00  0.00     0.160 A 
ATOM     18  C   UNL     1       7.386   0.338  -4.082  1.00  0.00     0.158 A 
ATOM     19  F   UNL     1       7.983   2.391  -5.099  1.00  0.00    -0.204 F 
ATOM     20  F   UNL     1       8.120  -0.341  -4.972  1.00  0.00    -0.204 F 
ENDBRANCH  10  13
ENDBRANCH   8  10
ENDBRANCH   7   8
ENDBRANCH   5   7
ENDBRANCH   2   3
ENDBRANCH   1   2
BRANCH   1  21
ATOM     21  C   UNL     1       3.957  -3.328   1.585  1.00  0.00     0.023 C 
BRANCH  21  22
ATOM     22  C   UNL     1       4.626  -3.118   2.943  1.00  0.00     0.116 C 
BRANCH  22  23
ATOM     23  N   UNL     1       4.005  -3.873   4.018  1.00  0.00    -0.352 N 
ATOM     24  C   UNL     1       4.588  -4.590   5.038  1.00  0.00     0.251 C 
ATOM     25  H   UNL     1       3.021  -3.871   4.017  1.00  0.00     0.163 HD
ATOM     26  O   UNL     1       3.879  -5.247   5.795  1.00  0.00    -0.269 OA
BRANCH  24  27
ATOM     27  C   UNL     1       6.061  -4.606   5.207  1.00  0.00     0.039 A 
ATOM     28  C   UNL     1       6.691  -5.828   5.469  1.00  0.00     0.014 A 
ATOM     29  C   UNL     1       6.822  -3.438   5.120  1.00  0.00     0.014 A 
ATOM     30  C   UNL     1       8.085  -5.889   5.565  1.00  0.00     0.010 A 
ATOM     31  C   UNL     1       8.216  -3.509   5.158  1.00  0.00     0.010 A 
ATOM     32  C   UNL     1       8.862  -4.736   5.371  1.00  0.00    -0.014 A 
BRANCH  32  33
ATOM     33  C   UNL     1      10.348  -4.798   5.359  1.00  0.00     0.031 A 
ATOM     34  C   UNL     1      11.152  -4.088   6.414  1.00  0.00     0.074 A 
ATOM     35  C   UNL     1      10.980  -5.433   4.352  1.00  0.00     0.049 A 
ATOM     36  N   UNL     1      12.450  -3.960   6.513  1.00  0.00    -0.248 NA
ATOM     37  C   UNL     1      10.397  -3.418   7.485  1.00  0.00     0.031 C 
ATOM     38  C   UNL     1      10.323  -6.129   3.243  1.00  0.00     0.029 A 
ATOM     39  N   UNL     1      12.319  -5.584   4.090  1.00  0.00    -0.354 N 
ATOM     40  C   UNL     1      12.670  -3.180   7.642  1.00  0.00     0.074 A 
ATOM     41  C   UNL     1      11.368  -2.834   8.173  1.00  0.00     0.031 C 
ATOM     42  C   UNL     1      11.259  -6.644   2.430  1.00  0.00     0.029 A 
ATOM     43  C   UNL     1      12.581  -6.287   2.937  1.00  0.00     0.049 A 
ATOM     44  H   UNL     1      13.026  -5.223   4.672  1.00  0.00     0.167 HD
ATOM     45  C   UNL     1      13.845  -2.797   8.197  1.00  0.00     0.031 A 
ATOM     46  C   UNL     1      13.749  -6.602   2.346  1.00  0.00     0.031 A 
ATOM     47  C   UNL     1      15.141  -3.148   7.681  1.00  0.00     0.049 A 
ATOM     48  C   UNL     1      15.041  -6.173   2.982  1.00  0.00     0.074 A 
ATOM     49  C   UNL     1      16.388  -2.844   8.202  1.00  0.00     0.029 A 
ATOM     50  N   UNL     1      15.361  -3.884   6.526  1.00  0.00    -0.354 N 
ATOM     51  N   UNL     1      15.226  -5.475   4.077  1.00  0.00    -0.248 NA
ATOM     52  C   UNL     1      16.282  -6.584   2.310  1.00  0.00     0.031 C 
ATOM     53  C   UNL     1      17.361  -3.367   7.343  1.00  0.00     0.029 A 
ATOM     54  C   UNL     1      16.721  -4.033   6.311  1.00  0.00     0.049 A 
ATOM     55  H   UNL     1      14.654  -4.247   5.945  1.00  0.00     0.167 HD
ATOM     56  C   UNL     1      16.604  -5.380   4.235  1.00  0.00     0.074 A 
ATOM     57  C   UNL     1      17.204  -6.103   3.132  1.00  0.00     0.031 C 
ATOM     58  C   UNL     1      17.307  -4.752   5.209  1.00  0.00     0.031 A 
BRANCH  45  59
ATOM     59  C   UNL     1      13.777  -1.942   9.434  1.00  0.00    -0.014 A 
ATOM     60  C   UNL     1      13.376  -2.486  10.667  1.00  0.00     0.010 A 
ATOM     61  C   UNL     1      14.140  -0.584   9.369  1.00  0.00     0.010 A 
ATOM     62  C   UNL     1      13.292  -1.677  11.803  1.00  0.00     0.020 A 
ATOM     63  C   UNL     1      14.081   0.222  10.509  1.00  0.00     0.020 A 
ATOM     64  C   UNL     1      13.637  -0.326  11.715  1.00  0.00     0.054 A 
BRANCH  64  65
ATOM     65  S   UNL     1      13.522   0.704  13.204  1.00  0.00     0.124 S 
ATOM     66  O   UNL     1      12.083   0.933  13.299  1.00  0.00    -0.237 OA
ATOM     67  O   UNL     1      14.089  -0.159  14.238  1.00  0.00    -0.237 OA
ATOM     68  O   UNL     1      14.321   1.881  12.873  1.00  0.00    -0.744 OA
ENDBRANCH  64  65
ENDBRANCH  45  59
BRANCH  46  69
ATOM     69  C   UNL     1      13.747  -7.381   1.080  1.00  0.00    -0.014 A 
ATOM     70  C   UNL     1      14.111  -8.739   1.080  1.00  0.00     0.010 A 
ATOM     71  C   UNL     1      13.355  -6.775  -0.128  1.00  0.00     0.010 A 
ATOM     72  C   UNL     1      14.091  -9.476  -0.107  1.00  0.00     0.020 A 
ATOM     73  C   UNL     1      13.313  -7.515  -1.312  1.00  0.00     0.020 A 
ATOM     74  C   UNL     1      13.691  -8.860  -1.296  1.00  0.00     0.054 A 
BRANCH  74  75
ATOM     75  S   UNL     1      13.604  -9.851  -2.814  1.00  0.00     0.124 S 
ATOM     76  O   UNL     1      15.007  -9.925  -3.207  1.00  0.00    -0.237 OA
ATOM     77  O   UNL     1      13.010 -11.100  -2.345  1.00  0.00    -0.237 OA
ATOM     78  O   UNL     1      12.746  -9.054  -3.689  1.00  0.00    -0.744 OA
ENDBRANCH  74  75
ENDBRANCH  46  69
BRANCH  58  79
ATOM     79  C   UNL     1      18.807  -4.839   5.143  1.00  0.00    -0.014 A 
ATOM     80  C   UNL     1      19.538  -4.080   4.213  1.00  0.00     0.010 A 
ATOM     81  C   UNL     1      19.497  -5.653   6.060  1.00  0.00     0.010 A 
ATOM     82  C   UNL     1      20.933  -4.154   4.182  1.00  0.00     0.020 A 
ATOM     83  C   UNL     1      20.892  -5.713   6.047  1.00  0.00     0.020 A 
ATOM     84  C   UNL     1      21.602  -4.973   5.098  1.00  0.00     0.054 A 
BRANCH  84  85
ATOM     85  S   UNL     1      23.415  -5.020   5.072  1.00  0.00     0.124 S 
ATOM     86  O   UNL     1      23.679  -5.883   3.924  1.00  0.00    -0.237 OA
ATOM     87  O   UNL     1      23.773  -3.614   4.896  1.00  0.00    -0.237 OA
ATOM     88  O   UNL     1      23.765  -5.587   6.372  1.00  0.00    -0.744 OA
ENDBRANCH  84  85
ENDBRANCH  58  79
ENDBRANCH  32  33
ENDBRANCH  24  27
ENDBRANCH  22  23
ENDBRANCH  21  22
ENDBRANCH   1  21
TORSDOF 17
