REMARK SMILES Cc1c(Br)c(C(=O)NCCCCNC(=O)c2ccc(-c3c4nc(c(-c5ccc(S(=O)(=O)[O-])cc5)c5ccc([nH]5)c(-c5ccc(S(=O)(=O)[O-])cc5)c5nc(c(-c6ccc(S(=O)(=O)[O-])cc6)c6ccc3[nH]6)C=C5)C=C4)cc2)nn1-c1ccccc1
REMARK SMILES IDX 11 1 10 2 9 3 8 4 6 5 7 6 5 8 1 9 2 10 3 11 77 12 4 13 76 14
REMARK SMILES IDX 78 15 79 16 83 17 80 18 82 19 81 20 12 21 13 22 14 23 15 25
REMARK SMILES IDX 16 26 17 27 75 28 18 29 74 30 19 31 20 32 21 33 68 34 22 35
REMARK SMILES IDX 73 36 67 37 69 38 23 39 72 40 66 41 65 42 24 44 54 45 35 46
REMARK SMILES IDX 53 47 36 48 39 49 52 50 70 51 37 52 38 53 51 55 71 56 40 57
REMARK SMILES IDX 25 58 26 59 34 60 27 61 33 62 28 63 29 64 30 65 31 66 32 67
REMARK SMILES IDX 55 68 56 69 64 70 57 71 63 72 58 73 59 74 60 75 61 76 62 77
REMARK SMILES IDX 41 78 42 79 50 80 43 81 49 82 44 83 45 84 46 85 47 86 48 87
REMARK H PARENT 8 7 13 24 69 43 39 54
REMARK Flexibility Score: inf
ROOT
ATOM      1  C   UNL     1      -3.038  -5.914   5.113  1.00  0.00     0.023 C 
ENDROOT
BRANCH   1   2
ATOM      2  C   UNL     1      -2.643  -4.538   4.563  1.00  0.00     0.023 C 
BRANCH   2   3
ATOM      3  C   UNL     1      -1.143  -4.225   4.540  1.00  0.00     0.116 C 
BRANCH   3   4
ATOM      4  N   UNL     1      -0.418  -4.995   3.537  1.00  0.00    -0.351 N 
ATOM      5  C   UNL     1       0.273  -4.614   2.399  1.00  0.00     0.272 C 
ATOM      6  O   UNL     1       0.735  -5.528   1.711  1.00  0.00    -0.267 OA
ATOM      7  H   UNL     1      -0.419  -5.966   3.699  1.00  0.00     0.163 HD
BRANCH   5   8
ATOM      8  C   UNL     1       0.404  -3.197   2.009  1.00  0.00     0.165 A 
ATOM      9  C   UNL     1       1.028  -0.194  -0.084  1.00  0.00     0.068 C 
ATOM     10  C   UNL     1       0.647  -1.272   0.864  1.00  0.00     0.056 A 
ATOM     11  C   UNL     1       0.795  -2.642   0.764  1.00  0.00     0.072 A 
ATOM     12  N   UNL     1       0.128  -1.072   2.127  1.00  0.00    -0.236 N 
ATOM     13  Br  UNL     1       1.414  -3.575  -0.743  1.00  0.00    -0.046 Br
ATOM     14  N   UNL     1       0.204  -2.191   2.874  1.00  0.00    -0.161 NA
BRANCH  12  15
ATOM     15  C   UNL     1      -0.526   0.051   2.692  1.00  0.00     0.065 A 
ATOM     16  C   UNL     1      -0.431   0.255   4.078  1.00  0.00     0.028 A 
ATOM     17  C   UNL     1      -1.358   0.869   1.920  1.00  0.00     0.028 A 
ATOM     18  C   UNL     1      -1.141   1.289   4.684  1.00  0.00     0.002 A 
ATOM     19  C   UNL     1      -2.091   1.885   2.541  1.00  0.00     0.002 A 
ATOM     20  C   UNL     1      -1.976   2.098   3.917  1.00  0.00     0.000 A 
ENDBRANCH  12  15
ENDBRANCH   5   8
ENDBRANCH   3   4
ENDBRANCH   2   3
ENDBRANCH   1   2
BRANCH   1  21
ATOM     21  C   UNL     1      -2.598  -6.185   6.548  1.00  0.00     0.116 C 
BRANCH  21  22
ATOM     22  N   UNL     1      -3.204  -5.277   7.520  1.00  0.00    -0.352 N 
ATOM     23  C   UNL     1      -3.010  -5.252   8.886  1.00  0.00     0.251 C 
ATOM     24  H   UNL     1      -3.824  -4.604   7.157  1.00  0.00     0.163 HD
ATOM     25  O   UNL     1      -3.855  -4.734   9.620  1.00  0.00    -0.269 OA
BRANCH  23  26
ATOM     26  C   UNL     1      -1.788  -5.844   9.462  1.00  0.00     0.039 A 
ATOM     27  C   UNL     1      -1.829  -6.566  10.659  1.00  0.00     0.014 A 
ATOM     28  C   UNL     1      -0.579  -5.668   8.788  1.00  0.00     0.014 A 
ATOM     29  C   UNL     1      -0.666  -7.184  11.118  1.00  0.00     0.010 A 
ATOM     30  C   UNL     1       0.541  -6.366   9.180  1.00  0.00     0.010 A 
ATOM     31  C   UNL     1       0.513  -7.104  10.359  1.00  0.00    -0.014 A 
BRANCH  31  32
ATOM     32  C   UNL     1       1.671  -7.935  10.692  1.00  0.00     0.031 A 
ATOM     33  C   UNL     1       1.365  -9.393  10.731  1.00  0.00     0.074 A 
ATOM     34  C   UNL     1       2.944  -7.482  10.727  1.00  0.00     0.049 A 
ATOM     35  N   UNL     1       1.313 -10.158  11.770  1.00  0.00    -0.248 NA
ATOM     36  C   UNL     1       0.897 -10.044   9.494  1.00  0.00     0.031 C 
ATOM     37  C   UNL     1       3.428  -6.137  10.395  1.00  0.00     0.029 A 
ATOM     38  N   UNL     1       4.103  -8.163  10.955  1.00  0.00    -0.354 N 
ATOM     39  C   UNL     1       1.056 -11.438  11.289  1.00  0.00     0.074 A 
ATOM     40  C   UNL     1       0.601 -11.269   9.933  1.00  0.00     0.031 C 
ATOM     41  C   UNL     1       4.767  -6.169  10.208  1.00  0.00     0.029 A 
ATOM     42  C   UNL     1       5.260  -7.488  10.564  1.00  0.00     0.049 A 
ATOM     43  H   UNL     1       4.122  -9.060  11.362  1.00  0.00     0.167 HD
ATOM     44  C   UNL     1       1.505 -12.543  11.950  1.00  0.00     0.031 A 
ATOM     45  C   UNL     1       6.525  -7.982  10.511  1.00  0.00     0.031 A 
ATOM     46  C   UNL     1       1.967 -12.206  13.274  1.00  0.00     0.049 A 
ATOM     47  C   UNL     1       6.558  -9.181  11.380  1.00  0.00     0.074 A 
ATOM     48  C   UNL     1       1.401 -11.635  14.395  1.00  0.00     0.029 A 
ATOM     49  N   UNL     1       3.329 -12.097  13.431  1.00  0.00    -0.354 N 
ATOM     50  N   UNL     1       6.425  -9.130  12.675  1.00  0.00    -0.248 NA
ATOM     51  C   UNL     1       6.296 -10.476  10.776  1.00  0.00     0.031 C 
ATOM     52  C   UNL     1       2.426 -10.811  14.946  1.00  0.00     0.029 A 
ATOM     53  C   UNL     1       3.586 -10.987  14.188  1.00  0.00     0.049 A 
ATOM     54  H   UNL     1       4.003 -12.713  13.062  1.00  0.00     0.167 HD
ATOM     55  C   UNL     1       5.630 -10.222  12.986  1.00  0.00     0.074 A 
ATOM     56  C   UNL     1       5.679 -11.074  11.799  1.00  0.00     0.031 C 
ATOM     57  C   UNL     1       4.786 -10.187  14.060  1.00  0.00     0.031 A 
BRANCH  44  58
ATOM     58  C   UNL     1       1.952 -13.821  11.269  1.00  0.00    -0.014 A 
ATOM     59  C   UNL     1       2.453 -14.867  12.075  1.00  0.00     0.010 A 
ATOM     60  C   UNL     1       2.171 -13.931   9.881  1.00  0.00     0.010 A 
ATOM     61  C   UNL     1       3.213 -15.911  11.531  1.00  0.00     0.020 A 
ATOM     62  C   UNL     1       2.888 -14.992   9.323  1.00  0.00     0.020 A 
ATOM     63  C   UNL     1       3.436 -15.957  10.157  1.00  0.00     0.054 A 
BRANCH  63  64
ATOM     64  S   UNL     1       4.487 -17.261   9.475  1.00  0.00     0.124 S 
ATOM     65  O   UNL     1       5.790 -16.922  10.039  1.00  0.00    -0.237 OA
ATOM     66  O   UNL     1       3.861 -18.469  10.005  1.00  0.00    -0.237 OA
ATOM     67  O   UNL     1       4.361 -17.081   8.031  1.00  0.00    -0.744 OA
ENDBRANCH  63  64
ENDBRANCH  44  58
BRANCH  45  68
ATOM     68  C   UNL     1       7.642  -7.659   9.582  1.00  0.00    -0.014 A 
ATOM     69  C   UNL     1       8.946  -8.138   9.826  1.00  0.00     0.010 A 
ATOM     70  C   UNL     1       7.369  -7.144   8.300  1.00  0.00     0.010 A 
ATOM     71  C   UNL     1       9.911  -8.181   8.803  1.00  0.00     0.020 A 
ATOM     72  C   UNL     1       8.328  -7.176   7.277  1.00  0.00     0.020 A 
ATOM     73  C   UNL     1       9.585  -7.723   7.525  1.00  0.00     0.054 A 
BRANCH  73  74
ATOM     74  S   UNL     1      10.758  -7.976   6.156  1.00  0.00     0.124 S 
ATOM     75  O   UNL     1      11.818  -7.024   6.471  1.00  0.00    -0.237 OA
ATOM     76  O   UNL     1      11.113  -9.386   6.296  1.00  0.00    -0.237 OA
ATOM     77  O   UNL     1       9.971  -7.656   4.966  1.00  0.00    -0.744 OA
ENDBRANCH  73  74
ENDBRANCH  45  68
BRANCH  57  78
ATOM     78  C   UNL     1       4.990  -9.112  15.103  1.00  0.00    -0.014 A 
ATOM     79  C   UNL     1       4.943  -7.728  14.848  1.00  0.00     0.010 A 
ATOM     80  C   UNL     1       5.118  -9.542  16.436  1.00  0.00     0.010 A 
ATOM     81  C   UNL     1       5.062  -6.802  15.897  1.00  0.00     0.020 A 
ATOM     82  C   UNL     1       5.213  -8.629  17.485  1.00  0.00     0.020 A 
ATOM     83  C   UNL     1       5.202  -7.262  17.211  1.00  0.00     0.054 A 
BRANCH  83  84
ATOM     84  S   UNL     1       5.344  -6.069  18.570  1.00  0.00     0.124 S 
ATOM     85  O   UNL     1       6.651  -5.465  18.326  1.00  0.00    -0.237 OA
ATOM     86  O   UNL     1       4.194  -5.193  18.357  1.00  0.00    -0.237 OA
ATOM     87  O   UNL     1       5.263  -6.900  19.772  1.00  0.00    -0.744 OA
ENDBRANCH  83  84
ENDBRANCH  57  78
ENDBRANCH  31  32
ENDBRANCH  23  26
ENDBRANCH  21  22
ENDBRANCH   1  21
TORSDOF 15
