REMARK SMILES O=C(NCCCCNC(=O)[C@@H]1CN(c2nc(-c3ccccc3)no2)CC[NH2+]1)c1ccc(-c2c3nc(c(-c4ccc(S(=O)(=O)[O-])cc4)c4ccc([nH]4)c(-c4ccc(S(=O)(=O)[O-])cc4)c4nc(c(-c5ccc(S(=O)(=O)[O-])cc5)c5ccc2[nH]5)C=C4)C=C3)cc1
REMARK SMILES IDX 5 1 4 2 3 3 1 4 2 5 28 7 29 8 87 9 30 10 86 11 31 12 32 13
REMARK SMILES IDX 33 14 80 15 34 16 85 17 79 18 81 19 35 20 84 21 78 22 77 23
REMARK SMILES IDX 36 25 66 26 47 27 65 28 48 29 51 30 64 31 82 32 49 33 50 34
REMARK SMILES IDX 63 36 83 37 52 38 37 39 38 40 46 41 39 42 45 43 40 44 41 45
REMARK SMILES IDX 42 46 43 47 44 48 67 49 68 50 76 51 69 52 75 53 70 54 71 55
REMARK SMILES IDX 72 56 73 57 74 58 53 59 54 60 62 61 55 62 61 63 56 64 57 65
REMARK SMILES IDX 58 66 59 67 60 68 6 69 7 70 8 71 9 72 10 74 11 75 12 76
REMARK SMILES IDX 27 77 13 78 26 79 25 82 14 83 15 84 24 85 16 86 23 87 17 88
REMARK SMILES IDX 18 89 22 90 19 91 21 92 20 93
REMARK H PARENT 3 6 81 24 51 35 8 73 27 80 27 81
REMARK Flexibility Score: inf
ROOT
ATOM      1  C   UNL     1       4.743  -2.697   0.760  1.00  0.00     0.023 C 
ENDROOT
BRANCH   1   2
ATOM      2  C   UNL     1       4.474  -1.388   0.023  1.00  0.00     0.116 C 
BRANCH   2   3
ATOM      3  N   UNL     1       3.062  -1.168  -0.252  1.00  0.00    -0.352 N 
ATOM      4  O   UNL     1       1.110  -0.040  -0.283  1.00  0.00    -0.269 OA
ATOM      5  C   UNL     1       2.327  -0.015  -0.119  1.00  0.00     0.251 C 
ATOM      6  H   UNL     1       2.566  -1.953  -0.579  1.00  0.00     0.163 HD
BRANCH   5   7
ATOM      7  C   UNL     1       3.001   1.248   0.256  1.00  0.00     0.039 A 
ATOM      8  C   UNL     1       4.178   1.647  -0.383  1.00  0.00     0.014 A 
ATOM      9  C   UNL     1       2.450   2.036   1.270  1.00  0.00     0.014 A 
ATOM     10  C   UNL     1       4.874   2.758   0.084  1.00  0.00     0.010 A 
ATOM     11  C   UNL     1       3.115   3.191   1.691  1.00  0.00     0.010 A 
ATOM     12  C   UNL     1       4.351   3.541   1.127  1.00  0.00    -0.014 A 
BRANCH  12  13
ATOM     13  C   UNL     1       5.101   4.736   1.590  1.00  0.00     0.031 A 
ATOM     14  C   UNL     1       5.701   4.790   2.969  1.00  0.00     0.074 A 
ATOM     15  C   UNL     1       5.268   5.770   0.742  1.00  0.00     0.049 A 
ATOM     16  N   UNL     1       6.425   5.736   3.513  1.00  0.00    -0.248 NA
ATOM     17  C   UNL     1       5.454   3.640   3.852  1.00  0.00     0.031 C 
ATOM     18  C   UNL     1       4.732   5.836  -0.620  1.00  0.00     0.029 A 
ATOM     19  N   UNL     1       5.952   6.948   0.889  1.00  0.00    -0.354 N 
ATOM     20  C   UNL     1       6.699   5.309   4.808  1.00  0.00     0.074 A 
ATOM     21  C   UNL     1       6.047   4.027   4.973  1.00  0.00     0.031 C 
ATOM     22  C   UNL     1       5.154   6.969  -1.202  1.00  0.00     0.029 A 
ATOM     23  C   UNL     1       5.942   7.732  -0.240  1.00  0.00     0.049 A 
ATOM     24  H   UNL     1       6.408   7.208   1.722  1.00  0.00     0.167 HD
ATOM     25  C   UNL     1       7.428   5.926   5.770  1.00  0.00     0.031 A 
ATOM     26  C   UNL     1       6.502   8.932  -0.479  1.00  0.00     0.031 A 
ATOM     27  C   UNL     1       8.079   7.200   5.602  1.00  0.00     0.049 A 
ATOM     28  C   UNL     1       7.294   9.602   0.604  1.00  0.00     0.074 A 
ATOM     29  C   UNL     1       8.867   7.891   6.507  1.00  0.00     0.029 A 
ATOM     30  N   UNL     1       8.013   7.978   4.456  1.00  0.00    -0.354 N 
ATOM     31  N   UNL     1       7.564   9.168   1.812  1.00  0.00    -0.248 NA
ATOM     32  C   UNL     1       7.858  10.921   0.292  1.00  0.00     0.031 C 
ATOM     33  C   UNL     1       9.243   9.106   5.923  1.00  0.00     0.029 A 
ATOM     34  C   UNL     1       8.728   9.151   4.637  1.00  0.00     0.049 A 
ATOM     35  H   UNL     1       7.529   7.733   3.635  1.00  0.00     0.167 HD
ATOM     36  C   UNL     1       8.346  10.154   2.400  1.00  0.00     0.074 A 
ATOM     37  C   UNL     1       8.514  11.200   1.411  1.00  0.00     0.031 C 
ATOM     38  C   UNL     1       8.878  10.188   3.647  1.00  0.00     0.031 A 
BRANCH  25  39
ATOM     39  C   UNL     1       7.527   5.240   7.107  1.00  0.00    -0.014 A 
ATOM     40  C   UNL     1       8.310   4.085   7.281  1.00  0.00     0.010 A 
ATOM     41  C   UNL     1       6.834   5.769   8.212  1.00  0.00     0.010 A 
ATOM     42  C   UNL     1       8.354   3.439   8.521  1.00  0.00     0.020 A 
ATOM     43  C   UNL     1       6.894   5.140   9.459  1.00  0.00     0.020 A 
ATOM     44  C   UNL     1       7.635   3.965   9.599  1.00  0.00     0.054 A 
BRANCH  44  45
ATOM     45  S   UNL     1       7.694   3.102  11.194  1.00  0.00     0.124 S 
ATOM     46  O   UNL     1       6.788   1.980  10.960  1.00  0.00    -0.237 OA
ATOM     47  O   UNL     1       9.106   2.752  11.322  1.00  0.00    -0.237 OA
ATOM     48  O   UNL     1       7.215   4.102  12.146  1.00  0.00    -0.744 OA
ENDBRANCH  44  45
ENDBRANCH  25  39
BRANCH  26  49
ATOM     49  C   UNL     1       6.338   9.558  -1.817  1.00  0.00    -0.014 A 
ATOM     50  C   UNL     1       7.414   9.594  -2.720  1.00  0.00     0.010 A 
ATOM     51  C   UNL     1       5.087  10.063  -2.217  1.00  0.00     0.010 A 
ATOM     52  C   UNL     1       7.242  10.121  -4.003  1.00  0.00     0.020 A 
ATOM     53  C   UNL     1       4.905  10.568  -3.507  1.00  0.00     0.020 A 
ATOM     54  C   UNL     1       5.986  10.598  -4.390  1.00  0.00     0.054 A 
BRANCH  54  55
ATOM     55  S   UNL     1       5.760  11.193  -6.090  1.00  0.00     0.124 S 
ATOM     56  O   UNL     1       6.384  12.511  -6.035  1.00  0.00    -0.237 OA
ATOM     57  O   UNL     1       6.471  10.188  -6.875  1.00  0.00    -0.237 OA
ATOM     58  O   UNL     1       4.309  11.192  -6.260  1.00  0.00    -0.744 OA
ENDBRANCH  54  55
ENDBRANCH  26  49
BRANCH  38  59
ATOM     59  C   UNL     1       9.714  11.387   4.001  1.00  0.00    -0.014 A 
ATOM     60  C   UNL     1       9.121  12.632   4.272  1.00  0.00     0.010 A 
ATOM     61  C   UNL     1      11.111  11.254   4.096  1.00  0.00     0.010 A 
ATOM     62  C   UNL     1       9.915  13.735   4.598  1.00  0.00     0.020 A 
ATOM     63  C   UNL     1      11.906  12.349   4.444  1.00  0.00     0.020 A 
ATOM     64  C   UNL     1      11.304  13.587   4.678  1.00  0.00     0.054 A 
BRANCH  64  65
ATOM     65  S   UNL     1      12.315  15.023   5.135  1.00  0.00     0.124 S 
ATOM     66  O   UNL     1      12.349  15.779   3.886  1.00  0.00    -0.237 OA
ATOM     67  O   UNL     1      11.543  15.630   6.217  1.00  0.00    -0.237 OA
ATOM     68  O   UNL     1      13.587  14.432   5.542  1.00  0.00    -0.744 OA
ENDBRANCH  64  65
ENDBRANCH  38  59
ENDBRANCH  12  13
ENDBRANCH   5   7
ENDBRANCH   2   3
ENDBRANCH   1   2
BRANCH   1  69
ATOM     69  C   UNL     1       4.283  -3.967   0.037  1.00  0.00     0.023 C 
BRANCH  69  70
ATOM     70  C   UNL     1       4.842  -4.134  -1.375  1.00  0.00     0.116 C 
BRANCH  70  71
ATOM     71  N   UNL     1       6.285  -4.266  -1.362  1.00  0.00    -0.351 N 
ATOM     72  C   UNL     1       7.035  -5.401  -1.501  1.00  0.00     0.280 C 
ATOM     73  H   UNL     1       6.791  -3.431  -1.237  1.00  0.00     0.163 HD
ATOM     74  O   UNL     1       8.262  -5.300  -1.453  1.00  0.00    -0.268 OA
BRANCH  72  75
ATOM     75  C   UNL     1       6.332  -6.740  -1.792  1.00  0.00     0.292 C 
ATOM     76  C   UNL     1       7.274  -7.906  -1.399  1.00  0.00     0.197 C 
ATOM     77  N   UNL     1       5.962  -6.750  -3.247  1.00  0.00    -0.333 N 
ATOM     78  N   UNL     1       6.739  -9.191  -1.863  1.00  0.00    -0.312 N 
ATOM     79  C   UNL     1       5.424  -8.074  -3.614  1.00  0.00     0.283 C 
ATOM     80  H   UNL     1       6.790  -6.553  -3.809  1.00  0.00     0.347 HD
ATOM     81  H   UNL     1       5.253  -6.038  -3.421  1.00  0.00     0.347 HD
ATOM     82  C   UNL     1       6.375  -9.246  -3.277  1.00  0.00     0.183 C 
BRANCH  78  83
ATOM     83  C   UNL     1       6.218 -10.075  -0.988  1.00  0.00     0.324 A 
ATOM     84  N   UNL     1       5.883  -9.917   0.271  1.00  0.00    -0.171 NA
ATOM     85  O   UNL     1       5.980 -11.347  -1.439  1.00  0.00    -0.315 OA
ATOM     86  C   UNL     1       5.364 -11.148   0.599  1.00  0.00     0.204 A 
ATOM     87  N   UNL     1       5.417 -12.057  -0.385  1.00  0.00    -0.055 NA
BRANCH  86  88
ATOM     88  C   UNL     1       4.703 -11.415   1.859  1.00  0.00     0.023 A 
ATOM     89  C   UNL     1       5.425 -11.866   2.968  1.00  0.00     0.012 A 
ATOM     90  C   UNL     1       3.312 -11.272   1.946  1.00  0.00     0.012 A 
ATOM     91  C   UNL     1       4.754 -12.185   4.152  1.00  0.00     0.001 A 
ATOM     92  C   UNL     1       2.645 -11.591   3.130  1.00  0.00     0.001 A 
ATOM     93  C   UNL     1       3.367 -12.051   4.230  1.00  0.00     0.000 A 
ENDBRANCH  86  88
ENDBRANCH  78  83
ENDBRANCH  72  75
ENDBRANCH  70  71
ENDBRANCH  69  70
ENDBRANCH   1  69
TORSDOF 16
