REMARK SMILES Cc1ccccc1OCC(=O)N[C@@H](Cc1c[nH]c2ccccc12)C(=O)NCCCCNC(=O)c1ccc(-c2c3nc(c(-c4ccc(S(=O)(=O)[O-])cc4)c4ccc([nH]4)c(-c4ccc(S(=O)(=O)[O-])cc4)c4nc(c(-c5ccc(S(=O)(=O)[O-])cc5)c5ccc2[nH]5)C=C4)C=C3)cc1
REMARK SMILES IDX 28 1 27 2 26 3 24 4 25 5 13 7 12 8 10 9 11 10 9 12 8 13 7 14
REMARK SMILES IDX 1 15 2 16 3 17 4 18 6 19 5 20 14 21 15 22 16 23 23 24 17 25
REMARK SMILES IDX 18 26 22 27 19 29 21 30 20 31 29 32 30 33 31 34 32 35 33 37
REMARK SMILES IDX 34 38 35 39 93 40 36 41 92 42 37 43 38 44 39 45 86 46 40 47
REMARK SMILES IDX 91 48 85 49 87 50 41 51 90 52 84 53 83 54 42 56 72 57 53 58
REMARK SMILES IDX 71 59 54 60 57 61 70 62 88 63 55 64 56 65 69 67 89 68 58 69
REMARK SMILES IDX 43 70 44 71 52 72 45 73 51 74 46 75 47 76 48 77 49 78 50 79
REMARK SMILES IDX 73 80 74 81 82 82 75 83 81 84 76 85 77 86 78 87 79 88 80 89
REMARK SMILES IDX 59 90 60 91 68 92 61 93 67 94 62 95 63 96 64 97 65 98 66 99
REMARK H PARENT 26 6 12 11 17 28 31 36 87 55 57 66
REMARK Flexibility Score: inf
ROOT
ATOM      1  C   UNL     1       4.744   2.043   5.448  1.00  0.00     0.023 C 
ENDROOT
BRANCH   1   2
ATOM      2  C   UNL     1       3.388   2.741   5.320  1.00  0.00     0.116 C 
BRANCH   2   3
ATOM      3  N   UNL     1       3.383   3.945   4.498  1.00  0.00    -0.354 N 
ATOM      4  C   UNL     1       2.533   4.356   3.507  1.00  0.00     0.242 C 
ATOM      5  O   UNL     1       2.505   5.571   3.268  1.00  0.00    -0.273 OA
ATOM      6  H   UNL     1       4.118   4.572   4.689  1.00  0.00     0.163 HD
BRANCH   4   7
ATOM      7  C   UNL     1       1.590   3.409   2.717  1.00  0.00     0.175 C 
BRANCH   7   8
ATOM      8  N   UNL     1       2.273   2.159   2.379  1.00  0.00    -0.341 N 
ATOM      9  C   UNL     1       2.955   1.909   1.226  1.00  0.00     0.258 C 
ATOM     10  O   UNL     1       3.975   1.221   1.270  1.00  0.00    -0.271 OA
ATOM     11  H   UNL     1       2.237   1.435   3.044  1.00  0.00     0.164 HD
BRANCH   9  12
ATOM     12  C   UNL     1       2.433   2.481  -0.096  1.00  0.00     0.329 C 
BRANCH  12  13
ATOM     13  O   UNL     1       1.076   2.287  -0.448  1.00  0.00    -0.484 OA
BRANCH  13  14
ATOM     14  C   UNL     1       0.454   1.079  -0.299  1.00  0.00     0.122 A 
ATOM     15  C   UNL     1       2.409  -0.596  -0.622  1.00  0.00     0.048 C 
ATOM     16  C   UNL     1       0.981  -0.220  -0.353  1.00  0.00    -0.009 A 
ATOM     17  C   UNL     1       0.109  -1.311  -0.126  1.00  0.00     0.007 A 
ATOM     18  C   UNL     1      -1.256  -1.132   0.082  1.00  0.00     0.001 A 
ATOM     19  C   UNL     1      -0.932   1.239  -0.114  1.00  0.00     0.047 A 
ATOM     20  C   UNL     1      -1.783   0.150   0.074  1.00  0.00     0.004 A 
ENDBRANCH  13  14
ENDBRANCH  12  13
ENDBRANCH   9  12
ENDBRANCH   7   8
BRANCH   7  21
ATOM     21  C   UNL     1       0.180   3.259   3.320  1.00  0.00     0.072 C 
BRANCH  21  22
ATOM     22  C   UNL     1       0.122   2.591   4.652  1.00  0.00    -0.020 A 
ATOM     23  C   UNL     1       0.108   3.220   5.882  1.00  0.00     0.087 A 
ATOM     24  C   UNL     1       0.137   1.183   4.901  1.00  0.00     0.003 A 
ATOM     25  N   UNL     1       0.236   2.263   6.856  1.00  0.00    -0.361 N 
ATOM     26  C   UNL     1       0.322   1.019   6.272  1.00  0.00     0.046 A 
ATOM     27  C   UNL     1       0.112   0.035   4.080  1.00  0.00     0.010 A 
ATOM     28  H   UNL     1       0.262   2.438   7.824  1.00  0.00     0.166 HD
ATOM     29  C   UNL     1       0.580  -0.228   6.845  1.00  0.00     0.026 A 
ATOM     30  C   UNL     1       0.308  -1.226   4.653  1.00  0.00     0.001 A 
ATOM     31  C   UNL     1       0.563  -1.351   6.015  1.00  0.00     0.002 A 
ENDBRANCH  21  22
ENDBRANCH   7  21
ENDBRANCH   4   7
ENDBRANCH   2   3
ENDBRANCH   1   2
BRANCH   1  32
ATOM     32  C   UNL     1       5.842   2.832   6.161  1.00  0.00     0.023 C 
BRANCH  32  33
ATOM     33  C   UNL     1       5.509   3.271   7.582  1.00  0.00     0.116 C 
BRANCH  33  34
ATOM     34  N   UNL     1       5.917   2.367   8.640  1.00  0.00    -0.352 N 
ATOM     35  C   UNL     1       6.078   2.744   9.972  1.00  0.00     0.251 C 
ATOM     36  H   UNL     1       6.091   1.427   8.402  1.00  0.00     0.163 HD
ATOM     37  O   UNL     1       6.999   2.359  10.666  1.00  0.00    -0.269 OA
BRANCH  35  38
ATOM     38  C   UNL     1       4.962   3.527  10.562  1.00  0.00     0.039 A 
ATOM     39  C   UNL     1       4.188   2.937  11.569  1.00  0.00     0.014 A 
ATOM     40  C   UNL     1       4.568   4.728   9.980  1.00  0.00     0.014 A 
ATOM     41  C   UNL     1       2.932   3.467  11.870  1.00  0.00     0.010 A 
ATOM     42  C   UNL     1       3.288   5.186  10.198  1.00  0.00     0.010 A 
ATOM     43  C   UNL     1       2.454   4.535  11.114  1.00  0.00    -0.014 A 
BRANCH  43  44
ATOM     44  C   UNL     1       1.087   5.037  11.150  1.00  0.00     0.031 A 
ATOM     45  C   UNL     1       0.791   6.315  11.842  1.00  0.00     0.074 A 
ATOM     46  C   UNL     1       0.151   4.429  10.387  1.00  0.00     0.049 A 
ATOM     47  N   UNL     1      -0.387   6.700  12.208  1.00  0.00    -0.248 NA
ATOM     48  C   UNL     1       1.846   7.250  12.227  1.00  0.00     0.031 C 
ATOM     49  C   UNL     1      -1.124   4.992   9.954  1.00  0.00     0.029 A 
ATOM     50  N   UNL     1       0.073   3.079  10.016  1.00  0.00    -0.354 N 
ATOM     51  C   UNL     1      -0.285   8.017  12.609  1.00  0.00     0.074 A 
ATOM     52  C   UNL     1       1.132   8.286  12.674  1.00  0.00     0.031 C 
ATOM     53  C   UNL     1      -1.956   3.982   9.653  1.00  0.00     0.029 A 
ATOM     54  C   UNL     1      -1.294   2.751  10.059  1.00  0.00     0.049 A 
ATOM     55  H   UNL     1       0.820   2.484   9.776  1.00  0.00     0.167 HD
ATOM     56  C   UNL     1      -1.404   8.791  12.707  1.00  0.00     0.031 A 
ATOM     57  C   UNL     1      -1.840   1.817  10.892  1.00  0.00     0.031 A 
ATOM     58  C   UNL     1      -2.613   8.019  12.438  1.00  0.00     0.049 A 
ATOM     59  C   UNL     1      -2.935   2.377  11.765  1.00  0.00     0.074 A 
ATOM     60  C   UNL     1      -3.382   7.864  11.297  1.00  0.00     0.029 A 
ATOM     61  N   UNL     1      -3.010   7.025  13.326  1.00  0.00    -0.354 N 
ATOM     62  N   UNL     1      -3.061   3.643  12.049  1.00  0.00    -0.248 NA
ATOM     63  C   UNL     1      -3.935   1.545  12.425  1.00  0.00     0.031 C 
ATOM     64  C   UNL     1      -4.180   6.705  11.466  1.00  0.00     0.029 A 
ATOM     65  C   UNL     1      -3.921   6.180  12.721  1.00  0.00     0.049 A 
ATOM     66  H   UNL     1      -2.687   6.936  14.252  1.00  0.00     0.167 HD
ATOM     67  C   UNL     1      -4.106   3.805  12.917  1.00  0.00     0.074 A 
ATOM     68  C   UNL     1      -4.630   2.466  13.113  1.00  0.00     0.031 C 
ATOM     69  C   UNL     1      -4.449   5.023  13.426  1.00  0.00     0.031 A 
BRANCH  56  70
ATOM     70  C   UNL     1      -1.373  10.307  12.730  1.00  0.00    -0.014 A 
ATOM     71  C   UNL     1      -2.453  11.030  12.180  1.00  0.00     0.010 A 
ATOM     72  C   UNL     1      -0.297  11.078  13.210  1.00  0.00     0.010 A 
ATOM     73  C   UNL     1      -2.413  12.423  12.012  1.00  0.00     0.020 A 
ATOM     74  C   UNL     1      -0.225  12.468  13.015  1.00  0.00     0.020 A 
ATOM     75  C   UNL     1      -1.281  13.132  12.402  1.00  0.00     0.054 A 
BRANCH  75  76
ATOM     76  S   UNL     1      -1.204  14.916  12.089  1.00  0.00     0.124 S 
ATOM     77  O   UNL     1      -1.427  14.993  10.648  1.00  0.00    -0.237 OA
ATOM     78  O   UNL     1      -2.288  15.427  12.923  1.00  0.00    -0.237 OA
ATOM     79  O   UNL     1       0.141  15.286  12.524  1.00  0.00    -0.744 OA
ENDBRANCH  75  76
ENDBRANCH  56  70
BRANCH  57  80
ATOM     80  C   UNL     1      -0.913   0.744  11.344  1.00  0.00    -0.014 A 
ATOM     81  C   UNL     1      -0.598  -0.285  10.439  1.00  0.00     0.010 A 
ATOM     82  C   UNL     1      -0.062   0.981  12.440  1.00  0.00     0.010 A 
ATOM     83  C   UNL     1       0.641  -0.927  10.514  1.00  0.00     0.020 A 
ATOM     84  C   UNL     1       1.187   0.353  12.501  1.00  0.00     0.020 A 
ATOM     85  C   UNL     1       1.560  -0.525  11.483  1.00  0.00     0.054 A 
BRANCH  85  86
ATOM     86  S   UNL     1       3.305  -0.971  11.236  1.00  0.00     0.124 S 
ATOM     87  O   UNL     1       3.238  -2.413  11.029  1.00  0.00    -0.237 OA
ATOM     88  O   UNL     1       3.640  -0.178  10.052  1.00  0.00    -0.237 OA
ATOM     89  O   UNL     1       3.939  -0.537  12.476  1.00  0.00    -0.744 OA
ENDBRANCH  85  86
ENDBRANCH  57  80
BRANCH  69  90
ATOM     90  C   UNL     1      -5.395   5.227  14.578  1.00  0.00    -0.014 A 
ATOM     91  C   UNL     1      -5.615   4.262  15.576  1.00  0.00     0.010 A 
ATOM     92  C   UNL     1      -6.004   6.490  14.757  1.00  0.00     0.010 A 
ATOM     93  C   UNL     1      -6.471   4.512  16.654  1.00  0.00     0.020 A 
ATOM     94  C   UNL     1      -6.824   6.766  15.855  1.00  0.00     0.020 A 
ATOM     95  C   UNL     1      -7.078   5.760  16.782  1.00  0.00     0.054 A 
BRANCH  95  96
ATOM     96  S   UNL     1      -8.148   6.088  18.204  1.00  0.00     0.124 S 
ATOM     97  O   UNL     1      -9.447   5.635  17.712  1.00  0.00    -0.237 OA
ATOM     98  O   UNL     1      -7.557   5.266  19.258  1.00  0.00    -0.237 OA
ATOM     99  O   UNL     1      -8.019   7.529  18.403  1.00  0.00    -0.744 OA
ENDBRANCH  95  96
ENDBRANCH  69  90
ENDBRANCH  43  44
ENDBRANCH  35  38
ENDBRANCH  33  34
ENDBRANCH  32  33
ENDBRANCH   1  32
TORSDOF 20
