REMARK SMILES CC1CC[NH+]([C@H](c2ccc(F)cc2)c2ccc([C@@H](C)C(=O)NCCCCNC(=O)c3ccc(-c4c5nc(c(-c6ccc(S(=O)(=O)[O-])cc6)c6ccc([nH]6)c(-c6ccc(S(=O)(=O)[O-])cc6)c6nc(c(-c7ccc(S(=O)(=O)[O-])cc7)c7ccc4[nH]7)C=C6)C=C5)cc3)cc2-c2ccc(C(F)(F)F)cc2)CC1
REMARK SMILES IDX 24 1 23 2 22 3 20 4 21 5 18 7 19 8 17 9 14 10 15 11 91 12
REMARK SMILES IDX 16 13 90 14 6 15 5 16 1 17 2 18 3 19 103 20 4 21 102 22 7 24
REMARK SMILES IDX 8 25 13 26 9 27 12 28 10 29 11 30 92 31 93 32 101 33 94 34
REMARK SMILES IDX 100 35 95 36 96 37 97 38 98 39 99 40 25 41 26 42 27 43 28 44
REMARK SMILES IDX 29 46 30 47 31 48 89 49 32 50 88 51 33 52 34 53 35 54 82 55
REMARK SMILES IDX 36 56 87 57 81 58 83 59 37 60 86 61 80 62 79 63 38 65 68 66
REMARK SMILES IDX 49 67 67 68 50 69 53 70 66 71 84 72 51 73 52 74 65 76 85 77
REMARK SMILES IDX 54 78 39 79 40 80 48 81 41 82 47 83 42 84 43 85 44 86 45 87
REMARK SMILES IDX 46 88 69 89 70 90 78 91 71 92 77 93 72 94 73 95 74 96 75 97
REMARK SMILES IDX 76 98 55 99 56 100 64 101 57 102 63 103 58 104 59 105 60 106
REMARK SMILES IDX 61 107 62 108
REMARK H PARENT 22 6 5 23 27 45 83 64 53 75
REMARK Flexibility Score: inf
ROOT
ATOM      1  C   UNL     1       1.055   5.198  -3.782  1.00  0.00     0.023 C 
ENDROOT
BRANCH   1   2
ATOM      2  C   UNL     1       2.208   5.954  -4.453  1.00  0.00     0.116 C 
BRANCH   2   3
ATOM      3  N   UNL     1       3.265   6.287  -3.517  1.00  0.00    -0.356 N 
ATOM      4  C   UNL     1       4.435   5.673  -3.183  1.00  0.00     0.227 C 
ATOM      5  O   UNL     1       5.096   6.218  -2.289  1.00  0.00    -0.274 OA
ATOM      6  H   UNL     1       3.106   7.124  -3.025  1.00  0.00     0.163 HD
BRANCH   4   7
ATOM      7  C   UNL     1       4.974   4.387  -3.842  1.00  0.00     0.105 C 
ATOM      8  C   UNL     1       5.234   4.515  -5.341  1.00  0.00     0.023 C 
BRANCH   7   9
ATOM      9  C   UNL     1       4.227   3.136  -3.414  1.00  0.00    -0.035 A 
ATOM     10  C   UNL     1       2.611   1.053  -2.286  1.00  0.00     0.022 A 
ATOM     11  C   UNL     1       2.203   1.821  -3.388  1.00  0.00     0.011 A 
ATOM     12  C   UNL     1       3.960   1.228  -1.866  1.00  0.00    -0.009 A 
ATOM     13  C   UNL     1       3.025   2.770  -3.993  1.00  0.00     0.005 A 
ATOM     14  C   UNL     1       4.705   2.322  -2.379  1.00  0.00     0.013 A 
BRANCH  10  15
ATOM     15  C   UNL     1       1.643   0.026  -1.623  1.00  0.00     0.247 C 
BRANCH  15  16
ATOM     16  N   UNL     1       0.205   0.025  -2.055  1.00  0.00    -0.325 N 
ATOM     17  C   UNL     1      -3.321   1.347  -4.336  1.00  0.00     0.008 C 
ATOM     18  C   UNL     1      -1.939   1.130  -3.728  1.00  0.00    -0.003 C 
ATOM     19  C   UNL     1      -1.399  -0.268  -4.028  1.00  0.00     0.065 C 
ATOM     20  C   UNL     1      -1.979   1.282  -2.215  1.00  0.00     0.065 C 
ATOM     21  C   UNL     1      -0.022  -0.524  -3.395  1.00  0.00     0.263 C 
ATOM     22  C   UNL     1      -0.567   1.199  -1.643  1.00  0.00     0.263 C 
ATOM     23  H   UNL     1      -0.252  -0.684  -1.481  1.00  0.00     0.348 HD
ENDBRANCH  15  16
BRANCH  15  24
ATOM     24  C   UNL     1       1.722   0.001  -0.081  1.00  0.00     0.014 A 
ATOM     25  C   UNL     1       1.630   1.177   0.691  1.00  0.00     0.013 A 
ATOM     26  C   UNL     1       1.890  -1.226   0.589  1.00  0.00     0.013 A 
ATOM     27  C   UNL     1       1.699   1.126   2.085  1.00  0.00     0.040 A 
ATOM     28  C   UNL     1       1.989  -1.271   1.981  1.00  0.00     0.040 A 
ATOM     29  C   UNL     1       1.887  -0.097   2.715  1.00  0.00     0.123 A 
ATOM     30  F   UNL     1       1.974  -0.145   4.051  1.00  0.00    -0.207 F 
ENDBRANCH  15  24
ENDBRANCH  10  15
BRANCH  12  31
ATOM     31  C   UNL     1       4.669   0.285  -0.978  1.00  0.00    -0.018 A 
ATOM     32  C   UNL     1       5.225   0.693   0.244  1.00  0.00     0.009 A 
ATOM     33  C   UNL     1       4.859  -1.049  -1.377  1.00  0.00     0.009 A 
ATOM     34  C   UNL     1       5.922  -0.211   1.054  1.00  0.00     0.014 A 
ATOM     35  C   UNL     1       5.547  -1.957  -0.568  1.00  0.00     0.014 A 
ATOM     36  C   UNL     1       6.080  -1.548   0.661  1.00  0.00     0.056 A 
BRANCH  36  37
ATOM     37  C   UNL     1       6.838  -2.515   1.536  1.00  0.00     0.416 C 
ATOM     38  F   UNL     1       8.181  -2.285   1.524  1.00  0.00    -0.166 F 
ATOM     39  F   UNL     1       6.461  -2.458   2.843  1.00  0.00    -0.166 F 
ATOM     40  F   UNL     1       6.684  -3.818   1.164  1.00  0.00    -0.166 F 
ENDBRANCH  36  37
ENDBRANCH  12  31
ENDBRANCH   7   9
ENDBRANCH   4   7
ENDBRANCH   2   3
ENDBRANCH   1   2
BRANCH   1  41
ATOM     41  C   UNL     1      -0.101   6.056  -3.277  1.00  0.00     0.023 C 
BRANCH  41  42
ATOM     42  C   UNL     1      -0.853   6.831  -4.351  1.00  0.00     0.116 C 
BRANCH  42  43
ATOM     43  N   UNL     1      -1.414   6.000  -5.407  1.00  0.00    -0.352 N 
ATOM     44  C   UNL     1      -2.556   6.218  -6.149  1.00  0.00     0.251 C 
ATOM     45  H   UNL     1      -0.914   5.179  -5.617  1.00  0.00     0.163 HD
ATOM     46  O   UNL     1      -2.932   5.384  -6.958  1.00  0.00    -0.269 OA
BRANCH  44  47
ATOM     47  C   UNL     1      -3.345   7.449  -5.911  1.00  0.00     0.039 A 
ATOM     48  C   UNL     1      -4.721   7.334  -5.704  1.00  0.00     0.014 A 
ATOM     49  C   UNL     1      -2.723   8.697  -5.825  1.00  0.00     0.014 A 
ATOM     50  C   UNL     1      -5.457   8.459  -5.323  1.00  0.00     0.010 A 
ATOM     51  C   UNL     1      -3.441   9.798  -5.368  1.00  0.00     0.010 A 
ATOM     52  C   UNL     1      -4.814   9.689  -5.104  1.00  0.00    -0.014 A 
BRANCH  52  53
ATOM     53  C   UNL     1      -5.557  10.860  -4.572  1.00  0.00     0.031 A 
ATOM     54  C   UNL     1      -5.690  12.115  -5.392  1.00  0.00     0.074 A 
ATOM     55  C   UNL     1      -6.055  10.815  -3.319  1.00  0.00     0.049 A 
ATOM     56  N   UNL     1      -6.276  13.242  -5.080  1.00  0.00    -0.248 NA
ATOM     57  C   UNL     1      -5.060  12.117  -6.724  1.00  0.00     0.031 C 
ATOM     58  C   UNL     1      -5.933   9.682  -2.395  1.00  0.00     0.029 A 
ATOM     59  N   UNL     1      -6.760  11.748  -2.600  1.00  0.00    -0.354 N 
ATOM     60  C   UNL     1      -6.069  14.090  -6.162  1.00  0.00     0.074 A 
ATOM     61  C   UNL     1      -5.267  13.364  -7.122  1.00  0.00     0.031 C 
ATOM     62  C   UNL     1      -6.569   9.976  -1.249  1.00  0.00     0.029 A 
ATOM     63  C   UNL     1      -7.115  11.325  -1.340  1.00  0.00     0.049 A 
ATOM     64  H   UNL     1      -6.991  12.637  -2.954  1.00  0.00     0.167 HD
ATOM     65  C   UNL     1      -6.523  15.352  -6.349  1.00  0.00     0.031 A 
ATOM     66  C   UNL     1      -7.802  11.953  -0.366  1.00  0.00     0.031 A 
ATOM     67  C   UNL     1      -7.350  16.060  -5.409  1.00  0.00     0.049 A 
ATOM     68  C   UNL     1      -8.320  13.344  -0.615  1.00  0.00     0.074 A 
ATOM     69  C   UNL     1      -7.934  17.307  -5.549  1.00  0.00     0.029 A 
ATOM     70  N   UNL     1      -7.712  15.586  -4.158  1.00  0.00    -0.354 N 
ATOM     71  N   UNL     1      -8.194  14.090  -1.687  1.00  0.00    -0.248 NA
ATOM     72  C   UNL     1      -9.084  13.971   0.472  1.00  0.00     0.031 C 
ATOM     73  C   UNL     1      -8.611  17.608  -4.363  1.00  0.00     0.029 A 
ATOM     74  C   UNL     1      -8.491  16.527  -3.506  1.00  0.00     0.049 A 
ATOM     75  H   UNL     1      -7.454  14.711  -3.789  1.00  0.00     0.167 HD
ATOM     76  C   UNL     1      -8.885  15.265  -1.410  1.00  0.00     0.074 A 
ATOM     77  C   UNL     1      -9.444  15.121  -0.082  1.00  0.00     0.031 C 
ATOM     78  C   UNL     1      -9.040  16.366  -2.185  1.00  0.00     0.031 A 
BRANCH  65  79
ATOM     79  C   UNL     1      -6.148  16.053  -7.626  1.00  0.00    -0.014 A 
ATOM     80  C   UNL     1      -6.729  15.683  -8.853  1.00  0.00     0.010 A 
ATOM     81  C   UNL     1      -5.266  17.148  -7.588  1.00  0.00     0.010 A 
ATOM     82  C   UNL     1      -6.418  16.383 -10.021  1.00  0.00     0.020 A 
ATOM     83  C   UNL     1      -4.971  17.865  -8.751  1.00  0.00     0.020 A 
ATOM     84  C   UNL     1      -5.543  17.471  -9.963  1.00  0.00     0.054 A 
BRANCH  84  85
ATOM     85  S   UNL     1      -5.205  18.397 -11.485  1.00  0.00     0.124 S 
ATOM     86  O   UNL     1      -4.336  17.474 -12.212  1.00  0.00    -0.237 OA
ATOM     87  O   UNL     1      -6.539  18.581 -12.051  1.00  0.00    -0.237 OA
ATOM     88  O   UNL     1      -4.558  19.619 -11.012  1.00  0.00    -0.744 OA
ENDBRANCH  84  85
ENDBRANCH  65  79
BRANCH  66  89
ATOM     89  C   UNL     1      -8.058  11.275   0.934  1.00  0.00    -0.014 A 
ATOM     90  C   UNL     1      -9.358  10.868   1.283  1.00  0.00     0.010 A 
ATOM     91  C   UNL     1      -7.008  11.062   1.845  1.00  0.00     0.010 A 
ATOM     92  C   UNL     1      -9.611  10.296   2.534  1.00  0.00     0.020 A 
ATOM     93  C   UNL     1      -7.251  10.464   3.085  1.00  0.00     0.020 A 
ATOM     94  C   UNL     1      -8.556  10.104   3.429  1.00  0.00     0.054 A 
BRANCH  94  95
ATOM     95  S   UNL     1      -8.899   9.348   5.043  1.00  0.00     0.124 S 
ATOM     96  O   UNL     1      -9.492  10.461   5.777  1.00  0.00    -0.237 OA
ATOM     97  O   UNL     1      -9.810   8.260   4.697  1.00  0.00    -0.237 OA
ATOM     98  O   UNL     1      -7.580   8.922   5.505  1.00  0.00    -0.744 OA
ENDBRANCH  94  95
ENDBRANCH  66  89
BRANCH  78  99
ATOM     99  C   UNL     1      -9.872  17.488  -1.626  1.00  0.00    -0.014 A 
ATOM    100  C   UNL     1      -9.389  18.303  -0.587  1.00  0.00     0.010 A 
ATOM    101  C   UNL     1     -11.141  17.751  -2.174  1.00  0.00     0.010 A 
ATOM    102  C   UNL     1     -10.178  19.336  -0.077  1.00  0.00     0.020 A 
ATOM    103  C   UNL     1     -11.922  18.801  -1.685  1.00  0.00     0.020 A 
ATOM    104  C   UNL     1     -11.442  19.576  -0.626  1.00  0.00     0.054 A 
BRANCH 104 105
ATOM    105  S   UNL     1     -12.439  20.939   0.034  1.00  0.00     0.124 S 
ATOM    106  O   UNL     1     -12.930  20.376   1.289  1.00  0.00    -0.237 OA
ATOM    107  O   UNL     1     -11.462  22.017   0.169  1.00  0.00    -0.237 OA
ATOM    108  O   UNL     1     -13.455  21.153  -0.993  1.00  0.00    -0.744 OA
ENDBRANCH 104 105
ENDBRANCH  78  99
ENDBRANCH  52  53
ENDBRANCH  44  47
ENDBRANCH  42  43
ENDBRANCH  41  42
ENDBRANCH   1  41
TORSDOF 20
