REMARK SMILES Cc1cc(Nc2ccc(C(=O)NCCCCNC(=O)c3ccc(-c4c5nc(c(-c6ccc(S(=O)(=O)[O-])cc6)c6ccc([nH]6)c(-c6ccc(S(=O)(=O)[O-])cc6)c6nc(c(-c7ccc(S(=O)(=O)[O-])cc7)c7ccc4[nH]7)C=C6)C=C5)cc3)cc2)nc(-n2nc(C)cc2C)n1
REMARK SMILES IDX 14 1 13 2 12 3 10 4 11 5 9 7 6 8 7 9 81 10 8 11 80 12 5 13
REMARK SMILES IDX 4 15 1 16 2 17 3 18 91 19 83 20 82 21 84 22 85 23 89 24
REMARK SMILES IDX 86 25 88 26 90 27 87 28 15 29 16 30 17 31 18 32 19 34 20 35
REMARK SMILES IDX 21 36 79 37 22 38 78 39 23 40 24 41 25 42 72 43 26 44 77 45
REMARK SMILES IDX 71 46 73 47 27 48 76 49 70 50 69 51 28 53 58 54 39 55 57 56
REMARK SMILES IDX 40 57 43 58 56 59 74 60 41 61 42 62 55 64 75 65 44 66 29 67
REMARK SMILES IDX 30 68 38 69 31 70 37 71 32 72 33 73 34 74 35 75 36 76 59 77
REMARK SMILES IDX 60 78 68 79 61 80 67 81 62 82 63 83 64 84 65 85 66 86 45 87
REMARK SMILES IDX 46 88 54 89 47 90 53 91 48 92 49 93 50 94 51 95 52 96
REMARK H PARENT 12 6 5 14 17 33 73 52 43 63
REMARK Flexibility Score: inf
ROOT
ATOM      1  C   UNL     1       7.800  -1.029   3.441  1.00  0.00     0.023 C 
ENDROOT
BRANCH   1   2
ATOM      2  C   UNL     1       7.758  -0.504   2.004  1.00  0.00     0.116 C 
BRANCH   2   3
ATOM      3  N   UNL     1       8.200  -1.528   1.075  1.00  0.00    -0.352 N 
ATOM      4  C   UNL     1       7.509  -2.393   0.264  1.00  0.00     0.251 C 
ATOM      5  O   UNL     1       8.160  -3.154  -0.453  1.00  0.00    -0.269 OA
ATOM      6  H   UNL     1       9.178  -1.619   1.015  1.00  0.00     0.163 HD
BRANCH   4   7
ATOM      7  C   UNL     1       6.022  -2.417   0.171  1.00  0.00     0.039 A 
ATOM      8  C   UNL     1       3.222  -2.412  -0.209  1.00  0.00     0.040 A 
ATOM      9  C   UNL     1       4.072  -2.812  -1.241  1.00  0.00     0.027 A 
ATOM     10  C   UNL     1       3.783  -2.054   1.020  1.00  0.00     0.027 A 
ATOM     11  C   UNL     1       5.461  -2.805  -1.056  1.00  0.00     0.016 A 
ATOM     12  C   UNL     1       5.164  -2.102   1.223  1.00  0.00     0.016 A 
BRANCH   8  13
ATOM     13  N   UNL     1       1.838  -2.313  -0.407  1.00  0.00    -0.340 N 
ATOM     14  H   UNL     1       1.359  -3.138  -0.650  1.00  0.00     0.168 HD
BRANCH  13  15
ATOM     15  C   UNL     1       1.073  -1.138  -0.289  1.00  0.00     0.136 A 
ATOM     16  C   UNL     1      -2.487  -0.098   0.251  1.00  0.00     0.067 C 
ATOM     17  C   UNL     1      -0.992  -0.090   0.154  1.00  0.00     0.045 A 
ATOM     18  C   UNL     1      -0.294  -1.247  -0.131  1.00  0.00     0.070 A 
ATOM     19  N   UNL     1      -0.382   1.102   0.295  1.00  0.00    -0.216 NA
ATOM     20  C   UNL     1       0.947   1.141   0.046  1.00  0.00     0.252 A 
ATOM     21  N   UNL     1       1.688   0.055  -0.250  1.00  0.00    -0.194 NA
BRANCH  20  22
ATOM     22  N   UNL     1       1.597   2.425   0.065  1.00  0.00    -0.203 N 
ATOM     23  N   UNL     1       2.633   2.712  -0.779  1.00  0.00    -0.170 NA
ATOM     24  C   UNL     1       1.264   3.531   0.840  1.00  0.00     0.045 A 
ATOM     25  C   UNL     1       2.820   4.030  -0.657  1.00  0.00     0.060 A 
ATOM     26  C   UNL     1       2.019   4.580   0.361  1.00  0.00     0.049 A 
ATOM     27  C   UNL     1       0.330   3.474   1.991  1.00  0.00     0.067 C 
ATOM     28  C   UNL     1       3.787   4.733  -1.536  1.00  0.00     0.069 C 
ENDBRANCH  20  22
ENDBRANCH  13  15
ENDBRANCH   8  13
ENDBRANCH   4   7
ENDBRANCH   2   3
ENDBRANCH   1   2
BRANCH   1  29
ATOM     29  C   UNL     1       9.208  -1.097   4.042  1.00  0.00     0.023 C 
BRANCH  29  30
ATOM     30  C   UNL     1       9.891   0.253   4.235  1.00  0.00     0.116 C 
BRANCH  30  31
ATOM     31  N   UNL     1       9.151   1.147   5.112  1.00  0.00    -0.352 N 
ATOM     32  C   UNL     1       9.638   2.094   5.983  1.00  0.00     0.251 C 
ATOM     33  H   UNL     1       8.170   1.063   5.077  1.00  0.00     0.163 HD
ATOM     34  O   UNL     1       8.879   2.687   6.735  1.00  0.00    -0.269 OA
BRANCH  32  35
ATOM     35  C   UNL     1      11.093   2.354   6.028  1.00  0.00     0.039 A 
ATOM     36  C   UNL     1      11.734   2.365   7.269  1.00  0.00     0.014 A 
ATOM     37  C   UNL     1      11.823   2.560   4.854  1.00  0.00     0.014 A 
ATOM     38  C   UNL     1      13.121   2.516   7.329  1.00  0.00     0.010 A 
ATOM     39  C   UNL     1      13.211   2.649   4.911  1.00  0.00     0.010 A 
ATOM     40  C   UNL     1      13.873   2.624   6.148  1.00  0.00    -0.014 A 
BRANCH  40  41
ATOM     41  C   UNL     1      15.355   2.700   6.186  1.00  0.00     0.031 A 
ATOM     42  C   UNL     1      16.061   3.941   5.716  1.00  0.00     0.074 A 
ATOM     43  C   UNL     1      16.066   1.624   6.579  1.00  0.00     0.049 A 
ATOM     44  N   UNL     1      17.345   4.169   5.612  1.00  0.00    -0.248 NA
ATOM     45  C   UNL     1      15.213   5.065   5.285  1.00  0.00     0.031 C 
ATOM     46  C   UNL     1      15.499   0.345   7.013  1.00  0.00     0.029 A 
ATOM     47  N   UNL     1      17.422   1.432   6.667  1.00  0.00    -0.354 N 
ATOM     48  C   UNL     1      17.460   5.454   5.093  1.00  0.00     0.074 A 
ATOM     49  C   UNL     1      16.116   5.936   4.858  1.00  0.00     0.031 C 
ATOM     50  C   UNL     1      16.498  -0.492   7.337  1.00  0.00     0.029 A 
ATOM     51  C   UNL     1      17.774   0.176   7.101  1.00  0.00     0.049 A 
ATOM     52  H   UNL     1      18.081   2.128   6.441  1.00  0.00     0.167 HD
ATOM     53  C   UNL     1      18.581   6.175   4.853  1.00  0.00     0.031 A 
ATOM     54  C   UNL     1      18.988  -0.381   7.283  1.00  0.00     0.031 A 
ATOM     55  C   UNL     1      19.916   5.695   5.093  1.00  0.00     0.049 A 
ATOM     56  C   UNL     1      20.218   0.440   7.012  1.00  0.00     0.074 A 
ATOM     57  C   UNL     1      21.115   6.365   4.921  1.00  0.00     0.029 A 
ATOM     58  N   UNL     1      20.229   4.427   5.559  1.00  0.00    -0.354 N 
ATOM     59  N   UNL     1      20.305   1.674   6.576  1.00  0.00    -0.248 NA
ATOM     60  C   UNL     1      21.514  -0.202   7.271  1.00  0.00     0.031 C 
ATOM     61  C   UNL     1      22.156   5.488   5.247  1.00  0.00     0.029 A 
ATOM     62  C   UNL     1      21.602   4.289   5.669  1.00  0.00     0.049 A 
ATOM     63  H   UNL     1      19.572   3.728   5.780  1.00  0.00     0.167 HD
ATOM     64  C   UNL     1      21.664   1.964   6.530  1.00  0.00     0.074 A 
ATOM     65  C   UNL     1      22.360   0.783   6.998  1.00  0.00     0.031 C 
ATOM     66  C   UNL     1      22.279   3.106   6.137  1.00  0.00     0.031 A 
BRANCH  53  67
ATOM     67  C   UNL     1      18.404   7.564   4.301  1.00  0.00    -0.014 A 
ATOM     68  C   UNL     1      17.881   8.597   5.102  1.00  0.00     0.010 A 
ATOM     69  C   UNL     1      18.789   7.852   2.980  1.00  0.00     0.010 A 
ATOM     70  C   UNL     1      17.703   9.879   4.577  1.00  0.00     0.020 A 
ATOM     71  C   UNL     1      18.639   9.141   2.459  1.00  0.00     0.020 A 
ATOM     72  C   UNL     1      18.079  10.142   3.256  1.00  0.00     0.054 A 
BRANCH  72  73
ATOM     73  S   UNL     1      17.850  11.819   2.605  1.00  0.00     0.124 S 
ATOM     74  O   UNL     1      16.404  11.868   2.402  1.00  0.00    -0.237 OA
ATOM     75  O   UNL     1      18.360  12.657   3.688  1.00  0.00    -0.237 OA
ATOM     76  O   UNL     1      18.651  11.829   1.384  1.00  0.00    -0.744 OA
ENDBRANCH  72  73
ENDBRANCH  53  67
BRANCH  54  77
ATOM     77  C   UNL     1      19.095  -1.786   7.758  1.00  0.00    -0.014 A 
ATOM     78  C   UNL     1      19.523  -2.066   9.068  1.00  0.00     0.010 A 
ATOM     79  C   UNL     1      18.754  -2.853   6.907  1.00  0.00     0.010 A 
ATOM     80  C   UNL     1      19.625  -3.388   9.512  1.00  0.00     0.020 A 
ATOM     81  C   UNL     1      18.831  -4.174   7.356  1.00  0.00     0.020 A 
ATOM     82  C   UNL     1      19.278  -4.434   8.652  1.00  0.00     0.054 A 
BRANCH  82  83
ATOM     83  S   UNL     1      19.368  -6.140   9.266  1.00  0.00     0.124 S 
ATOM     84  O   UNL     1      20.805  -6.394   9.243  1.00  0.00    -0.237 OA
ATOM     85  O   UNL     1      18.765  -6.032  10.592  1.00  0.00    -0.237 OA
ATOM     86  O   UNL     1      18.581  -6.893   8.292  1.00  0.00    -0.744 OA
ENDBRANCH  82  83
ENDBRANCH  54  77
BRANCH  66  87
ATOM     87  C   UNL     1      23.781   3.147   6.223  1.00  0.00    -0.014 A 
ATOM     88  C   UNL     1      24.582   2.445   5.307  1.00  0.00     0.010 A 
ATOM     89  C   UNL     1      24.397   3.946   7.204  1.00  0.00     0.010 A 
ATOM     90  C   UNL     1      25.975   2.518   5.388  1.00  0.00     0.020 A 
ATOM     91  C   UNL     1      25.789   4.041   7.272  1.00  0.00     0.020 A 
ATOM     92  C   UNL     1      26.570   3.315   6.371  1.00  0.00     0.054 A 
BRANCH  92  93
ATOM     93  S   UNL     1      28.379   3.431   6.427  1.00  0.00     0.124 S 
ATOM     94  O   UNL     1      28.747   2.147   7.017  1.00  0.00    -0.237 OA
ATOM     95  O   UNL     1      28.735   3.601   5.021  1.00  0.00    -0.237 OA
ATOM     96  O   UNL     1      28.625   4.598   7.271  1.00  0.00    -0.744 OA
ENDBRANCH  92  93
ENDBRANCH  66  87
ENDBRANCH  40  41
ENDBRANCH  32  35
ENDBRANCH  30  31
ENDBRANCH  29  30
ENDBRANCH   1  29
TORSDOF 17
