REMARK SMILES C[C@H]1CCC[C@H](C)N1C(=O)[C@H]1[C@@H](C(=O)NCCCCNC(=O)c2ccc(-c3c4nc(c(-c5ccc(S(=O)(=O)[O-])cc5)c5ccc([nH]5)c(-c5ccc(S(=O)(=O)[O-])cc5)c5nc(c(-c6ccc(S(=O)(=O)[O-])cc6)c6ccc3[nH]6)C=C5)C=C4)cc2)[C@H]2CC[C@@H]1O2
REMARK SMILES IDX 18 1 17 2 16 3 15 4 13 5 14 6 12 8 11 9 86 10 83 11 85 12
REMARK SMILES IDX 87 13 84 14 9 15 1 16 2 17 3 18 8 19 4 20 6 21 5 22 7 23
REMARK SMILES IDX 10 24 19 25 20 26 21 27 22 29 23 30 24 31 82 32 25 33 81 34
REMARK SMILES IDX 26 35 27 36 28 37 75 38 29 39 80 40 74 41 76 42 30 43 79 44
REMARK SMILES IDX 73 45 72 46 31 48 61 49 42 50 60 51 43 52 46 53 59 54 77 55
REMARK SMILES IDX 44 56 45 57 58 59 78 60 47 61 32 62 33 63 41 64 34 65 40 66
REMARK SMILES IDX 35 67 36 68 37 69 38 70 39 71 62 72 63 73 71 74 64 75 70 76
REMARK SMILES IDX 65 77 66 78 67 79 68 80 69 81 48 82 49 83 57 84 50 85 56 86
REMARK SMILES IDX 51 87 52 88 53 89 54 90 55 91
REMARK H PARENT 15 7 20 28 76 47 46 58
REMARK Flexibility Score: inf
ROOT
ATOM      1  C   UNL     1       8.353   2.050   5.209  1.00  0.00     0.023 C 
ENDROOT
BRANCH   1   2
ATOM      2  C   UNL     1       6.944   1.771   5.735  1.00  0.00     0.023 C 
BRANCH   2   3
ATOM      3  C   UNL     1       5.817   2.200   4.801  1.00  0.00     0.116 C 
BRANCH   3   4
ATOM      4  N   UNL     1       5.872   1.506   3.532  1.00  0.00    -0.356 N 
ATOM      5  C   UNL     1       4.979   0.812   2.802  1.00  0.00     0.226 C 
ATOM      6  O   UNL     1       5.364   0.493   1.669  1.00  0.00    -0.275 OA
ATOM      7  H   UNL     1       6.760   1.552   3.109  1.00  0.00     0.163 HD
BRANCH   5   8
ATOM      8  C   UNL     1       3.582   0.407   3.225  1.00  0.00     0.122 C 
ATOM      9  C   UNL     1       2.488   1.443   3.511  1.00  0.00     0.122 C 
ATOM     10  C   UNL     1       1.837   0.829   4.771  1.00  0.00     0.132 C 
ATOM     11  C   UNL     1       3.385  -0.645   4.319  1.00  0.00     0.132 C 
ATOM     12  C   UNL     1       2.671   0.811   6.051  1.00  0.00     0.035 C 
ATOM     13  O   UNL     1       1.925  -0.594   4.426  1.00  0.00    -0.373 OA
ATOM     14  C   UNL     1       3.725  -0.251   5.745  1.00  0.00     0.035 C 
BRANCH   9  15
ATOM     15  C   UNL     1       2.873   2.911   3.568  1.00  0.00     0.229 C 
ATOM     16  C   UNL     1       2.241   2.157   0.535  1.00  0.00     0.031 C 
ATOM     17  C   UNL     1       3.055   3.367   0.984  1.00  0.00     0.082 C 
ATOM     18  C   UNL     1       2.337   4.605   0.384  1.00  0.00     0.025 C 
ATOM     19  N   UNL     1       3.337   3.593   2.437  1.00  0.00    -0.337 N 
ATOM     20  C   UNL     1       3.021   5.932   0.688  1.00  0.00     0.004 C 
ATOM     21  C   UNL     1       4.081   4.856   2.706  1.00  0.00     0.082 C 
ATOM     22  C   UNL     1       3.297   6.062   2.179  1.00  0.00     0.025 C 
ATOM     23  C   UNL     1       5.510   4.833   2.142  1.00  0.00     0.031 C 
ATOM     24  O   UNL     1       2.808   3.483   4.662  1.00  0.00    -0.274 OA
ENDBRANCH   9  15
ENDBRANCH   5   8
ENDBRANCH   3   4
ENDBRANCH   2   3
ENDBRANCH   1   2
BRANCH   1  25
ATOM     25  C   UNL     1       8.602   3.475   4.731  1.00  0.00     0.116 C 
BRANCH  25  26
ATOM     26  N   UNL     1       8.360   4.474   5.760  1.00  0.00    -0.352 N 
ATOM     27  C   UNL     1       9.172   5.522   6.133  1.00  0.00     0.251 C 
ATOM     28  H   UNL     1       7.510   4.391   6.250  1.00  0.00     0.163 HD
ATOM     29  O   UNL     1       8.892   6.225   7.092  1.00  0.00    -0.269 OA
BRANCH  27  30
ATOM     30  C   UNL     1      10.410   5.752   5.363  1.00  0.00     0.039 A 
ATOM     31  C   UNL     1      11.637   5.728   6.028  1.00  0.00     0.014 A 
ATOM     32  C   UNL     1      10.350   5.895   3.974  1.00  0.00     0.014 A 
ATOM     33  C   UNL     1      12.820   5.774   5.286  1.00  0.00     0.010 A 
ATOM     34  C   UNL     1      11.528   5.873   3.236  1.00  0.00     0.010 A 
ATOM     35  C   UNL     1      12.774   5.807   3.883  1.00  0.00    -0.014 A 
BRANCH  35  36
ATOM     36  C   UNL     1      14.008   5.786   3.058  1.00  0.00     0.031 A 
ATOM     37  C   UNL     1      14.326   6.966   2.179  1.00  0.00     0.074 A 
ATOM     38  C   UNL     1      14.782   4.683   3.021  1.00  0.00     0.049 A 
ATOM     39  N   UNL     1      15.255   7.088   1.268  1.00  0.00    -0.248 NA
ATOM     40  C   UNL     1      13.464   8.152   2.323  1.00  0.00     0.031 C 
ATOM     41  C   UNL     1      14.567   3.463   3.804  1.00  0.00     0.029 A 
ATOM     42  N   UNL     1      15.901   4.401   2.275  1.00  0.00    -0.354 N 
ATOM     43  C   UNL     1      15.066   8.345   0.705  1.00  0.00     0.074 A 
ATOM     44  C   UNL     1      13.917   8.935   1.354  1.00  0.00     0.031 C 
ATOM     45  C   UNL     1      15.527   2.571   3.506  1.00  0.00     0.029 A 
ATOM     46  C   UNL     1      16.399   3.134   2.479  1.00  0.00     0.049 A 
ATOM     47  H   UNL     1      16.308   5.045   1.653  1.00  0.00     0.167 HD
ATOM     48  C   UNL     1      15.792   8.956  -0.260  1.00  0.00     0.031 A 
ATOM     49  C   UNL     1      17.429   2.493   1.892  1.00  0.00     0.031 A 
ATOM     50  C   UNL     1      16.960   8.384  -0.871  1.00  0.00     0.049 A 
ATOM     51  C   UNL     1      18.227   3.203   0.830  1.00  0.00     0.074 A 
ATOM     52  C   UNL     1      17.804   8.956  -1.807  1.00  0.00     0.029 A 
ATOM     53  N   UNL     1      17.456   7.119  -0.601  1.00  0.00    -0.354 N 
ATOM     54  N   UNL     1      18.066   4.413   0.351  1.00  0.00    -0.248 NA
ATOM     55  C   UNL     1      19.351   2.465   0.233  1.00  0.00     0.031 C 
ATOM     56  C   UNL     1      18.788   8.020  -2.134  1.00  0.00     0.029 A 
ATOM     57  C   UNL     1      18.587   6.887  -1.363  1.00  0.00     0.049 A 
ATOM     58  H   UNL     1      17.062   6.481   0.036  1.00  0.00     0.167 HD
ATOM     59  C   UNL     1      19.093   4.595  -0.569  1.00  0.00     0.074 A 
ATOM     60  C   UNL     1      19.870   3.374  -0.581  1.00  0.00     0.031 C 
ATOM     61  C   UNL     1      19.370   5.679  -1.333  1.00  0.00     0.031 A 
BRANCH  48  62
ATOM     62  C   UNL     1      15.349  10.318  -0.719  1.00  0.00    -0.014 A 
ATOM     63  C   UNL     1      15.520  11.450   0.097  1.00  0.00     0.010 A 
ATOM     64  C   UNL     1      14.825  10.476  -2.015  1.00  0.00     0.010 A 
ATOM     65  C   UNL     1      15.152  12.715  -0.368  1.00  0.00     0.020 A 
ATOM     66  C   UNL     1      14.481  11.743  -2.492  1.00  0.00     0.020 A 
ATOM     67  C   UNL     1      14.637  12.854  -1.660  1.00  0.00     0.054 A 
BRANCH  67  68
ATOM     68  S   UNL     1      14.221  14.516  -2.256  1.00  0.00     0.124 S 
ATOM     69  O   UNL     1      12.994  14.801  -1.518  1.00  0.00    -0.237 OA
ATOM     70  O   UNL     1      15.388  15.300  -1.861  1.00  0.00    -0.237 OA
ATOM     71  O   UNL     1      14.053  14.336  -3.696  1.00  0.00    -0.744 OA
ENDBRANCH  67  68
ENDBRANCH  48  62
BRANCH  49  72
ATOM     72  C   UNL     1      17.777   1.099   2.287  1.00  0.00    -0.014 A 
ATOM     73  C   UNL     1      18.971   0.832   2.980  1.00  0.00     0.010 A 
ATOM     74  C   UNL     1      16.935   0.027   1.939  1.00  0.00     0.010 A 
ATOM     75  C   UNL     1      19.337  -0.483   3.283  1.00  0.00     0.020 A 
ATOM     76  C   UNL     1      17.284  -1.287   2.266  1.00  0.00     0.020 A 
ATOM     77  C   UNL     1      18.494  -1.535   2.918  1.00  0.00     0.054 A 
BRANCH  77  78
ATOM     78  S   UNL     1      18.984  -3.234   3.326  1.00  0.00     0.124 S 
ATOM     79  O   UNL     1      20.009  -3.502   2.322  1.00  0.00    -0.237 OA
ATOM     80  O   UNL     1      19.460  -3.106   4.701  1.00  0.00    -0.237 OA
ATOM     81  O   UNL     1      17.743  -3.991   3.173  1.00  0.00    -0.744 OA
ENDBRANCH  77  78
ENDBRANCH  49  72
BRANCH  61  82
ATOM     82  C   UNL     1      20.602   5.639  -2.194  1.00  0.00    -0.014 A 
ATOM     83  C   UNL     1      20.637   4.897  -3.387  1.00  0.00     0.010 A 
ATOM     84  C   UNL     1      21.704   6.443  -1.849  1.00  0.00     0.010 A 
ATOM     85  C   UNL     1      21.761   4.954  -4.217  1.00  0.00     0.020 A 
ATOM     86  C   UNL     1      22.818   6.521  -2.688  1.00  0.00     0.020 A 
ATOM     87  C   UNL     1      22.841   5.770  -3.864  1.00  0.00     0.054 A 
BRANCH  87  88
ATOM     88  S   UNL     1      24.251   5.893  -4.999  1.00  0.00     0.124 S 
ATOM     89  O   UNL     1      24.925   4.615  -4.786  1.00  0.00    -0.237 OA
ATOM     90  O   UNL     1      23.604   6.053  -6.299  1.00  0.00    -0.237 OA
ATOM     91  O   UNL     1      24.978   7.068  -4.523  1.00  0.00    -0.744 OA
ENDBRANCH  87  88
ENDBRANCH  61  82
ENDBRANCH  35  36
ENDBRANCH  27  30
ENDBRANCH  25  26
ENDBRANCH   1  25
TORSDOF 15
