REMARK SMILES C[C@@]12CC[C@@H]3c4ccc(O)cc4/C(=N\OCC(=O)NCCCCNC(=O)c4ccc(-c5c6nc(c(-c7ccc(S(=O)(=O)[O-])cc7)c7ccc([nH]7)c(-c7ccc(S(=O)(=O)[O-])cc7)c7nc(c(-c8ccc(S(=O)(=O)[O-])cc8)c8ccc5[nH]8)C=C7)C=C6)cc4)C[C@H]3[C@@H]1C[C@H](O)[C@@H]2O
REMARK SMILES IDX 21 1 20 2 19 3 17 4 18 5 16 7 15 8 14 9 1 10 2 11 3 12 89 13
REMARK SMILES IDX 93 14 4 15 88 16 90 17 91 18 5 19 87 20 6 21 13 22 7 23
REMARK SMILES IDX 12 24 8 25 11 26 9 27 94 28 92 30 10 32 22 34 23 35 24 36
REMARK SMILES IDX 25 37 26 39 27 40 28 41 86 42 29 43 85 44 30 45 31 46 32 47
REMARK SMILES IDX 79 48 33 49 84 50 78 51 80 52 34 53 83 54 77 55 76 56 35 58
REMARK SMILES IDX 65 59 46 60 64 61 47 62 50 63 63 64 81 65 48 66 49 67 62 69
REMARK SMILES IDX 82 70 51 71 36 72 37 73 45 74 38 75 44 76 39 77 40 78 41 79
REMARK SMILES IDX 42 80 43 81 66 82 67 83 75 84 68 85 74 86 69 87 70 88 71 89
REMARK SMILES IDX 72 90 73 91 52 92 53 93 61 94 54 95 60 96 55 97 56 98 57 99
REMARK SMILES IDX 58 100 59 101
REMARK H PARENT 19 6 94 29 92 31 10 33 24 38 80 57 50 68
REMARK Flexibility Score: inf
ROOT
ATOM      1  C   UNL     1      -2.177  -5.228   3.661  1.00  0.00     0.023 C 
ENDROOT
BRANCH   1   2
ATOM      2  C   UNL     1      -3.283  -6.259   3.876  1.00  0.00     0.116 C 
BRANCH   2   3
ATOM      3  N   UNL     1      -4.536  -5.639   4.261  1.00  0.00    -0.353 N 
ATOM      4  C   UNL     1      -5.629  -5.331   3.504  1.00  0.00     0.260 C 
ATOM      5  O   UNL     1      -6.583  -4.790   4.073  1.00  0.00    -0.271 OA
ATOM      6  H   UNL     1      -4.610  -5.406   5.214  1.00  0.00     0.163 HD
BRANCH   4   7
ATOM      7  C   UNL     1      -5.741  -5.775   2.045  1.00  0.00     0.363 C 
BRANCH   7   8
ATOM      8  O   UNL     1      -4.606  -5.702   1.215  1.00  0.00    -0.385 OA
BRANCH   8   9
ATOM      9  N   UNL     1      -4.315  -4.388   0.805  1.00  0.00    -0.090 NA
ATOM     10  C   UNL     1       1.743  -0.281   0.410  1.00  0.00     0.014 C 
ATOM     11  C   UNL     1       1.232  -1.637  -0.147  1.00  0.00    -0.001 C 
ATOM     12  C   UNL     1       1.756  -2.716   0.805  1.00  0.00     0.010 C 
ATOM     13  C   UNL     1      -0.316  -1.633  -0.272  1.00  0.00     0.004 C 
ATOM     14  C   UNL     1       1.687  -1.775  -1.616  1.00  0.00     0.149 C 
ATOM     15  C   UNL     1       1.174  -4.096   0.596  1.00  0.00     0.009 C 
ATOM     16  C   UNL     1      -0.985  -3.043  -0.333  1.00  0.00     0.006 C 
ATOM     17  C   UNL     1      -0.571  -0.832  -1.582  1.00  0.00     0.039 C 
ATOM     18  C   UNL     1       0.755  -0.810  -2.365  1.00  0.00     0.144 C 
ATOM     19  C   UNL     1      -0.354  -4.094   0.623  1.00  0.00     0.024 C 
ATOM     20  C   UNL     1      -2.511  -2.968  -0.038  1.00  0.00     0.065 C 
ATOM     21  C   UNL     1      -0.942  -5.457   0.269  1.00  0.00    -0.035 A 
ATOM     22  C   UNL     1      -3.142  -4.337   0.226  1.00  0.00     0.088 C 
ATOM     23  C   UNL     1      -0.203  -6.650   0.263  1.00  0.00     0.008 A 
ATOM     24  C   UNL     1      -2.300  -5.530  -0.069  1.00  0.00     0.006 A 
ATOM     25  C   UNL     1      -0.785  -7.853  -0.145  1.00  0.00     0.046 A 
ATOM     26  C   UNL     1      -2.866  -6.716  -0.557  1.00  0.00     0.056 A 
ATOM     27  C   UNL     1      -2.102  -7.872  -0.578  1.00  0.00     0.116 A 
BRANCH  14  28
ATOM     28  O   UNL     1       1.509  -3.090  -2.146  1.00  0.00    -0.390 OA
ATOM     29  H   UNL     1       0.573  -3.337  -2.088  1.00  0.00     0.211 HD
ENDBRANCH  14  28
BRANCH  18  30
ATOM     30  O   UNL     1       0.566  -1.253  -3.707  1.00  0.00    -0.390 OA
ATOM     31  H   UNL     1       0.201  -2.151  -3.703  1.00  0.00     0.211 HD
ENDBRANCH  18  30
BRANCH  27  32
ATOM     32  O   UNL     1      -2.624  -9.063  -0.988  1.00  0.00    -0.508 OA
ATOM     33  H   UNL     1      -2.089  -9.832  -0.993  1.00  0.00     0.293 HD
ENDBRANCH  27  32
ENDBRANCH   8   9
ENDBRANCH   7   8
ENDBRANCH   4   7
ENDBRANCH   2   3
ENDBRANCH   1   2
BRANCH   1  34
ATOM     34  C   UNL     1      -1.883  -4.311   4.846  1.00  0.00     0.023 C 
BRANCH  34  35
ATOM     35  C   UNL     1      -1.512  -5.023   6.137  1.00  0.00     0.116 C 
BRANCH  35  36
ATOM     36  N   UNL     1      -0.219  -5.692   6.076  1.00  0.00    -0.352 N 
ATOM     37  C   UNL     1       0.859  -5.558   6.924  1.00  0.00     0.251 C 
ATOM     38  H   UNL     1      -0.100  -6.323   5.330  1.00  0.00     0.163 HD
ATOM     39  O   UNL     1       1.925  -6.111   6.670  1.00  0.00    -0.269 OA
BRANCH  37  40
ATOM     40  C   UNL     1       0.730  -4.692   8.116  1.00  0.00     0.039 A 
ATOM     41  C   UNL     1      -0.378  -4.815   8.957  1.00  0.00     0.014 A 
ATOM     42  C   UNL     1       1.672  -3.683   8.331  1.00  0.00     0.014 A 
ATOM     43  C   UNL     1      -0.653  -3.809   9.875  1.00  0.00     0.010 A 
ATOM     44  C   UNL     1       1.440  -2.726   9.322  1.00  0.00     0.010 A 
ATOM     45  C   UNL     1       0.245  -2.743  10.058  1.00  0.00    -0.014 A 
BRANCH  45  46
ATOM     46  C   UNL     1      -0.093  -1.647  11.003  1.00  0.00     0.031 A 
ATOM     47  C   UNL     1      -0.306  -0.240  10.507  1.00  0.00     0.074 A 
ATOM     48  C   UNL     1      -0.264  -1.931  12.309  1.00  0.00     0.049 A 
ATOM     49  N   UNL     1      -0.592   0.838  11.191  1.00  0.00    -0.248 NA
ATOM     50  C   UNL     1      -0.186  -0.012   9.057  1.00  0.00     0.031 C 
ATOM     51  C   UNL     1      -0.135  -3.264  12.899  1.00  0.00     0.029 A 
ATOM     52  N   UNL     1      -0.608  -1.129  13.367  1.00  0.00    -0.354 N 
ATOM     53  C   UNL     1      -0.674   1.870  10.263  1.00  0.00     0.074 A 
ATOM     54  C   UNL     1      -0.372   1.298   8.970  1.00  0.00     0.031 C 
ATOM     55  C   UNL     1      -0.454  -3.200  14.198  1.00  0.00     0.029 A 
ATOM     56  C   UNL     1      -0.726  -1.810  14.555  1.00  0.00     0.049 A 
ATOM     57  H   UNL     1      -0.756  -0.159  13.284  1.00  0.00     0.167 HD
ATOM     58  C   UNL     1      -0.988   3.172  10.470  1.00  0.00     0.031 A 
ATOM     59  C   UNL     1      -1.000  -1.374  15.801  1.00  0.00     0.031 A 
ATOM     60  C   UNL     1      -1.291   3.729  11.763  1.00  0.00     0.049 A 
ATOM     61  C   UNL     1      -1.249   0.087  16.027  1.00  0.00     0.074 A 
ATOM     62  C   UNL     1      -1.624   5.036  12.074  1.00  0.00     0.029 A 
ATOM     63  N   UNL     1      -1.301   3.019  12.956  1.00  0.00    -0.354 N 
ATOM     64  N   UNL     1      -1.304   1.051  15.140  1.00  0.00    -0.248 NA
ATOM     65  C   UNL     1      -1.459   0.526  17.412  1.00  0.00     0.031 C 
ATOM     66  C   UNL     1      -1.766   5.131  13.460  1.00  0.00     0.029 A 
ATOM     67  C   UNL     1      -1.597   3.869  14.009  1.00  0.00     0.049 A 
ATOM     68  H   UNL     1      -1.124   2.054  13.040  1.00  0.00     0.167 HD
ATOM     69  C   UNL     1      -1.557   2.213  15.858  1.00  0.00     0.074 A 
ATOM     70  C   UNL     1      -1.662   1.829  17.251  1.00  0.00     0.031 C 
ATOM     71  C   UNL     1      -1.685   3.481  15.397  1.00  0.00     0.031 A 
BRANCH  58  72
ATOM     72  C   UNL     1      -1.010   4.098   9.280  1.00  0.00    -0.014 A 
ATOM     73  C   UNL     1      -0.058   5.130   9.178  1.00  0.00     0.010 A 
ATOM     74  C   UNL     1      -2.021   4.008   8.306  1.00  0.00     0.010 A 
ATOM     75  C   UNL     1      -0.121   6.059   8.136  1.00  0.00     0.020 A 
ATOM     76  C   UNL     1      -2.071   4.918   7.245  1.00  0.00     0.020 A 
ATOM     77  C   UNL     1      -1.130   5.948   7.176  1.00  0.00     0.054 A 
BRANCH  77  78
ATOM     78  S   UNL     1      -1.184   7.148   5.815  1.00  0.00     0.124 S 
ATOM     79  O   UNL     1      -1.766   8.321   6.458  1.00  0.00    -0.237 OA
ATOM     80  O   UNL     1       0.222   7.266   5.435  1.00  0.00    -0.237 OA
ATOM     81  O   UNL     1      -2.032   6.494   4.819  1.00  0.00    -0.744 OA
ENDBRANCH  77  78
ENDBRANCH  58  72
BRANCH  59  82
ATOM     82  C   UNL     1      -1.053  -2.374  16.903  1.00  0.00    -0.014 A 
ATOM     83  C   UNL     1       0.116  -3.054  17.299  1.00  0.00     0.010 A 
ATOM     84  C   UNL     1      -2.290  -2.769  17.437  1.00  0.00     0.010 A 
ATOM     85  C   UNL     1       0.037  -4.171  18.132  1.00  0.00     0.020 A 
ATOM     86  C   UNL     1      -2.369  -3.869  18.298  1.00  0.00     0.020 A 
ATOM     87  C   UNL     1      -1.210  -4.588  18.604  1.00  0.00     0.054 A 
BRANCH  87  88
ATOM     88  S   UNL     1      -1.304  -6.116  19.578  1.00  0.00     0.124 S 
ATOM     89  O   UNL     1      -1.119  -7.136  18.549  1.00  0.00    -0.237 OA
ATOM     90  O   UNL     1      -0.198  -5.963  20.519  1.00  0.00    -0.237 OA
ATOM     91  O   UNL     1      -2.637  -6.062  20.172  1.00  0.00    -0.744 OA
ENDBRANCH  87  88
ENDBRANCH  59  82
BRANCH  71  92
ATOM     92  C   UNL     1      -1.930   4.583  16.393  1.00  0.00    -0.014 A 
ATOM     93  C   UNL     1      -3.166   5.257  16.399  1.00  0.00     0.010 A 
ATOM     94  C   UNL     1      -0.880   5.066  17.192  1.00  0.00     0.010 A 
ATOM     95  C   UNL     1      -3.328   6.431  17.139  1.00  0.00     0.020 A 
ATOM     96  C   UNL     1      -1.048   6.225  17.956  1.00  0.00     0.020 A 
ATOM     97  C   UNL     1      -2.260   6.918  17.897  1.00  0.00     0.054 A 
BRANCH  97  98
ATOM     98  S   UNL     1      -2.462   8.491  18.778  1.00  0.00     0.124 S 
ATOM     99  O   UNL     1      -2.416   9.461  17.688  1.00  0.00    -0.237 OA
ATOM    100  O   UNL     1      -3.762   8.331  19.425  1.00  0.00    -0.237 OA
ATOM    101  O   UNL     1      -1.321   8.523  19.691  1.00  0.00    -0.744 OA
ENDBRANCH  97  98
ENDBRANCH  71  92
ENDBRANCH  45  46
ENDBRANCH  37  40
ENDBRANCH  35  36
ENDBRANCH  34  35
ENDBRANCH   1  34
TORSDOF 19
