REMARK SMILES CC[C@@H](C)[C@H](NC(=O)Cn1ccc(C(F)(F)F)n1)C(=O)NCCCCNC(=O)c1ccc(-c2c3nc(c(-c4ccc(S(=O)(=O)[O-])cc4)c4ccc([nH]4)c(-c4ccc(S(=O)(=O)[O-])cc4)c4nc(c(-c5ccc(S(=O)(=O)[O-])cc5)c5ccc2[nH]5)C=C4)C=C3)cc1
REMARK SMILES IDX 23 1 22 2 21 3 19 4 20 5 5 7 3 8 4 9 2 10 1 11 6 12 7 13
REMARK SMILES IDX 8 15 9 16 10 17 11 18 18 19 12 20 13 21 14 22 15 23 16 24
REMARK SMILES IDX 17 25 24 26 25 27 26 28 27 29 28 31 29 32 30 33 88 34 31 35
REMARK SMILES IDX 87 36 32 37 33 38 34 39 81 40 35 41 86 42 80 43 82 44 36 45
REMARK SMILES IDX 85 46 79 47 78 48 37 50 67 51 48 52 66 53 49 54 52 55 65 56
REMARK SMILES IDX 83 57 50 58 51 59 64 61 84 62 53 63 38 64 39 65 47 66 40 67
REMARK SMILES IDX 46 68 41 69 42 70 43 71 44 72 45 73 68 74 69 75 77 76 70 77
REMARK SMILES IDX 76 78 71 79 72 80 73 81 74 82 75 83 54 84 55 85 63 86 56 87
REMARK SMILES IDX 62 88 57 89 58 90 59 91 60 92 61 93
REMARK H PARENT 21 6 6 14 26 30 82 49 52 60
REMARK Flexibility Score: inf
ROOT
ATOM      1  C   UNL     1       4.848   2.666   2.348  1.00  0.00     0.023 C 
ENDROOT
BRANCH   1   2
ATOM      2  C   UNL     1       4.077   1.927   3.439  1.00  0.00     0.116 C 
BRANCH   2   3
ATOM      3  N   UNL     1       3.186   2.707   4.283  1.00  0.00    -0.354 N 
ATOM      4  C   UNL     1       1.866   2.525   4.592  1.00  0.00     0.242 C 
ATOM      5  O   UNL     1       1.448   3.113   5.594  1.00  0.00    -0.273 OA
ATOM      6  H   UNL     1       3.601   3.496   4.701  1.00  0.00     0.163 HD
BRANCH   4   7
ATOM      7  C   UNL     1       0.939   1.573   3.806  1.00  0.00     0.174 C 
BRANCH   7   8
ATOM      8  C   UNL     1       0.962   0.115   4.431  1.00  0.00     0.018 C 
ATOM      9  C   UNL     1       0.530   0.127   5.903  1.00  0.00     0.010 C 
BRANCH   8  10
ATOM     10  C   UNL     1       2.332  -0.576   4.266  1.00  0.00     0.002 C 
ATOM     11  C   UNL     1       2.589  -1.912   4.939  1.00  0.00     0.004 C 
ENDBRANCH   8  10
ENDBRANCH   7   8
BRANCH   7  12
ATOM     12  N   UNL     1       1.177   1.552   2.350  1.00  0.00    -0.342 N 
ATOM     13  C   UNL     1       1.245   2.563   1.430  1.00  0.00     0.242 C 
ATOM     14  H   UNL     1       1.312   0.651   1.974  1.00  0.00     0.164 HD
ATOM     15  O   UNL     1       1.127   2.215   0.247  1.00  0.00    -0.273 OA
BRANCH  13  16
ATOM     16  C   UNL     1       1.689   3.978   1.747  1.00  0.00     0.243 C 
BRANCH  16  17
ATOM     17  N   UNL     1       0.805   4.781   2.560  1.00  0.00    -0.263 N 
ATOM     18  C   UNL     1       1.173   5.524   3.646  1.00  0.00     0.110 A 
ATOM     19  N   UNL     1      -0.452   5.011   2.162  1.00  0.00    -0.168 NA
ATOM     20  C   UNL     1       0.035   6.161   4.071  1.00  0.00     0.055 A 
ATOM     21  C   UNL     1      -0.952   5.839   3.103  1.00  0.00     0.166 A 
BRANCH  21  22
ATOM     22  C   UNL     1      -2.365   6.339   3.078  1.00  0.00     0.435 C 
ATOM     23  F   UNL     1      -3.105   5.816   4.091  1.00  0.00    -0.164 F 
ATOM     24  F   UNL     1      -2.420   7.693   3.213  1.00  0.00    -0.164 F 
ATOM     25  F   UNL     1      -3.019   6.044   1.922  1.00  0.00    -0.164 F 
ENDBRANCH  21  22
ENDBRANCH  16  17
ENDBRANCH  13  16
ENDBRANCH   7  12
ENDBRANCH   4   7
ENDBRANCH   2   3
ENDBRANCH   1   2
BRANCH   1  26
ATOM     26  C   UNL     1       5.480   4.003   2.726  1.00  0.00     0.023 C 
BRANCH  26  27
ATOM     27  C   UNL     1       6.476   3.897   3.864  1.00  0.00     0.116 C 
BRANCH  27  28
ATOM     28  N   UNL     1       7.554   2.955   3.565  1.00  0.00    -0.352 N 
ATOM     29  C   UNL     1       8.567   2.515   4.400  1.00  0.00     0.251 C 
ATOM     30  H   UNL     1       7.561   2.586   2.652  1.00  0.00     0.163 HD
ATOM     31  O   UNL     1       9.594   2.047   3.946  1.00  0.00    -0.269 OA
BRANCH  29  32
ATOM     32  C   UNL     1       8.348   2.612   5.854  1.00  0.00     0.039 A 
ATOM     33  C   UNL     1       9.355   3.013   6.733  1.00  0.00     0.014 A 
ATOM     34  C   UNL     1       7.064   2.334   6.314  1.00  0.00     0.014 A 
ATOM     35  C   UNL     1       9.028   3.185   8.075  1.00  0.00     0.010 A 
ATOM     36  C   UNL     1       6.696   2.724   7.568  1.00  0.00     0.010 A 
ATOM     37  C   UNL     1       7.688   3.049   8.477  1.00  0.00    -0.014 A 
BRANCH  37  38
ATOM     38  C   UNL     1       7.240   3.390   9.817  1.00  0.00     0.031 A 
ATOM     39  C   UNL     1       7.540   4.797  10.167  1.00  0.00     0.074 A 
ATOM     40  C   UNL     1       6.420   2.601  10.546  1.00  0.00     0.049 A 
ATOM     41  N   UNL     1       8.575   5.225  10.809  1.00  0.00    -0.248 NA
ATOM     42  C   UNL     1       6.766   5.867   9.511  1.00  0.00     0.031 C 
ATOM     43  C   UNL     1       5.789   1.332  10.156  1.00  0.00     0.029 A 
ATOM     44  N   UNL     1       5.885   2.822  11.775  1.00  0.00    -0.354 N 
ATOM     45  C   UNL     1       8.374   6.591  10.934  1.00  0.00     0.074 A 
ATOM     46  C   UNL     1       7.464   6.946   9.876  1.00  0.00     0.031 C 
ATOM     47  C   UNL     1       4.795   1.030  11.024  1.00  0.00     0.029 A 
ATOM     48  C   UNL     1       4.827   1.982  12.118  1.00  0.00     0.049 A 
ATOM     49  H   UNL     1       6.220   3.523  12.379  1.00  0.00     0.167 HD
ATOM     50  C   UNL     1       8.631   7.216  12.119  1.00  0.00     0.031 A 
ATOM     51  C   UNL     1       4.030   2.078  13.217  1.00  0.00     0.031 A 
ATOM     52  C   UNL     1       9.364   6.344  13.015  1.00  0.00     0.049 A 
ATOM     53  C   UNL     1       4.783   2.880  14.214  1.00  0.00     0.074 A 
ATOM     54  C   UNL     1      10.541   5.625  12.947  1.00  0.00     0.029 A 
ATOM     55  N   UNL     1       8.635   5.782  14.039  1.00  0.00    -0.354 N 
ATOM     56  N   UNL     1       5.891   2.469  14.764  1.00  0.00    -0.248 NA
ATOM     57  C   UNL     1       4.579   4.319  14.223  1.00  0.00     0.031 C 
ATOM     58  C   UNL     1      10.266   4.397  13.623  1.00  0.00     0.029 A 
ATOM     59  C   UNL     1       8.976   4.463  14.152  1.00  0.00     0.049 A 
ATOM     60  H   UNL     1       7.976   6.254  14.598  1.00  0.00     0.167 HD
ATOM     61  C   UNL     1       6.720   3.582  14.757  1.00  0.00     0.074 A 
ATOM     62  C   UNL     1       5.824   4.714  14.510  1.00  0.00     0.031 C 
ATOM     63  C   UNL     1       8.077   3.444  14.652  1.00  0.00     0.031 A 
BRANCH  50  64
ATOM     64  C   UNL     1       7.790   8.356  12.663  1.00  0.00    -0.014 A 
ATOM     65  C   UNL     1       8.126   8.871  13.933  1.00  0.00     0.010 A 
ATOM     66  C   UNL     1       6.534   8.725  12.141  1.00  0.00     0.010 A 
ATOM     67  C   UNL     1       7.205   9.607  14.686  1.00  0.00     0.020 A 
ATOM     68  C   UNL     1       5.625   9.497  12.864  1.00  0.00     0.020 A 
ATOM     69  C   UNL     1       5.952   9.900  14.150  1.00  0.00     0.054 A 
BRANCH  69  70
ATOM     70  S   UNL     1       4.736  10.766  15.166  1.00  0.00     0.124 S 
ATOM     71  O   UNL     1       4.465   9.780  16.207  1.00  0.00    -0.237 OA
ATOM     72  O   UNL     1       5.479  11.950  15.586  1.00  0.00    -0.237 OA
ATOM     73  O   UNL     1       3.638  11.021  14.237  1.00  0.00    -0.744 OA
ENDBRANCH  69  70
ENDBRANCH  50  64
BRANCH  51  74
ATOM     74  C   UNL     1       2.574   1.802  13.355  1.00  0.00    -0.014 A 
ATOM     75  C   UNL     1       1.947   1.798  14.619  1.00  0.00     0.010 A 
ATOM     76  C   UNL     1       1.739   1.847  12.220  1.00  0.00     0.010 A 
ATOM     77  C   UNL     1       0.548   1.911  14.743  1.00  0.00     0.020 A 
ATOM     78  C   UNL     1       0.345   1.955  12.336  1.00  0.00     0.020 A 
ATOM     79  C   UNL     1      -0.243   2.014  13.597  1.00  0.00     0.054 A 
BRANCH  79  80
ATOM     80  S   UNL     1      -2.026   2.351  13.759  1.00  0.00     0.124 S 
ATOM     81  O   UNL     1      -2.536   1.090  14.289  1.00  0.00    -0.237 OA
ATOM     82  O   UNL     1      -2.056   3.482  14.682  1.00  0.00    -0.237 OA
ATOM     83  O   UNL     1      -2.442   2.661  12.392  1.00  0.00    -0.744 OA
ENDBRANCH  79  80
ENDBRANCH  51  74
BRANCH  63  84
ATOM     84  C   UNL     1       8.681   2.082  14.906  1.00  0.00    -0.014 A 
ATOM     85  C   UNL     1       8.406   0.926  14.149  1.00  0.00     0.010 A 
ATOM     86  C   UNL     1       9.675   2.010  15.898  1.00  0.00     0.010 A 
ATOM     87  C   UNL     1       9.082  -0.278  14.410  1.00  0.00     0.020 A 
ATOM     88  C   UNL     1      10.364   0.823  16.149  1.00  0.00     0.020 A 
ATOM     89  C   UNL     1      10.054  -0.321  15.415  1.00  0.00     0.054 A 
BRANCH  89  90
ATOM     90  S   UNL     1      10.931  -1.873  15.754  1.00  0.00     0.124 S 
ATOM     91  O   UNL     1       9.875  -2.725  16.292  1.00  0.00    -0.237 OA
ATOM     92  O   UNL     1      11.438  -2.254  14.437  1.00  0.00    -0.237 OA
ATOM     93  O   UNL     1      11.963  -1.487  16.716  1.00  0.00    -0.744 OA
ENDBRANCH  89  90
ENDBRANCH  63  84
ENDBRANCH  37  38
ENDBRANCH  29  32
ENDBRANCH  27  28
ENDBRANCH  26  27
ENDBRANCH   1  26
TORSDOF 20
