REMARK SMILES CC[C@H](C)[C@H](NC(=O)[C@H](C)Oc1ccc2c(C)c(C)c(=O)oc2c1C)C(=O)NCCCCNC(=O)c1ccc(-c2c3nc(c(-c4ccc(S(=O)(=O)[O-])cc4)c4ccc([nH]4)c(-c4ccc(S(=O)(=O)[O-])cc4)c4nc(c(-c5ccc(S(=O)(=O)[O-])cc5)c5ccc2[nH]5)C=C4)C=C3)cc1
REMARK SMILES IDX 30 1 29 2 28 3 26 4 27 5 5 7 3 8 4 9 2 10 1 11 6 12 7 13
REMARK SMILES IDX 8 15 9 16 10 17 11 18 12 19 13 20 24 21 14 22 23 23 25 24
REMARK SMILES IDX 15 25 22 26 16 27 20 28 17 29 18 30 21 31 19 32 31 33 32 34
REMARK SMILES IDX 33 35 34 36 35 38 36 39 37 40 95 41 38 42 94 43 39 44 40 45
REMARK SMILES IDX 41 46 88 47 42 48 93 49 87 50 89 51 43 52 92 53 86 54 85 55
REMARK SMILES IDX 44 57 74 58 55 59 73 60 56 61 59 62 72 63 90 64 57 65 58 66
REMARK SMILES IDX 71 68 91 69 60 70 45 71 46 72 54 73 47 74 53 75 48 76 49 77
REMARK SMILES IDX 50 78 51 79 52 80 75 81 76 82 84 83 77 84 83 85 78 86 79 87
REMARK SMILES IDX 80 88 81 89 82 90 61 91 62 92 70 93 63 94 69 95 64 96 65 97
REMARK SMILES IDX 66 98 67 99 68 100
REMARK H PARENT 28 6 6 14 33 37 89 56 59 67
REMARK Flexibility Score: inf
ROOT
ATOM      1  C   UNL     1      -1.042   4.946  -6.467  1.00  0.00     0.023 C 
ENDROOT
BRANCH   1   2
ATOM      2  C   UNL     1       0.001   4.585  -5.414  1.00  0.00     0.116 C 
BRANCH   2   3
ATOM      3  N   UNL     1      -0.570   4.313  -4.101  1.00  0.00    -0.354 N 
ATOM      4  C   UNL     1      -0.037   3.685  -3.002  1.00  0.00     0.242 C 
ATOM      5  O   UNL     1      -0.642   3.798  -1.931  1.00  0.00    -0.273 OA
ATOM      6  H   UNL     1      -1.493   4.633  -3.982  1.00  0.00     0.163 HD
BRANCH   4   7
ATOM      7  C   UNL     1       1.326   2.938  -3.058  1.00  0.00     0.174 C 
BRANCH   7   8
ATOM      8  C   UNL     1       2.472   3.932  -3.465  1.00  0.00     0.018 C 
ATOM      9  C   UNL     1       2.333   5.367  -2.914  1.00  0.00     0.010 C 
BRANCH   8  10
ATOM     10  C   UNL     1       3.862   3.444  -3.038  1.00  0.00     0.002 C 
ATOM     11  C   UNL     1       4.364   2.270  -3.848  1.00  0.00     0.004 C 
ENDBRANCH   8  10
ENDBRANCH   7   8
BRANCH   7  12
ATOM     12  N   UNL     1       1.199   1.835  -4.038  1.00  0.00    -0.341 N 
ATOM     13  C   UNL     1       1.287   0.496  -4.141  1.00  0.00     0.261 C 
ATOM     14  H   UNL     1       0.972   2.212  -4.919  1.00  0.00     0.164 HD
ATOM     15  O   UNL     1       1.120   0.111  -5.315  1.00  0.00    -0.271 OA
BRANCH  13  16
ATOM     16  C   UNL     1       1.464  -0.601  -3.040  1.00  0.00     0.258 C 
ATOM     17  C   UNL     1       0.151  -0.847  -2.297  1.00  0.00     0.064 C 
BRANCH  16  18
ATOM     18  O   UNL     1       2.644  -0.928  -2.314  1.00  0.00    -0.480 OA
BRANCH  18  19
ATOM     19  C   UNL     1       3.075  -0.153  -1.288  1.00  0.00     0.127 A 
ATOM     20  C   UNL     1       2.234   0.293  -0.276  1.00  0.00     0.047 A 
ATOM     21  C   UNL     1       4.441   0.157  -1.236  1.00  0.00     0.035 A 
ATOM     22  C   UNL     1       2.671   1.245   0.639  1.00  0.00     0.016 A 
ATOM     23  C   UNL     1       4.830   1.197  -0.377  1.00  0.00     0.145 A 
ATOM     24  C   UNL     1       5.459  -0.537  -2.101  1.00  0.00     0.052 C 
ATOM     25  C   UNL     1       3.945   1.798   0.515  1.00  0.00     0.021 A 
ATOM     26  O   UNL     1       6.119   1.730  -0.557  1.00  0.00    -0.422 OA
ATOM     27  C   UNL     1       4.305   3.077   1.144  1.00  0.00    -0.030 A 
ATOM     28  C   UNL     1       6.375   3.049  -0.219  1.00  0.00     0.339 A 
ATOM     29  C   UNL     1       3.329   3.676   2.124  1.00  0.00     0.045 C 
ATOM     30  C   UNL     1       5.408   3.714   0.700  1.00  0.00     0.038 A 
ATOM     31  O   UNL     1       7.379   3.619  -0.633  1.00  0.00    -0.246 OA
ATOM     32  C   UNL     1       5.705   5.149   1.035  1.00  0.00     0.052 C 
ENDBRANCH  18  19
ENDBRANCH  16  18
ENDBRANCH  13  16
ENDBRANCH   7  12
ENDBRANCH   4   7
ENDBRANCH   2   3
ENDBRANCH   1   2
BRANCH   1  33
ATOM     33  C   UNL     1      -1.770   6.268  -6.229  1.00  0.00     0.023 C 
BRANCH  33  34
ATOM     34  C   UNL     1      -0.862   7.463  -5.957  1.00  0.00     0.116 C 
BRANCH  34  35
ATOM     35  N   UNL     1       0.038   7.737  -7.068  1.00  0.00    -0.352 N 
ATOM     36  C   UNL     1       0.045   8.825  -7.912  1.00  0.00     0.251 C 
ATOM     37  H   UNL     1       0.730   7.058  -7.237  1.00  0.00     0.163 HD
ATOM     38  O   UNL     1       0.743   8.843  -8.910  1.00  0.00    -0.269 OA
BRANCH  36  39
ATOM     39  C   UNL     1      -0.830   9.964  -7.578  1.00  0.00     0.039 A 
ATOM     40  C   UNL     1      -1.814  10.359  -8.486  1.00  0.00     0.014 A 
ATOM     41  C   UNL     1      -0.703  10.586  -6.333  1.00  0.00     0.014 A 
ATOM     42  C   UNL     1      -2.717  11.357  -8.118  1.00  0.00     0.010 A 
ATOM     43  C   UNL     1      -1.636  11.541  -5.949  1.00  0.00     0.010 A 
ATOM     44  C   UNL     1      -2.645  11.938  -6.842  1.00  0.00    -0.014 A 
BRANCH  44  45
ATOM     45  C   UNL     1      -3.564  13.025  -6.438  1.00  0.00     0.031 A 
ATOM     46  C   UNL     1      -3.017  14.417  -6.287  1.00  0.00     0.074 A 
ATOM     47  C   UNL     1      -4.859  12.764  -6.174  1.00  0.00     0.049 A 
ATOM     48  N   UNL     1      -3.614  15.492  -5.846  1.00  0.00    -0.248 NA
ATOM     49  C   UNL     1      -1.608  14.622  -6.669  1.00  0.00     0.031 C 
ATOM     50  C   UNL     1      -5.508  11.457  -6.299  1.00  0.00     0.029 A 
ATOM     51  N   UNL     1      -5.865  13.594  -5.747  1.00  0.00    -0.354 N 
ATOM     52  C   UNL     1      -2.656  16.497  -5.894  1.00  0.00     0.074 A 
ATOM     53  C   UNL     1      -1.427  15.899  -6.364  1.00  0.00     0.031 C 
ATOM     54  C   UNL     1      -6.809  11.581  -5.986  1.00  0.00     0.029 A 
ATOM     55  C   UNL     1      -7.078  12.964  -5.601  1.00  0.00     0.049 A 
ATOM     56  H   UNL     1      -5.730  14.552  -5.563  1.00  0.00     0.167 HD
ATOM     57  C   UNL     1      -2.796  17.807  -5.594  1.00  0.00     0.031 A 
ATOM     58  C   UNL     1      -8.268  13.450  -5.198  1.00  0.00     0.031 A 
ATOM     59  C   UNL     1      -4.022  18.406  -5.149  1.00  0.00     0.049 A 
ATOM     60  C   UNL     1      -8.378  14.902  -4.816  1.00  0.00     0.074 A 
ATOM     61  C   UNL     1      -4.263  19.732  -4.834  1.00  0.00     0.029 A 
ATOM     62  N   UNL     1      -5.215  17.726  -4.973  1.00  0.00    -0.354 N 
ATOM     63  N   UNL     1      -7.455  15.833  -4.849  1.00  0.00    -0.248 NA
ATOM     64  C   UNL     1      -9.690  15.365  -4.340  1.00  0.00     0.031 C 
ATOM     65  C   UNL     1      -5.598  19.847  -4.436  1.00  0.00     0.029 A 
ATOM     66  C   UNL     1      -6.195  18.602  -4.544  1.00  0.00     0.049 A 
ATOM     67  H   UNL     1      -5.346  16.762  -5.129  1.00  0.00     0.167 HD
ATOM     68  C   UNL     1      -8.081  16.998  -4.420  1.00  0.00     0.074 A 
ATOM     69  C   UNL     1      -9.461  16.657  -4.142  1.00  0.00     0.031 C 
ATOM     70  C   UNL     1      -7.561  18.240  -4.272  1.00  0.00     0.031 A 
BRANCH  57  71
ATOM     71  C   UNL     1      -1.597  18.695  -5.759  1.00  0.00    -0.014 A 
ATOM     72  C   UNL     1      -1.203  19.127  -7.037  1.00  0.00     0.010 A 
ATOM     73  C   UNL     1      -0.923  19.181  -4.625  1.00  0.00     0.010 A 
ATOM     74  C   UNL     1      -0.155  20.038  -7.179  1.00  0.00     0.020 A 
ATOM     75  C   UNL     1       0.115  20.106  -4.762  1.00  0.00     0.020 A 
ATOM     76  C   UNL     1       0.488  20.532  -6.039  1.00  0.00     0.054 A 
BRANCH  76  77
ATOM     77  S   UNL     1       1.793  21.773  -6.257  1.00  0.00     0.124 S 
ATOM     78  O   UNL     1       2.769  21.050  -7.069  1.00  0.00    -0.237 OA
ATOM     79  O   UNL     1       1.085  22.853  -6.938  1.00  0.00    -0.237 OA
ATOM     80  O   UNL     1       2.222  22.070  -4.893  1.00  0.00    -0.744 OA
ENDBRANCH  76  77
ENDBRANCH  57  71
BRANCH  58  81
ATOM     81  C   UNL     1      -9.464  12.567  -5.153  1.00  0.00    -0.014 A 
ATOM     82  C   UNL     1     -10.483  12.714  -6.111  1.00  0.00     0.010 A 
ATOM     83  C   UNL     1      -9.599  11.587  -4.154  1.00  0.00     0.010 A 
ATOM     84  C   UNL     1     -11.622  11.906  -6.063  1.00  0.00     0.020 A 
ATOM     85  C   UNL     1     -10.728  10.763  -4.115  1.00  0.00     0.020 A 
ATOM     86  C   UNL     1     -11.735  10.932  -5.068  1.00  0.00     0.054 A 
BRANCH  86  87
ATOM     87  S   UNL     1     -13.214   9.882  -5.047  1.00  0.00     0.124 S 
ATOM     88  O   UNL     1     -14.281  10.856  -4.840  1.00  0.00    -0.237 OA
ATOM     89  O   UNL     1     -13.170   9.263  -6.369  1.00  0.00    -0.237 OA
ATOM     90  O   UNL     1     -12.975   8.971  -3.930  1.00  0.00    -0.744 OA
ENDBRANCH  86  87
ENDBRANCH  58  81
BRANCH  70  91
ATOM     91  C   UNL     1      -8.485  19.331  -3.811  1.00  0.00    -0.014 A 
ATOM     92  C   UNL     1      -8.876  19.423  -2.464  1.00  0.00     0.010 A 
ATOM     93  C   UNL     1      -8.902  20.319  -4.721  1.00  0.00     0.010 A 
ATOM     94  C   UNL     1      -9.689  20.476  -2.040  1.00  0.00     0.020 A 
ATOM     95  C   UNL     1      -9.696  21.386  -4.295  1.00  0.00     0.020 A 
ATOM     96  C   UNL     1     -10.089  21.454  -2.957  1.00  0.00     0.054 A 
BRANCH  96  97
ATOM     97  S   UNL     1     -11.117  22.825  -2.365  1.00  0.00     0.124 S 
ATOM     98  O   UNL     1     -12.328  22.134  -1.927  1.00  0.00    -0.237 OA
ATOM     99  O   UNL     1     -10.298  23.394  -1.299  1.00  0.00    -0.237 OA
ATOM    100  O   UNL     1     -11.280  23.674  -3.543  1.00  0.00    -0.744 OA
ENDBRANCH  96  97
ENDBRANCH  70  91
ENDBRANCH  44  45
ENDBRANCH  36  39
ENDBRANCH  34  35
ENDBRANCH  33  34
ENDBRANCH   1  33
TORSDOF 20
