REMARK SMILES CC[C@@H](C(=O)Nc1ccc(OC(C)=O)cc1C(=O)NCCCCNC(=O)c1ccc(-c2c3nc(c(-c4ccc(S(=O)(=O)[O-])cc4)c4ccc([nH]4)c(-c4ccc(S(=O)(=O)[O-])cc4)c4nc(c(-c5ccc(S(=O)(=O)[O-])cc5)c5ccc2[nH]5)C=C4)C=C3)cc1)c1ccccc1
REMARK SMILES IDX 21 1 20 2 19 3 17 4 18 5 16 7 7 8 8 9 9 10 15 11 10 12 6 13
REMARK SMILES IDX 4 14 5 15 3 17 2 18 1 19 87 20 88 21 92 22 89 23 91 24 90 25
REMARK SMILES IDX 11 26 12 27 13 28 14 29 22 30 23 31 24 32 25 33 26 35 27 36
REMARK SMILES IDX 28 37 86 38 29 39 85 40 30 41 31 42 32 43 79 44 33 45 84 46
REMARK SMILES IDX 78 47 80 48 34 49 83 50 77 51 76 52 35 54 65 55 46 56 64 57
REMARK SMILES IDX 47 58 50 59 63 60 81 61 48 62 49 63 62 65 82 66 51 67 36 68
REMARK SMILES IDX 37 69 45 70 38 71 44 72 39 73 40 74 41 75 42 76 43 77 66 78
REMARK SMILES IDX 67 79 75 80 68 81 74 82 69 83 70 84 71 85 72 86 73 87 52 88
REMARK SMILES IDX 53 89 61 90 54 91 60 92 55 93 56 94 57 95 58 96 59 97
REMARK H PARENT 19 6 6 16 24 34 80 53 50 64
REMARK Flexibility Score: inf
ROOT
ATOM      1  C   UNL     1      -2.361  -3.244  -1.368  1.00  0.00     0.023 C 
ENDROOT
BRANCH   1   2
ATOM      2  C   UNL     1      -1.073  -2.499  -1.032  1.00  0.00     0.116 C 
BRANCH   2   3
ATOM      3  N   UNL     1      -1.292  -1.182  -0.475  1.00  0.00    -0.352 N 
ATOM      4  C   UNL     1      -0.525  -0.409   0.357  1.00  0.00     0.253 C 
ATOM      5  O   UNL     1      -0.995   0.676   0.709  1.00  0.00    -0.269 OA
ATOM      6  H   UNL     1      -2.145  -0.767  -0.741  1.00  0.00     0.163 HD
BRANCH   4   7
ATOM      7  C   UNL     1       0.826  -0.783   0.883  1.00  0.00     0.067 A 
ATOM      8  C   UNL     1       1.811  -1.591   0.288  1.00  0.00     0.054 A 
ATOM      9  C   UNL     1       2.928  -1.990   1.059  1.00  0.00     0.031 A 
ATOM     10  C   UNL     1       3.201  -1.413   2.296  1.00  0.00     0.049 A 
ATOM     11  C   UNL     1       1.122  -0.203   2.144  1.00  0.00     0.063 A 
ATOM     12  C   UNL     1       2.328  -0.461   2.791  1.00  0.00     0.131 A 
BRANCH   8  13
ATOM     13  N   UNL     1       1.840  -2.118  -1.008  1.00  0.00    -0.325 N 
ATOM     14  C   UNL     1       1.938  -1.644  -2.280  1.00  0.00     0.231 C 
ATOM     15  O   UNL     1       2.133  -2.594  -3.061  1.00  0.00    -0.274 OA
ATOM     16  H   UNL     1       1.771  -3.099  -0.997  1.00  0.00     0.169 HD
BRANCH  14  17
ATOM     17  C   UNL     1       2.002  -0.170  -2.814  1.00  0.00     0.108 C 
BRANCH  17  18
ATOM     18  C   UNL     1       1.721   0.927  -1.777  1.00  0.00     0.015 C 
ATOM     19  C   UNL     1       2.906   1.256  -0.886  1.00  0.00     0.005 C 
ENDBRANCH  17  18
BRANCH  17  20
ATOM     20  C   UNL     1       1.242   0.074  -4.161  1.00  0.00    -0.036 A 
ATOM     21  C   UNL     1       0.871   1.373  -4.579  1.00  0.00     0.004 A 
ATOM     22  C   UNL     1       1.016  -0.943  -5.106  1.00  0.00     0.004 A 
ATOM     23  C   UNL     1       0.225   1.621  -5.798  1.00  0.00     0.000 A 
ATOM     24  C   UNL     1       0.405  -0.692  -6.344  1.00  0.00     0.000 A 
ATOM     25  C   UNL     1      -0.020   0.584  -6.679  1.00  0.00     0.000 A 
ENDBRANCH  17  20
ENDBRANCH  14  17
ENDBRANCH   8  13
BRANCH  12  26
ATOM     26  O   UNL     1       2.661   0.165   4.005  1.00  0.00    -0.427 OA
BRANCH  26  27
ATOM     27  C   UNL     1       3.219   1.444   4.019  1.00  0.00     0.308 C 
ATOM     28  C   UNL     1       2.709   2.406   2.985  1.00  0.00     0.139 C 
ATOM     29  O   UNL     1       4.021   1.781   4.886  1.00  0.00    -0.252 OA
ENDBRANCH  26  27
ENDBRANCH  12  26
ENDBRANCH   4   7
ENDBRANCH   2   3
ENDBRANCH   1   2
BRANCH   1  30
ATOM     30  C   UNL     1      -3.089  -2.762  -2.628  1.00  0.00     0.023 C 
BRANCH  30  31
ATOM     31  C   UNL     1      -2.286  -2.801  -3.930  1.00  0.00     0.116 C 
BRANCH  31  32
ATOM     32  N   UNL     1      -1.765  -4.125  -4.257  1.00  0.00    -0.352 N 
ATOM     33  C   UNL     1      -2.006  -4.917  -5.357  1.00  0.00     0.251 C 
ATOM     34  H   UNL     1      -1.150  -4.509  -3.591  1.00  0.00     0.163 HD
ATOM     35  O   UNL     1      -1.570  -6.064  -5.407  1.00  0.00    -0.269 OA
BRANCH  33  36
ATOM     36  C   UNL     1      -2.812  -4.383  -6.474  1.00  0.00     0.039 A 
ATOM     37  C   UNL     1      -3.928  -5.089  -6.924  1.00  0.00     0.014 A 
ATOM     38  C   UNL     1      -2.491  -3.146  -7.034  1.00  0.00     0.014 A 
ATOM     39  C   UNL     1      -4.786  -4.492  -7.853  1.00  0.00     0.010 A 
ATOM     40  C   UNL     1      -3.377  -2.525  -7.908  1.00  0.00     0.010 A 
ATOM     41  C   UNL     1      -4.551  -3.180  -8.302  1.00  0.00    -0.014 A 
BRANCH  41  42
ATOM     42  C   UNL     1      -5.572  -2.438  -9.088  1.00  0.00     0.031 A 
ATOM     43  C   UNL     1      -5.279  -1.945 -10.478  1.00  0.00     0.074 A 
ATOM     44  C   UNL     1      -6.742  -2.120  -8.496  1.00  0.00     0.049 A 
ATOM     45  N   UNL     1      -6.046  -1.255 -11.283  1.00  0.00    -0.248 NA
ATOM     46  C   UNL     1      -3.945  -2.240 -11.025  1.00  0.00     0.031 C 
ATOM     47  C   UNL     1      -7.118  -2.466  -7.121  1.00  0.00     0.029 A 
ATOM     48  N   UNL     1      -7.830  -1.427  -8.968  1.00  0.00    -0.354 N 
ATOM     49  C   UNL     1      -5.289  -1.026 -12.425  1.00  0.00     0.074 A 
ATOM     50  C   UNL     1      -3.985  -1.606 -12.189  1.00  0.00     0.031 C 
ATOM     51  C   UNL     1      -8.358  -2.017  -6.875  1.00  0.00     0.029 A 
ATOM     52  C   UNL     1      -8.853  -1.316  -8.055  1.00  0.00     0.049 A 
ATOM     53  H   UNL     1      -7.873  -1.045  -9.874  1.00  0.00     0.167 HD
ATOM     54  C   UNL     1      -5.654  -0.407 -13.575  1.00  0.00     0.031 A 
ATOM     55  C   UNL     1     -10.056  -0.718  -8.151  1.00  0.00     0.031 A 
ATOM     56  C   UNL     1      -6.954   0.165 -13.808  1.00  0.00     0.049 A 
ATOM     57  C   UNL     1     -10.439  -0.041  -9.437  1.00  0.00     0.074 A 
ATOM     58  C   UNL     1      -7.443   0.743 -14.967  1.00  0.00     0.029 A 
ATOM     59  N   UNL     1      -7.968   0.243 -12.866  1.00  0.00    -0.354 N 
ATOM     60  N   UNL     1      -9.745   0.074 -10.544  1.00  0.00    -0.248 NA
ATOM     61  C   UNL     1     -11.770   0.579  -9.491  1.00  0.00     0.031 C 
ATOM     62  C   UNL     1      -8.733   1.219 -14.709  1.00  0.00     0.029 A 
ATOM     63  C   UNL     1      -9.069   0.887 -13.406  1.00  0.00     0.049 A 
ATOM     64  H   UNL     1      -7.914  -0.107 -11.947  1.00  0.00     0.167 HD
ATOM     65  C   UNL     1     -10.562   0.762 -11.432  1.00  0.00     0.074 A 
ATOM     66  C   UNL     1     -11.809   1.020 -10.741  1.00  0.00     0.031 C 
ATOM     67  C   UNL     1     -10.302   1.147 -12.706  1.00  0.00     0.031 A 
BRANCH  54  68
ATOM     68  C   UNL     1      -4.630  -0.322 -14.677  1.00  0.00    -0.014 A 
ATOM     69  C   UNL     1      -4.229  -1.471 -15.382  1.00  0.00     0.010 A 
ATOM     70  C   UNL     1      -4.100   0.927 -15.049  1.00  0.00     0.010 A 
ATOM     71  C   UNL     1      -3.288  -1.379 -16.410  1.00  0.00     0.020 A 
ATOM     72  C   UNL     1      -3.179   1.027 -16.096  1.00  0.00     0.020 A 
ATOM     73  C   UNL     1      -2.765  -0.130 -16.758  1.00  0.00     0.054 A 
BRANCH  73  74
ATOM     74  S   UNL     1      -1.562  -0.040 -18.113  1.00  0.00     0.124 S 
ATOM     75  O   UNL     1      -0.370  -0.614 -17.494  1.00  0.00    -0.237 OA
ATOM     76  O   UNL     1      -2.185  -0.857 -19.151  1.00  0.00    -0.237 OA
ATOM     77  O   UNL     1      -1.482   1.388 -18.411  1.00  0.00    -0.744 OA
ENDBRANCH  73  74
ENDBRANCH  54  68
BRANCH  55  78
ATOM     78  C   UNL     1     -10.995  -0.752  -6.997  1.00  0.00    -0.014 A 
ATOM     79  C   UNL     1     -12.154  -1.546  -7.046  1.00  0.00     0.010 A 
ATOM     80  C   UNL     1     -10.724  -0.008  -5.834  1.00  0.00     0.010 A 
ATOM     81  C   UNL     1     -13.034  -1.583  -5.960  1.00  0.00     0.020 A 
ATOM     82  C   UNL     1     -11.587  -0.064  -4.736  1.00  0.00     0.020 A 
ATOM     83  C   UNL     1     -12.743  -0.843  -4.811  1.00  0.00     0.054 A 
BRANCH  83  84
ATOM     84  S   UNL     1     -13.871  -0.950  -3.393  1.00  0.00     0.124 S 
ATOM     85  O   UNL     1     -15.006  -0.154  -3.848  1.00  0.00    -0.237 OA
ATOM     86  O   UNL     1     -14.108  -2.388  -3.286  1.00  0.00    -0.237 OA
ATOM     87  O   UNL     1     -13.096  -0.372  -2.297  1.00  0.00    -0.744 OA
ENDBRANCH  83  84
ENDBRANCH  55  78
BRANCH  67  88
ATOM     88  C   UNL     1     -11.391   1.877 -13.445  1.00  0.00    -0.014 A 
ATOM     89  C   UNL     1     -11.713   3.209 -13.131  1.00  0.00     0.010 A 
ATOM     90  C   UNL     1     -12.058   1.242 -14.508  1.00  0.00     0.010 A 
ATOM     91  C   UNL     1     -12.702   3.885 -13.850  1.00  0.00     0.020 A 
ATOM     92  C   UNL     1     -13.029   1.923 -15.248  1.00  0.00     0.020 A 
ATOM     93  C   UNL     1     -13.352   3.238 -14.906  1.00  0.00     0.054 A 
BRANCH  93  94
ATOM     94  S   UNL     1     -14.594   4.155 -15.859  1.00  0.00     0.124 S 
ATOM     95  O   UNL     1     -15.718   4.203 -14.929  1.00  0.00    -0.237 OA
ATOM     96  O   UNL     1     -13.928   5.433 -16.106  1.00  0.00    -0.237 OA
ATOM     97  O   UNL     1     -14.801   3.328 -17.046  1.00  0.00    -0.744 OA
ENDBRANCH  93  94
ENDBRANCH  67  88
ENDBRANCH  41  42
ENDBRANCH  33  36
ENDBRANCH  31  32
ENDBRANCH  30  31
ENDBRANCH   1  30
TORSDOF 20
