REMARK SMILES Cc1noc(C)c1[C@H](C)NC(=O)NC[C@@](C)(O)C(=O)NCCCCNC(=O)c1ccc(-c2c3nc(c(-c4ccc(S(=O)(=O)[O-])cc4)c4ccc([nH]4)c(-c4ccc(S(=O)(=O)[O-])cc4)c4nc(c(-c5ccc(S(=O)(=O)[O-])cc5)c5ccc2[nH]5)C=C4)C=C3)cc1
REMARK SMILES IDX 22 1 21 2 20 3 18 4 19 5 15 7 16 8 14 9 13 10 10 11 11 12
REMARK SMILES IDX 12 14 8 16 9 17 7 18 1 19 2 20 3 21 4 22 5 23 6 24 17 25
REMARK SMILES IDX 23 27 24 28 25 29 26 30 27 32 28 33 29 34 87 35 30 36 86 37
REMARK SMILES IDX 31 38 32 39 33 40 80 41 34 42 85 43 79 44 81 45 35 46 84 47
REMARK SMILES IDX 78 48 77 49 36 51 66 52 47 53 65 54 48 55 51 56 64 57 82 58
REMARK SMILES IDX 49 59 50 60 63 62 83 63 52 64 37 65 38 66 46 67 39 68 45 69
REMARK SMILES IDX 40 70 41 71 42 72 43 73 44 74 67 75 68 76 76 77 69 78 75 79
REMARK SMILES IDX 70 80 71 81 72 82 73 83 74 84 53 85 54 86 62 87 55 88 61 89
REMARK SMILES IDX 56 90 57 91 58 92 59 93 60 94
REMARK H PARENT 20 6 10 13 13 15 17 26 25 31 81 50 51 61
REMARK Flexibility Score: inf
ROOT
ATOM      1  C   UNL     1       3.046   7.297  -3.210  1.00  0.00     0.023 C 
ENDROOT
BRANCH   1   2
ATOM      2  C   UNL     1       3.357   7.438  -1.722  1.00  0.00     0.116 C 
BRANCH   2   3
ATOM      3  N   UNL     1       2.205   7.199  -0.875  1.00  0.00    -0.354 N 
ATOM      4  C   UNL     1       1.966   6.249   0.080  1.00  0.00     0.253 C 
ATOM      5  O   UNL     1       0.933   6.408   0.732  1.00  0.00    -0.272 OA
ATOM      6  H   UNL     1       1.464   7.832  -1.011  1.00  0.00     0.163 HD
BRANCH   4   7
ATOM      7  C   UNL     1       3.001   5.125   0.389  1.00  0.00     0.157 C 
ATOM      8  C   UNL     1       4.122   5.772   1.221  1.00  0.00     0.055 C 
BRANCH   7   9
ATOM      9  C   UNL     1       2.455   3.875   1.154  1.00  0.00     0.162 C 
BRANCH   9  10
ATOM     10  N   UNL     1       1.310   4.020   2.029  1.00  0.00    -0.335 N 
ATOM     11  N   UNL     1      -0.599   3.311   0.814  1.00  0.00    -0.331 N 
ATOM     12  C   UNL     1      -0.008   3.810   1.905  1.00  0.00     0.315 C 
ATOM     13  H   UNL     1      -1.582   3.350   0.857  1.00  0.00     0.165 HD
ATOM     14  O   UNL     1      -0.720   4.078   2.876  1.00  0.00    -0.249 OA
ATOM     15  H   UNL     1       1.558   4.351   2.923  1.00  0.00     0.165 HD
BRANCH  11  16
ATOM     16  C   UNL     1      -0.108   2.723  -0.420  1.00  0.00     0.116 C 
ATOM     17  C   UNL     1       0.255   1.262  -0.157  1.00  0.00     0.036 C 
BRANCH  16  18
ATOM     18  C   UNL     1      -1.133   2.939  -1.500  1.00  0.00     0.040 A 
ATOM     19  C   UNL     1      -1.083   5.560  -1.627  1.00  0.00     0.071 C 
ATOM     20  C   UNL     1      -1.544   4.209  -2.020  1.00  0.00     0.086 A 
ATOM     21  N   UNL     1      -2.442   4.078  -2.999  1.00  0.00    -0.085 NA
ATOM     22  O   UNL     1      -2.631   2.728  -3.155  1.00  0.00    -0.361 OA
ATOM     23  C   UNL     1      -1.849   2.046  -2.279  1.00  0.00     0.139 A 
ATOM     24  C   UNL     1      -1.946   0.577  -2.393  1.00  0.00     0.091 C 
ENDBRANCH  16  18
ENDBRANCH  11  16
ENDBRANCH   9  10
ENDBRANCH   7   9
BRANCH   7  25
ATOM     25  O   UNL     1       3.564   4.613  -0.833  1.00  0.00    -0.378 OA
ATOM     26  H   UNL     1       4.205   3.915  -0.626  1.00  0.00     0.212 HD
ENDBRANCH   7  25
ENDBRANCH   4   7
ENDBRANCH   2   3
ENDBRANCH   1   2
BRANCH   1  27
ATOM     27  C   UNL     1       1.985   8.249  -3.768  1.00  0.00     0.023 C 
BRANCH  27  28
ATOM     28  C   UNL     1       2.133   9.726  -3.407  1.00  0.00     0.116 C 
BRANCH  28  29
ATOM     29  N   UNL     1       3.426  10.289  -3.760  1.00  0.00    -0.352 N 
ATOM     30  C   UNL     1       3.730  11.486  -4.365  1.00  0.00     0.251 C 
ATOM     31  H   UNL     1       4.202   9.728  -3.530  1.00  0.00     0.163 HD
ATOM     32  O   UNL     1       4.902  11.742  -4.635  1.00  0.00    -0.269 OA
BRANCH  30  33
ATOM     33  C   UNL     1       2.660  12.442  -4.733  1.00  0.00     0.039 A 
ATOM     34  C   UNL     1       2.701  13.032  -6.000  1.00  0.00     0.014 A 
ATOM     35  C   UNL     1       1.621  12.753  -3.853  1.00  0.00     0.014 A 
ATOM     36  C   UNL     1       1.659  13.866  -6.414  1.00  0.00     0.010 A 
ATOM     37  C   UNL     1       0.548  13.528  -4.293  1.00  0.00     0.010 A 
ATOM     38  C   UNL     1       0.550  14.085  -5.581  1.00  0.00    -0.014 A 
BRANCH  38  39
ATOM     39  C   UNL     1      -0.629  14.858  -6.055  1.00  0.00     0.031 A 
ATOM     40  C   UNL     1      -1.025  16.144  -5.384  1.00  0.00     0.074 A 
ATOM     41  C   UNL     1      -1.396  14.357  -7.044  1.00  0.00     0.049 A 
ATOM     42  N   UNL     1      -2.052  16.918  -5.625  1.00  0.00    -0.248 NA
ATOM     43  C   UNL     1      -0.170  16.606  -4.280  1.00  0.00     0.031 C 
ATOM     44  C   UNL     1      -1.156  13.092  -7.742  1.00  0.00     0.029 A 
ATOM     45  N   UNL     1      -2.542  14.843  -7.624  1.00  0.00    -0.354 N 
ATOM     46  C   UNL     1      -1.978  17.949  -4.696  1.00  0.00     0.074 A 
ATOM     47  C   UNL     1      -0.832  17.671  -3.855  1.00  0.00     0.031 C 
ATOM     48  C   UNL     1      -2.116  12.908  -8.662  1.00  0.00     0.029 A 
ATOM     49  C   UNL     1      -3.059  14.020  -8.596  1.00  0.00     0.049 A 
ATOM     50  H   UNL     1      -2.954  15.700  -7.368  1.00  0.00     0.167 HD
ATOM     51  C   UNL     1      -2.777  19.035  -4.562  1.00  0.00     0.031 A 
ATOM     52  C   UNL     1      -4.174  14.134  -9.345  1.00  0.00     0.031 A 
ATOM     53  C   UNL     1      -3.921  19.305  -5.393  1.00  0.00     0.049 A 
ATOM     54  C   UNL     1      -5.049  15.344  -9.184  1.00  0.00     0.074 A 
ATOM     55  C   UNL     1      -4.758  20.407  -5.375  1.00  0.00     0.029 A 
ATOM     56  N   UNL     1      -4.398  18.458  -6.383  1.00  0.00    -0.354 N 
ATOM     57  N   UNL     1      -4.914  16.352  -8.354  1.00  0.00    -0.248 NA
ATOM     58  C   UNL     1      -6.218  15.441 -10.068  1.00  0.00     0.031 C 
ATOM     59  C   UNL     1      -5.772  20.202  -6.319  1.00  0.00     0.029 A 
ATOM     60  C   UNL     1      -5.534  18.999  -6.965  1.00  0.00     0.049 A 
ATOM     61  H   UNL     1      -3.990  17.599  -6.636  1.00  0.00     0.167 HD
ATOM     62  C   UNL     1      -5.974  17.210  -8.626  1.00  0.00     0.074 A 
ATOM     63  C   UNL     1      -6.729  16.612  -9.709  1.00  0.00     0.031 C 
ATOM     64  C   UNL     1      -6.290  18.387  -8.030  1.00  0.00     0.031 A 
BRANCH  51  65
ATOM     65  C   UNL     1      -2.442  20.000  -3.453  1.00  0.00    -0.014 A 
ATOM     66  C   UNL     1      -1.272  20.782  -3.498  1.00  0.00     0.010 A 
ATOM     67  C   UNL     1      -3.301  20.123  -2.346  1.00  0.00     0.010 A 
ATOM     68  C   UNL     1      -0.931  21.611  -2.426  1.00  0.00     0.020 A 
ATOM     69  C   UNL     1      -2.981  20.976  -1.286  1.00  0.00     0.020 A 
ATOM     70  C   UNL     1      -1.782  21.692  -1.320  1.00  0.00     0.054 A 
BRANCH  70  71
ATOM     71  S   UNL     1      -1.303  22.752   0.071  1.00  0.00     0.124 S 
ATOM     72  O   UNL     1      -0.253  21.958   0.704  1.00  0.00    -0.237 OA
ATOM     73  O   UNL     1      -0.851  23.972  -0.593  1.00  0.00    -0.237 OA
ATOM     74  O   UNL     1      -2.534  22.887   0.845  1.00  0.00    -0.744 OA
ENDBRANCH  70  71
ENDBRANCH  51  65
BRANCH  52  75
ATOM     75  C   UNL     1      -4.503  13.063 -10.324  1.00  0.00    -0.014 A 
ATOM     76  C   UNL     1      -4.317  13.273 -11.701  1.00  0.00     0.010 A 
ATOM     77  C   UNL     1      -4.938  11.802  -9.876  1.00  0.00     0.010 A 
ATOM     78  C   UNL     1      -4.552  12.238 -12.612  1.00  0.00     0.020 A 
ATOM     79  C   UNL     1      -5.150  10.759 -10.780  1.00  0.00     0.020 A 
ATOM     80  C   UNL     1      -4.957  10.984 -12.145  1.00  0.00     0.054 A 
BRANCH  80  81
ATOM     81  S   UNL     1      -5.155   9.630 -13.336  1.00  0.00     0.124 S 
ATOM     82  O   UNL     1      -6.400   9.993 -14.006  1.00  0.00    -0.237 OA
ATOM     83  O   UNL     1      -3.944   9.743 -14.146  1.00  0.00    -0.237 OA
ATOM     84  O   UNL     1      -5.220   8.438 -12.493  1.00  0.00    -0.744 OA
ENDBRANCH  80  81
ENDBRANCH  52  75
BRANCH  64  85
ATOM     85  C   UNL     1      -7.502  19.119  -8.544  1.00  0.00    -0.014 A 
ATOM     86  C   UNL     1      -8.802  18.654  -8.274  1.00  0.00     0.010 A 
ATOM     87  C   UNL     1      -7.339  20.319  -9.261  1.00  0.00     0.010 A 
ATOM     88  C   UNL     1      -9.915  19.361  -8.736  1.00  0.00     0.020 A 
ATOM     89  C   UNL     1      -8.450  21.042  -9.702  1.00  0.00     0.020 A 
ATOM     90  C   UNL     1      -9.732  20.551  -9.448  1.00  0.00     0.054 A 
BRANCH  90  91
ATOM     91  S   UNL     1     -11.194  21.475  -9.997  1.00  0.00     0.124 S 
ATOM     92  O   UNL     1     -11.669  20.658 -11.110  1.00  0.00    -0.237 OA
ATOM     93  O   UNL     1     -12.042  21.472  -8.808  1.00  0.00    -0.237 OA
ATOM     94  O   UNL     1     -10.658  22.783 -10.369  1.00  0.00    -0.744 OA
ENDBRANCH  90  91
ENDBRANCH  64  85
ENDBRANCH  38  39
ENDBRANCH  30  33
ENDBRANCH  28  29
ENDBRANCH  27  28
ENDBRANCH   1  27
TORSDOF 19
