REMARK SMILES CCC[C@@H](C)[C@H](NS(=O)(=O)c1ccc(C)c(C)c1)C(=O)NCCCCNC(=O)c1ccc(-c2c3nc(c(-c4ccc(S(=O)(=O)[O-])cc4)c4ccc([nH]4)c(-c4ccc(S(=O)(=O)[O-])cc4)c4nc(c(-c5ccc(S(=O)(=O)[O-])cc5)c5ccc2[nH]5)C=C4)C=C3)cc1
REMARK SMILES IDX 23 1 22 2 21 3 19 4 20 5 6 7 4 8 5 9 3 10 2 11 1 12 7 13
REMARK SMILES IDX 8 15 9 16 10 17 11 18 12 19 18 20 13 21 16 22 14 23 17 24
REMARK SMILES IDX 15 25 24 26 25 27 26 28 27 29 28 31 29 32 30 33 88 34 31 35
REMARK SMILES IDX 87 36 32 37 33 38 34 39 81 40 35 41 86 42 80 43 82 44 36 45
REMARK SMILES IDX 85 46 79 47 78 48 37 50 67 51 48 52 66 53 49 54 52 55 65 56
REMARK SMILES IDX 83 57 50 58 51 59 64 61 84 62 53 63 38 64 39 65 47 66 40 67
REMARK SMILES IDX 46 68 41 69 42 70 43 71 44 72 45 73 68 74 69 75 77 76 70 77
REMARK SMILES IDX 76 78 71 79 72 80 73 81 74 82 75 83 54 84 55 85 63 86 56 87
REMARK SMILES IDX 62 88 57 89 58 90 59 91 60 92 61 93
REMARK H PARENT 21 6 7 14 26 30 82 49 52 60
REMARK Flexibility Score: inf
ROOT
ATOM      1  C   UNL     1       0.851   4.277  -2.200  1.00  0.00     0.023 C 
ENDROOT
BRANCH   1   2
ATOM      2  C   UNL     1       1.663   4.668  -0.963  1.00  0.00     0.116 C 
BRANCH   2   3
ATOM      3  N   UNL     1       0.793   5.206   0.051  1.00  0.00    -0.355 N 
ATOM      4  C   UNL     1       0.351   4.659   1.210  1.00  0.00     0.238 C 
ATOM      5  O   UNL     1      -0.588   5.254   1.759  1.00  0.00    -0.273 OA
ATOM      6  H   UNL     1       0.468   6.119  -0.126  1.00  0.00     0.163 HD
BRANCH   4   7
ATOM      7  C   UNL     1       1.002   3.469   1.923  1.00  0.00     0.161 C 
BRANCH   7   8
ATOM      8  C   UNL     1       2.479   3.636   2.384  1.00  0.00     0.013 C 
ATOM      9  C   UNL     1       2.779   2.618   3.517  1.00  0.00     0.010 C 
BRANCH   8  10
ATOM     10  C   UNL     1       2.844   5.047   2.908  1.00  0.00     0.005 C 
BRANCH  10  11
ATOM     11  C   UNL     1       4.360   5.258   3.073  1.00  0.00    -0.003 C 
ATOM     12  C   UNL     1       5.064   5.505   1.746  1.00  0.00     0.004 C 
ENDBRANCH  10  11
ENDBRANCH   8  10
ENDBRANCH   7   8
BRANCH   7  13
ATOM     13  N   UNL     1       0.736   2.059   1.564  1.00  0.00    -0.198 NA
ATOM     14  H   UNL     1      -0.238   1.929   1.837  1.00  0.00     0.142 HD
BRANCH  13  15
ATOM     15  S   UNL     1       0.851   1.204   0.146  1.00  0.00     0.241 S 
ATOM     16  O   UNL     1       0.548  -0.157   0.518  1.00  0.00    -0.207 OA
ATOM     17  O   UNL     1       0.043   1.885  -0.839  1.00  0.00    -0.207 OA
BRANCH  15  18
ATOM     18  C   UNL     1       2.542   1.189  -0.408  1.00  0.00     0.082 A 
ATOM     19  C   UNL     1       3.593   1.113   0.497  1.00  0.00     0.022 A 
ATOM     20  C   UNL     1       2.822   1.267  -1.778  1.00  0.00     0.025 A 
ATOM     21  C   UNL     1       4.908   1.280   0.055  1.00  0.00     0.005 A 
ATOM     22  C   UNL     1       4.149   1.361  -2.243  1.00  0.00    -0.047 A 
ATOM     23  C   UNL     1       5.199   1.440  -1.308  1.00  0.00    -0.048 A 
ATOM     24  C   UNL     1       4.388   1.405  -3.729  1.00  0.00     0.044 C 
ATOM     25  C   UNL     1       6.629   1.653  -1.730  1.00  0.00     0.044 C 
ENDBRANCH  15  18
ENDBRANCH  13  15
ENDBRANCH   7  13
ENDBRANCH   4   7
ENDBRANCH   2   3
ENDBRANCH   1   2
BRANCH   1  26
ATOM     26  C   UNL     1       0.584   5.389  -3.200  1.00  0.00     0.023 C 
BRANCH  26  27
ATOM     27  C   UNL     1       1.829   6.027  -3.789  1.00  0.00     0.116 C 
BRANCH  27  28
ATOM     28  N   UNL     1       2.749   5.067  -4.395  1.00  0.00    -0.352 N 
ATOM     29  C   UNL     1       3.219   5.001  -5.688  1.00  0.00     0.251 C 
ATOM     30  H   UNL     1       3.081   4.365  -3.790  1.00  0.00     0.163 HD
ATOM     31  O   UNL     1       3.905   4.056  -6.062  1.00  0.00    -0.269 OA
BRANCH  29  32
ATOM     32  C   UNL     1       2.847   6.071  -6.631  1.00  0.00     0.039 A 
ATOM     33  C   UNL     1       2.275   5.731  -7.858  1.00  0.00     0.014 A 
ATOM     34  C   UNL     1       2.955   7.405  -6.238  1.00  0.00     0.014 A 
ATOM     35  C   UNL     1       1.691   6.731  -8.635  1.00  0.00     0.010 A 
ATOM     36  C   UNL     1       2.272   8.376  -6.954  1.00  0.00     0.010 A 
ATOM     37  C   UNL     1       1.619   8.047  -8.151  1.00  0.00    -0.014 A 
BRANCH  37  38
ATOM     38  C   UNL     1       0.834   9.095  -8.848  1.00  0.00     0.031 A 
ATOM     39  C   UNL     1       1.512  10.356  -9.308  1.00  0.00     0.074 A 
ATOM     40  C   UNL     1      -0.503   8.957  -8.964  1.00  0.00     0.049 A 
ATOM     41  N   UNL     1       0.984  11.434  -9.823  1.00  0.00    -0.248 NA
ATOM     42  C   UNL     1       2.972  10.430  -9.128  1.00  0.00     0.031 C 
ATOM     43  C   UNL     1      -1.284   7.806  -8.501  1.00  0.00     0.029 A 
ATOM     44  N   UNL     1      -1.448   9.799  -9.498  1.00  0.00    -0.354 N 
ATOM     45  C   UNL     1       2.039  12.320 -10.005  1.00  0.00     0.074 A 
ATOM     46  C   UNL     1       3.227  11.677  -9.492  1.00  0.00     0.031 C 
ATOM     47  C   UNL     1      -2.579   7.999  -8.800  1.00  0.00     0.029 A 
ATOM     48  C   UNL     1      -2.731   9.306  -9.428  1.00  0.00     0.049 A 
ATOM     49  H   UNL     1      -1.227  10.673  -9.893  1.00  0.00     0.167 HD
ATOM     50  C   UNL     1       2.023  13.549 -10.571  1.00  0.00     0.031 A 
ATOM     51  C   UNL     1      -3.901   9.852  -9.813  1.00  0.00     0.031 A 
ATOM     52  C   UNL     1       0.840  14.172 -11.098  1.00  0.00     0.049 A 
ATOM     53  C   UNL     1      -3.893  11.222 -10.434  1.00  0.00     0.074 A 
ATOM     54  C   UNL     1       0.727  15.382 -11.758  1.00  0.00     0.029 A 
ATOM     55  N   UNL     1      -0.436  13.634 -11.022  1.00  0.00    -0.354 N 
ATOM     56  N   UNL     1      -2.872  12.011 -10.671  1.00  0.00    -0.248 NA
ATOM     57  C   UNL     1      -5.192  11.774 -10.840  1.00  0.00     0.031 C 
ATOM     58  C   UNL     1      -0.627  15.602 -12.032  1.00  0.00     0.029 A 
ATOM     59  C   UNL     1      -1.349  14.503 -11.594  1.00  0.00     0.049 A 
ATOM     60  H   UNL     1      -0.660  12.764 -10.621  1.00  0.00     0.167 HD
ATOM     61  C   UNL     1      -3.404  13.148 -11.267  1.00  0.00     0.074 A 
ATOM     62  C   UNL     1      -4.833  12.933 -11.377  1.00  0.00     0.031 C 
ATOM     63  C   UNL     1      -2.769  14.272 -11.682  1.00  0.00     0.031 A 
BRANCH  50  64
ATOM     64  C   UNL     1       3.329  14.295 -10.648  1.00  0.00    -0.014 A 
ATOM     65  C   UNL     1       4.364  13.863 -11.498  1.00  0.00     0.010 A 
ATOM     66  C   UNL     1       3.515  15.462  -9.884  1.00  0.00     0.010 A 
ATOM     67  C   UNL     1       5.576  14.556 -11.548  1.00  0.00     0.020 A 
ATOM     68  C   UNL     1       4.715  16.176  -9.955  1.00  0.00     0.020 A 
ATOM     69  C   UNL     1       5.744  15.708 -10.774  1.00  0.00     0.054 A 
BRANCH  69  70
ATOM     70  S   UNL     1       7.319  16.600 -10.879  1.00  0.00     0.124 S 
ATOM     71  O   UNL     1       8.221  15.703 -10.161  1.00  0.00    -0.237 OA
ATOM     72  O   UNL     1       7.540  16.690 -12.320  1.00  0.00    -0.237 OA
ATOM     73  O   UNL     1       7.044  17.871 -10.213  1.00  0.00    -0.744 OA
ENDBRANCH  69  70
ENDBRANCH  50  64
BRANCH  51  74
ATOM     74  C   UNL     1      -5.173   9.099  -9.630  1.00  0.00    -0.014 A 
ATOM     75  C   UNL     1      -5.864   8.587 -10.742  1.00  0.00     0.010 A 
ATOM     76  C   UNL     1      -5.693   8.876  -8.341  1.00  0.00     0.010 A 
ATOM     77  C   UNL     1      -7.058   7.880 -10.571  1.00  0.00     0.020 A 
ATOM     78  C   UNL     1      -6.872   8.146  -8.164  1.00  0.00     0.020 A 
ATOM     79  C   UNL     1      -7.554   7.661  -9.283  1.00  0.00     0.054 A 
BRANCH  79  80
ATOM     80  S   UNL     1      -9.078   6.696  -9.084  1.00  0.00     0.124 S 
ATOM     81  O   UNL     1     -10.094   7.636  -9.545  1.00  0.00    -0.237 OA
ATOM     82  O   UNL     1      -8.838   5.546  -9.952  1.00  0.00    -0.237 OA
ATOM     83  O   UNL     1      -9.106   6.393  -7.655  1.00  0.00    -0.744 OA
ENDBRANCH  79  80
ENDBRANCH  51  74
BRANCH  63  84
ATOM     84  C   UNL     1      -3.614  15.352 -12.300  1.00  0.00    -0.014 A 
ATOM     85  C   UNL     1      -4.464  16.145 -11.509  1.00  0.00     0.010 A 
ATOM     86  C   UNL     1      -3.506  15.620 -13.677  1.00  0.00     0.010 A 
ATOM     87  C   UNL     1      -5.211  17.173 -12.090  1.00  0.00     0.020 A 
ATOM     88  C   UNL     1      -4.230  16.665 -14.256  1.00  0.00     0.020 A 
ATOM     89  C   UNL     1      -5.087  17.428 -13.460  1.00  0.00     0.054 A 
BRANCH  89  90
ATOM     90  S   UNL     1      -6.025  18.804 -14.177  1.00  0.00     0.124 S 
ATOM     91  O   UNL     1      -7.386  18.275 -14.179  1.00  0.00    -0.237 OA
ATOM     92  O   UNL     1      -5.774  19.889 -13.232  1.00  0.00    -0.237 OA
ATOM     93  O   UNL     1      -5.424  18.982 -15.497  1.00  0.00    -0.744 OA
ENDBRANCH  89  90
ENDBRANCH  63  84
ENDBRANCH  37  38
ENDBRANCH  29  32
ENDBRANCH  27  28
ENDBRANCH  26  27
ENDBRANCH   1  26
TORSDOF 20
