REMARK SMILES O=C(NCCCCNC(=O)c1ccc(-c2c3nc(c(-c4ccc(S(=O)(=O)[O-])cc4)c4ccc([nH]4)c(-c4ccc(S(=O)(=O)[O-])cc4)c4nc(c(-c5ccc(S(=O)(=O)[O-])cc5)c5ccc2[nH]5)C=C4)C=C3)cc1)C1=Cc2c(cc(Cl)c(Cl)c2Cl)O[C@H]1C(F)(F)F
REMARK SMILES IDX 6 1 5 2 4 3 3 4 1 5 2 6 71 8 72 9 83 10 73 11 82 12 74 13
REMARK SMILES IDX 80 14 75 15 78 16 81 17 76 18 79 19 77 20 84 21 85 22 86 23
REMARK SMILES IDX 87 24 7 25 8 26 9 27 10 29 11 30 12 31 70 32 13 33 69 34
REMARK SMILES IDX 14 35 15 36 16 37 63 38 17 39 68 40 62 41 64 42 18 43 67 44
REMARK SMILES IDX 61 45 60 46 19 48 49 49 30 50 48 51 31 52 34 53 47 54 65 55
REMARK SMILES IDX 32 56 33 57 46 59 66 60 35 61 20 62 21 63 29 64 22 65 28 66
REMARK SMILES IDX 23 67 24 68 25 69 26 70 27 71 50 72 51 73 59 74 52 75 58 76
REMARK SMILES IDX 53 77 54 78 55 79 56 80 57 81 36 82 37 83 45 84 38 85 44 86
REMARK SMILES IDX 39 87 40 88 41 89 42 90 43 91
REMARK H PARENT 3 7 8 28 64 47 34 58
REMARK Flexibility Score: inf
ROOT
ATOM      1  C   UNL     1       3.863  -2.834  -3.310  1.00  0.00     0.023 C 
ENDROOT
BRANCH   1   2
ATOM      2  C   UNL     1       4.198  -2.698  -1.829  1.00  0.00     0.023 C 
BRANCH   2   3
ATOM      3  C   UNL     1       3.962  -1.327  -1.210  1.00  0.00     0.116 C 
BRANCH   3   4
ATOM      4  N   UNL     1       2.589  -1.012  -0.858  1.00  0.00    -0.352 N 
ATOM      5  O   UNL     1       0.934   0.034   0.277  1.00  0.00    -0.270 OA
ATOM      6  C   UNL     1       2.131  -0.069   0.029  1.00  0.00     0.251 C 
ATOM      7  H   UNL     1       1.897  -1.543  -1.315  1.00  0.00     0.163 HD
BRANCH   6   8
ATOM      8  C   UNL     1       3.098   0.811   0.747  1.00  0.00     0.067 C 
ATOM      9  C   UNL     1       3.696   1.750  -0.001  1.00  0.00     0.027 C 
ATOM     10  C   UNL     1       3.783   0.170   1.922  1.00  0.00     0.314 C 
ATOM     11  C   UNL     1       5.143   1.534  -0.191  1.00  0.00     0.037 A 
ATOM     12  O   UNL     1       5.236   0.129   1.809  1.00  0.00    -0.475 OA
ATOM     13  C   UNL     1       5.811   0.675   0.691  1.00  0.00     0.131 A 
ATOM     14  C   UNL     1       5.789   1.982  -1.363  1.00  0.00     0.072 A 
ATOM     15  C   UNL     1       7.095   0.230   0.390  1.00  0.00     0.069 A 
ATOM     16  C   UNL     1       7.070   1.502  -1.685  1.00  0.00     0.079 A 
ATOM     17  Cl  UNL     1       4.940   3.050  -2.445  1.00  0.00    -0.082 Cl
ATOM     18  C   UNL     1       7.707   0.612  -0.807  1.00  0.00     0.064 A 
ATOM     19  Cl  UNL     1       7.827   1.949  -3.182  1.00  0.00    -0.081 Cl
ATOM     20  Cl  UNL     1       9.236  -0.113  -1.165  1.00  0.00    -0.083 Cl
BRANCH  10  21
ATOM     21  C   UNL     1       3.371   0.839   3.251  1.00  0.00     0.429 C 
ATOM     22  F   UNL     1       2.293   1.647   3.129  1.00  0.00    -0.167 F 
ATOM     23  F   UNL     1       3.066  -0.092   4.188  1.00  0.00    -0.167 F 
ATOM     24  F   UNL     1       4.369   1.602   3.761  1.00  0.00    -0.167 F 
ENDBRANCH  10  21
ENDBRANCH   6   8
ENDBRANCH   3   4
ENDBRANCH   2   3
ENDBRANCH   1   2
BRANCH   1  25
ATOM     25  C   UNL     1       4.495  -1.814  -4.256  1.00  0.00     0.116 C 
BRANCH  25  26
ATOM     26  N   UNL     1       5.950  -1.748  -4.201  1.00  0.00    -0.352 N 
ATOM     27  C   UNL     1       6.863  -1.714  -5.238  1.00  0.00     0.251 C 
ATOM     28  H   UNL     1       6.338  -1.724  -3.296  1.00  0.00     0.163 HD
ATOM     29  O   UNL     1       8.062  -1.693  -4.997  1.00  0.00    -0.269 OA
BRANCH  27  30
ATOM     30  C   UNL     1       6.384  -1.784  -6.638  1.00  0.00     0.039 A 
ATOM     31  C   UNL     1       6.925  -2.758  -7.482  1.00  0.00     0.014 A 
ATOM     32  C   UNL     1       5.347  -0.964  -7.087  1.00  0.00     0.014 A 
ATOM     33  C   UNL     1       6.336  -3.000  -8.726  1.00  0.00     0.010 A 
ATOM     34  C   UNL     1       4.714  -1.257  -8.293  1.00  0.00     0.010 A 
ATOM     35  C   UNL     1       5.181  -2.301  -9.109  1.00  0.00    -0.014 A 
BRANCH  35  36
ATOM     36  C   UNL     1       4.402  -2.689 -10.316  1.00  0.00     0.031 A 
ATOM     37  C   UNL     1       4.218  -1.718 -11.449  1.00  0.00     0.074 A 
ATOM     38  C   UNL     1       3.768  -3.881 -10.340  1.00  0.00     0.049 A 
ATOM     39  N   UNL     1       3.482  -1.838 -12.524  1.00  0.00    -0.248 NA
ATOM     40  C   UNL     1       4.928  -0.433 -11.347  1.00  0.00     0.031 C 
ATOM     41  C   UNL     1       3.817  -4.893  -9.278  1.00  0.00     0.029 A 
ATOM     42  N   UNL     1       2.942  -4.440 -11.284  1.00  0.00    -0.354 N 
ATOM     43  C   UNL     1       3.612  -0.635 -13.208  1.00  0.00     0.074 A 
ATOM     44  C   UNL     1       4.476   0.211 -12.414  1.00  0.00     0.031 C 
ATOM     45  C   UNL     1       3.070  -5.949  -9.639  1.00  0.00     0.029 A 
ATOM     46  C   UNL     1       2.457  -5.680 -10.934  1.00  0.00     0.049 A 
ATOM     47  H   UNL     1       2.716  -3.995 -12.133  1.00  0.00     0.167 HD
ATOM     48  C   UNL     1       3.068  -0.272 -14.394  1.00  0.00     0.031 A 
ATOM     49  C   UNL     1       1.606  -6.505 -11.576  1.00  0.00     0.031 A 
ATOM     50  C   UNL     1       2.240  -1.128 -15.200  1.00  0.00     0.049 A 
ATOM     51  C   UNL     1       1.043  -6.088 -12.907  1.00  0.00     0.074 A 
ATOM     52  C   UNL     1       1.717  -0.880 -16.458  1.00  0.00     0.029 A 
ATOM     53  N   UNL     1       1.814  -2.394 -14.831  1.00  0.00    -0.354 N 
ATOM     54  N   UNL     1       1.249  -4.979 -13.575  1.00  0.00    -0.248 NA
ATOM     55  C   UNL     1       0.140  -7.037 -13.575  1.00  0.00     0.031 C 
ATOM     56  C   UNL     1       0.942  -1.982 -16.833  1.00  0.00     0.029 A 
ATOM     57  C   UNL     1       1.017  -2.932 -15.828  1.00  0.00     0.049 A 
ATOM     58  H   UNL     1       2.043  -2.844 -13.986  1.00  0.00     0.167 HD
ATOM     59  C   UNL     1       0.523  -5.109 -14.754  1.00  0.00     0.074 A 
ATOM     60  C   UNL     1      -0.117  -6.407 -14.713  1.00  0.00     0.031 C 
ATOM     61  C   UNL     1       0.400  -4.231 -15.779  1.00  0.00     0.031 A 
BRANCH  48  62
ATOM     62  C   UNL     1       3.350   1.117 -14.897  1.00  0.00    -0.014 A 
ATOM     63  C   UNL     1       4.615   1.464 -15.403  1.00  0.00     0.010 A 
ATOM     64  C   UNL     1       2.316   2.071 -14.921  1.00  0.00     0.010 A 
ATOM     65  C   UNL     1       4.851   2.751 -15.894  1.00  0.00     0.020 A 
ATOM     66  C   UNL     1       2.541   3.352 -15.432  1.00  0.00     0.020 A 
ATOM     67  C   UNL     1       3.813   3.688 -15.903  1.00  0.00     0.054 A 
BRANCH  67  68
ATOM     68  S   UNL     1       4.135   5.340 -16.580  1.00  0.00     0.124 S 
ATOM     69  O   UNL     1       4.909   5.958 -15.506  1.00  0.00    -0.237 OA
ATOM     70  O   UNL     1       4.880   5.047 -17.802  1.00  0.00    -0.237 OA
ATOM     71  O   UNL     1       2.801   5.896 -16.786  1.00  0.00    -0.744 OA
ENDBRANCH  67  68
ENDBRANCH  48  62
BRANCH  49  72
ATOM     72  C   UNL     1       1.230  -7.814 -10.975  1.00  0.00    -0.014 A 
ATOM     73  C   UNL     1       1.708  -9.015 -11.530  1.00  0.00     0.010 A 
ATOM     74  C   UNL     1       0.378  -7.870  -9.858  1.00  0.00     0.010 A 
ATOM     75  C   UNL     1       1.317 -10.247 -10.999  1.00  0.00     0.020 A 
ATOM     76  C   UNL     1       0.005  -9.100  -9.308  1.00  0.00     0.020 A 
ATOM     77  C   UNL     1       0.464 -10.282  -9.893  1.00  0.00     0.054 A 
BRANCH  77  78
ATOM     78  S   UNL     1      -0.012 -11.889  -9.198  1.00  0.00     0.124 S 
ATOM     79  O   UNL     1      -1.038 -12.332 -10.136  1.00  0.00    -0.237 OA
ATOM     80  O   UNL     1       1.244 -12.636  -9.233  1.00  0.00    -0.237 OA
ATOM     81  O   UNL     1      -0.488 -11.552  -7.858  1.00  0.00    -0.744 OA
ENDBRANCH  77  78
ENDBRANCH  49  72
BRANCH  61  82
ATOM     82  C   UNL     1      -0.425  -4.657 -16.961  1.00  0.00    -0.014 A 
ATOM     83  C   UNL     1      -1.829  -4.673 -16.900  1.00  0.00     0.010 A 
ATOM     84  C   UNL     1       0.216  -4.980 -18.171  1.00  0.00     0.010 A 
ATOM     85  C   UNL     1      -2.578  -5.026 -18.025  1.00  0.00     0.020 A 
ATOM     86  C   UNL     1      -0.530  -5.311 -19.304  1.00  0.00     0.020 A 
ATOM     87  C   UNL     1      -1.924  -5.342 -19.221  1.00  0.00     0.054 A 
BRANCH  87  88
ATOM     88  S   UNL     1      -2.918  -5.738 -20.685  1.00  0.00     0.124 S 
ATOM     89  O   UNL     1      -3.338  -7.108 -20.405  1.00  0.00    -0.237 OA
ATOM     90  O   UNL     1      -3.978  -4.734 -20.638  1.00  0.00    -0.237 OA
ATOM     91  O   UNL     1      -1.976  -5.588 -21.793  1.00  0.00    -0.744 OA
ENDBRANCH  87  88
ENDBRANCH  61  82
ENDBRANCH  35  36
ENDBRANCH  27  30
ENDBRANCH  25  26
ENDBRANCH   1  25
TORSDOF 15
