REMARK SMILES C=CCN1C(=O)/C(=C/c2ccc(-c3ccc(Cl)c(C(=O)NCCCCNC(=O)c4ccc(-c5c6nc(c(-c7ccc(S(=O)(=O)[O-])cc7)c7ccc([nH]7)c(-c7ccc(S(=O)(=O)[O-])cc7)c7nc(c(-c8ccc(S(=O)(=O)[O-])cc8)c8ccc5[nH]8)C=C7)C=C6)cc4)c3)o2)C(=O)NC1=S
REMARK SMILES IDX 23 1 22 2 21 3 19 4 20 5 18 7 13 8 14 9 89 10 15 11 16 12
REMARK SMILES IDX 17 13 12 14 9 15 10 16 90 17 11 18 8 19 4 20 5 21 94 22 6 23
REMARK SMILES IDX 7 24 93 25 95 26 91 27 92 29 3 30 2 31 1 32 24 33 25 34
REMARK SMILES IDX 26 35 27 36 28 38 29 39 30 40 88 41 31 42 87 43 32 44 33 45
REMARK SMILES IDX 34 46 81 47 35 48 86 49 80 50 82 51 36 52 85 53 79 54 78 55
REMARK SMILES IDX 37 57 67 58 48 59 66 60 49 61 52 62 65 63 83 64 50 65 51 66
REMARK SMILES IDX 64 68 84 69 53 70 38 71 39 72 47 73 40 74 46 75 41 76 42 77
REMARK SMILES IDX 43 78 44 79 45 80 68 81 69 82 77 83 70 84 76 85 71 86 72 87
REMARK SMILES IDX 73 88 74 89 75 90 54 91 55 92 63 93 56 94 62 95 57 96 58 97
REMARK SMILES IDX 59 98 60 99 61 100
REMARK H PARENT 21 6 93 28 26 37 82 56 52 67
REMARK Flexibility Score: inf
ROOT
ATOM      1  C   UNL     1      -6.019  11.064  -7.627  1.00  0.00     0.023 C 
ENDROOT
BRANCH   1   2
ATOM      2  C   UNL     1      -6.145  11.181  -6.113  1.00  0.00     0.116 C 
BRANCH   2   3
ATOM      3  N   UNL     1      -6.643   9.998  -5.434  1.00  0.00    -0.352 N 
ATOM      4  C   UNL     1      -6.354   9.498  -4.181  1.00  0.00     0.252 C 
ATOM      5  O   UNL     1      -6.953   8.492  -3.800  1.00  0.00    -0.269 OA
ATOM      6  H   UNL     1      -7.292   9.468  -5.950  1.00  0.00     0.163 HD
BRANCH   4   7
ATOM      7  C   UNL     1      -5.287  10.061  -3.306  1.00  0.00     0.059 A 
ATOM      8  C   UNL     1      -3.496   9.569  -1.710  1.00  0.00     0.018 A 
ATOM      9  C   UNL     1      -3.175  10.930  -1.676  1.00  0.00     0.013 A 
ATOM     10  C   UNL     1      -4.496   9.130  -2.590  1.00  0.00     0.027 A 
ATOM     11  C   UNL     1      -3.981  11.855  -2.328  1.00  0.00     0.022 A 
ATOM     12  C   UNL     1      -5.097  11.425  -3.050  1.00  0.00     0.053 A 
ATOM     13  Cl  UNL     1      -6.283  12.643  -3.362  1.00  0.00    -0.083 Cl
BRANCH   8  14
ATOM     14  C   UNL     1      -2.944   8.724  -0.662  1.00  0.00     0.134 A 
ATOM     15  C   UNL     1      -1.976   6.916   0.179  1.00  0.00     0.128 A 
ATOM     16  C   UNL     1      -2.232   7.785   1.230  1.00  0.00     0.051 A 
ATOM     17  O   UNL     1      -2.413   7.517  -0.989  1.00  0.00    -0.457 OA
ATOM     18  C   UNL     1      -2.855   8.927   0.698  1.00  0.00     0.051 A 
BRANCH  15  19
ATOM     19  C   UNL     1      -1.326   5.659   0.195  1.00  0.00     0.066 C 
ATOM     20  N   UNL     1      -1.724   2.146   0.520  1.00  0.00    -0.281 N 
ATOM     21  C   UNL     1      -0.991   3.333   0.573  1.00  0.00     0.266 C 
ATOM     22  C   UNL     1      -3.015   2.056   1.054  1.00  0.00     0.183 C 
ATOM     23  O   UNL     1       0.225   3.436   0.422  1.00  0.00    -0.268 OA
ATOM     24  C   UNL     1      -1.779   4.561   0.829  1.00  0.00     0.109 C 
ATOM     25  N   UNL     1      -3.531   3.188   1.630  1.00  0.00    -0.298 N 
ATOM     26  S   UNL     1      -4.023   0.712   1.083  1.00  0.00    -0.040 S 
ATOM     27  C   UNL     1      -3.012   4.451   1.617  1.00  0.00     0.263 C 
ATOM     28  H   UNL     1      -4.381   3.077   2.114  1.00  0.00     0.172 HD
ATOM     29  O   UNL     1      -3.553   5.365   2.225  1.00  0.00    -0.269 OA
BRANCH  20  30
ATOM     30  C   UNL     1      -1.187   1.005  -0.258  1.00  0.00     0.155 C 
BRANCH  30  31
ATOM     31  C   UNL     1       0.302   0.848  -0.307  1.00  0.00    -0.013 C 
ATOM     32  C   UNL     1       0.989  -0.195   0.179  1.00  0.00     0.006 C 
ENDBRANCH  30  31
ENDBRANCH  20  30
ENDBRANCH  15  19
ENDBRANCH   8  14
ENDBRANCH   4   7
ENDBRANCH   2   3
ENDBRANCH   1   2
BRANCH   1  33
ATOM     33  C   UNL     1      -7.314  10.839  -8.408  1.00  0.00     0.023 C 
BRANCH  33  34
ATOM     34  C   UNL     1      -8.503  11.734  -8.064  1.00  0.00     0.116 C 
BRANCH  34  35
ATOM     35  N   UNL     1      -8.239  13.160  -8.193  1.00  0.00    -0.352 N 
ATOM     36  C   UNL     1      -8.890  14.126  -8.927  1.00  0.00     0.251 C 
ATOM     37  H   UNL     1      -7.471  13.486  -7.670  1.00  0.00     0.163 HD
ATOM     38  O   UNL     1      -8.459  15.276  -8.931  1.00  0.00    -0.269 OA
BRANCH  36  39
ATOM     39  C   UNL     1     -10.072  13.781  -9.751  1.00  0.00     0.039 A 
ATOM     40  C   UNL     1     -10.134  14.252 -11.066  1.00  0.00     0.014 A 
ATOM     41  C   UNL     1     -11.106  12.988  -9.249  1.00  0.00     0.014 A 
ATOM     42  C   UNL     1     -11.173  13.841 -11.906  1.00  0.00     0.010 A 
ATOM     43  C   UNL     1     -12.097  12.516 -10.108  1.00  0.00     0.010 A 
ATOM     44  C   UNL     1     -12.134  12.924 -11.451  1.00  0.00    -0.014 A 
BRANCH  44  45
ATOM     45  C   UNL     1     -13.163  12.358 -12.364  1.00  0.00     0.031 A 
ATOM     46  C   UNL     1     -14.626  12.599 -12.106  1.00  0.00     0.074 A 
ATOM     47  C   UNL     1     -12.784  11.560 -13.384  1.00  0.00     0.049 A 
ATOM     48  N   UNL     1     -15.665  12.114 -12.736  1.00  0.00    -0.248 NA
ATOM     49  C   UNL     1     -14.965  13.479 -10.976  1.00  0.00     0.031 C 
ATOM     50  C   UNL     1     -11.402  11.210 -13.723  1.00  0.00     0.029 A 
ATOM     51  N   UNL     1     -13.532  10.890 -14.322  1.00  0.00    -0.354 N 
ATOM     52  C   UNL     1     -16.779  12.612 -12.070  1.00  0.00     0.074 A 
ATOM     53  C   UNL     1     -16.288  13.399 -10.959  1.00  0.00     0.031 C 
ATOM     54  C   UNL     1     -11.400  10.416 -14.806  1.00  0.00     0.029 A 
ATOM     55  C   UNL     1     -12.778  10.165 -15.216  1.00  0.00     0.049 A 
ATOM     56  H   UNL     1     -14.515  10.926 -14.353  1.00  0.00     0.167 HD
ATOM     57  C   UNL     1     -18.091  12.449 -12.365  1.00  0.00     0.031 A 
ATOM     58  C   UNL     1     -13.150   9.380 -16.246  1.00  0.00     0.031 A 
ATOM     59  C   UNL     1     -18.582  11.680 -13.478  1.00  0.00     0.049 A 
ATOM     60  C   UNL     1     -14.613   9.211 -16.552  1.00  0.00     0.074 A 
ATOM     61  C   UNL     1     -19.892  11.492 -13.883  1.00  0.00     0.029 A 
ATOM     62  N   UNL     1     -17.784  10.977 -14.367  1.00  0.00    -0.354 N 
ATOM     63  N   UNL     1     -15.648   9.729 -15.935  1.00  0.00    -0.248 NA
ATOM     64  C   UNL     1     -14.957   8.359 -17.699  1.00  0.00     0.031 C 
ATOM     65  C   UNL     1     -19.889  10.646 -14.998  1.00  0.00     0.029 A 
ATOM     66  C   UNL     1     -18.573  10.346 -15.313  1.00  0.00     0.049 A 
ATOM     67  H   UNL     1     -16.801  10.934 -14.331  1.00  0.00     0.167 HD
ATOM     68  C   UNL     1     -16.765   9.288 -16.637  1.00  0.00     0.074 A 
ATOM     69  C   UNL     1     -16.278   8.471 -17.730  1.00  0.00     0.031 C 
ATOM     70  C   UNL     1     -18.075   9.540 -16.398  1.00  0.00     0.031 A 
BRANCH  57  71
ATOM     71  C   UNL     1     -19.091  13.123 -11.463  1.00  0.00    -0.014 A 
ATOM     72  C   UNL     1     -19.243  14.522 -11.474  1.00  0.00     0.010 A 
ATOM     73  C   UNL     1     -19.907  12.352 -10.616  1.00  0.00     0.010 A 
ATOM     74  C   UNL     1     -20.159  15.141 -10.620  1.00  0.00     0.020 A 
ATOM     75  C   UNL     1     -20.844  12.966  -9.779  1.00  0.00     0.020 A 
ATOM     76  C   UNL     1     -20.950  14.359  -9.773  1.00  0.00     0.054 A 
BRANCH  76  77
ATOM     77  S   UNL     1     -22.139  15.187  -8.682  1.00  0.00     0.124 S 
ATOM     78  O   UNL     1     -21.266  15.735  -7.647  1.00  0.00    -0.237 OA
ATOM     79  O   UNL     1     -22.756  16.172  -9.568  1.00  0.00    -0.237 OA
ATOM     80  O   UNL     1     -23.021  14.107  -8.247  1.00  0.00    -0.744 OA
ENDBRANCH  76  77
ENDBRANCH  57  71
BRANCH  58  81
ATOM     81  C   UNL     1     -12.120   8.706 -17.082  1.00  0.00    -0.014 A 
ATOM     82  C   UNL     1     -11.873   9.147 -18.395  1.00  0.00     0.010 A 
ATOM     83  C   UNL     1     -11.379   7.624 -16.574  1.00  0.00     0.010 A 
ATOM     84  C   UNL     1     -10.921   8.505 -19.191  1.00  0.00     0.020 A 
ATOM     85  C   UNL     1     -10.408   6.995 -17.359  1.00  0.00     0.020 A 
ATOM     86  C   UNL     1     -10.195   7.431 -18.668  1.00  0.00     0.054 A 
BRANCH  86  87
ATOM     87  S   UNL     1      -8.932   6.640 -19.703  1.00  0.00     0.124 S 
ATOM     88  O   UNL     1      -9.744   5.834 -20.609  1.00  0.00    -0.237 OA
ATOM     89  O   UNL     1      -8.255   7.784 -20.309  1.00  0.00    -0.237 OA
ATOM     90  O   UNL     1      -8.128   5.888 -18.743  1.00  0.00    -0.744 OA
ENDBRANCH  86  87
ENDBRANCH  58  81
BRANCH  70  91
ATOM     91  C   UNL     1     -19.077   8.957 -17.358  1.00  0.00    -0.014 A 
ATOM     92  C   UNL     1     -19.387   7.586 -17.344  1.00  0.00     0.010 A 
ATOM     93  C   UNL     1     -19.756   9.807 -18.251  1.00  0.00     0.010 A 
ATOM     94  C   UNL     1     -20.338   7.070 -18.228  1.00  0.00     0.020 A 
ATOM     95  C   UNL     1     -20.724   9.298 -19.119  1.00  0.00     0.020 A 
ATOM     96  C   UNL     1     -21.000   7.929 -19.111  1.00  0.00     0.054 A 
BRANCH  96  97
ATOM     97  S   UNL     1     -22.264   7.244 -20.218  1.00  0.00     0.124 S 
ATOM     98  O   UNL     1     -21.451   6.586 -21.236  1.00  0.00    -0.237 OA
ATOM     99  O   UNL     1     -23.013   6.350 -19.337  1.00  0.00    -0.237 OA
ATOM    100  O   UNL     1     -23.000   8.421 -20.672  1.00  0.00    -0.744 OA
ENDBRANCH  96  97
ENDBRANCH  70  91
ENDBRANCH  44  45
ENDBRANCH  36  39
ENDBRANCH  34  35
ENDBRANCH  33  34
ENDBRANCH   1  33
TORSDOF 18
