REMARK SMILES CCc1ccc(S(=O)(=O)N2CCC3(CC2)NC(=O)C[C@H]3C(=O)NCCCCNC(=O)c2ccc(-c3c4nc(c(-c5ccc(S(=O)(=O)[O-])cc5)c5ccc([nH]5)c(-c5ccc(S(=O)(=O)[O-])cc5)c5nc(c(-c6ccc(S(=O)(=O)[O-])cc6)c6ccc3[nH]6)C=C5)C=C4)cc2)s1
REMARK SMILES IDX 25 1 24 2 23 3 21 4 22 5 20 7 10 8 11 9 15 10 12 11 14 12
REMARK SMILES IDX 13 13 16 14 17 15 19 17 18 18 7 19 8 20 9 21 6 22 3 23 4 24
REMARK SMILES IDX 91 25 5 26 2 27 1 28 26 29 27 30 28 31 29 32 30 34 31 35
REMARK SMILES IDX 32 36 90 37 33 38 89 39 34 40 35 41 36 42 83 43 37 44 88 45
REMARK SMILES IDX 82 46 84 47 38 48 87 49 81 50 80 51 39 53 69 54 50 55 68 56
REMARK SMILES IDX 51 57 54 58 67 59 85 60 52 61 53 62 66 64 86 65 55 66 40 67
REMARK SMILES IDX 41 68 49 69 42 70 48 71 43 72 44 73 45 74 46 75 47 76 70 77
REMARK SMILES IDX 71 78 79 79 72 80 78 81 73 82 74 83 75 84 76 85 77 86 56 87
REMARK SMILES IDX 57 88 65 89 58 90 64 91 59 92 60 93 61 94 62 95 63 96
REMARK H PARENT 23 6 16 16 28 33 84 52 54 63
REMARK Flexibility Score: inf
ROOT
ATOM      1  C   UNL     1       2.390   4.458   2.428  1.00  0.00     0.023 C 
ENDROOT
BRANCH   1   2
ATOM      2  C   UNL     1       1.944   5.747   3.124  1.00  0.00     0.116 C 
BRANCH   2   3
ATOM      3  N   UNL     1       2.653   6.945   2.693  1.00  0.00    -0.356 N 
ATOM      4  C   UNL     1       2.384   7.955   1.823  1.00  0.00     0.226 C 
ATOM      5  O   UNL     1       3.226   8.860   1.765  1.00  0.00    -0.275 OA
ATOM      6  H   UNL     1       3.528   7.047   3.132  1.00  0.00     0.163 HD
BRANCH   4   7
ATOM      7  C   UNL     1       1.167   8.043   0.892  1.00  0.00     0.113 C 
ATOM      8  N   UNL     1       1.944   6.513  -2.886  1.00  0.00    -0.197 NA
ATOM      9  C   UNL     1       0.878   7.502  -2.740  1.00  0.00     0.105 C 
ATOM     10  C   UNL     1       2.939   6.613  -1.822  1.00  0.00     0.105 C 
ATOM     11  C   UNL     1       0.158   7.386  -1.404  1.00  0.00     0.046 C 
ATOM     12  C   UNL     1       2.293   6.196  -0.520  1.00  0.00     0.046 C 
ATOM     13  C   UNL     1       0.980   6.919  -0.155  1.00  0.00     0.055 C 
ATOM     14  N   UNL     1       0.062   6.051   0.576  1.00  0.00    -0.350 N 
ATOM     15  C   UNL     1      -0.725   6.729   1.482  1.00  0.00     0.221 C 
ATOM     16  H   UNL     1       0.010   5.077   0.435  1.00  0.00     0.164 HD
ATOM     17  C   UNL     1      -0.149   8.104   1.677  1.00  0.00     0.116 C 
ATOM     18  O   UNL     1      -1.709   6.270   2.034  1.00  0.00    -0.275 OA
BRANCH   8  19
ATOM     19  S   UNL     1       1.692   5.024  -3.662  1.00  0.00     0.252 S 
ATOM     20  O   UNL     1       2.987   4.481  -4.004  1.00  0.00    -0.206 OA
ATOM     21  O   UNL     1       0.665   5.217  -4.666  1.00  0.00    -0.206 OA
BRANCH  19  22
ATOM     22  C   UNL     1       0.945   3.864  -2.509  1.00  0.00     0.135 A 
ATOM     23  C   UNL     1       0.709   2.089  -0.784  1.00  0.00     0.006 A 
ATOM     24  C   UNL     1      -0.483   2.738  -1.039  1.00  0.00     0.017 A 
ATOM     25  S   UNL     1       1.958   2.665  -1.810  1.00  0.00    -0.127 S 
ATOM     26  C   UNL     1      -0.352   3.741  -2.043  1.00  0.00     0.034 A 
BRANCH  23  27
ATOM     27  C   UNL     1       0.975   1.022   0.243  1.00  0.00     0.043 C 
ATOM     28  C   UNL     1       1.277  -0.337  -0.370  1.00  0.00     0.010 C 
ENDBRANCH  23  27
ENDBRANCH  19  22
ENDBRANCH   8  19
ENDBRANCH   4   7
ENDBRANCH   2   3
ENDBRANCH   1   2
BRANCH   1  29
ATOM     29  C   UNL     1       3.808   3.996   2.756  1.00  0.00     0.023 C 
BRANCH  29  30
ATOM     30  C   UNL     1       4.026   3.664   4.223  1.00  0.00     0.116 C 
BRANCH  30  31
ATOM     31  N   UNL     1       3.071   2.690   4.736  1.00  0.00    -0.352 N 
ATOM     32  C   UNL     1       3.270   1.710   5.676  1.00  0.00     0.251 C 
ATOM     33  H   UNL     1       2.163   2.742   4.358  1.00  0.00     0.163 HD
ATOM     34  O   UNL     1       2.389   0.891   5.913  1.00  0.00    -0.269 OA
BRANCH  32  35
ATOM     35  C   UNL     1       4.574   1.638   6.362  1.00  0.00     0.039 A 
ATOM     36  C   UNL     1       5.237   0.412   6.428  1.00  0.00     0.014 A 
ATOM     37  C   UNL     1       5.163   2.797   6.872  1.00  0.00     0.014 A 
ATOM     38  C   UNL     1       6.531   0.363   6.944  1.00  0.00     0.010 A 
ATOM     39  C   UNL     1       6.481   2.762   7.302  1.00  0.00     0.010 A 
ATOM     40  C   UNL     1       7.176   1.544   7.346  1.00  0.00    -0.014 A 
BRANCH  40  41
ATOM     41  C   UNL     1       8.578   1.537   7.827  1.00  0.00     0.031 A 
ATOM     42  C   UNL     1       8.885   1.966   9.235  1.00  0.00     0.074 A 
ATOM     43  C   UNL     1       9.574   1.229   6.974  1.00  0.00     0.049 A 
ATOM     44  N   UNL     1      10.046   2.111   9.817  1.00  0.00    -0.248 NA
ATOM     45  C   UNL     1       7.735   2.312  10.088  1.00  0.00     0.031 C 
ATOM     46  C   UNL     1       9.404   0.849   5.569  1.00  0.00     0.029 A 
ATOM     47  N   UNL     1      10.931   1.193   7.166  1.00  0.00    -0.354 N 
ATOM     48  C   UNL     1       9.769   2.595  11.090  1.00  0.00     0.074 A 
ATOM     49  C   UNL     1       8.336   2.767  11.176  1.00  0.00     0.031 C 
ATOM     50  C   UNL     1      10.608   0.582   5.038  1.00  0.00     0.029 A 
ATOM     51  C   UNL     1      11.634   0.808   6.050  1.00  0.00     0.049 A 
ATOM     52  H   UNL     1      11.361   1.421   8.022  1.00  0.00     0.167 HD
ATOM     53  C   UNL     1      10.627   2.852  12.105  1.00  0.00     0.031 A 
ATOM     54  C   UNL     1      12.959   0.652   5.864  1.00  0.00     0.031 A 
ATOM     55  C   UNL     1      12.048   2.652  12.023  1.00  0.00     0.049 A 
ATOM     56  C   UNL     1      13.893   0.915   7.011  1.00  0.00     0.074 A 
ATOM     57  C   UNL     1      13.001   2.818  13.011  1.00  0.00     0.029 A 
ATOM     58  N   UNL     1      12.719   2.236  10.882  1.00  0.00    -0.354 N 
ATOM     59  N   UNL     1      13.608   1.317   8.227  1.00  0.00    -0.248 NA
ATOM     60  C   UNL     1      15.324   0.695   6.764  1.00  0.00     0.031 C 
ATOM     61  C   UNL     1      14.255   2.534  12.457  1.00  0.00     0.029 A 
ATOM     62  C   UNL     1      14.077   2.151  11.137  1.00  0.00     0.049 A 
ATOM     63  H   UNL     1      12.293   2.031  10.019  1.00  0.00     0.167 HD
ATOM     64  C   UNL     1      14.824   1.375   8.899  1.00  0.00     0.074 A 
ATOM     65  C   UNL     1      15.843   0.959   7.956  1.00  0.00     0.031 C 
ATOM     66  C   UNL     1      15.073   1.738  10.181  1.00  0.00     0.031 A 
BRANCH  53  67
ATOM     67  C   UNL     1      10.035   3.383  13.383  1.00  0.00    -0.014 A 
ATOM     68  C   UNL     1       9.234   2.568  14.204  1.00  0.00     0.010 A 
ATOM     69  C   UNL     1      10.264   4.718  13.759  1.00  0.00     0.010 A 
ATOM     70  C   UNL     1       8.619   3.096  15.341  1.00  0.00     0.020 A 
ATOM     71  C   UNL     1       9.674   5.243  14.912  1.00  0.00     0.020 A 
ATOM     72  C   UNL     1       8.833   4.435  15.681  1.00  0.00     0.054 A 
BRANCH  72  73
ATOM     73  S   UNL     1       8.007   5.106  17.149  1.00  0.00     0.124 S 
ATOM     74  O   UNL     1       6.648   5.318  16.656  1.00  0.00    -0.237 OA
ATOM     75  O   UNL     1       8.159   4.032  18.127  1.00  0.00    -0.237 OA
ATOM     76  O   UNL     1       8.760   6.323  17.443  1.00  0.00    -0.744 OA
ENDBRANCH  72  73
ENDBRANCH  53  67
BRANCH  54  77
ATOM     77  C   UNL     1      13.466   0.175   4.551  1.00  0.00    -0.014 A 
ATOM     78  C   UNL     1      13.907  -1.152   4.406  1.00  0.00     0.010 A 
ATOM     79  C   UNL     1      13.467   1.024   3.430  1.00  0.00     0.010 A 
ATOM     80  C   UNL     1      14.343  -1.622   3.165  1.00  0.00     0.020 A 
ATOM     81  C   UNL     1      13.884   0.551   2.181  1.00  0.00     0.020 A 
ATOM     82  C   UNL     1      14.325  -0.768   2.059  1.00  0.00     0.054 A 
BRANCH  82  83
ATOM     83  S   UNL     1      14.821  -1.424   0.441  1.00  0.00     0.124 S 
ATOM     84  O   UNL     1      16.273  -1.482   0.570  1.00  0.00    -0.237 OA
ATOM     85  O   UNL     1      14.137  -2.714   0.398  1.00  0.00    -0.237 OA
ATOM     86  O   UNL     1      14.313  -0.427  -0.500  1.00  0.00    -0.744 OA
ENDBRANCH  82  83
ENDBRANCH  54  77
BRANCH  66  87
ATOM     87  C   UNL     1      16.501   1.676  10.648  1.00  0.00    -0.014 A 
ATOM     88  C   UNL     1      17.435   2.650  10.254  1.00  0.00     0.010 A 
ATOM     89  C   UNL     1      16.896   0.661  11.538  1.00  0.00     0.010 A 
ATOM     90  C   UNL     1      18.749   2.595  10.725  1.00  0.00     0.020 A 
ATOM     91  C   UNL     1      18.203   0.617  12.028  1.00  0.00     0.020 A 
ATOM     92  C   UNL     1      19.125   1.578  11.608  1.00  0.00     0.054 A 
BRANCH  92  93
ATOM     93  S   UNL     1      20.823   1.555  12.246  1.00  0.00     0.124 S 
ATOM     94  O   UNL     1      21.567   1.023  11.108  1.00  0.00    -0.237 OA
ATOM     95  O   UNL     1      21.070   2.961  12.556  1.00  0.00    -0.237 OA
ATOM     96  O   UNL     1      20.743   0.673  13.408  1.00  0.00    -0.744 OA
ENDBRANCH  92  93
ENDBRANCH  66  87
ENDBRANCH  40  41
ENDBRANCH  32  35
ENDBRANCH  30  31
ENDBRANCH  29  30
ENDBRANCH   1  29
TORSDOF 17
