REMARK SMILES Cn1cc(S(=O)(=O)NC[C@H]2CC[C@@H](C(=O)NCCCCNC(=O)c3ccc(-c4c5nc(c(-c6ccc(S(=O)(=O)[O-])cc6)c6ccc([nH]6)c(-c6ccc(S(=O)(=O)[O-])cc6)c6nc(c(-c7ccc(S(=O)(=O)[O-])cc7)c7ccc4[nH]7)C=C6)C=C5)cc3)CC2)cn1
REMARK SMILES IDX 18 1 17 2 16 3 14 4 15 5 13 7 10 8 11 9 85 10 12 11 84 12
REMARK SMILES IDX 9 13 8 14 5 16 6 17 7 18 4 19 1 20 2 21 3 22 87 23 86 24
REMARK SMILES IDX 19 25 20 26 21 27 22 28 23 30 24 31 25 32 83 33 26 34 82 35
REMARK SMILES IDX 27 36 28 37 29 38 76 39 30 40 81 41 75 42 77 43 31 44 80 45
REMARK SMILES IDX 74 46 73 47 32 49 62 50 43 51 61 52 44 53 47 54 60 55 78 56
REMARK SMILES IDX 45 57 46 58 59 60 79 61 48 62 33 63 34 64 42 65 35 66 41 67
REMARK SMILES IDX 36 68 37 69 38 70 39 71 40 72 63 73 64 74 72 75 65 76 71 77
REMARK SMILES IDX 66 78 67 79 68 80 69 81 70 82 49 83 50 84 58 85 51 86 57 87
REMARK SMILES IDX 52 88 53 89 54 90 55 91 56 92
REMARK H PARENT 16 6 8 15 21 29 77 48 47 59
REMARK Flexibility Score: inf
ROOT
ATOM      1  C   UNL     1       5.174  -4.539  -0.267  1.00  0.00     0.023 C 
ENDROOT
BRANCH   1   2
ATOM      2  C   UNL     1       5.229  -3.099  -0.791  1.00  0.00     0.116 C 
BRANCH   2   3
ATOM      3  N   UNL     1       6.256  -2.872  -1.784  1.00  0.00    -0.356 N 
ATOM      4  C   UNL     1       6.179  -2.569  -3.105  1.00  0.00     0.223 C 
ATOM      5  O   UNL     1       7.189  -2.046  -3.598  1.00  0.00    -0.275 OA
ATOM      6  H   UNL     1       7.176  -2.950  -1.441  1.00  0.00     0.163 HD
BRANCH   4   7
ATOM      7  C   UNL     1       4.971  -2.840  -4.021  1.00  0.00     0.078 C 
ATOM      8  C   UNL     1       2.139  -2.963  -2.983  1.00  0.00     0.004 C 
ATOM      9  C   UNL     1       2.862  -1.640  -3.234  1.00  0.00     0.006 C 
ATOM     10  C   UNL     1       3.003  -4.231  -3.044  1.00  0.00     0.006 C 
ATOM     11  C   UNL     1       4.003  -1.680  -4.229  1.00  0.00     0.014 C 
ATOM     12  C   UNL     1       4.260  -4.182  -3.909  1.00  0.00     0.014 C 
BRANCH   8  13
ATOM     13  C   UNL     1       1.255  -2.907  -1.709  1.00  0.00     0.102 C 
BRANCH  13  14
ATOM     14  N   UNL     1       1.969  -2.743  -0.412  1.00  0.00    -0.211 NA
ATOM     15  H   UNL     1       1.491  -3.346   0.258  1.00  0.00     0.141 HD
BRANCH  14  16
ATOM     16  S   UNL     1       2.119  -1.218   0.338  1.00  0.00     0.243 S 
ATOM     17  O   UNL     1       3.133  -0.436  -0.316  1.00  0.00    -0.207 OA
ATOM     18  O   UNL     1       2.182  -1.471   1.762  1.00  0.00    -0.207 OA
BRANCH  16  19
ATOM     19  C   UNL     1       0.681  -0.332   0.141  1.00  0.00     0.120 A 
ATOM     20  C   UNL     1      -2.837   0.326  -0.032  1.00  0.00     0.173 C 
ATOM     21  N   UNL     1      -1.395   0.291  -0.015  1.00  0.00    -0.274 N 
ATOM     22  C   UNL     1      -0.612  -0.782   0.284  1.00  0.00     0.130 A 
ATOM     23  N   UNL     1      -0.699   1.395  -0.349  1.00  0.00    -0.180 NA
ATOM     24  C   UNL     1       0.578   1.016  -0.220  1.00  0.00     0.156 A 
ENDBRANCH  16  19
ENDBRANCH  14  16
ENDBRANCH  13  14
ENDBRANCH   8  13
ENDBRANCH   4   7
ENDBRANCH   2   3
ENDBRANCH   1   2
BRANCH   1  25
ATOM     25  C   UNL     1       5.614  -4.729   1.187  1.00  0.00     0.023 C 
BRANCH  25  26
ATOM     26  C   UNL     1       4.771  -3.994   2.230  1.00  0.00     0.116 C 
BRANCH  26  27
ATOM     27  N   UNL     1       3.372  -4.395   2.272  1.00  0.00    -0.352 N 
ATOM     28  C   UNL     1       2.465  -4.185   3.294  1.00  0.00     0.251 C 
ATOM     29  H   UNL     1       3.032  -4.871   1.480  1.00  0.00     0.163 HD
ATOM     30  O   UNL     1       1.294  -4.526   3.149  1.00  0.00    -0.269 OA
BRANCH  28  31
ATOM     31  C   UNL     1       2.958  -3.660   4.593  1.00  0.00     0.039 A 
ATOM     32  C   UNL     1       2.761  -4.441   5.736  1.00  0.00     0.014 A 
ATOM     33  C   UNL     1       3.729  -2.498   4.667  1.00  0.00     0.014 A 
ATOM     34  C   UNL     1       3.440  -4.125   6.917  1.00  0.00     0.010 A 
ATOM     35  C   UNL     1       4.456  -2.221   5.825  1.00  0.00     0.010 A 
ATOM     36  C   UNL     1       4.347  -3.052   6.951  1.00  0.00    -0.014 A 
BRANCH  36  37
ATOM     37  C   UNL     1       5.240  -2.839   8.121  1.00  0.00     0.031 A 
ATOM     38  C   UNL     1       5.129  -1.597   8.961  1.00  0.00     0.074 A 
ATOM     39  C   UNL     1       6.208  -3.742   8.388  1.00  0.00     0.049 A 
ATOM     40  N   UNL     1       5.841  -1.240  10.000  1.00  0.00    -0.248 NA
ATOM     41  C   UNL     1       4.099  -0.622   8.572  1.00  0.00     0.031 C 
ATOM     42  C   UNL     1       6.462  -4.965   7.620  1.00  0.00     0.029 A 
ATOM     43  N   UNL     1       7.163  -3.771   9.376  1.00  0.00    -0.354 N 
ATOM     44  C   UNL     1       5.352   0.001  10.386  1.00  0.00     0.074 A 
ATOM     45  C   UNL     1       4.314   0.356   9.440  1.00  0.00     0.031 C 
ATOM     46  C   UNL     1       7.481  -5.636   8.183  1.00  0.00     0.029 A 
ATOM     47  C   UNL     1       7.976  -4.879   9.328  1.00  0.00     0.049 A 
ATOM     48  H   UNL     1       7.256  -3.064  10.054  1.00  0.00     0.167 HD
ATOM     49  C   UNL     1       5.718   0.770  11.440  1.00  0.00     0.031 A 
ATOM     50  C   UNL     1       9.006  -5.250  10.115  1.00  0.00     0.031 A 
ATOM     51  C   UNL     1       6.752   0.422  12.380  1.00  0.00     0.049 A 
ATOM     52  C   UNL     1       9.398  -4.378  11.276  1.00  0.00     0.074 A 
ATOM     53  C   UNL     1       7.161   1.117  13.505  1.00  0.00     0.029 A 
ATOM     54  N   UNL     1       7.544  -0.713  12.302  1.00  0.00    -0.354 N 
ATOM     55  N   UNL     1       8.873  -3.241  11.665  1.00  0.00    -0.248 NA
ATOM     56  C   UNL     1      10.513  -4.845  12.111  1.00  0.00     0.031 C 
ATOM     57  C   UNL     1       8.228   0.421  14.085  1.00  0.00     0.029 A 
ATOM     58  C   UNL     1       8.451  -0.731  13.349  1.00  0.00     0.049 A 
ATOM     59  H   UNL     1       7.472  -1.405  11.604  1.00  0.00     0.167 HD
ATOM     60  C   UNL     1       9.576  -2.871  12.806  1.00  0.00     0.074 A 
ATOM     61  C   UNL     1      10.555  -3.910  13.051  1.00  0.00     0.031 C 
ATOM     62  C   UNL     1       9.421  -1.770  13.582  1.00  0.00     0.031 A 
BRANCH  49  63
ATOM     63  C   UNL     1       4.986   2.072  11.629  1.00  0.00    -0.014 A 
ATOM     64  C   UNL     1       3.644   2.090  12.051  1.00  0.00     0.010 A 
ATOM     65  C   UNL     1       5.650   3.292  11.406  1.00  0.00     0.010 A 
ATOM     66  C   UNL     1       2.964   3.302  12.198  1.00  0.00     0.020 A 
ATOM     67  C   UNL     1       4.981   4.508  11.578  1.00  0.00     0.020 A 
ATOM     68  C   UNL     1       3.635   4.503  11.953  1.00  0.00     0.054 A 
BRANCH  68  69
ATOM     69  S   UNL     1       2.731   6.062  12.157  1.00  0.00     0.124 S 
ATOM     70  O   UNL     1       1.892   6.081  10.961  1.00  0.00    -0.237 OA
ATOM     71  O   UNL     1       2.021   5.861  13.417  1.00  0.00    -0.237 OA
ATOM     72  O   UNL     1       3.785   7.072  12.194  1.00  0.00    -0.744 OA
ENDBRANCH  68  69
ENDBRANCH  49  63
BRANCH  50  73
ATOM     73  C   UNL     1       9.723  -6.527   9.850  1.00  0.00    -0.014 A 
ATOM     74  C   UNL     1       9.550  -7.630  10.706  1.00  0.00     0.010 A 
ATOM     75  C   UNL     1      10.575  -6.652   8.738  1.00  0.00     0.010 A 
ATOM     76  C   UNL     1      10.228  -8.828  10.465  1.00  0.00     0.020 A 
ATOM     77  C   UNL     1      11.236  -7.857   8.479  1.00  0.00     0.020 A 
ATOM     78  C   UNL     1      11.066  -8.934   9.351  1.00  0.00     0.054 A 
BRANCH  78  79
ATOM     79  S   UNL     1      11.893 -10.517   9.025  1.00  0.00     0.124 S 
ATOM     80  O   UNL     1      12.960 -10.513  10.020  1.00  0.00    -0.237 OA
ATOM     81  O   UNL     1      10.822 -11.486   9.248  1.00  0.00    -0.237 OA
ATOM     82  O   UNL     1      12.329 -10.393   7.635  1.00  0.00    -0.744 OA
ENDBRANCH  78  79
ENDBRANCH  50  73
BRANCH  62  83
ATOM     83  C   UNL     1      10.307  -1.647  14.793  1.00  0.00    -0.014 A 
ATOM     84  C   UNL     1      11.670  -1.322  14.669  1.00  0.00     0.010 A 
ATOM     85  C   UNL     1       9.755  -1.812  16.076  1.00  0.00     0.010 A 
ATOM     86  C   UNL     1      12.471  -1.194  15.807  1.00  0.00     0.020 A 
ATOM     87  C   UNL     1      10.547  -1.661  17.217  1.00  0.00     0.020 A 
ATOM     88  C   UNL     1      11.905  -1.367  17.075  1.00  0.00     0.054 A 
BRANCH  88  89
ATOM     89  S   UNL     1      12.954  -1.154  18.540  1.00  0.00     0.124 S 
ATOM     90  O   UNL     1      13.718  -2.398  18.549  1.00  0.00    -0.237 OA
ATOM     91  O   UNL     1      13.717   0.050  18.218  1.00  0.00    -0.237 OA
ATOM     92  O   UNL     1      11.995  -1.003  19.632  1.00  0.00    -0.744 OA
ENDBRANCH  88  89
ENDBRANCH  62  83
ENDBRANCH  36  37
ENDBRANCH  28  31
ENDBRANCH  26  27
ENDBRANCH  25  26
ENDBRANCH   1  25
TORSDOF 18
