REMARK SMILES Cc1cc(OC(F)(F)F)cc2c1O[C@H](C(F)(F)F)C(C(=O)NCCCCNC(=O)c1ccc(-c3c4nc(c(-c5ccc(S(=O)(=O)[O-])cc5)c5ccc([nH]5)c(-c5ccc(S(=O)(=O)[O-])cc5)c5nc(c(-c6ccc(S(=O)(=O)[O-])cc6)c6ccc3[nH]6)C=C5)C=C4)cc1)=C2
REMARK SMILES IDX 25 1 24 2 23 3 22 4 20 5 21 6 19 8 1 9 2 10 3 11 12 12 4 13
REMARK SMILES IDX 11 14 13 15 10 16 90 17 14 18 5 19 6 20 7 21 8 22 9 23 15 24
REMARK SMILES IDX 16 25 17 26 18 27 26 28 27 29 28 30 29 32 30 33 31 34 89 35
REMARK SMILES IDX 32 36 88 37 33 38 34 39 35 40 82 41 36 42 87 43 81 44 83 45
REMARK SMILES IDX 37 46 86 47 80 48 79 49 38 51 68 52 49 53 67 54 50 55 53 56
REMARK SMILES IDX 66 57 84 58 51 59 52 60 65 62 85 63 54 64 39 65 40 66 48 67
REMARK SMILES IDX 41 68 47 69 42 70 43 71 44 72 45 73 46 74 69 75 70 76 78 77
REMARK SMILES IDX 71 78 77 79 72 80 73 81 74 82 75 83 76 84 55 85 56 86 64 87
REMARK SMILES IDX 57 88 63 89 58 90 59 91 60 92 61 93 62 94
REMARK H PARENT 22 7 27 31 83 50 53 61
REMARK Flexibility Score: inf
ROOT
ATOM      1  C   UNL     1       2.843  -8.391   2.095  1.00  0.00     0.023 C 
ENDROOT
BRANCH   1   2
ATOM      2  C   UNL     1       2.422  -6.974   1.693  1.00  0.00     0.023 C 
BRANCH   2   3
ATOM      3  C   UNL     1       0.919  -6.725   1.772  1.00  0.00     0.116 C 
BRANCH   3   4
ATOM      4  N   UNL     1       0.508  -6.298   3.097  1.00  0.00    -0.352 N 
ATOM      5  C   UNL     1       0.235  -5.125   3.713  1.00  0.00     0.251 C 
ATOM      6  O   UNL     1      -0.082  -5.215   4.904  1.00  0.00    -0.270 OA
ATOM      7  H   UNL     1       0.399  -7.063   3.708  1.00  0.00     0.163 HD
BRANCH   5   8
ATOM      8  C   UNL     1       0.289  -3.779   3.069  1.00  0.00     0.067 C 
ATOM      9  C   UNL     1       1.059   0.316   0.064  1.00  0.00     0.048 C 
ATOM     10  C   UNL     1       0.573   0.100   1.469  1.00  0.00    -0.005 A 
ATOM     11  C   UNL     1       0.171   1.193   2.254  1.00  0.00     0.054 A 
ATOM     12  C   UNL     1       0.538  -1.185   2.026  1.00  0.00     0.131 A 
ATOM     13  C   UNL     1      -0.262   1.006   3.569  1.00  0.00     0.130 A 
ATOM     14  C   UNL     1       0.108  -1.385   3.338  1.00  0.00     0.021 A 
ATOM     15  O   UNL     1       0.984  -2.223   1.254  1.00  0.00    -0.475 OA
ATOM     16  C   UNL     1      -0.292  -0.286   4.104  1.00  0.00     0.058 A 
ATOM     17  C   UNL     1       0.116  -2.731   3.897  1.00  0.00     0.025 C 
ATOM     18  C   UNL     1       0.470  -3.540   1.597  1.00  0.00     0.314 C 
BRANCH  13  19
ATOM     19  O   UNL     1      -0.676   1.982   4.431  1.00  0.00    -0.406 OA
BRANCH  19  20
ATOM     20  C   UNL     1      -0.608   3.327   3.991  1.00  0.00     0.573 C 
ATOM     21  F   UNL     1       0.657   3.674   3.671  1.00  0.00    -0.132 F 
ATOM     22  F   UNL     1      -1.415   3.535   2.929  1.00  0.00    -0.132 F 
ATOM     23  F   UNL     1      -1.020   4.134   4.994  1.00  0.00    -0.132 F 
ENDBRANCH  19  20
ENDBRANCH  13  19
BRANCH  18  24
ATOM     24  C   UNL     1      -0.813  -3.810   0.787  1.00  0.00     0.429 C 
ATOM     25  F   UNL     1      -0.531  -3.867  -0.539  1.00  0.00    -0.167 F 
ATOM     26  F   UNL     1      -1.392  -4.991   1.108  1.00  0.00    -0.167 F 
ATOM     27  F   UNL     1      -1.751  -2.852   0.959  1.00  0.00    -0.167 F 
ENDBRANCH  18  24
ENDBRANCH   5   8
ENDBRANCH   3   4
ENDBRANCH   2   3
ENDBRANCH   1   2
BRANCH   1  28
ATOM     28  C   UNL     1       2.184  -9.519   1.302  1.00  0.00     0.116 C 
BRANCH  28  29
ATOM     29  N   UNL     1       2.314  -9.375  -0.141  1.00  0.00    -0.352 N 
ATOM     30  C   UNL     1       2.322 -10.380  -1.078  1.00  0.00     0.251 C 
ATOM     31  H   UNL     1       2.406  -8.456  -0.482  1.00  0.00     0.163 HD
ATOM     32  O   UNL     1       2.496 -10.138  -2.267  1.00  0.00    -0.269 OA
BRANCH  30  33
ATOM     33  C   UNL     1       2.158 -11.764  -0.603  1.00  0.00     0.039 A 
ATOM     34  C   UNL     1       3.224 -12.652  -0.747  1.00  0.00     0.014 A 
ATOM     35  C   UNL     1       0.995 -12.132   0.080  1.00  0.00     0.014 A 
ATOM     36  C   UNL     1       3.148 -13.907  -0.146  1.00  0.00     0.010 A 
ATOM     37  C   UNL     1       0.939 -13.369   0.712  1.00  0.00     0.010 A 
ATOM     38  C   UNL     1       2.018 -14.260   0.609  1.00  0.00    -0.014 A 
BRANCH  38  39
ATOM     39  C   UNL     1       1.951 -15.571   1.293  1.00  0.00     0.031 A 
ATOM     40  C   UNL     1       1.031 -16.634   0.772  1.00  0.00     0.074 A 
ATOM     41  C   UNL     1       2.693 -15.788   2.396  1.00  0.00     0.049 A 
ATOM     42  N   UNL     1       0.827 -17.840   1.234  1.00  0.00    -0.248 NA
ATOM     43  C   UNL     1       0.226 -16.294  -0.412  1.00  0.00     0.031 C 
ATOM     44  C   UNL     1       3.600 -14.816   3.012  1.00  0.00     0.029 A 
ATOM     45  N   UNL     1       2.804 -16.899   3.192  1.00  0.00    -0.354 N 
ATOM     46  C   UNL     1      -0.132 -18.401   0.401  1.00  0.00     0.074 A 
ATOM     47  C   UNL     1      -0.499 -17.392  -0.568  1.00  0.00     0.031 C 
ATOM     48  C   UNL     1       4.198 -15.386   4.072  1.00  0.00     0.029 A 
ATOM     49  C   UNL     1       3.704 -16.753   4.220  1.00  0.00     0.049 A 
ATOM     50  H   UNL     1       2.289 -17.724   3.040  1.00  0.00     0.167 HD
ATOM     51  C   UNL     1      -0.644 -19.652   0.428  1.00  0.00     0.031 A 
ATOM     52  C   UNL     1       4.096 -17.626   5.168  1.00  0.00     0.031 A 
ATOM     53  C   UNL     1      -0.269 -20.658   1.382  1.00  0.00     0.049 A 
ATOM     54  C   UNL     1       3.520 -19.013   5.175  1.00  0.00     0.074 A 
ATOM     55  C   UNL     1      -0.712 -21.965   1.473  1.00  0.00     0.029 A 
ATOM     56  N   UNL     1       0.646 -20.469   2.405  1.00  0.00    -0.354 N 
ATOM     57  N   UNL     1       2.635 -19.535   4.362  1.00  0.00    -0.248 NA
ATOM     58  C   UNL     1       4.000 -19.930   6.218  1.00  0.00     0.031 C 
ATOM     59  C   UNL     1      -0.077 -22.563   2.567  1.00  0.00     0.029 A 
ATOM     60  C   UNL     1       0.782 -21.635   3.136  1.00  0.00     0.049 A 
ATOM     61  H   UNL     1       1.129 -19.630   2.586  1.00  0.00     0.167 HD
ATOM     62  C   UNL     1       2.465 -20.849   4.782  1.00  0.00     0.074 A 
ATOM     63  C   UNL     1       3.339 -21.042   5.921  1.00  0.00     0.031 C 
ATOM     64  C   UNL     1       1.660 -21.808   4.265  1.00  0.00     0.031 A 
BRANCH  51  65
ATOM     65  C   UNL     1      -1.660 -19.997  -0.622  1.00  0.00    -0.014 A 
ATOM     66  C   UNL     1      -1.260 -20.245  -1.947  1.00  0.00     0.010 A 
ATOM     67  C   UNL     1      -3.021 -20.087  -0.282  1.00  0.00     0.010 A 
ATOM     68  C   UNL     1      -2.211 -20.543  -2.925  1.00  0.00     0.020 A 
ATOM     69  C   UNL     1      -3.973 -20.403  -1.255  1.00  0.00     0.020 A 
ATOM     70  C   UNL     1      -3.562 -20.616  -2.573  1.00  0.00     0.054 A 
BRANCH  70  71
ATOM     71  S   UNL     1      -4.771 -21.000  -3.869  1.00  0.00     0.124 S 
ATOM     72  O   UNL     1      -4.676 -19.823  -4.729  1.00  0.00    -0.237 OA
ATOM     73  O   UNL     1      -4.243 -22.237  -4.437  1.00  0.00    -0.237 OA
ATOM     74  O   UNL     1      -6.030 -21.136  -3.142  1.00  0.00    -0.744 OA
ENDBRANCH  70  71
ENDBRANCH  51  65
BRANCH  52  75
ATOM     75  C   UNL     1       5.128 -17.216   6.153  1.00  0.00    -0.014 A 
ATOM     76  C   UNL     1       6.466 -17.606   5.973  1.00  0.00     0.010 A 
ATOM     77  C   UNL     1       4.793 -16.384   7.236  1.00  0.00     0.010 A 
ATOM     78  C   UNL     1       7.456 -17.164   6.855  1.00  0.00     0.020 A 
ATOM     79  C   UNL     1       5.783 -15.930   8.114  1.00  0.00     0.020 A 
ATOM     80  C   UNL     1       7.109 -16.319   7.914  1.00  0.00     0.054 A 
BRANCH  80  81
ATOM     81  S   UNL     1       8.428 -15.701   8.996  1.00  0.00     0.124 S 
ATOM     82  O   UNL     1       8.919 -16.928   9.615  1.00  0.00    -0.237 OA
ATOM     83  O   UNL     1       9.335 -15.066   8.042  1.00  0.00    -0.237 OA
ATOM     84  O   UNL     1       7.734 -14.781   9.894  1.00  0.00    -0.744 OA
ENDBRANCH  80  81
ENDBRANCH  52  75
BRANCH  64  85
ATOM     85  C   UNL     1       1.688 -23.165   4.904  1.00  0.00    -0.014 A 
ATOM     86  C   UNL     1       0.942 -23.425   6.065  1.00  0.00     0.010 A 
ATOM     87  C   UNL     1       2.367 -24.218   4.265  1.00  0.00     0.010 A 
ATOM     88  C   UNL     1       0.868 -24.723   6.575  1.00  0.00     0.020 A 
ATOM     89  C   UNL     1       2.285 -25.520   4.766  1.00  0.00     0.020 A 
ATOM     90  C   UNL     1       1.532 -25.764   5.916  1.00  0.00     0.054 A 
BRANCH  90  91
ATOM     91  S   UNL     1       1.348 -27.451   6.557  1.00  0.00     0.124 S 
ATOM     92  O   UNL     1       2.014 -27.361   7.854  1.00  0.00    -0.237 OA
ATOM     93  O   UNL     1      -0.103 -27.613   6.605  1.00  0.00    -0.237 OA
ATOM     94  O   UNL     1       2.030 -28.278   5.564  1.00  0.00    -0.744 OA
ENDBRANCH  90  91
ENDBRANCH  64  85
ENDBRANCH  38  39
ENDBRANCH  30  33
ENDBRANCH  28  29
ENDBRANCH   1  28
TORSDOF 17
