REMARK SMILES Cc1nc(Nc2ccc(F)cc2)nc(OCC(=O)NCCCCNC(=O)c2ccc(-c3c4nc(c(-c5ccc(S(=O)(=O)[O-])cc5)c5ccc([nH]5)c(-c5ccc(S(=O)(=O)[O-])cc5)c5nc(c(-c6ccc(S(=O)(=O)[O-])cc6)c6ccc3[nH]6)C=C5)C=C4)cc2)c1CCO
REMARK SMILES IDX 20 1 19 2 17 3 18 4 16 6 15 7 14 8 1 9 2 10 3 11 87 12 4 13
REMARK SMILES IDX 13 14 88 15 89 16 90 17 5 19 6 21 7 22 12 23 8 24 11 25 9 26
REMARK SMILES IDX 10 27 21 28 22 29 23 30 24 31 25 32 26 34 27 35 28 36 86 37
REMARK SMILES IDX 29 38 85 39 30 40 31 41 32 42 79 43 33 44 84 45 78 46 80 47
REMARK SMILES IDX 34 48 83 49 77 50 76 51 35 53 65 54 46 55 64 56 47 57 50 58
REMARK SMILES IDX 63 59 81 60 48 61 49 62 62 64 82 65 51 66 36 67 37 68 45 69
REMARK SMILES IDX 38 70 44 71 39 72 40 73 41 74 42 75 43 76 66 77 67 78 75 79
REMARK SMILES IDX 68 80 74 81 69 82 70 83 71 84 72 85 73 86 52 87 53 88 61 89
REMARK SMILES IDX 54 90 60 91 55 92 56 93 57 94 58 95 59 96
REMARK H PARENT 19 5 90 18 5 20 24 33 80 52 50 63
REMARK Flexibility Score: inf
ROOT
ATOM      1  C   UNL     1       2.951  -3.133   2.804  1.00  0.00     0.116 C 
ENDROOT
BRANCH   1   2
ATOM      2  N   UNL     1       1.645  -3.739   2.679  1.00  0.00    -0.353 N 
ATOM      3  C   UNL     1       0.940  -4.009   1.550  1.00  0.00     0.258 C 
ATOM      4  O   UNL     1      -0.140  -4.591   1.671  1.00  0.00    -0.271 OA
ATOM      5  H   UNL     1       1.208  -3.989   3.525  1.00  0.00     0.163 HD
BRANCH   3   6
ATOM      6  C   UNL     1       1.529  -3.662   0.175  1.00  0.00     0.331 C 
BRANCH   6   7
ATOM      7  O   UNL     1       1.772  -2.332  -0.231  1.00  0.00    -0.467 OA
BRANCH   7   8
ATOM      8  C   UNL     1       0.853  -1.340  -0.088  1.00  0.00     0.222 A 
ATOM      9  C   UNL     1      -2.700  -0.088  -0.047  1.00  0.00     0.067 C 
ATOM     10  C   UNL     1      -1.207  -0.239   0.002  1.00  0.00     0.050 A 
ATOM     11  N   UNL     1      -0.572   0.928   0.202  1.00  0.00    -0.218 NA
ATOM     12  C   UNL     1      -0.527  -1.432  -0.239  1.00  0.00     0.038 A 
ATOM     13  C   UNL     1       0.758   0.955   0.165  1.00  0.00     0.230 A 
ATOM     14  N   UNL     1       1.492  -0.155   0.060  1.00  0.00    -0.177 NA
BRANCH  12  15
ATOM     15  C   UNL     1      -1.267  -2.640  -0.752  1.00  0.00     0.071 C 
BRANCH  15  16
ATOM     16  C   UNL     1      -1.118  -2.881  -2.258  1.00  0.00     0.161 C 
BRANCH  16  17
ATOM     17  O   UNL     1       0.226  -3.102  -2.666  1.00  0.00    -0.396 OA
ATOM     18  H   UNL     1       0.757  -2.314  -2.470  1.00  0.00     0.210 HD
ENDBRANCH  16  17
ENDBRANCH  15  16
ENDBRANCH  12  15
BRANCH  13  19
ATOM     19  N   UNL     1       1.411   2.186   0.075  1.00  0.00    -0.324 N 
ATOM     20  H   UNL     1       2.394   2.154   0.014  1.00  0.00     0.170 HD
BRANCH  19  21
ATOM     21  C   UNL     1       0.830   3.462   0.063  1.00  0.00     0.041 A 
ATOM     22  C   UNL     1      -0.141   3.828   1.008  1.00  0.00     0.029 A 
ATOM     23  C   UNL     1       1.106   4.352  -0.986  1.00  0.00     0.029 A 
ATOM     24  C   UNL     1      -0.813   5.049   0.921  1.00  0.00     0.041 A 
ATOM     25  C   UNL     1       0.419   5.568  -1.089  1.00  0.00     0.041 A 
ATOM     26  C   UNL     1      -0.534   5.904  -0.135  1.00  0.00     0.123 A 
ATOM     27  F   UNL     1      -1.202   7.060  -0.247  1.00  0.00    -0.207 F 
ENDBRANCH  19  21
ENDBRANCH  13  19
ENDBRANCH   7   8
ENDBRANCH   6   7
ENDBRANCH   3   6
ENDBRANCH   1   2
BRANCH   1  28
ATOM     28  C   UNL     1       2.885  -1.776   3.496  1.00  0.00     0.023 C 
BRANCH  28  29
ATOM     29  C   UNL     1       2.220  -1.776   4.875  1.00  0.00     0.023 C 
BRANCH  29  30
ATOM     30  C   UNL     1       2.671  -2.871   5.836  1.00  0.00     0.116 C 
BRANCH  30  31
ATOM     31  N   UNL     1       4.109  -2.896   6.048  1.00  0.00    -0.352 N 
ATOM     32  C   UNL     1       4.803  -3.056   7.222  1.00  0.00     0.251 C 
ATOM     33  H   UNL     1       4.660  -2.782   5.240  1.00  0.00     0.163 HD
ATOM     34  O   UNL     1       6.028  -2.964   7.230  1.00  0.00    -0.269 OA
BRANCH  32  35
ATOM     35  C   UNL     1       4.064  -3.296   8.478  1.00  0.00     0.039 A 
ATOM     36  C   UNL     1       4.354  -2.498   9.588  1.00  0.00     0.014 A 
ATOM     37  C   UNL     1       3.066  -4.272   8.550  1.00  0.00     0.014 A 
ATOM     38  C   UNL     1       3.595  -2.635  10.751  1.00  0.00     0.010 A 
ATOM     39  C   UNL     1       2.266  -4.357   9.687  1.00  0.00     0.010 A 
ATOM     40  C   UNL     1       2.521  -3.539  10.798  1.00  0.00    -0.014 A 
BRANCH  40  41
ATOM     41  C   UNL     1       1.653  -3.637  11.999  1.00  0.00     0.031 A 
ATOM     42  C   UNL     1       1.607  -4.912  12.797  1.00  0.00     0.074 A 
ATOM     43  C   UNL     1       0.865  -2.597  12.340  1.00  0.00     0.049 A 
ATOM     44  N   UNL     1       0.881  -5.202  13.846  1.00  0.00    -0.248 NA
ATOM     45  C   UNL     1       2.472  -6.013  12.342  1.00  0.00     0.031 C 
ATOM     46  C   UNL     1       0.788  -1.321  11.624  1.00  0.00     0.029 A 
ATOM     47  N   UNL     1      -0.026  -2.450  13.374  1.00  0.00    -0.354 N 
ATOM     48  C   UNL     1       1.190  -6.519  14.167  1.00  0.00     0.074 A 
ATOM     49  C   UNL     1       2.128  -6.987  13.171  1.00  0.00     0.031 C 
ATOM     50  C   UNL     1      -0.078  -0.513  12.257  1.00  0.00     0.029 A 
ATOM     51  C   UNL     1      -0.648  -1.224  13.397  1.00  0.00     0.049 A 
ATOM     52  H   UNL     1      -0.203  -3.156  14.036  1.00  0.00     0.167 HD
ATOM     53  C   UNL     1       0.748  -7.265  15.207  1.00  0.00     0.031 A 
ATOM     54  C   UNL     1      -1.575  -0.727  14.239  1.00  0.00     0.031 A 
ATOM     55  C   UNL     1      -0.178  -6.792  16.201  1.00  0.00     0.049 A 
ATOM     56  C   UNL     1      -2.058  -1.578  15.382  1.00  0.00     0.074 A 
ATOM     57  C   UNL     1      -0.647  -7.453  17.323  1.00  0.00     0.029 A 
ATOM     58  N   UNL     1      -0.779  -5.542  16.193  1.00  0.00    -0.354 N 
ATOM     59  N   UNL     1      -1.705  -2.799  15.705  1.00  0.00    -0.248 NA
ATOM     60  C   UNL     1      -3.054  -0.979  16.280  1.00  0.00     0.031 C 
ATOM     61  C   UNL     1      -1.570  -6.621  17.966  1.00  0.00     0.029 A 
ATOM     62  C   UNL     1      -1.631  -5.420  17.278  1.00  0.00     0.049 A 
ATOM     63  H   UNL     1      -0.623  -4.845  15.516  1.00  0.00     0.167 HD
ATOM     64  C   UNL     1      -2.416  -3.104  16.861  1.00  0.00     0.074 A 
ATOM     65  C   UNL     1      -3.206  -1.935  17.187  1.00  0.00     0.031 C 
ATOM     66  C   UNL     1      -2.412  -4.249  17.588  1.00  0.00     0.031 A 
BRANCH  53  67
ATOM     67  C   UNL     1       1.263  -8.676  15.317  1.00  0.00    -0.014 A 
ATOM     68  C   UNL     1       2.606  -8.935  15.648  1.00  0.00     0.010 A 
ATOM     69  C   UNL     1       0.388  -9.759  15.117  1.00  0.00     0.010 A 
ATOM     70  C   UNL     1       3.075 -10.249  15.730  1.00  0.00     0.020 A 
ATOM     71  C   UNL     1       0.846 -11.075  15.228  1.00  0.00     0.020 A 
ATOM     72  C   UNL     1       2.192 -11.311  15.515  1.00  0.00     0.054 A 
BRANCH  72  73
ATOM     73  S   UNL     1       2.824 -13.006  15.643  1.00  0.00     0.124 S 
ATOM     74  O   UNL     1       3.611 -13.126  14.418  1.00  0.00    -0.237 OA
ATOM     75  O   UNL     1       3.595 -12.968  16.882  1.00  0.00    -0.237 OA
ATOM     76  O   UNL     1       1.616 -13.825  15.688  1.00  0.00    -0.744 OA
ENDBRANCH  72  73
ENDBRANCH  53  67
BRANCH  54  77
ATOM     77  C   UNL     1      -2.094   0.655  14.044  1.00  0.00    -0.014 A 
ATOM     78  C   UNL     1      -1.750   1.680  14.943  1.00  0.00     0.010 A 
ATOM     79  C   UNL     1      -2.925   0.957  12.950  1.00  0.00     0.010 A 
ATOM     80  C   UNL     1      -2.243   2.976  14.764  1.00  0.00     0.020 A 
ATOM     81  C   UNL     1      -3.398   2.257  12.752  1.00  0.00     0.020 A 
ATOM     82  C   UNL     1      -3.063   3.256  13.668  1.00  0.00     0.054 A 
BRANCH  82  83
ATOM     83  S   UNL     1      -3.651   4.956  13.427  1.00  0.00     0.124 S 
ATOM     84  O   UNL     1      -4.665   5.077  14.470  1.00  0.00    -0.237 OA
ATOM     85  O   UNL     1      -2.437   5.742  13.631  1.00  0.00    -0.237 OA
ATOM     86  O   UNL     1      -4.158   4.951  12.056  1.00  0.00    -0.744 OA
ENDBRANCH  82  83
ENDBRANCH  54  77
BRANCH  66  87
ATOM     87  C   UNL     1      -3.262  -4.283  18.831  1.00  0.00    -0.014 A 
ATOM     88  C   UNL     1      -4.664  -4.354  18.755  1.00  0.00     0.010 A 
ATOM     89  C   UNL     1      -2.641  -4.299  20.094  1.00  0.00     0.010 A 
ATOM     90  C   UNL     1      -5.432  -4.409  19.921  1.00  0.00     0.020 A 
ATOM     91  C   UNL     1      -3.404  -4.381  21.261  1.00  0.00     0.020 A 
ATOM     92  C   UNL     1      -4.796  -4.422  21.167  1.00  0.00     0.054 A 
BRANCH  92  93
ATOM     93  S   UNL     1      -5.813  -4.537  22.665  1.00  0.00     0.124 S 
ATOM     94  O   UNL     1      -6.381  -3.194  22.750  1.00  0.00    -0.237 OA
ATOM     95  O   UNL     1      -6.759  -5.599  22.330  1.00  0.00    -0.237 OA
ATOM     96  O   UNL     1      -4.851  -4.875  23.712  1.00  0.00    -0.744 OA
ENDBRANCH  92  93
ENDBRANCH  66  87
ENDBRANCH  40  41
ENDBRANCH  32  35
ENDBRANCH  30  31
ENDBRANCH  29  30
ENDBRANCH  28  29
ENDBRANCH   1  28
TORSDOF 21
