REMARK SMILES CC(C)Cc1ccc([C@H](CC(=O)NCCCCNC(=O)c2ccc(-c3c4nc(c(-c5ccc(S(=O)(=O)[O-])cc5)c5ccc([nH]5)c(-c5ccc(S(=O)(=O)[O-])cc5)c5nc(c(-c6ccc(S(=O)(=O)[O-])cc6)c6ccc3[nH]6)C=C5)C=C4)cc2)NC=O)cc1
REMARK SMILES IDX 15 1 14 2 13 3 11 4 12 5 10 7 9 8 8 9 5 10 6 11 85 12 7 13
REMARK SMILES IDX 84 14 4 15 2 16 1 17 3 18 81 19 82 20 83 22 16 23 17 24
REMARK SMILES IDX 18 25 19 26 20 28 21 29 22 30 80 31 23 32 79 33 24 34 25 35
REMARK SMILES IDX 26 36 73 37 27 38 78 39 72 40 74 41 28 42 77 43 71 44 70 45
REMARK SMILES IDX 29 47 59 48 40 49 58 50 41 51 44 52 57 53 75 54 42 55 43 56
REMARK SMILES IDX 56 58 76 59 45 60 30 61 31 62 39 63 32 64 38 65 33 66 34 67
REMARK SMILES IDX 35 68 36 69 37 70 60 71 61 72 69 73 62 74 68 75 63 76 64 77
REMARK SMILES IDX 65 78 66 79 67 80 46 81 47 82 55 83 48 84 54 85 49 86 50 87
REMARK SMILES IDX 51 88 52 89 53 90
REMARK H PARENT 13 6 81 21 18 27 74 46 44 57
REMARK Flexibility Score: inf
ROOT
ATOM      1  C   UNL     1      -0.345  -0.261   6.265  1.00  0.00     0.023 C 
ENDROOT
BRANCH   1   2
ATOM      2  C   UNL     1      -0.555   0.372   4.899  1.00  0.00     0.116 C 
BRANCH   2   3
ATOM      3  N   UNL     1      -0.032  -0.480   3.841  1.00  0.00    -0.356 N 
ATOM      4  C   UNL     1      -0.597  -1.578   3.254  1.00  0.00     0.222 C 
ATOM      5  O   UNL     1       0.081  -2.264   2.488  1.00  0.00    -0.275 OA
ATOM      6  H   UNL     1       0.857  -0.230   3.500  1.00  0.00     0.163 HD
BRANCH   4   7
ATOM      7  C   UNL     1      -2.056  -1.888   3.499  1.00  0.00     0.129 C 
BRANCH   7   8
ATOM      8  C   UNL     1      -2.393  -3.221   4.199  1.00  0.00     0.121 C 
BRANCH   8   9
ATOM      9  C   UNL     1      -1.571  -3.546   5.443  1.00  0.00    -0.025 A 
ATOM     10  C   UNL     1       0.158  -3.763   7.686  1.00  0.00    -0.048 A 
ATOM     11  C   UNL     1      -1.202  -3.487   7.862  1.00  0.00     0.004 A 
ATOM     12  C   UNL     1       0.619  -4.049   6.396  1.00  0.00     0.004 A 
ATOM     13  C   UNL     1      -2.057  -3.379   6.754  1.00  0.00     0.006 A 
ATOM     14  C   UNL     1      -0.236  -3.958   5.293  1.00  0.00     0.006 A 
BRANCH  10  15
ATOM     15  C   UNL     1       1.136  -3.616   8.832  1.00  0.00     0.038 C 
BRANCH  15  16
ATOM     16  C   UNL     1       1.528  -4.904   9.571  1.00  0.00    -0.013 C 
ATOM     17  C   UNL     1       2.247  -5.905   8.666  1.00  0.00     0.008 C 
ATOM     18  C   UNL     1       2.442  -4.545  10.750  1.00  0.00     0.008 C 
ENDBRANCH  15  16
ENDBRANCH  10  15
ENDBRANCH   8   9
BRANCH   8  19
ATOM     19  N   UNL     1      -3.824  -3.170   4.510  1.00  0.00    -0.351 N 
ATOM     20  C   UNL     1      -4.706  -4.197   4.390  1.00  0.00     0.337 C 
ATOM     21  H   UNL     1      -4.179  -2.312   4.836  1.00  0.00     0.163 HD
ATOM     22  O   UNL     1      -5.878  -4.085   4.702  1.00  0.00    -0.279 OA
ENDBRANCH   8  19
ENDBRANCH   7   8
ENDBRANCH   4   7
ENDBRANCH   2   3
ENDBRANCH   1   2
BRANCH   1  23
ATOM     23  C   UNL     1       1.119  -0.333   6.686  1.00  0.00     0.023 C 
BRANCH  23  24
ATOM     24  C   UNL     1       1.466   0.662   7.772  1.00  0.00     0.116 C 
BRANCH  24  25
ATOM     25  N   UNL     1       0.731   0.466   9.016  1.00  0.00    -0.352 N 
ATOM     26  C   UNL     1       1.121   0.703  10.315  1.00  0.00     0.251 C 
ATOM     27  H   UNL     1      -0.181   0.110   8.912  1.00  0.00     0.163 HD
ATOM     28  O   UNL     1       0.348   0.450  11.234  1.00  0.00    -0.269 OA
BRANCH  26  29
ATOM     29  C   UNL     1       2.492   1.188  10.601  1.00  0.00     0.039 A 
ATOM     30  C   UNL     1       3.166   0.691  11.720  1.00  0.00     0.014 A 
ATOM     31  C   UNL     1       3.145   2.067   9.739  1.00  0.00     0.014 A 
ATOM     32  C   UNL     1       4.513   1.007  11.914  1.00  0.00     0.010 A 
ATOM     33  C   UNL     1       4.514   2.247   9.843  1.00  0.00     0.010 A 
ATOM     34  C   UNL     1       5.214   1.743  10.946  1.00  0.00    -0.014 A 
BRANCH  34  35
ATOM     35  C   UNL     1       6.664   2.040  11.067  1.00  0.00     0.031 A 
ATOM     36  C   UNL     1       7.135   3.473  11.031  1.00  0.00     0.074 A 
ATOM     37  C   UNL     1       7.557   1.031  11.118  1.00  0.00     0.049 A 
ATOM     38  N   UNL     1       8.356   3.941  11.006  1.00  0.00    -0.248 NA
ATOM     39  C   UNL     1       6.097   4.519  10.960  1.00  0.00     0.031 C 
ATOM     40  C   UNL     1       7.232  -0.399  11.089  1.00  0.00     0.029 A 
ATOM     41  N   UNL     1       8.926   1.053  11.200  1.00  0.00    -0.354 N 
ATOM     42  C   UNL     1       8.228   5.320  10.876  1.00  0.00     0.074 A 
ATOM     43  C   UNL     1       6.819   5.607  10.750  1.00  0.00     0.031 C 
ATOM     44  C   UNL     1       8.364  -1.112  11.202  1.00  0.00     0.029 A 
ATOM     45  C   UNL     1       9.498  -0.197  11.260  1.00  0.00     0.049 A 
ATOM     46  H   UNL     1       9.451   1.886  11.213  1.00  0.00     0.167 HD
ATOM     47  C   UNL     1       9.192   6.269  10.899  1.00  0.00     0.031 A 
ATOM     48  C   UNL     1      10.791  -0.563  11.353  1.00  0.00     0.031 A 
ATOM     49  C   UNL     1      10.587   5.979  11.079  1.00  0.00     0.049 A 
ATOM     50  C   UNL     1      11.845   0.509  11.415  1.00  0.00     0.074 A 
ATOM     51  C   UNL     1      11.643   6.864  11.197  1.00  0.00     0.029 A 
ATOM     52  N   UNL     1      11.119   4.702  11.180  1.00  0.00    -0.354 N 
ATOM     53  N   UNL     1      11.697   1.812  11.360  1.00  0.00    -0.248 NA
ATOM     54  C   UNL     1      13.236   0.064  11.568  1.00  0.00     0.031 C 
ATOM     55  C   UNL     1      12.820   6.121  11.322  1.00  0.00     0.029 A 
ATOM     56  C   UNL     1      12.490   4.774  11.345  1.00  0.00     0.049 A 
ATOM     57  H   UNL     1      10.597   3.868  11.141  1.00  0.00     0.167 HD
ATOM     58  C   UNL     1      12.974   2.343  11.504  1.00  0.00     0.074 A 
ATOM     59  C   UNL     1      13.877   1.221  11.662  1.00  0.00     0.031 C 
ATOM     60  C   UNL     1      13.366   3.642  11.508  1.00  0.00     0.031 A 
BRANCH  47  61
ATOM     61  C   UNL     1       8.763   7.706  10.740  1.00  0.00    -0.014 A 
ATOM     62  C   UNL     1       7.998   8.352  11.730  1.00  0.00     0.010 A 
ATOM     63  C   UNL     1       9.150   8.430   9.598  1.00  0.00     0.010 A 
ATOM     64  C   UNL     1       7.585   9.675  11.557  1.00  0.00     0.020 A 
ATOM     65  C   UNL     1       8.768   9.765   9.437  1.00  0.00     0.020 A 
ATOM     66  C   UNL     1       7.971  10.373  10.409  1.00  0.00     0.054 A 
BRANCH  66  67
ATOM     67  S   UNL     1       7.438  12.096  10.223  1.00  0.00     0.124 S 
ATOM     68  O   UNL     1       6.015  11.941   9.932  1.00  0.00    -0.237 OA
ATOM     69  O   UNL     1       7.753  12.671  11.528  1.00  0.00    -0.237 OA
ATOM     70  O   UNL     1       8.250  12.593   9.114  1.00  0.00    -0.744 OA
ENDBRANCH  66  67
ENDBRANCH  47  61
BRANCH  48  71
ATOM     71  C   UNL     1      11.155  -2.006  11.431  1.00  0.00    -0.014 A 
ATOM     72  C   UNL     1      11.645  -2.553  12.630  1.00  0.00     0.010 A 
ATOM     73  C   UNL     1      10.995  -2.846  10.314  1.00  0.00     0.010 A 
ATOM     74  C   UNL     1      11.990  -3.906  12.705  1.00  0.00     0.020 A 
ATOM     75  C   UNL     1      11.310  -4.206  10.393  1.00  0.00     0.020 A 
ATOM     76  C   UNL     1      11.818  -4.725  11.585  1.00  0.00     0.054 A 
BRANCH  76  77
ATOM     77  S   UNL     1      12.226  -6.488  11.721  1.00  0.00     0.124 S 
ATOM     78  O   UNL     1      13.684  -6.460  11.754  1.00  0.00    -0.237 OA
ATOM     79  O   UNL     1      11.570  -6.868  12.970  1.00  0.00    -0.237 OA
ATOM     80  O   UNL     1      11.637  -7.068  10.516  1.00  0.00    -0.744 OA
ENDBRANCH  76  77
ENDBRANCH  48  71
BRANCH  60  81
ATOM     81  C   UNL     1      14.825   3.925  11.735  1.00  0.00    -0.014 A 
ATOM     82  C   UNL     1      15.786   3.654  10.745  1.00  0.00     0.010 A 
ATOM     83  C   UNL     1      15.229   4.533  12.938  1.00  0.00     0.010 A 
ATOM     84  C   UNL     1      17.130   3.960  10.967  1.00  0.00     0.020 A 
ATOM     85  C   UNL     1      16.567   4.868  13.151  1.00  0.00     0.020 A 
ATOM     86  C   UNL     1      17.512   4.566  12.169  1.00  0.00     0.054 A 
BRANCH  86  87
ATOM     87  S   UNL     1      19.256   4.996  12.413  1.00  0.00     0.124 S 
ATOM     88  O   UNL     1      19.863   3.686  12.633  1.00  0.00    -0.237 OA
ATOM     89  O   UNL     1      19.604   5.647  11.152  1.00  0.00    -0.237 OA
ATOM     90  O   UNL     1      19.237   5.878  13.578  1.00  0.00    -0.744 OA
ENDBRANCH  86  87
ENDBRANCH  60  81
ENDBRANCH  34  35
ENDBRANCH  26  29
ENDBRANCH  24  25
ENDBRANCH  23  24
ENDBRANCH   1  23
TORSDOF 19
