REMARK SMILES Cc1cccc(S(=O)(=O)Nc2cnc(N(C)Cc3ccccc3)c(C(=O)NCCCCNC(=O)c3ccc(-c4c5nc(c(-c6ccc(S(=O)(=O)[O-])cc6)c6ccc([nH]6)c(-c6ccc(S(=O)(=O)[O-])cc6)c6nc(c(-c7ccc(S(=O)(=O)[O-])cc7)c7ccc4[nH]7)C=C6)C=C5)cc3)c2)c1
REMARK SMILES IDX 29 1 28 2 27 3 25 4 26 5 24 7 11 8 12 9 95 10 13 11 14 12
REMARK SMILES IDX 10 13 7 15 8 16 9 17 6 18 1 19 2 20 3 21 96 22 4 23 5 24
REMARK SMILES IDX 15 25 16 26 17 27 18 28 19 29 23 30 20 31 22 32 21 33 30 34
REMARK SMILES IDX 31 35 32 36 33 37 34 39 35 40 36 41 94 42 37 43 93 44 38 45
REMARK SMILES IDX 39 46 40 47 87 48 41 49 92 50 86 51 88 52 42 53 91 54 85 55
REMARK SMILES IDX 84 56 43 58 73 59 54 60 72 61 55 62 58 63 71 64 89 65 56 66
REMARK SMILES IDX 57 67 70 69 90 70 59 71 44 72 45 73 53 74 46 75 52 76 47 77
REMARK SMILES IDX 48 78 49 79 50 80 51 81 74 82 75 83 83 84 76 85 82 86 77 87
REMARK SMILES IDX 78 88 79 89 80 90 81 91 60 92 61 93 69 94 62 95 68 96 63 97
REMARK SMILES IDX 64 98 65 99 66 100 67 101
REMARK H PARENT 27 6 10 14 32 38 88 57 58 68
REMARK Flexibility Score: inf
ROOT
ATOM      1  C   UNL     1       0.227   1.737  -4.147  1.00  0.00     0.023 C 
ENDROOT
BRANCH   1   2
ATOM      2  C   UNL     1       0.945   1.129  -2.925  1.00  0.00     0.116 C 
BRANCH   2   3
ATOM      3  N   UNL     1       2.365   1.486  -2.929  1.00  0.00    -0.352 N 
ATOM      4  C   UNL     1       3.058   2.566  -2.426  1.00  0.00     0.255 C 
ATOM      5  O   UNL     1       4.049   2.947  -3.045  1.00  0.00    -0.269 OA
ATOM      6  H   UNL     1       2.938   0.824  -3.380  1.00  0.00     0.163 HD
BRANCH   4   7
ATOM      7  C   UNL     1       2.634   3.281  -1.201  1.00  0.00     0.084 A 
ATOM      8  C   UNL     1       0.782   4.403  -0.099  1.00  0.00     0.068 A 
ATOM      9  C   UNL     1       1.624   4.641   0.959  1.00  0.00     0.140 A 
ATOM     10  C   UNL     1       1.313   3.770  -1.208  1.00  0.00     0.046 A 
ATOM     11  N   UNL     1       2.925   4.271   0.952  1.00  0.00    -0.236 NA
ATOM     12  C   UNL     1       3.474   3.585  -0.103  1.00  0.00     0.141 A 
BRANCH   8  13
ATOM     13  N   UNL     1      -0.603   4.692  -0.056  1.00  0.00    -0.278 N 
ATOM     14  H   UNL     1      -0.912   5.577  -0.357  1.00  0.00     0.180 HD
BRANCH  13  15
ATOM     15  S   UNL     1      -1.753   3.571   0.496  1.00  0.00     0.261 S 
ATOM     16  O   UNL     1      -2.758   3.656  -0.550  1.00  0.00    -0.201 OA
ATOM     17  O   UNL     1      -2.088   3.906   1.861  1.00  0.00    -0.201 OA
BRANCH  15  18
ATOM     18  C   UNL     1      -1.183   1.886   0.489  1.00  0.00     0.088 A 
ATOM     19  C   UNL     1       1.977  -0.208   0.629  1.00  0.00     0.044 C 
ATOM     20  C   UNL     1       0.533   0.172   0.584  1.00  0.00    -0.050 A 
ATOM     21  C   UNL     1      -0.411  -0.799   0.280  1.00  0.00     0.003 A 
ATOM     22  C   UNL     1       0.124   1.499   0.781  1.00  0.00     0.025 A 
ATOM     23  C   UNL     1      -1.741  -0.437   0.127  1.00  0.00     0.002 A 
ATOM     24  C   UNL     1      -2.125   0.900   0.186  1.00  0.00     0.022 A 
ENDBRANCH  15  18
ENDBRANCH  13  15
ENDBRANCH   8  13
BRANCH  12  25
ATOM     25  N   UNL     1       4.808   3.278   0.081  1.00  0.00    -0.355 N 
ATOM     26  C   UNL     1       5.587   4.149   0.968  1.00  0.00     0.145 C 
BRANCH  25  27
ATOM     27  C   UNL     1       5.606   2.247  -0.585  1.00  0.00     0.153 C 
BRANCH  27  28
ATOM     28  C   UNL     1       5.387   0.846  -0.061  1.00  0.00    -0.029 A 
ATOM     29  C   UNL     1       5.424  -0.238  -0.954  1.00  0.00     0.005 A 
ATOM     30  C   UNL     1       5.261   0.576   1.311  1.00  0.00     0.005 A 
ATOM     31  C   UNL     1       5.307  -1.550  -0.492  1.00  0.00     0.000 A 
ATOM     32  C   UNL     1       5.141  -0.737   1.772  1.00  0.00     0.000 A 
ATOM     33  C   UNL     1       5.160  -1.799   0.871  1.00  0.00     0.000 A 
ENDBRANCH  27  28
ENDBRANCH  25  27
ENDBRANCH  12  25
ENDBRANCH   4   7
ENDBRANCH   2   3
ENDBRANCH   1   2
BRANCH   1  34
ATOM     34  C   UNL     1       0.776   1.266  -5.498  1.00  0.00     0.023 C 
BRANCH  34  35
ATOM     35  C   UNL     1       0.411  -0.172  -5.829  1.00  0.00     0.116 C 
BRANCH  35  36
ATOM     36  N   UNL     1      -0.697  -0.292  -6.763  1.00  0.00    -0.352 N 
ATOM     37  C   UNL     1      -0.882  -1.407  -7.577  1.00  0.00     0.251 C 
ATOM     38  H   UNL     1      -1.345   0.447  -6.822  1.00  0.00     0.163 HD
ATOM     39  O   UNL     1      -1.110  -1.370  -8.765  1.00  0.00    -0.269 OA
BRANCH  37  40
ATOM     40  C   UNL     1      -0.858  -2.695  -6.850  1.00  0.00     0.039 A 
ATOM     41  C   UNL     1      -2.076  -3.289  -6.501  1.00  0.00     0.014 A 
ATOM     42  C   UNL     1       0.347  -3.119  -6.297  1.00  0.00     0.014 A 
ATOM     43  C   UNL     1      -2.107  -4.202  -5.454  1.00  0.00     0.010 A 
ATOM     44  C   UNL     1       0.302  -3.942  -5.198  1.00  0.00     0.010 A 
ATOM     45  C   UNL     1      -0.929  -4.442  -4.753  1.00  0.00    -0.014 A 
BRANCH  45  46
ATOM     46  C   UNL     1      -0.854  -5.163  -3.496  1.00  0.00     0.031 A 
ATOM     47  C   UNL     1      -0.319  -6.536  -3.489  1.00  0.00     0.074 A 
ATOM     48  C   UNL     1      -1.079  -4.486  -2.350  1.00  0.00     0.049 A 
ATOM     49  N   UNL     1      -0.389  -7.345  -2.490  1.00  0.00    -0.248 NA
ATOM     50  C   UNL     1       0.307  -7.130  -4.666  1.00  0.00     0.031 C 
ATOM     51  C   UNL     1      -0.693  -4.878  -1.000  1.00  0.00     0.029 A 
ATOM     52  N   UNL     1      -1.935  -3.401  -2.158  1.00  0.00    -0.354 N 
ATOM     53  C   UNL     1       0.462  -8.394  -2.758  1.00  0.00     0.074 A 
ATOM     54  C   UNL     1       0.766  -8.278  -4.163  1.00  0.00     0.031 C 
ATOM     55  C   UNL     1      -1.537  -4.296  -0.135  1.00  0.00     0.029 A 
ATOM     56  C   UNL     1      -2.563  -3.635  -0.930  1.00  0.00     0.049 A 
ATOM     57  H   UNL     1      -2.069  -2.633  -2.759  1.00  0.00     0.167 HD
ATOM     58  C   UNL     1       0.943  -9.129  -1.715  1.00  0.00     0.031 A 
ATOM     59  C   UNL     1      -3.909  -3.790  -0.769  1.00  0.00     0.031 A 
ATOM     60  C   UNL     1       0.245  -8.788  -0.470  1.00  0.00     0.049 A 
ATOM     61  C   UNL     1      -4.194  -5.115  -0.105  1.00  0.00     0.074 A 
ATOM     62  C   UNL     1       0.594  -8.033   0.637  1.00  0.00     0.029 A 
ATOM     63  N   UNL     1      -1.137  -8.969  -0.400  1.00  0.00    -0.354 N 
ATOM     64  N   UNL     1      -3.396  -6.147  -0.196  1.00  0.00    -0.248 NA
ATOM     65  C   UNL     1      -5.334  -5.357   0.770  1.00  0.00     0.031 C 
ATOM     66  C   UNL     1      -0.607  -7.662   1.306  1.00  0.00     0.029 A 
ATOM     67  C   UNL     1      -1.679  -8.226   0.632  1.00  0.00     0.049 A 
ATOM     68  H   UNL     1      -1.656  -9.549  -1.003  1.00  0.00     0.167 HD
ATOM     69  C   UNL     1      -3.822  -7.121   0.664  1.00  0.00     0.074 A 
ATOM     70  C   UNL     1      -5.065  -6.598   1.212  1.00  0.00     0.031 C 
ATOM     71  C   UNL     1      -3.111  -8.261   0.912  1.00  0.00     0.031 A 
BRANCH  58  72
ATOM     72  C   UNL     1       2.240  -9.921  -1.782  1.00  0.00    -0.014 A 
ATOM     73  C   UNL     1       2.940 -10.229  -0.597  1.00  0.00     0.010 A 
ATOM     74  C   UNL     1       2.869 -10.320  -2.978  1.00  0.00     0.010 A 
ATOM     75  C   UNL     1       4.213 -10.830  -0.612  1.00  0.00     0.020 A 
ATOM     76  C   UNL     1       4.147 -10.898  -3.013  1.00  0.00     0.020 A 
ATOM     77  C   UNL     1       4.818 -11.145  -1.826  1.00  0.00     0.054 A 
BRANCH  77  78
ATOM     78  S   UNL     1       6.471 -11.885  -1.844  1.00  0.00     0.124 S 
ATOM     79  O   UNL     1       7.277 -10.874  -1.165  1.00  0.00    -0.237 OA
ATOM     80  O   UNL     1       6.266 -13.129  -1.108  1.00  0.00    -0.237 OA
ATOM     81  O   UNL     1       6.763 -12.050  -3.268  1.00  0.00    -0.744 OA
ENDBRANCH  77  78
ENDBRANCH  58  72
BRANCH  59  82
ATOM     82  C   UNL     1      -4.747  -3.069  -1.773  1.00  0.00    -0.014 A 
ATOM     83  C   UNL     1      -4.783  -1.660  -1.673  1.00  0.00     0.010 A 
ATOM     84  C   UNL     1      -5.046  -3.656  -3.014  1.00  0.00     0.010 A 
ATOM     85  C   UNL     1      -4.862  -0.859  -2.817  1.00  0.00     0.020 A 
ATOM     86  C   UNL     1      -5.163  -2.851  -4.162  1.00  0.00     0.020 A 
ATOM     87  C   UNL     1      -4.978  -1.467  -4.064  1.00  0.00     0.054 A 
BRANCH  87  88
ATOM     88  S   UNL     1      -4.702  -0.449  -5.549  1.00  0.00     0.124 S 
ATOM     89  O   UNL     1      -5.697   0.607  -5.396  1.00  0.00    -0.237 OA
ATOM     90  O   UNL     1      -3.306  -0.034  -5.387  1.00  0.00    -0.237 OA
ATOM     91  O   UNL     1      -4.939  -1.384  -6.643  1.00  0.00    -0.744 OA
ENDBRANCH  87  88
ENDBRANCH  59  82
BRANCH  71  92
ATOM     92  C   UNL     1      -3.683  -9.503   1.548  1.00  0.00    -0.014 A 
ATOM     93  C   UNL     1      -5.058  -9.783   1.595  1.00  0.00     0.010 A 
ATOM     94  C   UNL     1      -2.804 -10.529   1.969  1.00  0.00     0.010 A 
ATOM     95  C   UNL     1      -5.536 -11.001   2.092  1.00  0.00     0.020 A 
ATOM     96  C   UNL     1      -3.268 -11.768   2.415  1.00  0.00     0.020 A 
ATOM     97  C   UNL     1      -4.638 -11.987   2.494  1.00  0.00     0.054 A 
BRANCH  97  98
ATOM     98  S   UNL     1      -5.272 -13.591   3.036  1.00  0.00     0.124 S 
ATOM     99  O   UNL     1      -5.559 -13.338   4.446  1.00  0.00    -0.237 OA
ATOM    100  O   UNL     1      -6.443 -13.783   2.183  1.00  0.00    -0.237 OA
ATOM    101  O   UNL     1      -4.163 -14.505   2.774  1.00  0.00    -0.744 OA
ENDBRANCH  97  98
ENDBRANCH  71  92
ENDBRANCH  45  46
ENDBRANCH  37  40
ENDBRANCH  35  36
ENDBRANCH  34  35
ENDBRANCH   1  34
TORSDOF 20
