REMARK SMILES CCCCCn1c(SCC(=O)NCCCCNC(=O)c2ccc(-c3c4nc(c(-c5ccc(S(=O)(=O)[O-])cc5)c5ccc([nH]5)c(-c5ccc(S(=O)(=O)[O-])cc5)c5nc(c(-c6ccc(S(=O)(=O)[O-])cc6)c6ccc3[nH]6)C=C5)C=C4)cc2)nc2ccccc2c1=O
REMARK SMILES IDX 13 1 12 2 10 3 11 4 9 6 8 7 7 8 6 9 87 10 80 11 86 12 88 13
REMARK SMILES IDX 81 14 85 15 82 16 84 17 83 18 5 19 4 20 3 21 2 22 1 23 14 24
REMARK SMILES IDX 15 25 16 26 17 27 18 28 19 30 20 31 21 32 79 33 22 34 78 35
REMARK SMILES IDX 23 36 24 37 25 38 72 39 26 40 77 41 71 42 73 43 27 44 76 45
REMARK SMILES IDX 70 46 69 47 28 49 58 50 39 51 57 52 40 53 43 54 56 55 74 56
REMARK SMILES IDX 41 57 42 58 55 60 75 61 44 62 29 63 30 64 38 65 31 66 37 67
REMARK SMILES IDX 32 68 33 69 34 70 35 71 36 72 59 73 60 74 68 75 61 76 67 77
REMARK SMILES IDX 62 78 63 79 64 80 65 81 66 82 45 83 46 84 54 85 47 86 53 87
REMARK SMILES IDX 48 88 49 89 50 90 51 91 52 92
REMARK H PARENT 12 5 17 29 73 48 43 59
REMARK Flexibility Score: inf
ROOT
ATOM      1  C   UNL     1       0.006   5.992   4.160  1.00  0.00     0.116 C 
ENDROOT
BRANCH   1   2
ATOM      2  N   UNL     1       0.298   5.210   2.973  1.00  0.00    -0.355 N 
ATOM      3  C   UNL     1      -0.555   4.559   2.135  1.00  0.00     0.230 C 
ATOM      4  O   UNL     1      -0.109   4.196   1.042  1.00  0.00    -0.274 OA
ATOM      5  H   UNL     1       1.252   5.140   2.740  1.00  0.00     0.163 HD
BRANCH   3   6
ATOM      6  C   UNL     1      -2.022   4.361   2.459  1.00  0.00     0.178 C 
BRANCH   6   7
ATOM      7  S   UNL     1      -2.385   3.637   4.034  1.00  0.00    -0.078 SA
BRANCH   7   8
ATOM      8  C   UNL     1      -2.112   1.930   4.252  1.00  0.00     0.171 A 
ATOM      9  N   UNL     1      -1.597   1.001   3.358  1.00  0.00    -0.287 N 
ATOM     10  C   UNL     1      -1.643  -0.364   3.683  1.00  0.00     0.262 A 
ATOM     11  N   UNL     1      -2.501   1.603   5.447  1.00  0.00    -0.224 NA
ATOM     12  C   UNL     1      -1.947  -0.723   5.070  1.00  0.00     0.066 A 
ATOM     13  O   UNL     1      -1.458  -1.279   2.883  1.00  0.00    -0.269 OA
ATOM     14  C   UNL     1      -2.372   0.296   5.902  1.00  0.00     0.079 A 
ATOM     15  C   UNL     1      -1.794  -2.032   5.543  1.00  0.00     0.016 A 
ATOM     16  C   UNL     1      -2.671  -0.001   7.233  1.00  0.00     0.029 A 
ATOM     17  C   UNL     1      -2.082  -2.319   6.876  1.00  0.00     0.001 A 
ATOM     18  C   UNL     1      -2.526  -1.303   7.721  1.00  0.00     0.002 A 
BRANCH   9  19
ATOM     19  C   UNL     1      -0.986   1.265   2.057  1.00  0.00     0.128 C 
BRANCH  19  20
ATOM     20  C   UNL     1       0.543   1.412   2.148  1.00  0.00     0.022 C 
BRANCH  20  21
ATOM     21  C   UNL     1       1.347   0.106   2.188  1.00  0.00     0.002 C 
BRANCH  21  22
ATOM     22  C   UNL     1       1.168  -0.824   0.982  1.00  0.00    -0.003 C 
ATOM     23  C   UNL     1       1.493  -0.176  -0.354  1.00  0.00     0.004 C 
ENDBRANCH  21  22
ENDBRANCH  20  21
ENDBRANCH  19  20
ENDBRANCH   9  19
ENDBRANCH   7   8
ENDBRANCH   6   7
ENDBRANCH   3   6
ENDBRANCH   1   2
BRANCH   1  24
ATOM     24  C   UNL     1       0.439   5.311   5.458  1.00  0.00     0.023 C 
BRANCH  24  25
ATOM     25  C   UNL     1       1.931   5.013   5.584  1.00  0.00     0.023 C 
BRANCH  25  26
ATOM     26  C   UNL     1       2.868   6.178   5.299  1.00  0.00     0.116 C 
BRANCH  26  27
ATOM     27  N   UNL     1       2.589   7.369   6.088  1.00  0.00    -0.352 N 
ATOM     28  C   UNL     1       3.470   8.221   6.719  1.00  0.00     0.251 C 
ATOM     29  H   UNL     1       1.636   7.598   6.186  1.00  0.00     0.163 HD
ATOM     30  O   UNL     1       3.053   9.150   7.394  1.00  0.00    -0.269 OA
BRANCH  28  31
ATOM     31  C   UNL     1       4.923   7.959   6.616  1.00  0.00     0.039 A 
ATOM     32  C   UNL     1       5.510   7.668   5.384  1.00  0.00     0.014 A 
ATOM     33  C   UNL     1       5.688   7.930   7.785  1.00  0.00     0.014 A 
ATOM     34  C   UNL     1       6.800   7.155   5.346  1.00  0.00     0.010 A 
ATOM     35  C   UNL     1       7.017   7.503   7.731  1.00  0.00     0.010 A 
ATOM     36  C   UNL     1       7.564   7.050   6.521  1.00  0.00    -0.014 A 
BRANCH  36  37
ATOM     37  C   UNL     1       8.925   6.455   6.458  1.00  0.00     0.031 A 
ATOM     38  C   UNL     1       9.239   5.167   7.171  1.00  0.00     0.074 A 
ATOM     39  C   UNL     1       9.867   7.053   5.704  1.00  0.00     0.049 A 
ATOM     40  N   UNL     1      10.358   4.487   7.178  1.00  0.00    -0.248 NA
ATOM     41  C   UNL     1       8.170   4.562   7.983  1.00  0.00     0.031 C 
ATOM     42  C   UNL     1       9.674   8.294   4.952  1.00  0.00     0.029 A 
ATOM     43  N   UNL     1      11.158   6.686   5.417  1.00  0.00    -0.354 N 
ATOM     44  C   UNL     1      10.139   3.397   8.013  1.00  0.00     0.074 A 
ATOM     45  C   UNL     1       8.787   3.515   8.513  1.00  0.00     0.031 C 
ATOM     46  C   UNL     1      10.777   8.548   4.236  1.00  0.00     0.029 A 
ATOM     47  C   UNL     1      11.784   7.532   4.532  1.00  0.00     0.049 A 
ATOM     48  H   UNL     1      11.593   5.893   5.806  1.00  0.00     0.167 HD
ATOM     49  C   UNL     1      10.986   2.388   8.326  1.00  0.00     0.031 A 
ATOM     50  C   UNL     1      13.028   7.507   4.015  1.00  0.00     0.031 A 
ATOM     51  C   UNL     1      12.321   2.264   7.801  1.00  0.00     0.049 A 
ATOM     52  C   UNL     1      13.960   6.396   4.396  1.00  0.00     0.074 A 
ATOM     53  C   UNL     1      13.231   1.243   8.017  1.00  0.00     0.029 A 
ATOM     54  N   UNL     1      12.940   3.182   6.966  1.00  0.00    -0.354 N 
ATOM     55  N   UNL     1      13.724   5.361   5.166  1.00  0.00    -0.248 NA
ATOM     56  C   UNL     1      15.321   6.445   3.848  1.00  0.00     0.031 C 
ATOM     57  C   UNL     1      14.424   1.580   7.373  1.00  0.00     0.029 A 
ATOM     58  C   UNL     1      14.235   2.772   6.692  1.00  0.00     0.049 A 
ATOM     59  H   UNL     1      12.522   4.002   6.619  1.00  0.00     0.167 HD
ATOM     60  C   UNL     1      14.907   4.632   5.194  1.00  0.00     0.074 A 
ATOM     61  C   UNL     1      15.850   5.334   4.348  1.00  0.00     0.031 C 
ATOM     62  C   UNL     1      15.178   3.486   5.865  1.00  0.00     0.031 A 
BRANCH  49  63
ATOM     63  C   UNL     1      10.516   1.334   9.297  1.00  0.00    -0.014 A 
ATOM     64  C   UNL     1      11.129   1.237  10.561  1.00  0.00     0.010 A 
ATOM     65  C   UNL     1       9.550   0.379   8.934  1.00  0.00     0.010 A 
ATOM     66  C   UNL     1      10.799   0.199  11.436  1.00  0.00     0.020 A 
ATOM     67  C   UNL     1       9.196  -0.646   9.819  1.00  0.00     0.020 A 
ATOM     68  C   UNL     1       9.838  -0.740  11.056  1.00  0.00     0.054 A 
BRANCH  68  69
ATOM     69  S   UNL     1       9.418  -2.080  12.206  1.00  0.00     0.124 S 
ATOM     70  O   UNL     1      10.541  -2.996  12.037  1.00  0.00    -0.237 OA
ATOM     71  O   UNL     1       9.352  -1.391  13.493  1.00  0.00    -0.237 OA
ATOM     72  O   UNL     1       8.133  -2.565  11.706  1.00  0.00    -0.744 OA
ENDBRANCH  68  69
ENDBRANCH  49  63
BRANCH  50  73
ATOM     73  C   UNL     1      13.414   8.576   3.054  1.00  0.00    -0.014 A 
ATOM     74  C   UNL     1      13.543   9.908   3.492  1.00  0.00     0.010 A 
ATOM     75  C   UNL     1      13.483   8.296   1.679  1.00  0.00     0.010 A 
ATOM     76  C   UNL     1      13.641  10.950   2.568  1.00  0.00     0.020 A 
ATOM     77  C   UNL     1      13.610   9.335   0.752  1.00  0.00     0.020 A 
ATOM     78  C   UNL     1      13.645  10.657   1.202  1.00  0.00     0.054 A 
BRANCH  78  79
ATOM     79  S   UNL     1      13.638  12.032   0.018  1.00  0.00     0.124 S 
ATOM     80  O   UNL     1      12.257  12.499   0.114  1.00  0.00    -0.237 OA
ATOM     81  O   UNL     1      14.648  12.932   0.567  1.00  0.00    -0.237 OA
ATOM     82  O   UNL     1      13.995  11.396  -1.247  1.00  0.00    -0.744 OA
ENDBRANCH  78  79
ENDBRANCH  50  73
BRANCH  62  83
ATOM     83  C   UNL     1      16.562   2.903   5.746  1.00  0.00    -0.014 A 
ATOM     84  C   UNL     1      16.748   1.675   5.084  1.00  0.00     0.010 A 
ATOM     85  C   UNL     1      17.649   3.493   6.413  1.00  0.00     0.010 A 
ATOM     86  C   UNL     1      17.984   1.025   5.127  1.00  0.00     0.020 A 
ATOM     87  C   UNL     1      18.896   2.860   6.434  1.00  0.00     0.020 A 
ATOM     88  C   UNL     1      19.046   1.616   5.815  1.00  0.00     0.054 A 
BRANCH  88  89
ATOM     89  S   UNL     1      20.630   0.736   5.902  1.00  0.00     0.124 S 
ATOM     90  O   UNL     1      20.356  -0.291   6.903  1.00  0.00    -0.237 OA
ATOM     91  O   UNL     1      20.804   0.251   4.534  1.00  0.00    -0.237 OA
ATOM     92  O   UNL     1      21.576   1.772   6.311  1.00  0.00    -0.744 OA
ENDBRANCH  88  89
ENDBRANCH  62  83
ENDBRANCH  36  37
ENDBRANCH  28  31
ENDBRANCH  26  27
ENDBRANCH  25  26
ENDBRANCH  24  25
ENDBRANCH   1  24
TORSDOF 20
