REMARK SMILES Cc1cccc2c1[C@H]1c3c(C)cccc3[C@H](CC(=O)NCCCCNC(=O)c3ccc(-c4c5nc(c(-c6ccc(S(=O)(=O)[O-])cc6)c6ccc([nH]6)c(-c6ccc(S(=O)(=O)[O-])cc6)c6nc(c(-c7ccc(S(=O)(=O)[O-])cc7)c7ccc4[nH]7)C=C6)C=C5)cc3)C[C@H]1CC2
REMARK SMILES IDX 23 1 22 2 21 3 20 4 18 5 19 6 17 8 16 9 1 10 2 11 3 12 7 13
REMARK SMILES IDX 4 14 6 15 8 16 5 17 91 18 9 19 89 20 90 21 10 22 15 23 88 24
REMARK SMILES IDX 12 25 11 26 14 27 13 28 24 29 25 30 26 31 27 33 28 34 29 35
REMARK SMILES IDX 87 36 30 37 86 38 31 39 32 40 33 41 80 42 34 43 85 44 79 45
REMARK SMILES IDX 81 46 35 47 84 48 78 49 77 50 36 52 66 53 47 54 65 55 48 56
REMARK SMILES IDX 51 57 64 58 82 59 49 60 50 61 63 63 83 64 52 65 37 66 38 67
REMARK SMILES IDX 46 68 39 69 45 70 40 71 41 72 42 73 43 74 44 75 67 76 68 77
REMARK SMILES IDX 76 78 69 79 75 80 70 81 71 82 72 83 73 84 74 85 53 86 54 87
REMARK SMILES IDX 62 88 55 89 61 90 56 91 57 92 58 93 59 94 60 95
REMARK H PARENT 20 7 25 32 81 51 51 62
REMARK Flexibility Score: inf
ROOT
ATOM      1  C   UNL     1       4.734   0.075  -1.299  1.00  0.00     0.023 C 
ENDROOT
BRANCH   1   2
ATOM      2  C   UNL     1       3.560  -0.795  -1.717  1.00  0.00     0.023 C 
BRANCH   2   3
ATOM      3  C   UNL     1       3.911  -1.903  -2.711  1.00  0.00     0.116 C 
BRANCH   3   4
ATOM      4  N   UNL     1       3.076  -3.068  -2.488  1.00  0.00    -0.356 N 
ATOM      5  C   UNL     1       2.322  -3.819  -3.329  1.00  0.00     0.220 C 
ATOM      6  O   UNL     1       1.801  -4.842  -2.879  1.00  0.00    -0.275 OA
ATOM      7  H   UNL     1       3.052  -3.370  -1.552  1.00  0.00     0.163 HD
BRANCH   5   8
ATOM      8  C   UNL     1       2.183  -3.467  -4.792  1.00  0.00     0.108 C 
BRANCH   8   9
ATOM      9  C   UNL     1       1.059  -2.486  -5.195  1.00  0.00     0.029 C 
ATOM     10  C   UNL     1       0.440  -0.034  -0.282  1.00  0.00     0.044 C 
ATOM     11  C   UNL     1       0.016   1.079  -1.205  1.00  0.00    -0.047 A 
ATOM     12  C   UNL     1      -0.302   2.301  -0.577  1.00  0.00     0.004 A 
ATOM     13  C   UNL     1      -0.030   0.977  -2.622  1.00  0.00    -0.034 A 
ATOM     14  C   UNL     1      -0.654   3.423  -1.314  1.00  0.00     0.001 A 
ATOM     15  C   UNL     1      -0.349   2.150  -3.359  1.00  0.00    -0.044 A 
ATOM     16  C   UNL     1       0.336  -0.317  -3.370  1.00  0.00     0.053 C 
ATOM     17  C   UNL     1      -0.666   3.350  -2.697  1.00  0.00     0.004 A 
ATOM     18  C   UNL     1      -0.228   2.236  -4.861  1.00  0.00     0.036 C 
ATOM     19  C   UNL     1      -0.675  -1.461  -3.565  1.00  0.00    -0.034 A 
ATOM     20  C   UNL     1       1.013   0.076  -4.708  1.00  0.00     0.002 C 
ATOM     21  C   UNL     1       0.038   0.908  -5.549  1.00  0.00     0.009 C 
ATOM     22  C   UNL     1      -1.925  -1.609  -2.908  1.00  0.00    -0.047 A 
ATOM     23  C   UNL     1      -0.230  -2.538  -4.393  1.00  0.00    -0.040 A 
ATOM     24  C   UNL     1       1.581  -1.084  -5.521  1.00  0.00     0.013 C 
ATOM     25  C   UNL     1      -2.652  -2.813  -3.050  1.00  0.00     0.004 A 
ATOM     26  C   UNL     1      -2.562  -0.599  -1.992  1.00  0.00     0.044 C 
ATOM     27  C   UNL     1      -0.994  -3.715  -4.513  1.00  0.00     0.004 A 
ATOM     28  C   UNL     1      -2.193  -3.856  -3.838  1.00  0.00     0.001 A 
ENDBRANCH   8   9
ENDBRANCH   5   8
ENDBRANCH   3   4
ENDBRANCH   2   3
ENDBRANCH   1   2
BRANCH   1  29
ATOM     29  C   UNL     1       5.312   0.876  -2.463  1.00  0.00     0.116 C 
BRANCH  29  30
ATOM     30  N   UNL     1       4.548   2.064  -2.816  1.00  0.00    -0.352 N 
ATOM     31  C   UNL     1       4.330   3.253  -2.149  1.00  0.00     0.251 C 
ATOM     32  H   UNL     1       4.104   2.010  -3.693  1.00  0.00     0.163 HD
ATOM     33  O   UNL     1       3.643   4.114  -2.677  1.00  0.00    -0.269 OA
BRANCH  31  34
ATOM     34  C   UNL     1       4.866   3.474  -0.781  1.00  0.00     0.039 A 
ATOM     35  C   UNL     1       4.064   4.136   0.157  1.00  0.00     0.014 A 
ATOM     36  C   UNL     1       6.131   3.033  -0.402  1.00  0.00     0.014 A 
ATOM     37  C   UNL     1       4.503   4.284   1.479  1.00  0.00     0.010 A 
ATOM     38  C   UNL     1       6.514   3.069   0.933  1.00  0.00     0.010 A 
ATOM     39  C   UNL     1       5.715   3.710   1.890  1.00  0.00    -0.014 A 
BRANCH  39  40
ATOM     40  C   UNL     1       6.216   3.793   3.288  1.00  0.00     0.031 A 
ATOM     41  C   UNL     1       7.574   4.396   3.553  1.00  0.00     0.074 A 
ATOM     42  C   UNL     1       5.517   3.240   4.300  1.00  0.00     0.049 A 
ATOM     43  N   UNL     1       8.290   4.370   4.647  1.00  0.00    -0.248 NA
ATOM     44  C   UNL     1       8.236   5.071   2.422  1.00  0.00     0.031 C 
ATOM     45  C   UNL     1       4.212   2.586   4.180  1.00  0.00     0.029 A 
ATOM     46  N   UNL     1       5.818   3.130   5.635  1.00  0.00    -0.354 N 
ATOM     47  C   UNL     1       9.501   4.970   4.318  1.00  0.00     0.074 A 
ATOM     48  C   UNL     1       9.442   5.310   2.915  1.00  0.00     0.031 C 
ATOM     49  C   UNL     1       3.808   2.180   5.395  1.00  0.00     0.029 A 
ATOM     50  C   UNL     1       4.843   2.499   6.372  1.00  0.00     0.049 A 
ATOM     51  H   UNL     1       6.654   3.471   6.029  1.00  0.00     0.167 HD
ATOM     52  C   UNL     1      10.559   5.239   5.117  1.00  0.00     0.031 A 
ATOM     53  C   UNL     1       4.790   2.206   7.686  1.00  0.00     0.031 A 
ATOM     54  C   UNL     1      10.581   4.986   6.530  1.00  0.00     0.049 A 
ATOM     55  C   UNL     1       5.947   2.576   8.570  1.00  0.00     0.074 A 
ATOM     56  C   UNL     1      11.572   5.297   7.443  1.00  0.00     0.029 A 
ATOM     57  N   UNL     1       9.549   4.394   7.240  1.00  0.00    -0.354 N 
ATOM     58  N   UNL     1       7.081   3.146   8.240  1.00  0.00    -0.248 NA
ATOM     59  C   UNL     1       5.820   2.268  10.002  1.00  0.00     0.031 C 
ATOM     60  C   UNL     1      11.144   4.880   8.707  1.00  0.00     0.029 A 
ATOM     61  C   UNL     1       9.875   4.337   8.582  1.00  0.00     0.049 A 
ATOM     62  H   UNL     1       8.709   4.063   6.847  1.00  0.00     0.167 HD
ATOM     63  C   UNL     1       7.794   3.282   9.425  1.00  0.00     0.074 A 
ATOM     64  C   UNL     1       6.964   2.741  10.481  1.00  0.00     0.031 C 
ATOM     65  C   UNL     1       9.027   3.807   9.617  1.00  0.00     0.031 A 
BRANCH  52  66
ATOM     66  C   UNL     1      11.768   5.877   4.490  1.00  0.00    -0.014 A 
ATOM     67  C   UNL     1      11.747   7.228   4.101  1.00  0.00     0.010 A 
ATOM     68  C   UNL     1      12.954   5.136   4.340  1.00  0.00     0.010 A 
ATOM     69  C   UNL     1      12.883   7.820   3.544  1.00  0.00     0.020 A 
ATOM     70  C   UNL     1      14.101   5.732   3.806  1.00  0.00     0.020 A 
ATOM     71  C   UNL     1      14.054   7.069   3.404  1.00  0.00     0.054 A 
BRANCH  71  72
ATOM     72  S   UNL     1      15.517   7.880   2.703  1.00  0.00     0.124 S 
ATOM     73  O   UNL     1      15.065   8.206   1.352  1.00  0.00    -0.237 OA
ATOM     74  O   UNL     1      15.703   9.019   3.596  1.00  0.00    -0.237 OA
ATOM     75  O   UNL     1      16.554   6.853   2.777  1.00  0.00    -0.744 OA
ENDBRANCH  71  72
ENDBRANCH  52  66
BRANCH  53  76
ATOM     76  C   UNL     1       3.573   1.560   8.247  1.00  0.00    -0.014 A 
ATOM     77  C   UNL     1       2.641   2.329   8.966  1.00  0.00     0.010 A 
ATOM     78  C   UNL     1       3.315   0.196   8.029  1.00  0.00     0.010 A 
ATOM     79  C   UNL     1       1.471   1.745   9.457  1.00  0.00     0.020 A 
ATOM     80  C   UNL     1       2.136  -0.389   8.504  1.00  0.00     0.020 A 
ATOM     81  C   UNL     1       1.221   0.391   9.215  1.00  0.00     0.054 A 
BRANCH  81  82
ATOM     82  S   UNL     1      -0.336  -0.322   9.816  1.00  0.00     0.124 S 
ATOM     83  O   UNL     1      -0.210  -0.161  11.261  1.00  0.00    -0.237 OA
ATOM     84  O   UNL     1      -1.333   0.527   9.168  1.00  0.00    -0.237 OA
ATOM     85  O   UNL     1      -0.291  -1.701   9.334  1.00  0.00    -0.744 OA
ENDBRANCH  81  82
ENDBRANCH  53  76
BRANCH  65  86
ATOM     86  C   UNL     1       9.559   3.857  11.020  1.00  0.00    -0.014 A 
ATOM     87  C   UNL     1      10.129   2.717  11.611  1.00  0.00     0.010 A 
ATOM     88  C   UNL     1       9.607   5.088  11.699  1.00  0.00     0.010 A 
ATOM     89  C   UNL     1      10.746   2.810  12.860  1.00  0.00     0.020 A 
ATOM     90  C   UNL     1      10.237   5.187  12.941  1.00  0.00     0.020 A 
ATOM     91  C   UNL     1      10.807   4.047  13.511  1.00  0.00     0.054 A 
BRANCH  91  92
ATOM     92  S   UNL     1      11.687   4.148  15.094  1.00  0.00     0.124 S 
ATOM     93  O   UNL     1      10.886   3.275  15.947  1.00  0.00    -0.237 OA
ATOM     94  O   UNL     1      13.013   3.644  14.747  1.00  0.00    -0.237 OA
ATOM     95  O   UNL     1      11.632   5.568  15.434  1.00  0.00    -0.744 OA
ENDBRANCH  91  92
ENDBRANCH  65  86
ENDBRANCH  39  40
ENDBRANCH  31  34
ENDBRANCH  29  30
ENDBRANCH   1  29
TORSDOF 15
