REMARK SMILES O=C(NCCCCNC(=O)[C@H]1CC2(CCN(C(=O)c3cccc(O)c3)CC2)CN1C(=O)C1CC1)c1ccc(-c2c3nc(c(-c4ccc(S(=O)(=O)[O-])cc4)c4ccc([nH]4)c(-c4ccc(S(=O)(=O)[O-])cc4)c4nc(c(-c5ccc(S(=O)(=O)[O-])cc5)c5ccc2[nH]5)C=C4)C=C3)cc1
REMARK SMILES IDX 5 1 4 2 3 3 1 4 2 5 35 7 36 8 94 9 37 10 93 11 38 12 39 13
REMARK SMILES IDX 40 14 87 15 41 16 92 17 86 18 88 19 42 20 91 21 85 22 84 23
REMARK SMILES IDX 43 25 73 26 54 27 72 28 55 29 58 30 71 31 89 32 56 33 57 34
REMARK SMILES IDX 70 36 90 37 59 38 44 39 45 40 53 41 46 42 52 43 47 44 48 45
REMARK SMILES IDX 49 46 50 47 51 48 74 49 75 50 83 51 76 52 82 53 77 54 78 55
REMARK SMILES IDX 79 56 80 57 81 58 60 59 61 60 69 61 62 62 68 63 63 64 64 65
REMARK SMILES IDX 65 66 66 67 67 68 6 69 7 70 8 71 9 72 10 74 11 75 12 76
REMARK SMILES IDX 29 77 13 78 28 79 14 80 27 81 15 82 26 83 16 84 17 85 18 86
REMARK SMILES IDX 30 87 31 88 32 89 33 90 34 91 19 92 20 93 25 94 21 95 23 96
REMARK SMILES IDX 22 97 24 98
REMARK H PARENT 3 6 88 24 58 35 8 73 24 99
REMARK Flexibility Score: inf
ROOT
ATOM      1  C   UNL     1       1.946   8.426   2.483  1.00  0.00     0.023 C 
ENDROOT
BRANCH   1   2
ATOM      2  C   UNL     1       1.116   8.868   3.676  1.00  0.00     0.116 C 
BRANCH   2   3
ATOM      3  N   UNL     1       1.256  10.290   3.942  1.00  0.00    -0.352 N 
ATOM      4  O   UNL     1       0.488  12.367   4.373  1.00  0.00    -0.269 OA
ATOM      5  C   UNL     1       0.278  11.166   4.348  1.00  0.00     0.251 C 
ATOM      6  H   UNL     1       2.156  10.669   3.818  1.00  0.00     0.163 HD
BRANCH   5   7
ATOM      7  C   UNL     1      -1.037  10.612   4.729  1.00  0.00     0.039 A 
ATOM      8  C   UNL     1      -1.106   9.542   5.626  1.00  0.00     0.014 A 
ATOM      9  C   UNL     1      -2.194  11.148   4.163  1.00  0.00     0.014 A 
ATOM     10  C   UNL     1      -2.331   8.946   5.888  1.00  0.00     0.010 A 
ATOM     11  C   UNL     1      -3.434  10.595   4.488  1.00  0.00     0.010 A 
ATOM     12  C   UNL     1      -3.509   9.488   5.348  1.00  0.00    -0.014 A 
BRANCH  12  13
ATOM     13  C   UNL     1      -4.814   8.966   5.811  1.00  0.00     0.031 A 
ATOM     14  C   UNL     1      -5.747   8.244   4.884  1.00  0.00     0.074 A 
ATOM     15  C   UNL     1      -5.139   9.161   7.105  1.00  0.00     0.049 A 
ATOM     16  N   UNL     1      -6.924   7.736   5.146  1.00  0.00    -0.248 NA
ATOM     17  C   UNL     1      -5.315   8.072   3.488  1.00  0.00     0.031 C 
ATOM     18  C   UNL     1      -4.306   9.868   8.085  1.00  0.00     0.029 A 
ATOM     19  N   UNL     1      -6.240   8.778   7.824  1.00  0.00    -0.354 N 
ATOM     20  C   UNL     1      -7.386   7.205   3.948  1.00  0.00     0.074 A 
ATOM     21  C   UNL     1      -6.365   7.459   2.953  1.00  0.00     0.031 C 
ATOM     22  C   UNL     1      -4.909   9.836   9.282  1.00  0.00     0.029 A 
ATOM     23  C   UNL     1      -6.196   9.168   9.141  1.00  0.00     0.049 A 
ATOM     24  H   UNL     1      -6.990   8.273   7.435  1.00  0.00     0.167 HD
ATOM     25  C   UNL     1      -8.557   6.569   3.709  1.00  0.00     0.031 A 
ATOM     26  C   UNL     1      -7.103   9.033  10.125  1.00  0.00     0.031 A 
ATOM     27  C   UNL     1      -9.559   6.319   4.713  1.00  0.00     0.049 A 
ATOM     28  C   UNL     1      -8.399   8.343   9.818  1.00  0.00     0.074 A 
ATOM     29  C   UNL     1     -10.755   5.634   4.581  1.00  0.00     0.029 A 
ATOM     30  N   UNL     1      -9.491   6.751   6.029  1.00  0.00    -0.354 N 
ATOM     31  N   UNL     1      -8.792   7.800   8.691  1.00  0.00    -0.248 NA
ATOM     32  C   UNL     1      -9.374   8.253  10.911  1.00  0.00     0.031 C 
ATOM     33  C   UNL     1     -11.434   5.699   5.802  1.00  0.00     0.029 A 
ATOM     34  C   UNL     1     -10.638   6.378   6.710  1.00  0.00     0.049 A 
ATOM     35  H   UNL     1      -8.738   7.248   6.422  1.00  0.00     0.167 HD
ATOM     36  C   UNL     1     -10.062   7.299   8.941  1.00  0.00     0.074 A 
ATOM     37  C   UNL     1     -10.356   7.575  10.333  1.00  0.00     0.031 C 
ATOM     38  C   UNL     1     -10.914   6.674   8.092  1.00  0.00     0.031 A 
BRANCH  25  39
ATOM     39  C   UNL     1      -8.847   6.113   2.304  1.00  0.00    -0.014 A 
ATOM     40  C   UNL     1      -8.221   4.976   1.764  1.00  0.00     0.010 A 
ATOM     41  C   UNL     1      -9.841   6.769   1.554  1.00  0.00     0.010 A 
ATOM     42  C   UNL     1      -8.578   4.509   0.494  1.00  0.00     0.020 A 
ATOM     43  C   UNL     1     -10.214   6.295   0.293  1.00  0.00     0.020 A 
ATOM     44  C   UNL     1      -9.575   5.170  -0.231  1.00  0.00     0.054 A 
BRANCH  44  45
ATOM     45  S   UNL     1     -10.065   4.502  -1.846  1.00  0.00     0.124 S 
ATOM     46  O   UNL     1      -8.920   4.859  -2.679  1.00  0.00    -0.237 OA
ATOM     47  O   UNL     1     -10.220   3.076  -1.570  1.00  0.00    -0.237 OA
ATOM     48  O   UNL     1     -11.304   5.212  -2.155  1.00  0.00    -0.744 OA
ENDBRANCH  44  45
ENDBRANCH  25  39
BRANCH  26  49
ATOM     49  C   UNL     1      -6.832   9.607  11.469  1.00  0.00    -0.014 A 
ATOM     50  C   UNL     1      -6.619   8.774  12.579  1.00  0.00     0.010 A 
ATOM     51  C   UNL     1      -6.778  11.004  11.638  1.00  0.00     0.010 A 
ATOM     52  C   UNL     1      -6.383   9.327  13.841  1.00  0.00     0.020 A 
ATOM     53  C   UNL     1      -6.513  11.560  12.891  1.00  0.00     0.020 A 
ATOM     54  C   UNL     1      -6.335  10.717  13.989  1.00  0.00     0.054 A 
BRANCH  54  55
ATOM     55  S   UNL     1      -6.001  11.417  15.628  1.00  0.00     0.124 S 
ATOM     56  O   UNL     1      -7.297  11.280  16.284  1.00  0.00    -0.237 OA
ATOM     57  O   UNL     1      -4.939  10.551  16.134  1.00  0.00    -0.237 OA
ATOM     58  O   UNL     1      -5.588  12.788  15.333  1.00  0.00    -0.744 OA
ENDBRANCH  54  55
ENDBRANCH  26  49
BRANCH  38  59
ATOM     59  C   UNL     1     -12.238   6.242   8.656  1.00  0.00    -0.014 A 
ATOM     60  C   UNL     1     -13.243   7.184   8.938  1.00  0.00     0.010 A 
ATOM     61  C   UNL     1     -12.489   4.877   8.879  1.00  0.00     0.010 A 
ATOM     62  C   UNL     1     -14.467   6.771   9.466  1.00  0.00     0.020 A 
ATOM     63  C   UNL     1     -13.722   4.457   9.382  1.00  0.00     0.020 A 
ATOM     64  C   UNL     1     -14.698   5.409   9.687  1.00  0.00     0.054 A 
BRANCH  64  65
ATOM     65  S   UNL     1     -16.308   4.892  10.342  1.00  0.00     0.124 S 
ATOM     66  O   UNL     1     -16.196   5.264  11.749  1.00  0.00    -0.237 OA
ATOM     67  O   UNL     1     -17.246   5.688   9.554  1.00  0.00    -0.237 OA
ATOM     68  O   UNL     1     -16.343   3.456  10.077  1.00  0.00    -0.744 OA
ENDBRANCH  64  65
ENDBRANCH  38  59
ENDBRANCH  12  13
ENDBRANCH   5   7
ENDBRANCH   2   3
ENDBRANCH   1   2
BRANCH   1  69
ATOM     69  C   UNL     1       3.452   8.635   2.661  1.00  0.00     0.023 C 
BRANCH  69  70
ATOM     70  C   UNL     1       4.052   7.877   3.849  1.00  0.00     0.116 C 
BRANCH  70  71
ATOM     71  N   UNL     1       3.929   6.453   3.641  1.00  0.00    -0.354 N 
ATOM     72  C   UNL     1       4.841   5.585   3.134  1.00  0.00     0.242 C 
ATOM     73  H   UNL     1       3.066   6.059   3.902  1.00  0.00     0.163 HD
ATOM     74  O   UNL     1       4.407   4.554   2.609  1.00  0.00    -0.273 OA
BRANCH  72  75
ATOM     75  C   UNL     1       6.347   5.899   3.083  1.00  0.00     0.175 C 
ATOM     76  C   UNL     1       6.665   6.812   1.886  1.00  0.00     0.044 C 
ATOM     77  N   UNL     1       7.016   6.530   4.212  1.00  0.00    -0.330 N 
ATOM     78  C   UNL     1       7.793   7.782   2.324  1.00  0.00    -0.006 C 
ATOM     79  C   UNL     1       8.127   7.343   3.755  1.00  0.00     0.127 C 
ATOM     80  C   UNL     1       7.360   9.271   2.325  1.00  0.00     0.030 C 
ATOM     81  C   UNL     1       9.020   7.647   1.395  1.00  0.00     0.030 C 
ATOM     82  C   UNL     1       7.133   9.833   0.923  1.00  0.00     0.120 C 
ATOM     83  C   UNL     1       8.754   8.216  -0.001  1.00  0.00     0.120 C 
ATOM     84  N   UNL     1       8.302   9.601   0.077  1.00  0.00    -0.339 N 
ATOM     85  C   UNL     1       8.849  10.528  -0.809  1.00  0.00     0.253 C 
ATOM     86  O   UNL     1       9.636  10.228  -1.705  1.00  0.00    -0.269 OA
BRANCH  77  87
ATOM     87  C   UNL     1       7.069   6.055   5.515  1.00  0.00     0.226 C 
ATOM     88  O   UNL     1       7.965   6.381   6.290  1.00  0.00    -0.275 OA
BRANCH  87  89
ATOM     89  C   UNL     1       5.948   5.237   6.052  1.00  0.00     0.079 C 
ATOM     90  C   UNL     1       5.474   3.904   5.535  1.00  0.00     0.014 C 
ATOM     91  C   UNL     1       6.305   3.947   6.773  1.00  0.00     0.014 C 
ENDBRANCH  87  89
ENDBRANCH  77  87
BRANCH  85  92
ATOM     92  C   UNL     1       8.501  11.957  -0.669  1.00  0.00     0.043 A 
ATOM     93  C   UNL     1       8.789  12.644   0.517  1.00  0.00     0.014 A 
ATOM     94  C   UNL     1       7.965  12.634  -1.767  1.00  0.00     0.060 A 
ATOM     95  C   UNL     1       8.498  14.006   0.616  1.00  0.00     0.005 A 
ATOM     96  C   UNL     1       7.683  13.991  -1.655  1.00  0.00     0.116 A 
ATOM     97  C   UNL     1       7.939  14.681  -0.471  1.00  0.00     0.046 A 
BRANCH  96  98
ATOM     98  O   UNL     1       7.154  14.621  -2.742  1.00  0.00    -0.508 OA
ATOM     99  H   UNL     1       6.952  15.535  -2.701  1.00  0.00     0.293 HD
ENDBRANCH  96  98
ENDBRANCH  85  92
ENDBRANCH  72  75
ENDBRANCH  70  71
ENDBRANCH  69  70
ENDBRANCH   1  69
TORSDOF 18
