REMARK SMILES Cc1ccc(S(=O)(=O)N2c3ccc(C(=O)NCCCCNC(=O)c4ccc(-c5c6nc(c(-c7ccc(S(=O)(=O)[O-])cc7)c7ccc([nH]7)c(-c7ccc(S(=O)(=O)[O-])cc7)c7nc(c(-c8ccc(S(=O)(=O)[O-])cc8)c8ccc5[nH]8)C=C7)C=C6)cc4)cc3C[C@H]2C)cc1
REMARK SMILES IDX 19 1 18 2 17 3 16 4 14 5 15 6 13 8 9 9 10 10 87 11 11 12
REMARK SMILES IDX 85 13 86 14 88 15 12 16 84 17 6 18 7 19 8 20 5 21 1 22 2 23
REMARK SMILES IDX 3 24 90 25 4 26 89 27 20 28 21 29 22 30 23 32 24 33 25 34
REMARK SMILES IDX 83 35 26 36 82 37 27 38 28 39 29 40 76 41 30 42 81 43 75 44
REMARK SMILES IDX 77 45 31 46 80 47 74 48 73 49 32 51 62 52 43 53 61 54 44 55
REMARK SMILES IDX 47 56 60 57 78 58 45 59 46 60 59 62 79 63 48 64 33 65 34 66
REMARK SMILES IDX 42 67 35 68 41 69 36 70 37 71 38 72 39 73 40 74 63 75 64 76
REMARK SMILES IDX 72 77 65 78 71 79 66 80 67 81 68 82 69 83 70 84 49 85 50 86
REMARK SMILES IDX 58 87 51 88 57 89 52 90 53 91 54 92 55 93 56 94
REMARK H PARENT 16 7 21 31 77 50 47 61
REMARK Flexibility Score: inf
ROOT
ATOM      1  C   UNL     1     -11.984   2.335   3.683  1.00  0.00     0.023 C 
ENDROOT
BRANCH   1   2
ATOM      2  C   UNL     1     -10.538   1.911   3.460  1.00  0.00     0.023 C 
BRANCH   2   3
ATOM      3  C   UNL     1     -10.234   1.162   2.161  1.00  0.00     0.116 C 
BRANCH   3   4
ATOM      4  N   UNL     1     -10.491   1.929   0.943  1.00  0.00    -0.352 N 
ATOM      5  C   UNL     1      -9.666   2.331  -0.083  1.00  0.00     0.251 C 
ATOM      6  O   UNL     1     -10.128   3.033  -0.982  1.00  0.00    -0.269 OA
ATOM      7  H   UNL     1     -11.429   2.209   0.837  1.00  0.00     0.163 HD
BRANCH   5   8
ATOM      8  C   UNL     1      -8.214   2.009  -0.102  1.00  0.00     0.040 A 
ATOM      9  N   UNL     1      -4.022   1.618   0.186  1.00  0.00    -0.263 N 
ATOM     10  C   UNL     1      -5.468   1.586   0.083  1.00  0.00     0.055 A 
ATOM     11  C   UNL     1      -3.638   2.993  -0.335  1.00  0.00     0.101 C 
ATOM     12  C   UNL     1      -6.328   0.597   0.522  1.00  0.00     0.028 A 
ATOM     13  C   UNL     1      -5.966   2.733  -0.530  1.00  0.00    -0.021 A 
ATOM     14  C   UNL     1      -4.856   3.543  -1.106  1.00  0.00     0.063 C 
ATOM     15  C   UNL     1      -3.322   3.899   0.862  1.00  0.00     0.032 C 
ATOM     16  C   UNL     1      -7.704   0.786   0.359  1.00  0.00     0.016 A 
ATOM     17  C   UNL     1      -7.332   2.970  -0.619  1.00  0.00     0.019 A 
BRANCH   9  18
ATOM     18  S   UNL     1      -3.289   0.257  -0.572  1.00  0.00     0.264 S 
ATOM     19  O   UNL     1      -3.348   0.466  -2.005  1.00  0.00    -0.201 OA
ATOM     20  O   UNL     1      -3.837  -0.944   0.030  1.00  0.00    -0.201 OA
BRANCH  18  21
ATOM     21  C   UNL     1      -1.550   0.203  -0.162  1.00  0.00     0.088 A 
ATOM     22  C   UNL     1       2.730  -0.166   0.144  1.00  0.00     0.044 C 
ATOM     23  C   UNL     1       1.237  -0.042   0.100  1.00  0.00    -0.051 A 
ATOM     24  C   UNL     1       0.450  -1.176  -0.120  1.00  0.00     0.005 A 
ATOM     25  C   UNL     1       0.610   1.198   0.267  1.00  0.00     0.005 A 
ATOM     26  C   UNL     1      -0.934  -1.055  -0.251  1.00  0.00     0.022 A 
ATOM     27  C   UNL     1      -0.779   1.321   0.143  1.00  0.00     0.022 A 
ENDBRANCH  18  21
ENDBRANCH   9  18
ENDBRANCH   5   8
ENDBRANCH   3   4
ENDBRANCH   2   3
ENDBRANCH   1   2
BRANCH   1  28
ATOM     28  C   UNL     1     -12.998   1.206   3.666  1.00  0.00     0.116 C 
BRANCH  28  29
ATOM     29  N   UNL     1     -13.038   0.338   4.833  1.00  0.00    -0.352 N 
ATOM     30  C   UNL     1     -14.247  -0.287   5.157  1.00  0.00     0.251 C 
ATOM     31  H   UNL     1     -12.234   0.194   5.382  1.00  0.00     0.163 HD
ATOM     32  O   UNL     1     -14.991   0.053   6.058  1.00  0.00    -0.269 OA
BRANCH  30  33
ATOM     33  C   UNL     1     -14.646  -1.333   4.185  1.00  0.00     0.039 A 
ATOM     34  C   UNL     1     -14.503  -2.691   4.470  1.00  0.00     0.014 A 
ATOM     35  C   UNL     1     -14.967  -0.900   2.899  1.00  0.00     0.014 A 
ATOM     36  C   UNL     1     -14.537  -3.610   3.417  1.00  0.00     0.010 A 
ATOM     37  C   UNL     1     -14.873  -1.785   1.854  1.00  0.00     0.010 A 
ATOM     38  C   UNL     1     -14.638  -3.138   2.107  1.00  0.00    -0.014 A 
BRANCH  38  39
ATOM     39  C   UNL     1     -14.498  -3.943   0.902  1.00  0.00     0.031 A 
ATOM     40  C   UNL     1     -15.703  -4.276   0.106  1.00  0.00     0.074 A 
ATOM     41  C   UNL     1     -13.262  -4.180   0.410  1.00  0.00     0.049 A 
ATOM     42  N   UNL     1     -15.760  -5.218  -0.772  1.00  0.00    -0.248 NA
ATOM     43  C   UNL     1     -16.970  -3.563   0.262  1.00  0.00     0.031 C 
ATOM     44  C   UNL     1     -12.921  -4.626  -0.938  1.00  0.00     0.029 A 
ATOM     45  N   UNL     1     -12.053  -4.261   1.102  1.00  0.00    -0.354 N 
ATOM     46  C   UNL     1     -16.915  -5.028  -1.501  1.00  0.00     0.074 A 
ATOM     47  C   UNL     1     -17.671  -4.039  -0.771  1.00  0.00     0.031 C 
ATOM     48  C   UNL     1     -11.720  -5.224  -0.898  1.00  0.00     0.029 A 
ATOM     49  C   UNL     1     -11.338  -5.311   0.502  1.00  0.00     0.049 A 
ATOM     50  H   UNL     1     -11.761  -3.699   1.855  1.00  0.00     0.167 HD
ATOM     51  C   UNL     1     -17.045  -5.608  -2.727  1.00  0.00     0.031 A 
ATOM     52  C   UNL     1     -11.013  -6.467   1.156  1.00  0.00     0.031 A 
ATOM     53  C   UNL     1     -15.893  -6.443  -3.047  1.00  0.00     0.049 A 
ATOM     54  C   UNL     1     -11.604  -7.696   0.491  1.00  0.00     0.074 A 
ATOM     55  C   UNL     1     -14.763  -6.234  -3.821  1.00  0.00     0.029 A 
ATOM     56  N   UNL     1     -15.640  -7.571  -2.276  1.00  0.00    -0.354 N 
ATOM     57  N   UNL     1     -12.579  -7.656  -0.377  1.00  0.00    -0.248 NA
ATOM     58  C   UNL     1     -11.164  -9.062   0.758  1.00  0.00     0.031 C 
ATOM     59  C   UNL     1     -13.788  -7.192  -3.438  1.00  0.00     0.029 A 
ATOM     60  C   UNL     1     -14.340  -7.999  -2.458  1.00  0.00     0.049 A 
ATOM     61  H   UNL     1     -16.296  -8.003  -1.683  1.00  0.00     0.167 HD
ATOM     62  C   UNL     1     -12.879  -8.923  -0.803  1.00  0.00     0.074 A 
ATOM     63  C   UNL     1     -11.967  -9.772  -0.058  1.00  0.00     0.031 C 
ATOM     64  C   UNL     1     -13.847  -9.164  -1.736  1.00  0.00     0.031 A 
BRANCH  51  65
ATOM     65  C   UNL     1     -18.077  -5.173  -3.742  1.00  0.00    -0.014 A 
ATOM     66  C   UNL     1     -17.765  -5.226  -5.117  1.00  0.00     0.010 A 
ATOM     67  C   UNL     1     -19.348  -4.665  -3.411  1.00  0.00     0.010 A 
ATOM     68  C   UNL     1     -18.628  -4.715  -6.097  1.00  0.00     0.020 A 
ATOM     69  C   UNL     1     -20.207  -4.117  -4.378  1.00  0.00     0.020 A 
ATOM     70  C   UNL     1     -19.836  -4.137  -5.719  1.00  0.00     0.054 A 
BRANCH  70  71
ATOM     71  S   UNL     1     -20.902  -3.415  -6.994  1.00  0.00     0.124 S 
ATOM     72  O   UNL     1     -20.012  -2.458  -7.647  1.00  0.00    -0.237 OA
ATOM     73  O   UNL     1     -21.268  -4.581  -7.793  1.00  0.00    -0.237 OA
ATOM     74  O   UNL     1     -21.997  -2.816  -6.233  1.00  0.00    -0.744 OA
ENDBRANCH  70  71
ENDBRANCH  51  65
BRANCH  52  75
ATOM     75  C   UNL     1     -10.789  -6.288   2.622  1.00  0.00    -0.014 A 
ATOM     76  C   UNL     1      -9.651  -5.543   3.005  1.00  0.00     0.010 A 
ATOM     77  C   UNL     1     -11.866  -6.387   3.521  1.00  0.00     0.010 A 
ATOM     78  C   UNL     1      -9.679  -4.738   4.147  1.00  0.00     0.020 A 
ATOM     79  C   UNL     1     -11.888  -5.589   4.677  1.00  0.00     0.020 A 
ATOM     80  C   UNL     1     -10.834  -4.703   4.926  1.00  0.00     0.054 A 
BRANCH  80  81
ATOM     81  S   UNL     1     -11.019  -3.350   6.133  1.00  0.00     0.124 S 
ATOM     82  O   UNL     1      -9.772  -3.425   6.886  1.00  0.00    -0.237 OA
ATOM     83  O   UNL     1     -11.165  -2.178   5.265  1.00  0.00    -0.237 OA
ATOM     84  O   UNL     1     -12.222  -3.722   6.870  1.00  0.00    -0.744 OA
ENDBRANCH  80  81
ENDBRANCH  52  75
BRANCH  64  85
ATOM     85  C   UNL     1     -14.393 -10.514  -2.140  1.00  0.00    -0.014 A 
ATOM     86  C   UNL     1     -14.339 -11.662  -1.337  1.00  0.00     0.010 A 
ATOM     87  C   UNL     1     -15.136 -10.611  -3.346  1.00  0.00     0.010 A 
ATOM     88  C   UNL     1     -14.952 -12.860  -1.740  1.00  0.00     0.020 A 
ATOM     89  C   UNL     1     -15.788 -11.784  -3.733  1.00  0.00     0.020 A 
ATOM     90  C   UNL     1     -15.671 -12.913  -2.935  1.00  0.00     0.054 A 
BRANCH  90  91
ATOM     91  S   UNL     1     -16.522 -14.439  -3.407  1.00  0.00     0.124 S 
ATOM     92  O   UNL     1     -15.475 -15.156  -4.129  1.00  0.00    -0.237 OA
ATOM     93  O   UNL     1     -16.901 -15.016  -2.119  1.00  0.00    -0.237 OA
ATOM     94  O   UNL     1     -17.640 -13.970  -4.223  1.00  0.00    -0.744 OA
ENDBRANCH  90  91
ENDBRANCH  64  85
ENDBRANCH  38  39
ENDBRANCH  30  33
ENDBRANCH  28  29
ENDBRANCH   1  28
TORSDOF 16
