REMARK SMILES CCOC(=O)C1=NN(c2ccc(F)cc2F)[C@@H](C(=O)NCCCCNC(=O)c2ccc(-c3c4nc(c(-c5ccc(S(=O)(=O)[O-])cc5)c5ccc([nH]5)c(-c5ccc(S(=O)(=O)[O-])cc5)c5nc(c(-c6ccc(S(=O)(=O)[O-])cc6)c6ccc3[nH]6)C=C5)C=C4)cc2)C1
REMARK SMILES IDX 22 1 21 2 20 3 18 4 19 5 17 7 6 8 7 9 88 10 8 11 4 12 5 13
REMARK SMILES IDX 3 14 2 15 1 16 9 17 10 18 15 19 11 20 14 21 16 22 12 23
REMARK SMILES IDX 13 24 23 25 24 26 25 27 26 28 27 30 28 31 29 32 87 33 30 34
REMARK SMILES IDX 86 35 31 36 32 37 33 38 80 39 34 40 85 41 79 42 81 43 35 44
REMARK SMILES IDX 84 45 78 46 77 47 36 49 66 50 47 51 65 52 48 53 51 54 64 55
REMARK SMILES IDX 82 56 49 57 50 58 63 60 83 61 52 62 37 63 38 64 46 65 39 66
REMARK SMILES IDX 45 67 40 68 41 69 42 70 43 71 44 72 67 73 68 74 76 75 69 76
REMARK SMILES IDX 75 77 70 78 71 79 72 80 73 81 74 82 53 83 54 84 62 85 55 86
REMARK SMILES IDX 61 87 56 88 57 89 58 90 59 91 60 92
REMARK H PARENT 20 6 25 29 81 48 51 59
REMARK Flexibility Score: inf
ROOT
ATOM      1  C   UNL     1       2.472  -6.594  -2.619  1.00  0.00     0.023 C 
ENDROOT
BRANCH   1   2
ATOM      2  C   UNL     1       2.988  -6.861  -4.029  1.00  0.00     0.116 C 
BRANCH   2   3
ATOM      3  N   UNL     1       2.306  -6.103  -5.057  1.00  0.00    -0.354 N 
ATOM      4  C   UNL     1       2.519  -4.864  -5.566  1.00  0.00     0.245 C 
ATOM      5  O   UNL     1       1.881  -4.599  -6.598  1.00  0.00    -0.273 OA
ATOM      6  H   UNL     1       1.543  -6.576  -5.463  1.00  0.00     0.163 HD
BRANCH   4   7
ATOM      7  C   UNL     1       3.385  -3.750  -4.964  1.00  0.00     0.203 C 
ATOM      8  C   UNL     1       3.043  -2.407  -3.122  1.00  0.00     0.148 C 
ATOM      9  N   UNL     1       4.004  -3.192  -2.755  1.00  0.00    -0.169 NA
ATOM     10  C   UNL     1       2.445  -2.653  -4.456  1.00  0.00     0.103 C 
ATOM     11  N   UNL     1       4.234  -4.051  -3.803  1.00  0.00    -0.249 N 
BRANCH   8  12
ATOM     12  C   UNL     1       2.552  -1.247  -2.302  1.00  0.00     0.354 C 
ATOM     13  O   UNL     1       3.234  -0.259  -2.101  1.00  0.00    -0.245 OA
BRANCH  12  14
ATOM     14  O   UNL     1       1.266  -1.458  -1.961  1.00  0.00    -0.461 OA
BRANCH  14  15
ATOM     15  C   UNL     1       0.619  -0.357  -1.308  1.00  0.00     0.230 C 
ATOM     16  C   UNL     1       0.890  -0.380   0.185  1.00  0.00     0.049 C 
ENDBRANCH  14  15
ENDBRANCH  12  14
ENDBRANCH   8  12
BRANCH  11  17
ATOM     17  C   UNL     1       5.482  -4.684  -3.858  1.00  0.00     0.096 A 
ATOM     18  C   UNL     1       6.100  -5.013  -5.080  1.00  0.00     0.034 A 
ATOM     19  C   UNL     1       6.161  -5.078  -2.681  1.00  0.00     0.151 A 
ATOM     20  C   UNL     1       7.327  -5.686  -5.118  1.00  0.00     0.041 A 
ATOM     21  C   UNL     1       7.379  -5.755  -2.711  1.00  0.00     0.080 A 
ATOM     22  F   UNL     1       5.614  -4.870  -1.472  1.00  0.00    -0.205 F 
ATOM     23  C   UNL     1       7.953  -6.050  -3.934  1.00  0.00     0.126 A 
ATOM     24  F   UNL     1       9.120  -6.705  -3.978  1.00  0.00    -0.207 F 
ENDBRANCH  11  17
ENDBRANCH   4   7
ENDBRANCH   2   3
ENDBRANCH   1   2
BRANCH   1  25
ATOM     25  C   UNL     1       1.268  -7.448  -2.201  1.00  0.00     0.023 C 
BRANCH  25  26
ATOM     26  C   UNL     1       1.451  -8.965  -2.300  1.00  0.00     0.116 C 
BRANCH  26  27
ATOM     27  N   UNL     1       2.634  -9.464  -1.617  1.00  0.00    -0.352 N 
ATOM     28  C   UNL     1       2.917 -10.757  -1.242  1.00  0.00     0.251 C 
ATOM     29  H   UNL     1       3.319  -8.792  -1.395  1.00  0.00     0.163 HD
ATOM     30  O   UNL     1       3.923 -11.008  -0.586  1.00  0.00    -0.269 OA
BRANCH  28  31
ATOM     31  C   UNL     1       1.968 -11.838  -1.586  1.00  0.00     0.039 A 
ATOM     32  C   UNL     1       1.465 -12.638  -0.555  1.00  0.00     0.014 A 
ATOM     33  C   UNL     1       1.558 -12.046  -2.905  1.00  0.00     0.014 A 
ATOM     34  C   UNL     1       0.477 -13.586  -0.833  1.00  0.00     0.010 A 
ATOM     35  C   UNL     1       0.551 -12.971  -3.177  1.00  0.00     0.010 A 
ATOM     36  C   UNL     1      -0.016 -13.727  -2.139  1.00  0.00    -0.014 A 
BRANCH  36  37
ATOM     37  C   UNL     1      -1.180 -14.599  -2.431  1.00  0.00     0.031 A 
ATOM     38  C   UNL     1      -1.014 -15.862  -3.222  1.00  0.00     0.074 A 
ATOM     39  C   UNL     1      -2.409 -14.194  -2.059  1.00  0.00     0.049 A 
ATOM     40  N   UNL     1      -1.935 -16.662  -3.693  1.00  0.00    -0.248 NA
ATOM     41  C   UNL     1       0.363 -16.267  -3.539  1.00  0.00     0.031 C 
ATOM     42  C   UNL     1      -2.709 -12.969  -1.313  1.00  0.00     0.029 A 
ATOM     43  N   UNL     1      -3.639 -14.761  -2.277  1.00  0.00    -0.354 N 
ATOM     44  C   UNL     1      -1.255 -17.648  -4.395  1.00  0.00     0.074 A 
ATOM     45  C   UNL     1       0.158 -17.347  -4.282  1.00  0.00     0.031 C 
ATOM     46  C   UNL     1      -4.036 -12.879  -1.132  1.00  0.00     0.029 A 
ATOM     47  C   UNL     1      -4.681 -14.021  -1.773  1.00  0.00     0.049 A 
ATOM     48  H   UNL     1      -3.763 -15.615  -2.750  1.00  0.00     0.167 HD
ATOM     49  C   UNL     1      -1.761 -18.703  -5.078  1.00  0.00     0.031 A 
ATOM     50  C   UNL     1      -6.010 -14.228  -1.831  1.00  0.00     0.031 A 
ATOM     51  C   UNL     1      -3.160 -19.018  -5.179  1.00  0.00     0.049 A 
ATOM     52  C   UNL     1      -6.544 -15.432  -2.548  1.00  0.00     0.074 A 
ATOM     53  C   UNL     1      -3.761 -20.079  -5.835  1.00  0.00     0.029 A 
ATOM     54  N   UNL     1      -4.178 -18.278  -4.599  1.00  0.00    -0.354 N 
ATOM     55  N   UNL     1      -5.883 -16.355  -3.202  1.00  0.00    -0.248 NA
ATOM     56  C   UNL     1      -8.001 -15.620  -2.534  1.00  0.00     0.031 C 
ATOM     57  C   UNL     1      -5.147 -19.975  -5.657  1.00  0.00     0.029 A 
ATOM     58  C   UNL     1      -5.404 -18.858  -4.879  1.00  0.00     0.049 A 
ATOM     59  H   UNL     1      -4.049 -17.460  -4.067  1.00  0.00     0.167 HD
ATOM     60  C   UNL     1      -6.843 -17.239  -3.675  1.00  0.00     0.074 A 
ATOM     61  C   UNL     1      -8.130 -16.746  -3.225  1.00  0.00     0.031 C 
ATOM     62  C   UNL     1      -6.673 -18.358  -4.420  1.00  0.00     0.031 A 
BRANCH  49  63
ATOM     63  C   UNL     1      -0.774 -19.578  -5.795  1.00  0.00    -0.014 A 
ATOM     64  C   UNL     1      -0.048 -20.562  -5.103  1.00  0.00     0.010 A 
ATOM     65  C   UNL     1      -0.564 -19.404  -7.174  1.00  0.00     0.010 A 
ATOM     66  C   UNL     1       0.908 -21.331  -5.771  1.00  0.00     0.020 A 
ATOM     67  C   UNL     1       0.383 -20.180  -7.848  1.00  0.00     0.020 A 
ATOM     68  C   UNL     1       1.129 -21.123  -7.136  1.00  0.00     0.054 A 
BRANCH  68  69
ATOM     69  S   UNL     1       2.386 -22.109  -7.997  1.00  0.00     0.124 S 
ATOM     70  O   UNL     1       3.589 -21.309  -7.783  1.00  0.00    -0.237 OA
ATOM     71  O   UNL     1       2.349 -23.387  -7.289  1.00  0.00    -0.237 OA
ATOM     72  O   UNL     1       1.899 -22.151  -9.373  1.00  0.00    -0.744 OA
ENDBRANCH  68  69
ENDBRANCH  49  63
BRANCH  50  73
ATOM     73  C   UNL     1      -6.926 -13.260  -1.181  1.00  0.00    -0.014 A 
ATOM     74  C   UNL     1      -7.423 -13.517   0.108  1.00  0.00     0.010 A 
ATOM     75  C   UNL     1      -7.263 -12.058  -1.826  1.00  0.00     0.010 A 
ATOM     76  C   UNL     1      -8.244 -12.584   0.745  1.00  0.00     0.020 A 
ATOM     77  C   UNL     1      -8.076 -11.119  -1.187  1.00  0.00     0.020 A 
ATOM     78  C   UNL     1      -8.566 -11.390   0.093  1.00  0.00     0.054 A 
BRANCH  78  79
ATOM     79  S   UNL     1      -9.563 -10.143   0.956  1.00  0.00     0.124 S 
ATOM     80  O   UNL     1     -10.921 -10.542   0.598  1.00  0.00    -0.237 OA
ATOM     81  O   UNL     1      -9.194 -10.339   2.356  1.00  0.00    -0.237 OA
ATOM     82  O   UNL     1      -9.100  -8.887   0.371  1.00  0.00    -0.744 OA
ENDBRANCH  78  79
ENDBRANCH  50  73
BRANCH  62  83
ATOM     83  C   UNL     1      -7.906 -19.132  -4.779  1.00  0.00    -0.014 A 
ATOM     84  C   UNL     1      -8.685 -18.761  -5.889  1.00  0.00     0.010 A 
ATOM     85  C   UNL     1      -8.267 -20.262  -4.026  1.00  0.00     0.010 A 
ATOM     86  C   UNL     1      -9.819 -19.503  -6.232  1.00  0.00     0.020 A 
ATOM     87  C   UNL     1      -9.395 -21.010  -4.371  1.00  0.00     0.020 A 
ATOM     88  C   UNL     1     -10.170 -20.619  -5.466  1.00  0.00     0.054 A 
BRANCH  88  89
ATOM     89  S   UNL     1     -11.617 -21.605  -5.945  1.00  0.00     0.124 S 
ATOM     90  O   UNL     1     -12.702 -20.895  -5.275  1.00  0.00    -0.237 OA
ATOM     91  O   UNL     1     -11.612 -21.512  -7.403  1.00  0.00    -0.237 OA
ATOM     92  O   UNL     1     -11.313 -22.932  -5.413  1.00  0.00    -0.744 OA
ENDBRANCH  88  89
ENDBRANCH  62  83
ENDBRANCH  36  37
ENDBRANCH  28  31
ENDBRANCH  26  27
ENDBRANCH  25  26
ENDBRANCH   1  25
TORSDOF 18
