REMARK SMILES CCN1C(=O)/C(=C2/SC(=S)N([C@@H](C)C(=O)NCCCCNC(=O)c3ccc(-c4c5nc(c(-c6ccc(S(=O)(=O)[O-])cc6)c6ccc([nH]6)c(-c6ccc(S(=O)(=O)[O-])cc6)c6nc(c(-c7ccc(S(=O)(=O)[O-])cc7)c7ccc4[nH]7)C=C6)C=C5)cc3)C2=O)c2cc(Br)ccc21
REMARK SMILES IDX 19 1 18 2 17 3 16 4 14 5 15 6 12 8 13 9 11 10 3 11 4 12
REMARK SMILES IDX 92 13 5 14 6 15 86 16 91 17 7 18 87 19 90 20 8 21 84 22
REMARK SMILES IDX 88 23 9 24 85 25 89 26 10 27 2 28 1 29 20 30 21 31 22 32
REMARK SMILES IDX 23 34 24 35 25 36 83 37 26 38 82 39 27 40 28 41 29 42 76 43
REMARK SMILES IDX 30 44 81 45 75 46 77 47 31 48 80 49 74 50 73 51 32 53 62 54
REMARK SMILES IDX 43 55 61 56 44 57 47 58 60 59 78 60 45 61 46 62 59 64 79 65
REMARK SMILES IDX 48 66 33 67 34 68 42 69 35 70 41 71 36 72 37 73 38 74 39 75
REMARK SMILES IDX 40 76 63 77 64 78 72 79 65 80 71 81 66 82 67 83 68 84 69 85
REMARK SMILES IDX 70 86 49 87 50 88 58 89 51 90 57 91 52 92 53 93 54 94 55 95
REMARK SMILES IDX 56 96
REMARK H PARENT 16 7 21 33 77 52 47 63
REMARK Flexibility Score: inf
ROOT
ATOM      1  C   UNL     1       3.519  -0.822 -11.480  1.00  0.00     0.023 C 
ENDROOT
BRANCH   1   2
ATOM      2  C   UNL     1       2.541  -1.105 -10.349  1.00  0.00     0.023 C 
BRANCH   2   3
ATOM      3  C   UNL     1       1.861  -2.472 -10.407  1.00  0.00     0.116 C 
BRANCH   3   4
ATOM      4  N   UNL     1       2.574  -3.459  -9.623  1.00  0.00    -0.354 N 
ATOM      5  C   UNL     1       2.320  -4.058  -8.426  1.00  0.00     0.242 C 
ATOM      6  O   UNL     1       3.135  -4.920  -8.079  1.00  0.00    -0.273 OA
ATOM      7  H   UNL     1       3.415  -3.757 -10.040  1.00  0.00     0.163 HD
BRANCH   5   8
ATOM      8  C   UNL     1       1.071  -3.776  -7.543  1.00  0.00     0.178 C 
ATOM      9  C   UNL     1      -0.202  -4.293  -8.203  1.00  0.00     0.042 C 
BRANCH   8  10
ATOM     10  N   UNL     1       1.062  -2.398  -7.004  1.00  0.00    -0.280 N 
ATOM     11  N   UNL     1       1.337   0.919  -2.495  1.00  0.00    -0.308 N 
ATOM     12  C   UNL     1       1.497  -0.286  -3.207  1.00  0.00     0.260 C 
ATOM     13  C   UNL     1       1.698   2.029  -3.287  1.00  0.00     0.052 A 
ATOM     14  O   UNL     1       1.142  -1.397  -2.874  1.00  0.00    -0.269 OA
ATOM     15  C   UNL     1       2.007   0.134  -4.562  1.00  0.00     0.069 C 
ATOM     16  C   UNL     1       2.174   1.598  -4.525  1.00  0.00     0.014 A 
ATOM     17  C   UNL     1       1.605   3.382  -2.994  1.00  0.00     0.028 A 
ATOM     18  C   UNL     1       1.922  -0.639  -5.655  1.00  0.00     0.093 C 
ATOM     19  C   UNL     1       2.669   2.509  -5.452  1.00  0.00     0.026 A 
ATOM     20  C   UNL     1       2.020   4.307  -3.961  1.00  0.00     0.018 A 
ATOM     21  S   UNL     1       1.597   0.057  -7.212  1.00  0.00    -0.053 SA
ATOM     22  C   UNL     1       1.757  -2.124  -5.819  1.00  0.00     0.267 C 
ATOM     23  C   UNL     1       2.557   3.868  -5.175  1.00  0.00     0.018 A 
ATOM     24  C   UNL     1       0.541  -1.279  -7.592  1.00  0.00     0.149 C 
ATOM     25  O   UNL     1       2.238  -2.949  -5.059  1.00  0.00    -0.268 OA
ATOM     26  Br  UNL     1       3.095   5.125  -6.480  1.00  0.00    -0.051 Br
ATOM     27  S   UNL     1      -0.906  -1.038  -8.378  1.00  0.00    -0.052 S 
BRANCH  11  28
ATOM     28  C   UNL     1       0.658   1.040  -1.217  1.00  0.00     0.122 C 
ATOM     29  C   UNL     1       1.147   0.072  -0.153  1.00  0.00     0.028 C 
ENDBRANCH  11  28
ENDBRANCH   8  10
ENDBRANCH   5   8
ENDBRANCH   3   4
ENDBRANCH   2   3
ENDBRANCH   1   2
BRANCH   1  30
ATOM     30  C   UNL     1       2.899  -0.783 -12.867  1.00  0.00     0.116 C 
BRANCH  30  31
ATOM     31  N   UNL     1       1.879   0.244 -13.053  1.00  0.00    -0.352 N 
ATOM     32  C   UNL     1       1.698   1.073 -14.144  1.00  0.00     0.251 C 
ATOM     33  H   UNL     1       1.242   0.360 -12.311  1.00  0.00     0.163 HD
ATOM     34  O   UNL     1       0.826   1.933 -14.146  1.00  0.00    -0.269 OA
BRANCH  32  35
ATOM     35  C   UNL     1       2.630   0.936 -15.283  1.00  0.00     0.039 A 
ATOM     36  C   UNL     1       2.908  -0.331 -15.793  1.00  0.00     0.014 A 
ATOM     37  C   UNL     1       3.355   2.050 -15.711  1.00  0.00     0.014 A 
ATOM     38  C   UNL     1       4.071  -0.521 -16.524  1.00  0.00     0.010 A 
ATOM     39  C   UNL     1       4.449   1.869 -16.562  1.00  0.00     0.010 A 
ATOM     40  C   UNL     1       4.862   0.574 -16.914  1.00  0.00    -0.014 A 
BRANCH  40  41
ATOM     41  C   UNL     1       6.114   0.332 -17.681  1.00  0.00     0.031 A 
ATOM     42  C   UNL     1       7.457   0.762 -17.145  1.00  0.00     0.074 A 
ATOM     43  C   UNL     1       6.040  -0.337 -18.849  1.00  0.00     0.049 A 
ATOM     44  N   UNL     1       8.639   0.621 -17.690  1.00  0.00    -0.248 NA
ATOM     45  C   UNL     1       7.484   1.441 -15.838  1.00  0.00     0.031 C 
ATOM     46  C   UNL     1       4.800  -0.828 -19.454  1.00  0.00     0.029 A 
ATOM     47  N   UNL     1       7.019  -0.748 -19.718  1.00  0.00    -0.354 N 
ATOM     48  C   UNL     1       9.541   1.220 -16.816  1.00  0.00     0.074 A 
ATOM     49  C   UNL     1       8.769   1.747 -15.713  1.00  0.00     0.031 C 
ATOM     50  C   UNL     1       5.097  -1.536 -20.551  1.00  0.00     0.029 A 
ATOM     51  C   UNL     1       6.534  -1.463 -20.788  1.00  0.00     0.049 A 
ATOM     52  H   UNL     1       7.974  -0.551 -19.588  1.00  0.00     0.167 HD
ATOM     53  C   UNL     1      10.888   1.312 -16.923  1.00  0.00     0.031 A 
ATOM     54  C   UNL     1       7.159  -1.986 -21.861  1.00  0.00     0.031 A 
ATOM     55  C   UNL     1      11.646   0.756 -18.016  1.00  0.00     0.049 A 
ATOM     56  C   UNL     1       8.645  -1.837 -21.980  1.00  0.00     0.074 A 
ATOM     57  C   UNL     1      13.020   0.762 -18.191  1.00  0.00     0.029 A 
ATOM     58  N   UNL     1      11.107   0.098 -19.113  1.00  0.00    -0.354 N 
ATOM     59  N   UNL     1       9.480  -1.277 -21.137  1.00  0.00    -0.248 NA
ATOM     60  C   UNL     1       9.277  -2.381 -23.188  1.00  0.00     0.031 C 
ATOM     61  C   UNL     1      13.303   0.184 -19.430  1.00  0.00     0.029 A 
ATOM     62  C   UNL     1      12.117  -0.266 -19.988  1.00  0.00     0.049 A 
ATOM     63  H   UNL     1      10.149  -0.083 -19.248  1.00  0.00     0.167 HD
ATOM     64  C   UNL     1      10.739  -1.406 -21.709  1.00  0.00     0.074 A 
ATOM     65  C   UNL     1      10.559  -2.118 -22.958  1.00  0.00     0.031 C 
ATOM     66  C   UNL     1      11.931  -0.966 -21.238  1.00  0.00     0.031 A 
BRANCH  53  67
ATOM     67  C   UNL     1      11.652   2.051 -15.849  1.00  0.00    -0.014 A 
ATOM     68  C   UNL     1      12.341   3.235 -16.180  1.00  0.00     0.010 A 
ATOM     69  C   UNL     1      11.792   1.526 -14.552  1.00  0.00     0.010 A 
ATOM     70  C   UNL     1      13.175   3.862 -15.250  1.00  0.00     0.020 A 
ATOM     71  C   UNL     1      12.599   2.169 -13.607  1.00  0.00     0.020 A 
ATOM     72  C   UNL     1      13.304   3.320 -13.969  1.00  0.00     0.054 A 
BRANCH  72  73
ATOM     73  S   UNL     1      14.402   4.140 -12.779  1.00  0.00     0.124 S 
ATOM     74  O   UNL     1      15.724   3.764 -13.268  1.00  0.00    -0.237 OA
ATOM     75  O   UNL     1      14.046   5.548 -12.934  1.00  0.00    -0.237 OA
ATOM     76  O   UNL     1      14.017   3.549 -11.498  1.00  0.00    -0.744 OA
ENDBRANCH  72  73
ENDBRANCH  53  67
BRANCH  54  77
ATOM     77  C   UNL     1       6.341  -2.704 -22.877  1.00  0.00    -0.014 A 
ATOM     78  C   UNL     1       5.375  -2.005 -23.628  1.00  0.00     0.010 A 
ATOM     79  C   UNL     1       6.405  -4.103 -22.981  1.00  0.00     0.010 A 
ATOM     80  C   UNL     1       4.428  -2.696 -24.386  1.00  0.00     0.020 A 
ATOM     81  C   UNL     1       5.481  -4.797 -23.769  1.00  0.00     0.020 A 
ATOM     82  C   UNL     1       4.473  -4.091 -24.430  1.00  0.00     0.054 A 
BRANCH  82  83
ATOM     83  S   UNL     1       3.162  -4.973 -25.321  1.00  0.00     0.124 S 
ATOM     84  O   UNL     1       2.026  -4.810 -24.416  1.00  0.00    -0.237 OA
ATOM     85  O   UNL     1       3.076  -4.232 -26.577  1.00  0.00    -0.237 OA
ATOM     86  O   UNL     1       3.679  -6.333 -25.435  1.00  0.00    -0.744 OA
ENDBRANCH  82  83
ENDBRANCH  54  77
BRANCH  66  87
ATOM     87  C   UNL     1      13.162  -1.219 -22.070  1.00  0.00    -0.014 A 
ATOM     88  C   UNL     1      14.172  -2.070 -21.582  1.00  0.00     0.010 A 
ATOM     89  C   UNL     1      13.386  -0.503 -23.259  1.00  0.00     0.010 A 
ATOM     90  C   UNL     1      15.402  -2.159 -22.237  1.00  0.00     0.020 A 
ATOM     91  C   UNL     1      14.603  -0.617 -23.936  1.00  0.00     0.020 A 
ATOM     92  C   UNL     1      15.614  -1.420 -23.403  1.00  0.00     0.054 A 
BRANCH  92  93
ATOM     93  S   UNL     1      17.239  -1.505 -24.205  1.00  0.00     0.124 S 
ATOM     94  O   UNL     1      18.068  -0.712 -23.302  1.00  0.00    -0.237 OA
ATOM     95  O   UNL     1      17.515  -2.939 -24.218  1.00  0.00    -0.237 OA
ATOM     96  O   UNL     1      17.004  -0.911 -25.520  1.00  0.00    -0.744 OA
ENDBRANCH  92  93
ENDBRANCH  66  87
ENDBRANCH  40  41
ENDBRANCH  32  35
ENDBRANCH  30  31
ENDBRANCH   1  30
TORSDOF 16
