REMARK SMILES CS(=O)(=O)c1ccc(C(=O)N2C[C@@H](C(=O)NCCCCNC(=O)c3ccc(-c4c5nc(c(-c6ccc(S(=O)(=O)[O-])cc6)c6ccc([nH]6)c(-c6ccc(S(=O)(=O)[O-])cc6)c6nc(c(-c7ccc(S(=O)(=O)[O-])cc7)c7ccc4[nH]7)C=C6)C=C5)cc3)[C@H](c3ccncc3)C2)cc1
REMARK SMILES IDX 18 1 17 2 16 3 14 4 15 5 13 7 11 8 12 9 91 10 84 11 9 12
REMARK SMILES IDX 10 13 8 14 5 15 6 16 93 17 7 18 92 19 2 20 1 21 3 22 4 23
REMARK SMILES IDX 85 24 86 25 90 26 87 27 89 28 88 29 19 30 20 31 21 32 22 33
REMARK SMILES IDX 23 35 24 36 25 37 83 38 26 39 82 40 27 41 28 42 29 43 76 44
REMARK SMILES IDX 30 45 81 46 75 47 77 48 31 49 80 50 74 51 73 52 32 54 62 55
REMARK SMILES IDX 43 56 61 57 44 58 47 59 60 60 78 61 45 62 46 63 59 65 79 66
REMARK SMILES IDX 48 67 33 68 34 69 42 70 35 71 41 72 36 73 37 74 38 75 39 76
REMARK SMILES IDX 40 77 63 78 64 79 72 80 65 81 71 82 66 83 67 84 68 85 69 86
REMARK SMILES IDX 70 87 49 88 50 89 58 90 51 91 57 92 52 93 53 94 54 95 55 96
REMARK SMILES IDX 56 97
REMARK H PARENT 16 6 21 34 77 53 47 64
REMARK Flexibility Score: inf
ROOT
ATOM      1  C   UNL     1      -0.149  -5.781   9.056  1.00  0.00     0.023 C 
ENDROOT
BRANCH   1   2
ATOM      2  C   UNL     1       0.332  -4.348   8.811  1.00  0.00     0.116 C 
BRANCH   2   3
ATOM      3  N   UNL     1       1.670  -4.168   9.337  1.00  0.00    -0.356 N 
ATOM      4  C   UNL     1       2.908  -4.426   8.852  1.00  0.00     0.225 C 
ATOM      5  O   UNL     1       3.790  -4.468   9.716  1.00  0.00    -0.275 OA
ATOM      6  H   UNL     1       1.682  -3.775  10.239  1.00  0.00     0.163 HD
BRANCH   4   7
ATOM      7  C   UNL     1       3.279  -4.518   7.372  1.00  0.00     0.107 C 
ATOM      8  N   UNL     1       2.855  -5.405   5.258  1.00  0.00    -0.337 N 
ATOM      9  C   UNL     1       2.173  -4.806   6.378  1.00  0.00     0.134 C 
ATOM     10  C   UNL     1       3.845  -6.323   5.782  1.00  0.00     0.129 C 
ATOM     11  C   UNL     1       4.359  -5.628   7.074  1.00  0.00     0.053 C 
BRANCH   8  12
ATOM     12  C   UNL     1       2.579  -5.277   3.913  1.00  0.00     0.253 C 
ATOM     13  O   UNL     1       2.947  -6.099   3.077  1.00  0.00    -0.269 OA
BRANCH  12  14
ATOM     14  C   UNL     1       1.883  -4.050   3.430  1.00  0.00     0.040 A 
ATOM     15  C   UNL     1       0.769  -1.736   2.329  1.00  0.00     0.067 A 
ATOM     16  C   UNL     1       0.392  -2.988   1.833  1.00  0.00     0.021 A 
ATOM     17  C   UNL     1       1.678  -1.628   3.383  1.00  0.00     0.021 A 
ATOM     18  C   UNL     1       0.959  -4.146   2.380  1.00  0.00     0.015 A 
ATOM     19  C   UNL     1       2.251  -2.785   3.914  1.00  0.00     0.015 A 
BRANCH  15  20
ATOM     20  S   UNL     1       0.106  -0.261   1.587  1.00  0.00     0.175 S 
ATOM     21  C   UNL     1       0.932  -0.183   0.018  1.00  0.00     0.163 C 
ATOM     22  O   UNL     1       0.558   0.871   2.375  1.00  0.00    -0.224 OA
ATOM     23  O   UNL     1      -1.304  -0.495   1.352  1.00  0.00    -0.224 OA
ENDBRANCH  15  20
ENDBRANCH  12  14
ENDBRANCH   8  12
BRANCH  11  24
ATOM     24  C   UNL     1       5.786  -5.079   7.008  1.00  0.00    -0.039 A 
ATOM     25  C   UNL     1       6.433  -4.698   8.193  1.00  0.00     0.024 A 
ATOM     26  C   UNL     1       6.529  -4.958   5.827  1.00  0.00     0.024 A 
ATOM     27  C   UNL     1       7.734  -4.217   8.154  1.00  0.00     0.111 A 
ATOM     28  C   UNL     1       7.840  -4.495   5.889  1.00  0.00     0.111 A 
ATOM     29  N   UNL     1       8.458  -4.112   7.023  1.00  0.00    -0.265 NA
ENDBRANCH  11  24
ENDBRANCH   4   7
ENDBRANCH   2   3
ENDBRANCH   1   2
BRANCH   1  30
ATOM     30  C   UNL     1      -0.518  -6.077  10.514  1.00  0.00     0.023 C 
BRANCH  30  31
ATOM     31  C   UNL     1      -1.607  -5.182  11.097  1.00  0.00     0.116 C 
BRANCH  31  32
ATOM     32  N   UNL     1      -2.835  -5.188  10.317  1.00  0.00    -0.352 N 
ATOM     33  C   UNL     1      -4.116  -4.965  10.765  1.00  0.00     0.251 C 
ATOM     34  H   UNL     1      -2.738  -5.373   9.355  1.00  0.00     0.163 HD
ATOM     35  O   UNL     1      -5.074  -5.103  10.013  1.00  0.00    -0.269 OA
BRANCH  33  36
ATOM     36  C   UNL     1      -4.313  -4.601  12.181  1.00  0.00     0.039 A 
ATOM     37  C   UNL     1      -5.158  -5.384  12.970  1.00  0.00     0.014 A 
ATOM     38  C   UNL     1      -3.602  -3.534  12.735  1.00  0.00     0.014 A 
ATOM     39  C   UNL     1      -5.239  -5.136  14.341  1.00  0.00     0.010 A 
ATOM     40  C   UNL     1      -3.636  -3.330  14.109  1.00  0.00     0.010 A 
ATOM     41  C   UNL     1      -4.452  -4.131  14.925  1.00  0.00    -0.014 A 
BRANCH  41  42
ATOM     42  C   UNL     1      -4.465  -3.880  16.387  1.00  0.00     0.031 A 
ATOM     43  C   UNL     1      -4.965  -2.562  16.908  1.00  0.00     0.074 A 
ATOM     44  C   UNL     1      -3.942  -4.792  17.231  1.00  0.00     0.049 A 
ATOM     45  N   UNL     1      -4.929  -2.089  18.126  1.00  0.00    -0.248 NA
ATOM     46  C   UNL     1      -5.554  -1.642  15.920  1.00  0.00     0.031 C 
ATOM     47  C   UNL     1      -3.395  -6.094  16.844  1.00  0.00     0.029 A 
ATOM     48  N   UNL     1      -3.769  -4.751  18.592  1.00  0.00    -0.354 N 
ATOM     49  C   UNL     1      -5.460  -0.807  18.047  1.00  0.00     0.074 A 
ATOM     50  C   UNL     1      -5.772  -0.562  16.655  1.00  0.00     0.031 C 
ATOM     51  C   UNL     1      -2.962  -6.734  17.943  1.00  0.00     0.029 A 
ATOM     52  C   UNL     1      -3.161  -5.873  19.105  1.00  0.00     0.049 A 
ATOM     53  H   UNL     1      -4.054  -3.991  19.148  1.00  0.00     0.167 HD
ATOM     54  C   UNL     1      -5.680   0.082  19.044  1.00  0.00     0.031 A 
ATOM     55  C   UNL     1      -2.793  -6.168  20.367  1.00  0.00     0.031 A 
ATOM     56  C   UNL     1      -5.391  -0.175  20.428  1.00  0.00     0.049 A 
ATOM     57  C   UNL     1      -3.061  -5.171  21.461  1.00  0.00     0.074 A 
ATOM     58  C   UNL     1      -5.623   0.639  21.522  1.00  0.00     0.029 A 
ATOM     59  N   UNL     1      -4.813  -1.340  20.910  1.00  0.00    -0.354 N 
ATOM     60  N   UNL     1      -3.602  -3.979  21.373  1.00  0.00    -0.248 NA
ATOM     61  C   UNL     1      -2.679  -5.562  22.825  1.00  0.00     0.031 C 
ATOM     62  C   UNL     1      -5.154  -0.020  22.663  1.00  0.00     0.029 A 
ATOM     63  C   UNL     1      -4.673  -1.264  22.285  1.00  0.00     0.049 A 
ATOM     64  H   UNL     1      -4.541  -2.108  20.357  1.00  0.00     0.167 HD
ATOM     65  C   UNL     1      -3.655  -3.492  22.674  1.00  0.00     0.074 A 
ATOM     66  C   UNL     1      -3.097  -4.519  23.530  1.00  0.00     0.031 C 
ATOM     67  C   UNL     1      -4.128  -2.303  23.121  1.00  0.00     0.031 A 
BRANCH  54  68
ATOM     68  C   UNL     1      -6.259   1.418  18.664  1.00  0.00    -0.014 A 
ATOM     69  C   UNL     1      -7.593   1.535  18.234  1.00  0.00     0.010 A 
ATOM     70  C   UNL     1      -5.465   2.576  18.757  1.00  0.00     0.010 A 
ATOM     71  C   UNL     1      -8.108   2.777  17.856  1.00  0.00     0.020 A 
ATOM     72  C   UNL     1      -5.985   3.825  18.407  1.00  0.00     0.020 A 
ATOM     73  C   UNL     1      -7.298   3.914  17.939  1.00  0.00     0.054 A 
BRANCH  73  74
ATOM     74  S   UNL     1      -7.994   5.516  17.452  1.00  0.00     0.124 S 
ATOM     75  O   UNL     1      -7.992   5.413  15.995  1.00  0.00    -0.237 OA
ATOM     76  O   UNL     1      -9.312   5.499  18.080  1.00  0.00    -0.237 OA
ATOM     77  O   UNL     1      -7.054   6.486  18.009  1.00  0.00    -0.744 OA
ENDBRANCH  73  74
ENDBRANCH  54  68
BRANCH  55  78
ATOM     78  C   UNL     1      -2.149  -7.475  20.666  1.00  0.00    -0.014 A 
ATOM     79  C   UNL     1      -2.860  -8.476  21.352  1.00  0.00     0.010 A 
ATOM     80  C   UNL     1      -0.828  -7.733  20.257  1.00  0.00     0.010 A 
ATOM     81  C   UNL     1      -2.256  -9.704  21.639  1.00  0.00     0.020 A 
ATOM     82  C   UNL     1      -0.229  -8.969  20.520  1.00  0.00     0.020 A 
ATOM     83  C   UNL     1      -0.945  -9.943  21.220  1.00  0.00     0.054 A 
BRANCH  83  84
ATOM     84  S   UNL     1      -0.199 -11.563  21.556  1.00  0.00     0.124 S 
ATOM     85  O   UNL     1       0.105 -11.467  22.980  1.00  0.00    -0.237 OA
ATOM     86  O   UNL     1      -1.273 -12.486  21.198  1.00  0.00    -0.237 OA
ATOM     87  O   UNL     1       0.960 -11.595  20.666  1.00  0.00    -0.744 OA
ENDBRANCH  83  84
ENDBRANCH  55  78
BRANCH  67  88
ATOM     88  C   UNL     1      -4.114  -2.062  24.605  1.00  0.00    -0.014 A 
ATOM     89  C   UNL     1      -2.920  -1.764  25.285  1.00  0.00     0.010 A 
ATOM     90  C   UNL     1      -5.329  -2.059  25.314  1.00  0.00     0.010 A 
ATOM     91  C   UNL     1      -2.941  -1.488  26.654  1.00  0.00     0.020 A 
ATOM     92  C   UNL     1      -5.356  -1.760  26.678  1.00  0.00     0.020 A 
ATOM     93  C   UNL     1      -4.159  -1.486  27.342  1.00  0.00     0.054 A 
BRANCH  93  94
ATOM     94  S   UNL     1      -4.169  -1.064  29.106  1.00  0.00     0.124 S 
ATOM     95  O   UNL     1      -3.650  -2.286  29.713  1.00  0.00    -0.237 OA
ATOM     96  O   UNL     1      -3.280   0.094  29.164  1.00  0.00    -0.237 OA
ATOM     97  O   UNL     1      -5.574  -0.776  29.385  1.00  0.00    -0.744 OA
ENDBRANCH  93  94
ENDBRANCH  67  88
ENDBRANCH  41  42
ENDBRANCH  33  36
ENDBRANCH  31  32
ENDBRANCH  30  31
ENDBRANCH   1  30
TORSDOF 18
