REMARK SMILES CC[C@H](C)[C@H](NC(=O)N1CCc2cc(OC)c(OC)cc2[C@@H]1c1ccc(F)cc1)C(=O)NCCCCNC(=O)c1ccc(-c2c3nc(c(-c4ccc(S(=O)(=O)[O-])cc4)c4ccc([nH]4)c(-c4ccc(S(=O)(=O)[O-])cc4)c4nc(c(-c5ccc(S(=O)(=O)[O-])cc5)c5ccc2[nH]5)C=C4)C=C3)cc1
REMARK SMILES IDX 34 1 33 2 32 3 30 4 31 5 5 7 3 8 4 9 2 10 1 11 6 12 7 13
REMARK SMILES IDX 8 15 9 16 10 17 22 18 11 19 21 20 12 21 20 22 13 23 17 24
REMARK SMILES IDX 14 25 23 26 24 27 29 28 25 29 28 30 26 31 27 32 18 33 19 34
REMARK SMILES IDX 15 35 16 36 35 37 36 38 37 39 38 40 39 42 40 43 41 44 99 45
REMARK SMILES IDX 42 46 98 47 43 48 44 49 45 50 92 51 46 52 97 53 91 54 93 55
REMARK SMILES IDX 47 56 96 57 90 58 89 59 48 61 78 62 59 63 77 64 60 65 63 66
REMARK SMILES IDX 76 67 94 68 61 69 62 70 75 72 95 73 64 74 49 75 50 76 58 77
REMARK SMILES IDX 51 78 57 79 52 80 53 81 54 82 55 83 56 84 79 85 80 86 88 87
REMARK SMILES IDX 81 88 87 89 82 90 83 91 84 92 85 93 86 94 65 95 66 96 74 97
REMARK SMILES IDX 67 98 73 99 68 100 69 101 70 102 71 103 72 104
REMARK H PARENT 32 6 6 14 37 41 93 60 63 71
REMARK Flexibility Score: inf
ROOT
ATOM      1  C   UNL     1       5.357  -1.298  -2.385  1.00  0.00     0.023 C 
ENDROOT
BRANCH   1   2
ATOM      2  C   UNL     1       4.550  -0.634  -3.493  1.00  0.00     0.116 C 
BRANCH   2   3
ATOM      3  N   UNL     1       3.491  -1.511  -3.888  1.00  0.00    -0.354 N 
ATOM      4  C   UNL     1       2.553  -1.185  -4.829  1.00  0.00     0.242 C 
ATOM      5  O   UNL     1       2.829  -0.742  -5.935  1.00  0.00    -0.273 OA
ATOM      6  H   UNL     1       3.435  -2.396  -3.461  1.00  0.00     0.163 HD
BRANCH   4   7
ATOM      7  C   UNL     1       1.110  -1.341  -4.280  1.00  0.00     0.176 C 
BRANCH   7   8
ATOM      8  C   UNL     1       0.406   0.058  -4.330  1.00  0.00     0.018 C 
ATOM      9  C   UNL     1       1.281   1.181  -3.733  1.00  0.00     0.010 C 
BRANCH   8  10
ATOM     10  C   UNL     1      -0.013   0.479  -5.758  1.00  0.00     0.002 C 
ATOM     11  C   UNL     1      -1.087  -0.399  -6.380  1.00  0.00     0.004 C 
ENDBRANCH   8  10
ENDBRANCH   7   8
BRANCH   7  12
ATOM     12  N   UNL     1       1.111  -1.873  -2.889  1.00  0.00    -0.326 N 
ATOM     13  C   UNL     1       1.398  -3.050  -2.288  1.00  0.00     0.318 C 
ATOM     14  H   UNL     1       0.828  -1.191  -2.238  1.00  0.00     0.166 HD
ATOM     15  O   UNL     1       1.335  -3.034  -1.057  1.00  0.00    -0.249 OA
BRANCH  13  16
ATOM     16  N   UNL     1       1.839  -4.145  -2.986  1.00  0.00    -0.313 N 
ATOM     17  C   UNL     1       1.808  -4.333  -4.452  1.00  0.00     0.127 C 
ATOM     18  C   UNL     1       2.266  -5.336  -2.183  1.00  0.00     0.148 C 
ATOM     19  C   UNL     1       2.152  -5.735  -4.960  1.00  0.00     0.057 C 
ATOM     20  C   UNL     1       3.478  -5.983  -2.874  1.00  0.00    -0.014 A 
ATOM     21  C   UNL     1       3.398  -6.185  -4.262  1.00  0.00    -0.037 A 
ATOM     22  C   UNL     1       4.654  -6.353  -2.196  1.00  0.00     0.057 A 
ATOM     23  C   UNL     1       4.463  -6.743  -4.959  1.00  0.00     0.054 A 
ATOM     24  C   UNL     1       5.738  -6.911  -2.900  1.00  0.00     0.161 A 
ATOM     25  C   UNL     1       5.631  -7.103  -4.290  1.00  0.00     0.161 A 
BRANCH  18  26
ATOM     26  C   UNL     1       1.094  -6.323  -1.995  1.00  0.00    -0.021 A 
ATOM     27  C   UNL     1       1.325  -7.634  -1.538  1.00  0.00     0.009 A 
ATOM     28  C   UNL     1      -0.232  -5.962  -2.317  1.00  0.00     0.009 A 
ATOM     29  C   UNL     1       0.285  -8.567  -1.494  1.00  0.00     0.039 A 
ATOM     30  C   UNL     1      -1.265  -6.895  -2.283  1.00  0.00     0.039 A 
ATOM     31  C   UNL     1      -0.994  -8.193  -1.885  1.00  0.00     0.123 A 
ATOM     32  F   UNL     1      -1.983  -9.097  -1.883  1.00  0.00    -0.207 F 
ENDBRANCH  18  26
BRANCH  24  33
ATOM     33  O   UNL     1       6.944  -7.177  -2.305  1.00  0.00    -0.493 OA
ATOM     34  C   UNL     1       6.918  -7.588  -0.943  1.00  0.00     0.278 C 
ENDBRANCH  24  33
BRANCH  25  35
ATOM     35  O   UNL     1       6.598  -7.561  -5.145  1.00  0.00    -0.493 OA
ATOM     36  C   UNL     1       7.373  -8.645  -4.658  1.00  0.00     0.278 C 
ENDBRANCH  25  35
ENDBRANCH  13  16
ENDBRANCH   7  12
ENDBRANCH   4   7
ENDBRANCH   2   3
ENDBRANCH   1   2
BRANCH   1  37
ATOM     37  C   UNL     1       5.867  -2.703  -2.734  1.00  0.00     0.023 C 
BRANCH  37  38
ATOM     38  C   UNL     1       6.522  -2.828  -4.106  1.00  0.00     0.116 C 
BRANCH  38  39
ATOM     39  N   UNL     1       7.676  -1.955  -4.207  1.00  0.00    -0.352 N 
ATOM     40  C   UNL     1       9.005  -2.265  -4.307  1.00  0.00     0.251 C 
ATOM     41  H   UNL     1       7.471  -0.992  -4.203  1.00  0.00     0.163 HD
ATOM     42  O   UNL     1       9.836  -1.388  -4.077  1.00  0.00    -0.269 OA
BRANCH  40  43
ATOM     43  C   UNL     1       9.455  -3.624  -4.688  1.00  0.00     0.039 A 
ATOM     44  C   UNL     1      10.617  -4.129  -4.094  1.00  0.00     0.014 A 
ATOM     45  C   UNL     1       8.816  -4.365  -5.684  1.00  0.00     0.014 A 
ATOM     46  C   UNL     1      11.127  -5.374  -4.480  1.00  0.00     0.010 A 
ATOM     47  C   UNL     1       9.292  -5.634  -6.025  1.00  0.00     0.010 A 
ATOM     48  C   UNL     1      10.461  -6.150  -5.439  1.00  0.00    -0.014 A 
BRANCH  48  49
ATOM     49  C   UNL     1      10.947  -7.502  -5.840  1.00  0.00     0.031 A 
ATOM     50  C   UNL     1      11.325  -7.784  -7.273  1.00  0.00     0.074 A 
ATOM     51  C   UNL     1      10.936  -8.517  -4.950  1.00  0.00     0.049 A 
ATOM     52  N   UNL     1      11.617  -8.931  -7.836  1.00  0.00    -0.248 NA
ATOM     53  C   UNL     1      11.395  -6.634  -8.190  1.00  0.00     0.031 C 
ATOM     54  C   UNL     1      10.595  -8.411  -3.530  1.00  0.00     0.029 A 
ATOM     55  N   UNL     1      11.112  -9.868  -5.145  1.00  0.00    -0.354 N 
ATOM     56  C   UNL     1      11.942  -8.637  -9.155  1.00  0.00     0.074 A 
ATOM     57  C   UNL     1      11.732  -7.216  -9.334  1.00  0.00     0.031 C 
ATOM     58  C   UNL     1      10.445  -9.645  -3.020  1.00  0.00     0.029 A 
ATOM     59  C   UNL     1      10.699 -10.623  -4.071  1.00  0.00     0.049 A 
ATOM     60  H   UNL     1      11.494 -10.254  -5.966  1.00  0.00     0.167 HD
ATOM     61  C   UNL     1      12.423  -9.464 -10.116  1.00  0.00     0.031 A 
ATOM     62  C   UNL     1      10.489 -11.948  -3.953  1.00  0.00     0.031 A 
ATOM     63  C   UNL     1      12.639 -10.877  -9.938  1.00  0.00     0.049 A 
ATOM     64  C   UNL     1      10.873 -12.867  -5.075  1.00  0.00     0.074 A 
ATOM     65  C   UNL     1      13.257 -11.769 -10.798  1.00  0.00     0.029 A 
ATOM     66  N   UNL     1      12.221 -11.609  -8.839  1.00  0.00    -0.354 N 
ATOM     67  N   UNL     1      11.321 -12.562  -6.267  1.00  0.00    -0.248 NA
ATOM     68  C   UNL     1      10.782 -14.310  -4.812  1.00  0.00     0.031 C 
ATOM     69  C   UNL     1      13.161 -13.051 -10.246  1.00  0.00     0.029 A 
ATOM     70  C   UNL     1      12.527 -12.948  -9.019  1.00  0.00     0.049 A 
ATOM     71  H   UNL     1      11.773 -11.233  -8.048  1.00  0.00     0.167 HD
ATOM     72  C   UNL     1      11.640 -13.775  -6.868  1.00  0.00     0.074 A 
ATOM     73  C   UNL     1      11.303 -14.817  -5.922  1.00  0.00     0.031 C 
ATOM     74  C   UNL     1      12.200 -13.992  -8.083  1.00  0.00     0.031 A 
BRANCH  61  75
ATOM     75  C   UNL     1      12.809  -8.863 -11.441  1.00  0.00    -0.014 A 
ATOM     76  C   UNL     1      13.959  -8.059 -11.549  1.00  0.00     0.010 A 
ATOM     77  C   UNL     1      12.094  -9.193 -12.606  1.00  0.00     0.010 A 
ATOM     78  C   UNL     1      14.376  -7.581 -12.793  1.00  0.00     0.020 A 
ATOM     79  C   UNL     1      12.520  -8.733 -13.857  1.00  0.00     0.020 A 
ATOM     80  C   UNL     1      13.655  -7.924 -13.941  1.00  0.00     0.054 A 
BRANCH  80  81
ATOM     81  S   UNL     1      14.259  -7.341 -15.550  1.00  0.00     0.124 S 
ATOM     82  O   UNL     1      13.932  -5.918 -15.498  1.00  0.00    -0.237 OA
ATOM     83  O   UNL     1      15.683  -7.660 -15.492  1.00  0.00    -0.237 OA
ATOM     84  O   UNL     1      13.488  -8.122 -16.514  1.00  0.00    -0.744 OA
ENDBRANCH  80  81
ENDBRANCH  61  75
BRANCH  62  85
ATOM     85  C   UNL     1       9.868 -12.492  -2.718  1.00  0.00    -0.014 A 
ATOM     86  C   UNL     1      10.648 -13.139  -1.746  1.00  0.00     0.010 A 
ATOM     87  C   UNL     1       8.479 -12.377  -2.526  1.00  0.00     0.010 A 
ATOM     88  C   UNL     1      10.044 -13.690  -0.614  1.00  0.00     0.020 A 
ATOM     89  C   UNL     1       7.874 -12.911  -1.386  1.00  0.00     0.020 A 
ATOM     90  C   UNL     1       8.660 -13.576  -0.443  1.00  0.00     0.054 A 
BRANCH  90  91
ATOM     91  S   UNL     1       7.905 -14.281   1.048  1.00  0.00     0.124 S 
ATOM     92  O   UNL     1       7.978 -15.713   0.778  1.00  0.00    -0.237 OA
ATOM     93  O   UNL     1       8.783 -13.789   2.107  1.00  0.00    -0.237 OA
ATOM     94  O   UNL     1       6.560 -13.709   1.051  1.00  0.00    -0.744 OA
ENDBRANCH  90  91
ENDBRANCH  62  85
BRANCH  74  95
ATOM     95  C   UNL     1      12.557 -15.409  -8.439  1.00  0.00    -0.014 A 
ATOM     96  C   UNL     1      11.572 -16.355  -8.771  1.00  0.00     0.010 A 
ATOM     97  C   UNL     1      13.912 -15.790  -8.470  1.00  0.00     0.010 A 
ATOM     98  C   UNL     1      11.935 -17.665  -9.098  1.00  0.00     0.020 A 
ATOM     99  C   UNL     1      14.280 -17.090  -8.822  1.00  0.00     0.020 A 
ATOM    100  C   UNL     1      13.287 -18.024  -9.120  1.00  0.00     0.054 A 
BRANCH 100 101
ATOM    101  S   UNL     1      13.734 -19.720  -9.587  1.00  0.00     0.124 S 
ATOM    102  O   UNL     1      13.391 -20.467  -8.382  1.00  0.00    -0.237 OA
ATOM    103  O   UNL     1      12.884 -19.970 -10.747  1.00  0.00    -0.237 OA
ATOM    104  O   UNL     1      15.165 -19.631  -9.879  1.00  0.00    -0.744 OA
ENDBRANCH 100 101
ENDBRANCH  74  95
ENDBRANCH  48  49
ENDBRANCH  40  43
ENDBRANCH  38  39
ENDBRANCH  37  38
ENDBRANCH   1  37
TORSDOF 21
