REMARK SMILES CSCC[C@@H](CO)n1ccnc1-c1ccccc1C(=O)NCCCCNC(=O)c1ccc(-c2c3nc(c(-c4ccc(S(=O)(=O)[O-])cc4)c4ccc([nH]4)c(-c4ccc(S(=O)(=O)[O-])cc4)c4nc(c(-c5ccc(S(=O)(=O)[O-])cc5)c5ccc2[nH]5)C=C4)C=C3)cc1
REMARK SMILES IDX 22 1 21 2 19 3 20 4 18 6 13 7 14 8 15 9 17 10 16 11 12 12
REMARK SMILES IDX 8 13 9 14 10 15 11 16 5 17 4 18 3 19 2 20 1 21 6 22 7 23
REMARK SMILES IDX 23 25 24 26 25 27 26 28 27 29 28 31 29 32 30 33 88 34 31 35
REMARK SMILES IDX 87 36 32 37 33 38 34 39 81 40 35 41 86 42 80 43 82 44 36 45
REMARK SMILES IDX 85 46 79 47 78 48 37 50 67 51 48 52 66 53 49 54 52 55 65 56
REMARK SMILES IDX 83 57 50 58 51 59 64 61 84 62 53 63 38 64 39 65 47 66 40 67
REMARK SMILES IDX 46 68 41 69 42 70 43 71 44 72 45 73 68 74 69 75 77 76 70 77
REMARK SMILES IDX 76 78 71 79 72 80 73 81 74 82 75 83 54 84 55 85 63 86 56 87
REMARK SMILES IDX 62 88 57 89 58 90 59 91 60 92 61 93
REMARK H PARENT 21 5 7 24 26 30 82 49 52 60
REMARK Flexibility Score: inf
ROOT
ATOM      1  C   UNL     1       1.097   4.377  -4.354  1.00  0.00     0.116 C 
ENDROOT
BRANCH   1   2
ATOM      2  N   UNL     1       2.447   3.905  -4.543  1.00  0.00    -0.352 N 
ATOM      3  C   UNL     1       3.533   3.896  -3.692  1.00  0.00     0.252 C 
ATOM      4  O   UNL     1       4.567   3.450  -4.202  1.00  0.00    -0.269 OA
ATOM      5  H   UNL     1       2.623   3.523  -5.433  1.00  0.00     0.163 HD
BRANCH   3   6
ATOM      6  C   UNL     1       3.591   4.325  -2.238  1.00  0.00     0.050 A 
ATOM      7  C   UNL     1       2.561   4.498  -1.292  1.00  0.00     0.030 A 
ATOM      8  C   UNL     1       2.867   4.960   0.016  1.00  0.00     0.013 A 
ATOM      9  C   UNL     1       4.174   5.135   0.449  1.00  0.00     0.001 A 
ATOM     10  C   UNL     1       4.917   4.468  -1.744  1.00  0.00     0.014 A 
ATOM     11  C   UNL     1       5.206   4.850  -0.425  1.00  0.00     0.001 A 
BRANCH   7  12
ATOM     12  C   UNL     1       1.148   4.202  -1.464  1.00  0.00     0.141 A 
ATOM     13  N   UNL     1       0.533   2.960  -1.474  1.00  0.00    -0.326 N 
ATOM     14  C   UNL     1      -0.832   3.217  -1.490  1.00  0.00     0.108 A 
ATOM     15  C   UNL     1      -0.977   4.575  -1.545  1.00  0.00     0.131 A 
ATOM     16  N   UNL     1       0.243   5.170  -1.500  1.00  0.00    -0.237 NA
BRANCH  13  17
ATOM     17  C   UNL     1       1.068   1.600  -1.299  1.00  0.00     0.115 C 
BRANCH  17  18
ATOM     18  C   UNL     1       0.428   0.601  -2.289  1.00  0.00     0.039 C 
BRANCH  18  19
ATOM     19  C   UNL     1       0.732  -0.871  -2.000  1.00  0.00     0.071 C 
BRANCH  19  20
ATOM     20  S   UNL     1      -0.206  -1.404  -0.532  1.00  0.00    -0.165 SA
ATOM     21  C   UNL     1       0.959  -1.121   0.806  1.00  0.00     0.085 C 
ENDBRANCH  19  20
ENDBRANCH  18  19
ENDBRANCH  17  18
BRANCH  17  22
ATOM     22  C   UNL     1       2.591   1.364  -1.279  1.00  0.00     0.181 C 
BRANCH  22  23
ATOM     23  O   UNL     1       3.133   1.039  -2.553  1.00  0.00    -0.394 OA
ATOM     24  H   UNL     1       2.742   0.209  -2.869  1.00  0.00     0.210 HD
ENDBRANCH  22  23
ENDBRANCH  17  22
ENDBRANCH  13  17
ENDBRANCH   7  12
ENDBRANCH   3   6
ENDBRANCH   1   2
BRANCH   1  25
ATOM     25  C   UNL     1       0.309   4.835  -5.580  1.00  0.00     0.023 C 
BRANCH  25  26
ATOM     26  C   UNL     1      -0.359   3.756  -6.444  1.00  0.00     0.023 C 
BRANCH  26  27
ATOM     27  C   UNL     1      -1.354   2.816  -5.750  1.00  0.00     0.116 C 
BRANCH  27  28
ATOM     28  N   UNL     1      -2.629   3.423  -5.375  1.00  0.00    -0.352 N 
ATOM     29  C   UNL     1      -3.828   2.773  -5.088  1.00  0.00     0.251 C 
ATOM     30  H   UNL     1      -2.643   4.406  -5.317  1.00  0.00     0.163 HD
ATOM     31  O   UNL     1      -4.875   3.393  -5.026  1.00  0.00    -0.269 OA
BRANCH  29  32
ATOM     32  C   UNL     1      -3.808   1.311  -4.822  1.00  0.00     0.039 A 
ATOM     33  C   UNL     1      -4.736   0.428  -5.378  1.00  0.00     0.014 A 
ATOM     34  C   UNL     1      -2.820   0.824  -3.978  1.00  0.00     0.014 A 
ATOM     35  C   UNL     1      -4.578  -0.952  -5.176  1.00  0.00     0.010 A 
ATOM     36  C   UNL     1      -2.634  -0.536  -3.820  1.00  0.00     0.010 A 
ATOM     37  C   UNL     1      -3.500  -1.438  -4.420  1.00  0.00    -0.014 A 
BRANCH  37  38
ATOM     38  C   UNL     1      -3.111  -2.856  -4.444  1.00  0.00     0.031 A 
ATOM     39  C   UNL     1      -2.835  -3.384  -5.809  1.00  0.00     0.074 A 
ATOM     40  C   UNL     1      -2.749  -3.597  -3.371  1.00  0.00     0.049 A 
ATOM     41  N   UNL     1      -3.526  -4.264  -6.451  1.00  0.00    -0.248 NA
ATOM     42  C   UNL     1      -1.750  -2.784  -6.604  1.00  0.00     0.031 C 
ATOM     43  C   UNL     1      -2.673  -3.177  -1.972  1.00  0.00     0.029 A 
ATOM     44  N   UNL     1      -2.249  -4.870  -3.322  1.00  0.00    -0.354 N 
ATOM     45  C   UNL     1      -2.847  -4.500  -7.641  1.00  0.00     0.074 A 
ATOM     46  C   UNL     1      -1.874  -3.441  -7.760  1.00  0.00     0.031 C 
ATOM     47  C   UNL     1      -1.950  -4.078  -1.264  1.00  0.00     0.029 A 
ATOM     48  C   UNL     1      -1.636  -5.205  -2.114  1.00  0.00     0.049 A 
ATOM     49  H   UNL     1      -2.317  -5.497  -4.077  1.00  0.00     0.167 HD
ATOM     50  C   UNL     1      -2.982  -5.678  -8.312  1.00  0.00     0.031 A 
ATOM     51  C   UNL     1      -0.917  -6.322  -1.825  1.00  0.00     0.031 A 
ATOM     52  C   UNL     1      -4.072  -6.463  -7.786  1.00  0.00     0.049 A 
ATOM     53  C   UNL     1      -1.366  -7.365  -2.771  1.00  0.00     0.074 A 
ATOM     54  C   UNL     1      -5.430  -6.269  -7.626  1.00  0.00     0.029 A 
ATOM     55  N   UNL     1      -3.737  -7.505  -6.952  1.00  0.00    -0.354 N 
ATOM     56  N   UNL     1      -2.574  -7.853  -2.768  1.00  0.00    -0.248 NA
ATOM     57  C   UNL     1      -0.617  -7.552  -4.001  1.00  0.00     0.031 C 
ATOM     58  C   UNL     1      -5.740  -6.867  -6.369  1.00  0.00     0.029 A 
ATOM     59  C   UNL     1      -4.576  -7.458  -5.871  1.00  0.00     0.049 A 
ATOM     60  H   UNL     1      -3.023  -8.165  -7.106  1.00  0.00     0.167 HD
ATOM     61  C   UNL     1      -2.899  -7.976  -4.109  1.00  0.00     0.074 A 
ATOM     62  C   UNL     1      -1.621  -7.893  -4.815  1.00  0.00     0.031 C 
ATOM     63  C   UNL     1      -4.192  -7.847  -4.531  1.00  0.00     0.031 A 
BRANCH  50  64
ATOM     64  C   UNL     1      -1.901  -6.310  -9.156  1.00  0.00    -0.014 A 
ATOM     65  C   UNL     1      -2.189  -7.522  -9.820  1.00  0.00     0.010 A 
ATOM     66  C   UNL     1      -0.548  -5.922  -9.097  1.00  0.00     0.010 A 
ATOM     67  C   UNL     1      -1.170  -8.342 -10.318  1.00  0.00     0.020 A 
ATOM     68  C   UNL     1       0.474  -6.710  -9.632  1.00  0.00     0.020 A 
ATOM     69  C   UNL     1       0.159  -7.935 -10.205  1.00  0.00     0.054 A 
BRANCH  69  70
ATOM     70  S   UNL     1       1.474  -9.050 -10.753  1.00  0.00     0.124 S 
ATOM     71  O   UNL     1       1.354 -10.146  -9.797  1.00  0.00    -0.237 OA
ATOM     72  O   UNL     1       1.070  -9.354 -12.123  1.00  0.00    -0.237 OA
ATOM     73  O   UNL     1       2.682  -8.238 -10.631  1.00  0.00    -0.744 OA
ENDBRANCH  69  70
ENDBRANCH  50  64
BRANCH  51  74
ATOM     74  C   UNL     1       0.289  -6.494  -0.970  1.00  0.00    -0.014 A 
ATOM     75  C   UNL     1       0.726  -7.776  -0.576  1.00  0.00     0.010 A 
ATOM     76  C   UNL     1       1.191  -5.423  -0.803  1.00  0.00     0.010 A 
ATOM     77  C   UNL     1       2.035  -7.990  -0.103  1.00  0.00     0.020 A 
ATOM     78  C   UNL     1       2.497  -5.628  -0.329  1.00  0.00     0.020 A 
ATOM     79  C   UNL     1       2.922  -6.916  -0.006  1.00  0.00     0.054 A 
BRANCH  79  80
ATOM     80  S   UNL     1       4.665  -7.228   0.419  1.00  0.00     0.124 S 
ATOM     81  O   UNL     1       4.583  -7.596   1.829  1.00  0.00    -0.237 OA
ATOM     82  O   UNL     1       5.029  -8.307  -0.495  1.00  0.00    -0.237 OA
ATOM     83  O   UNL     1       5.319  -5.948   0.151  1.00  0.00    -0.744 OA
ENDBRANCH  79  80
ENDBRANCH  51  74
BRANCH  63  84
ATOM     84  C   UNL     1      -5.298  -7.886  -3.501  1.00  0.00    -0.014 A 
ATOM     85  C   UNL     1      -5.439  -6.958  -2.450  1.00  0.00     0.010 A 
ATOM     86  C   UNL     1      -6.325  -8.824  -3.704  1.00  0.00     0.010 A 
ATOM     87  C   UNL     1      -6.566  -6.988  -1.612  1.00  0.00     0.020 A 
ATOM     88  C   UNL     1      -7.457  -8.848  -2.888  1.00  0.00     0.020 A 
ATOM     89  C   UNL     1      -7.569  -7.936  -1.839  1.00  0.00     0.054 A 
BRANCH  89  90
ATOM     90  S   UNL     1      -9.048  -7.949  -0.785  1.00  0.00     0.124 S 
ATOM     91  O   UNL     1      -8.519  -8.397   0.500  1.00  0.00    -0.237 OA
ATOM     92  O   UNL     1      -9.495  -6.559  -0.832  1.00  0.00    -0.237 OA
ATOM     93  O   UNL     1      -9.940  -8.899  -1.449  1.00  0.00    -0.744 OA
ENDBRANCH  89  90
ENDBRANCH  63  84
ENDBRANCH  37  38
ENDBRANCH  29  32
ENDBRANCH  27  28
ENDBRANCH  26  27
ENDBRANCH  25  26
ENDBRANCH   1  25
TORSDOF 21
