REMARK SMILES C[C@@H](C(=O)NCCCCNC(=O)c1ccc(-c2c3nc(c(-c4ccc(S(=O)(=O)[O-])cc4)c4ccc([nH]4)c(-c4ccc(S(=O)(=O)[O-])cc4)c4nc(c(-c5ccc(S(=O)(=O)[O-])cc5)c5ccc2[nH]5)C=C4)C=C3)cc1)c1cccn(C(F)F)c1=O
REMARK SMILES IDX 8 1 7 2 6 3 5 4 3 5 4 6 2 8 1 9 73 10 74 11 81 12 75 13
REMARK SMILES IDX 77 14 82 15 76 16 78 17 79 18 80 19 9 20 10 21 11 22 12 24
REMARK SMILES IDX 13 25 14 26 72 27 15 28 71 29 16 30 17 31 18 32 65 33 19 34
REMARK SMILES IDX 70 35 64 36 66 37 20 38 69 39 63 40 62 41 21 43 51 44 32 45
REMARK SMILES IDX 50 46 33 47 36 48 49 49 67 50 34 51 35 52 48 54 68 55 37 56
REMARK SMILES IDX 22 57 23 58 31 59 24 60 30 61 25 62 26 63 27 64 28 65 29 66
REMARK SMILES IDX 52 67 53 68 61 69 54 70 60 71 55 72 56 73 57 74 58 75 59 76
REMARK SMILES IDX 38 77 39 78 47 79 40 80 46 81 41 82 42 83 43 84 44 85 45 86
REMARK H PARENT 5 7 10 23 66 42 36 53
REMARK Flexibility Score: inf
ROOT
ATOM      1  C   UNL     1       5.109  -2.393  -0.543  1.00  0.00     0.023 C 
ENDROOT
BRANCH   1   2
ATOM      2  C   UNL     1       4.321  -1.084  -0.433  1.00  0.00     0.023 C 
BRANCH   2   3
ATOM      3  C   UNL     1       3.501  -0.712  -1.670  1.00  0.00     0.116 C 
BRANCH   3   4
ATOM      4  N   UNL     1       2.495  -1.713  -1.968  1.00  0.00    -0.356 N 
ATOM      5  C   UNL     1       1.140  -1.696  -1.810  1.00  0.00     0.227 C 
ATOM      6  O   UNL     1       0.545  -2.711  -2.179  1.00  0.00    -0.274 OA
ATOM      7  H   UNL     1       2.851  -2.548  -2.348  1.00  0.00     0.163 HD
BRANCH   5   8
ATOM      8  C   UNL     1       0.428  -0.442  -1.250  1.00  0.00     0.111 C 
ATOM      9  C   UNL     1       0.800  -0.163   0.209  1.00  0.00     0.023 C 
BRANCH   8  10
ATOM     10  C   UNL     1      -1.093  -0.468  -1.331  1.00  0.00     0.030 A 
ATOM     11  C   UNL     1      -1.883  -1.549  -1.186  1.00  0.00     0.012 A 
ATOM     12  C   UNL     1      -1.764   0.875  -1.484  1.00  0.00     0.258 A 
ATOM     13  C   UNL     1      -3.319  -1.455  -1.199  1.00  0.00     0.019 A 
ATOM     14  N   UNL     1      -3.148   0.888  -1.422  1.00  0.00    -0.258 N 
ATOM     15  O   UNL     1      -1.087   1.893  -1.617  1.00  0.00    -0.269 OA
ATOM     16  C   UNL     1      -3.905  -0.259  -1.297  1.00  0.00     0.095 A 
BRANCH  14  17
ATOM     17  C   UNL     1      -3.809   2.165  -1.489  1.00  0.00     0.451 C 
ATOM     18  F   UNL     1      -4.663   2.186  -2.548  1.00  0.00    -0.185 F 
ATOM     19  F   UNL     1      -4.582   2.335  -0.381  1.00  0.00    -0.185 F 
ENDBRANCH  14  17
ENDBRANCH   8  10
ENDBRANCH   5   8
ENDBRANCH   3   4
ENDBRANCH   2   3
ENDBRANCH   1   2
BRANCH   1  20
ATOM     20  C   UNL     1       6.070  -2.485  -1.723  1.00  0.00     0.116 C 
BRANCH  20  21
ATOM     21  N   UNL     1       7.070  -1.430  -1.720  1.00  0.00    -0.352 N 
ATOM     22  C   UNL     1       8.429  -1.520  -1.908  1.00  0.00     0.251 C 
ATOM     23  H   UNL     1       6.726  -0.522  -1.559  1.00  0.00     0.163 HD
ATOM     24  O   UNL     1       9.134  -0.530  -1.733  1.00  0.00    -0.269 OA
BRANCH  22  25
ATOM     25  C   UNL     1       9.040  -2.813  -2.287  1.00  0.00     0.039 A 
ATOM     26  C   UNL     1      10.181  -3.241  -1.604  1.00  0.00     0.014 A 
ATOM     27  C   UNL     1       8.487  -3.606  -3.297  1.00  0.00     0.014 A 
ATOM     28  C   UNL     1      10.722  -4.499  -1.881  1.00  0.00     0.010 A 
ATOM     29  C   UNL     1       8.988  -4.886  -3.524  1.00  0.00     0.010 A 
ATOM     30  C   UNL     1      10.104  -5.351  -2.812  1.00  0.00    -0.014 A 
BRANCH  30  31
ATOM     31  C   UNL     1      10.589  -6.739  -3.023  1.00  0.00     0.031 A 
ATOM     32  C   UNL     1      11.142  -7.162  -4.357  1.00  0.00     0.074 A 
ATOM     33  C   UNL     1      10.470  -7.640  -2.026  1.00  0.00     0.049 A 
ATOM     34  N   UNL     1      11.561  -8.343  -4.737  1.00  0.00    -0.248 NA
ATOM     35  C   UNL     1      11.216  -6.133  -5.407  1.00  0.00     0.031 C 
ATOM     36  C   UNL     1       9.910  -7.367  -0.699  1.00  0.00     0.029 A 
ATOM     37  N   UNL     1      10.804  -8.971  -1.974  1.00  0.00    -0.354 N 
ATOM     38  C   UNL     1      11.934  -8.204  -6.069  1.00  0.00     0.074 A 
ATOM     39  C   UNL     1      11.653  -6.835  -6.444  1.00  0.00     0.031 C 
ATOM     40  C   UNL     1       9.961  -8.486   0.041  1.00  0.00     0.029 A 
ATOM     41  C   UNL     1      10.515  -9.567  -0.768  1.00  0.00     0.049 A 
ATOM     42  H   UNL     1      11.212  -9.453  -2.728  1.00  0.00     0.167 HD
ATOM     43  C   UNL     1      12.475  -9.127  -6.898  1.00  0.00     0.031 A 
ATOM     44  C   UNL     1      10.666 -10.842  -0.359  1.00  0.00     0.031 A 
ATOM     45  C   UNL     1      12.764 -10.485  -6.519  1.00  0.00     0.049 A 
ATOM     46  C   UNL     1      11.258 -11.850  -1.307  1.00  0.00     0.074 A 
ATOM     47  C   UNL     1      13.370 -11.477  -7.272  1.00  0.00     0.029 A 
ATOM     48  N   UNL     1      12.465 -11.046  -5.287  1.00  0.00    -0.354 N 
ATOM     49  N   UNL     1      11.674 -11.677  -2.538  1.00  0.00    -0.248 NA
ATOM     50  C   UNL     1      11.411 -13.223  -0.805  1.00  0.00     0.031 C 
ATOM     51  C   UNL     1      13.387 -12.652  -6.515  1.00  0.00     0.029 A 
ATOM     52  C   UNL     1      12.848 -12.377  -5.268  1.00  0.00     0.049 A 
ATOM     53  H   UNL     1      12.044 -10.569  -4.536  1.00  0.00     0.167 HD
ATOM     54  C   UNL     1      12.162 -12.913  -2.949  1.00  0.00     0.074 A 
ATOM     55  C   UNL     1      12.007 -13.818  -1.829  1.00  0.00     0.031 C 
ATOM     56  C   UNL     1      12.689 -13.267  -4.147  1.00  0.00     0.031 A 
BRANCH  43  57
ATOM     57  C   UNL     1      12.794  -8.705  -8.309  1.00  0.00    -0.014 A 
ATOM     58  C   UNL     1      13.862  -7.832  -8.581  1.00  0.00     0.010 A 
ATOM     59  C   UNL     1      12.064  -9.248  -9.382  1.00  0.00     0.010 A 
ATOM     60  C   UNL     1      14.178  -7.489  -9.899  1.00  0.00     0.020 A 
ATOM     61  C   UNL     1      12.393  -8.928 -10.703  1.00  0.00     0.020 A 
ATOM     62  C   UNL     1      13.442  -8.041 -10.951  1.00  0.00     0.054 A 
BRANCH  62  63
ATOM     63  S   UNL     1      13.907  -7.615 -12.652  1.00  0.00     0.124 S 
ATOM     64  O   UNL     1      13.460  -6.228 -12.748  1.00  0.00    -0.237 OA
ATOM     65  O   UNL     1      15.354  -7.809 -12.646  1.00  0.00    -0.237 OA
ATOM     66  O   UNL     1      13.157  -8.568 -13.467  1.00  0.00    -0.744 OA
ENDBRANCH  62  63
ENDBRANCH  43  57
BRANCH  44  67
ATOM     67  C   UNL     1      10.248 -11.243   1.013  1.00  0.00    -0.014 A 
ATOM     68  C   UNL     1      11.206 -11.605   1.977  1.00  0.00     0.010 A 
ATOM     69  C   UNL     1       8.885 -11.278   1.359  1.00  0.00     0.010 A 
ATOM     70  C   UNL     1      10.807 -12.022   3.250  1.00  0.00     0.020 A 
ATOM     71  C   UNL     1       8.484 -11.664   2.640  1.00  0.00     0.020 A 
ATOM     72  C   UNL     1       9.448 -12.050   3.573  1.00  0.00     0.054 A 
BRANCH  72  73
ATOM     73  S   UNL     1       8.953 -12.566   5.241  1.00  0.00     0.124 S 
ATOM     74  O   UNL     1       9.166 -14.009   5.187  1.00  0.00    -0.237 OA
ATOM     75  O   UNL     1       9.879 -11.820   6.090  1.00  0.00    -0.237 OA
ATOM     76  O   UNL     1       7.558 -12.140   5.330  1.00  0.00    -0.744 OA
ENDBRANCH  72  73
ENDBRANCH  44  67
BRANCH  56  77
ATOM     77  C   UNL     1      13.170 -14.686  -4.301  1.00  0.00    -0.014 A 
ATOM     78  C   UNL     1      12.264 -15.758  -4.390  1.00  0.00     0.010 A 
ATOM     79  C   UNL     1      14.549 -14.943  -4.408  1.00  0.00     0.010 A 
ATOM     80  C   UNL     1      12.731 -17.065  -4.550  1.00  0.00     0.020 A 
ATOM     81  C   UNL     1      15.018 -16.245  -4.598  1.00  0.00     0.020 A 
ATOM     82  C   UNL     1      14.105 -17.300  -4.653  1.00  0.00     0.054 A 
BRANCH  82  83
ATOM     83  S   UNL     1      14.684 -19.002  -4.902  1.00  0.00     0.124 S 
ATOM     84  O   UNL     1      14.475 -19.590  -3.582  1.00  0.00    -0.237 OA
ATOM     85  O   UNL     1      13.797 -19.491  -5.955  1.00  0.00    -0.237 OA
ATOM     86  O   UNL     1      16.081 -18.839  -5.297  1.00  0.00    -0.744 OA
ENDBRANCH  82  83
ENDBRANCH  56  77
ENDBRANCH  30  31
ENDBRANCH  22  25
ENDBRANCH  20  21
ENDBRANCH   1  20
TORSDOF 16
