REMARK SMILES CCc1sc(NC(=O)[C@H]2CC(C)=C(C)C[C@H]2C(=O)NCCCCNC(=O)c2ccc(-c3c4nc(c(-c5ccc(S(=O)(=O)[O-])cc5)c5ccc([nH]5)c(-c5ccc(S(=O)(=O)[O-])cc5)c5nc(c(-c6ccc(S(=O)(=O)[O-])cc6)c6ccc3[nH]6)C=C5)C=C4)cc2)nc1-c1ccccc1
REMARK SMILES IDX 21 1 20 2 19 3 17 4 18 5 16 7 9 8 10 9 11 10 15 11 12 12
REMARK SMILES IDX 13 13 14 14 7 15 6 16 8 18 5 19 3 20 4 21 88 22 87 23 2 24
REMARK SMILES IDX 1 25 89 26 90 27 94 28 91 29 93 30 92 31 22 32 23 33 24 34
REMARK SMILES IDX 25 35 26 37 27 38 28 39 86 40 29 41 85 42 30 43 31 44 32 45
REMARK SMILES IDX 79 46 33 47 84 48 78 49 80 50 34 51 83 52 77 53 76 54 35 56
REMARK SMILES IDX 65 57 46 58 64 59 47 60 50 61 63 62 81 63 48 64 49 65 62 67
REMARK SMILES IDX 82 68 51 69 36 70 37 71 45 72 38 73 44 74 39 75 40 76 41 77
REMARK SMILES IDX 42 78 43 79 66 80 67 81 75 82 68 83 74 84 69 85 70 86 71 87
REMARK SMILES IDX 72 88 73 89 52 90 53 91 61 92 54 93 60 94 55 95 56 96 57 97
REMARK SMILES IDX 58 98 59 99
REMARK H PARENT 19 6 6 17 24 36 80 55 50 66
REMARK Flexibility Score: inf
ROOT
ATOM      1  C   UNL     1       0.289   3.641  -1.196  1.00  0.00     0.023 C 
ENDROOT
BRANCH   1   2
ATOM      2  C   UNL     1       0.862   2.585  -2.125  1.00  0.00     0.116 C 
BRANCH   2   3
ATOM      3  N   UNL     1       1.331   3.192  -3.354  1.00  0.00    -0.356 N 
ATOM      4  C   UNL     1       2.574   3.366  -3.870  1.00  0.00     0.224 C 
ATOM      5  O   UNL     1       2.645   3.993  -4.933  1.00  0.00    -0.275 OA
ATOM      6  H   UNL     1       0.610   3.545  -3.924  1.00  0.00     0.163 HD
BRANCH   4   7
ATOM      7  C   UNL     1       3.850   2.800  -3.242  1.00  0.00     0.095 C 
ATOM      8  C   UNL     1       4.577   3.681  -2.198  1.00  0.00     0.095 C 
ATOM      9  C   UNL     1       5.601   2.969  -1.309  1.00  0.00     0.045 C 
ATOM     10  C   UNL     1       5.397   1.487  -1.075  1.00  0.00    -0.074 C 
ATOM     11  C   UNL     1       3.785   1.288  -2.991  1.00  0.00     0.045 C 
ATOM     12  C   UNL     1       6.214   0.935   0.071  1.00  0.00     0.039 C 
ATOM     13  C   UNL     1       4.564   0.738  -1.826  1.00  0.00    -0.074 C 
ATOM     14  C   UNL     1       4.365  -0.742  -1.599  1.00  0.00     0.039 C 
BRANCH   8  15
ATOM     15  C   UNL     1       3.864   4.934  -1.661  1.00  0.00     0.230 C 
ATOM     16  N   UNL     1       3.224   5.153  -0.497  1.00  0.00    -0.302 N 
ATOM     17  H   UNL     1       2.963   6.099  -0.412  1.00  0.00     0.172 HD
ATOM     18  O   UNL     1       3.857   5.928  -2.413  1.00  0.00    -0.274 OA
BRANCH  16  19
ATOM     19  C   UNL     1       2.835   4.441   0.597  1.00  0.00     0.190 A 
ATOM     20  C   UNL     1       2.055   2.684   2.077  1.00  0.00     0.034 A 
ATOM     21  S   UNL     1       3.306   2.868   0.918  1.00  0.00    -0.101 S 
ATOM     22  C   UNL     1       1.469   3.930   2.281  1.00  0.00     0.087 A 
ATOM     23  N   UNL     1       1.960   4.934   1.440  1.00  0.00    -0.220 NA
BRANCH  20  24
ATOM     24  C   UNL     1       1.771   1.317   2.630  1.00  0.00     0.046 C 
ATOM     25  C   UNL     1       1.658   0.236   1.554  1.00  0.00     0.010 C 
ENDBRANCH  20  24
BRANCH  22  26
ATOM     26  C   UNL     1       0.335   4.214   3.160  1.00  0.00     0.001 A 
ATOM     27  C   UNL     1       0.221   3.655   4.439  1.00  0.00     0.010 A 
ATOM     28  C   UNL     1      -0.679   5.078   2.716  1.00  0.00     0.010 A 
ATOM     29  C   UNL     1      -0.895   3.925   5.238  1.00  0.00     0.001 A 
ATOM     30  C   UNL     1      -1.790   5.355   3.517  1.00  0.00     0.001 A 
ATOM     31  C   UNL     1      -1.898   4.777   4.779  1.00  0.00     0.000 A 
ENDBRANCH  22  26
ENDBRANCH  16  19
ENDBRANCH   8  15
ENDBRANCH   4   7
ENDBRANCH   2   3
ENDBRANCH   1   2
BRANCH   1  32
ATOM     32  C   UNL     1      -1.218   3.801  -1.170  1.00  0.00     0.023 C 
BRANCH  32  33
ATOM     33  C   UNL     1      -1.998   2.614  -0.615  1.00  0.00     0.116 C 
BRANCH  33  34
ATOM     34  N   UNL     1      -1.485   2.036   0.625  1.00  0.00    -0.352 N 
ATOM     35  C   UNL     1      -2.148   1.560   1.733  1.00  0.00     0.251 C 
ATOM     36  H   UNL     1      -0.503   1.978   0.676  1.00  0.00     0.163 HD
ATOM     37  O   UNL     1      -1.539   0.976   2.627  1.00  0.00    -0.269 OA
BRANCH  35  38
ATOM     38  C   UNL     1      -3.585   1.832   1.880  1.00  0.00     0.039 A 
ATOM     39  C   UNL     1      -4.030   2.438   3.059  1.00  0.00     0.014 A 
ATOM     40  C   UNL     1      -4.452   1.622   0.813  1.00  0.00     0.014 A 
ATOM     41  C   UNL     1      -5.308   2.985   3.110  1.00  0.00     0.010 A 
ATOM     42  C   UNL     1      -5.685   2.245   0.826  1.00  0.00     0.010 A 
ATOM     43  C   UNL     1      -6.114   2.941   1.968  1.00  0.00    -0.014 A 
BRANCH  43  44
ATOM     44  C   UNL     1      -7.469   3.521   1.936  1.00  0.00     0.031 A 
ATOM     45  C   UNL     1      -8.617   2.571   1.788  1.00  0.00     0.074 A 
ATOM     46  C   UNL     1      -7.638   4.856   1.898  1.00  0.00     0.049 A 
ATOM     47  N   UNL     1      -9.853   2.813   1.453  1.00  0.00    -0.248 NA
ATOM     48  C   UNL     1      -8.306   1.143   1.984  1.00  0.00     0.031 C 
ATOM     49  C   UNL     1      -6.575   5.857   2.021  1.00  0.00     0.029 A 
ATOM     50  N   UNL     1      -8.774   5.599   1.717  1.00  0.00    -0.354 N 
ATOM     51  C   UNL     1     -10.453   1.565   1.345  1.00  0.00     0.074 A 
ATOM     52  C   UNL     1      -9.437   0.571   1.609  1.00  0.00     0.031 C 
ATOM     53  C   UNL     1      -7.114   7.085   1.921  1.00  0.00     0.029 A 
ATOM     54  C   UNL     1      -8.547   6.955   1.681  1.00  0.00     0.049 A 
ATOM     55  H   UNL     1      -9.669   5.200   1.621  1.00  0.00     0.167 HD
ATOM     56  C   UNL     1     -11.743   1.277   1.060  1.00  0.00     0.031 A 
ATOM     57  C   UNL     1      -9.408   7.966   1.460  1.00  0.00     0.031 A 
ATOM     58  C   UNL     1     -12.736   2.286   0.830  1.00  0.00     0.049 A 
ATOM     59  C   UNL     1     -10.850   7.625   1.187  1.00  0.00     0.074 A 
ATOM     60  C   UNL     1     -14.079   2.134   0.549  1.00  0.00     0.029 A 
ATOM     61  N   UNL     1     -12.482   3.651   0.878  1.00  0.00    -0.354 N 
ATOM     62  N   UNL     1     -11.410   6.441   1.087  1.00  0.00    -0.248 NA
ATOM     63  C   UNL     1     -11.776   8.749   1.000  1.00  0.00     0.031 C 
ATOM     64  C   UNL     1     -14.637   3.411   0.416  1.00  0.00     0.029 A 
ATOM     65  C   UNL     1     -13.647   4.356   0.646  1.00  0.00     0.049 A 
ATOM     66  H   UNL     1     -11.602   4.056   1.052  1.00  0.00     0.167 HD
ATOM     67  C   UNL     1     -12.758   6.678   0.849  1.00  0.00     0.074 A 
ATOM     68  C   UNL     1     -12.930   8.118   0.832  1.00  0.00     0.031 C 
ATOM     69  C   UNL     1     -13.767   5.792   0.658  1.00  0.00     0.031 A 
BRANCH  56  70
ATOM     70  C   UNL     1     -12.108  -0.178   0.978  1.00  0.00    -0.014 A 
ATOM     71  C   UNL     1     -12.123  -0.985   2.132  1.00  0.00     0.010 A 
ATOM     72  C   UNL     1     -12.369  -0.766  -0.272  1.00  0.00     0.010 A 
ATOM     73  C   UNL     1     -12.321  -2.363   2.030  1.00  0.00     0.020 A 
ATOM     74  C   UNL     1     -12.598  -2.142  -0.374  1.00  0.00     0.020 A 
ATOM     75  C   UNL     1     -12.542  -2.935   0.774  1.00  0.00     0.054 A 
BRANCH  75  76
ATOM     76  S   UNL     1     -12.761  -4.732   0.661  1.00  0.00     0.124 S 
ATOM     77  O   UNL     1     -11.385  -5.209   0.771  1.00  0.00    -0.237 OA
ATOM     78  O   UNL     1     -13.620  -5.027   1.806  1.00  0.00    -0.237 OA
ATOM     79  O   UNL     1     -13.385  -4.921  -0.646  1.00  0.00    -0.744 OA
ENDBRANCH  75  76
ENDBRANCH  56  70
BRANCH  57  80
ATOM     80  C   UNL     1      -8.945   9.380   1.509  1.00  0.00    -0.014 A 
ATOM     81  C   UNL     1      -9.299  10.200   2.595  1.00  0.00     0.010 A 
ATOM     82  C   UNL     1      -8.142   9.916   0.486  1.00  0.00     0.010 A 
ATOM     83  C   UNL     1      -8.878  11.533   2.650  1.00  0.00     0.020 A 
ATOM     84  C   UNL     1      -7.700  11.243   0.547  1.00  0.00     0.020 A 
ATOM     85  C   UNL     1      -8.081  12.047   1.624  1.00  0.00     0.054 A 
BRANCH  85  86
ATOM     86  S   UNL     1      -7.506  13.765   1.739  1.00  0.00     0.124 S 
ATOM     87  O   UNL     1      -8.708  14.512   1.383  1.00  0.00    -0.237 OA
ATOM     88  O   UNL     1      -7.088  13.867   3.135  1.00  0.00    -0.237 OA
ATOM     89  O   UNL     1      -6.418  13.826   0.766  1.00  0.00    -0.744 OA
ENDBRANCH  85  86
ENDBRANCH  57  80
BRANCH  69  90
ATOM     90  C   UNL     1     -15.143   6.356   0.461  1.00  0.00    -0.014 A 
ATOM     91  C   UNL     1     -15.530   6.897  -0.777  1.00  0.00     0.010 A 
ATOM     92  C   UNL     1     -16.081   6.263   1.504  1.00  0.00     0.010 A 
ATOM     93  C   UNL     1     -16.837   7.351  -0.964  1.00  0.00     0.020 A 
ATOM     94  C   UNL     1     -17.393   6.698   1.313  1.00  0.00     0.020 A 
ATOM     95  C   UNL     1     -17.760   7.247   0.082  1.00  0.00     0.054 A 
BRANCH  95  96
ATOM     96  S   UNL     1     -19.471   7.776  -0.204  1.00  0.00     0.124 S 
ATOM     97  O   UNL     1     -19.361   9.227  -0.092  1.00  0.00    -0.237 OA
ATOM     98  O   UNL     1     -19.746   7.267  -1.546  1.00  0.00    -0.237 OA
ATOM     99  O   UNL     1     -20.217   7.120   0.867  1.00  0.00    -0.744 OA
ENDBRANCH  95  96
ENDBRANCH  69  90
ENDBRANCH  43  44
ENDBRANCH  35  38
ENDBRANCH  33  34
ENDBRANCH  32  33
ENDBRANCH   1  32
TORSDOF 18
