REMARK SMILES Cc1cnn(C2(C(=O)NCCCCNC(=O)c3ccc(-c4c5nc(c(-c6ccc(S(=O)(=O)[O-])cc6)c6ccc([nH]6)c(-c6ccc(S(=O)(=O)[O-])cc6)c6nc(c(-c7ccc(S(=O)(=O)[O-])cc7)c7ccc4[nH]7)C=C6)C=C5)cc3)CCN(C(=O)c3cc4ccccc4[nH]3)CC2)c1
REMARK SMILES IDX 12 1 11 2 10 3 9 4 7 5 8 6 6 8 77 9 92 10 78 11 91 12 79 13
REMARK SMILES IDX 80 14 81 15 5 16 1 17 2 18 3 19 93 20 4 21 82 22 83 23 90 24
REMARK SMILES IDX 84 25 89 26 85 28 88 29 86 30 87 31 13 32 14 33 15 34 16 36
REMARK SMILES IDX 17 37 18 38 76 39 19 40 75 41 20 42 21 43 22 44 69 45 23 46
REMARK SMILES IDX 74 47 68 48 70 49 24 50 73 51 67 52 66 53 25 55 55 56 36 57
REMARK SMILES IDX 54 58 37 59 40 60 53 61 71 62 38 63 39 64 52 66 72 67 41 68
REMARK SMILES IDX 26 69 27 70 35 71 28 72 34 73 29 74 30 75 31 76 32 77 33 78
REMARK SMILES IDX 56 79 57 80 65 81 58 82 64 83 59 84 60 85 61 86 62 87 63 88
REMARK SMILES IDX 42 89 43 90 51 91 44 92 50 93 45 94 46 95 47 96 48 97 49 98
REMARK H PARENT 9 7 90 27 14 35 70 54 40 65
REMARK Flexibility Score: inf
ROOT
ATOM      1  C   UNL     1      -0.455  10.124   1.382  1.00  0.00     0.023 C 
ENDROOT
BRANCH   1   2
ATOM      2  C   UNL     1      -0.242   9.140   0.218  1.00  0.00     0.023 C 
BRANCH   2   3
ATOM      3  C   UNL     1       0.766   8.014   0.473  1.00  0.00     0.116 C 
BRANCH   3   4
ATOM      4  N   UNL     1       0.256   7.048   1.434  1.00  0.00    -0.354 N 
ATOM      5  C   UNL     1       0.360   5.685   1.544  1.00  0.00     0.248 C 
ATOM      6  O   UNL     1      -0.002   5.259   2.645  1.00  0.00    -0.272 OA
ATOM      7  H   UNL     1      -0.274   7.459   2.156  1.00  0.00     0.163 HD
BRANCH   5   8
ATOM      8  C   UNL     1       1.003   4.792   0.432  1.00  0.00     0.144 C 
ATOM      9  C   UNL     1       0.286   4.975  -0.933  1.00  0.00     0.062 C 
ATOM     10  C   UNL     1       2.511   5.187   0.444  1.00  0.00     0.062 C 
ATOM     11  C   UNL     1       1.209   4.661  -2.100  1.00  0.00     0.123 C 
ATOM     12  C   UNL     1       3.239   5.269  -0.898  1.00  0.00     0.123 C 
ATOM     13  N   UNL     1       2.366   5.537  -2.033  1.00  0.00    -0.337 N 
ATOM     14  C   UNL     1       2.481   6.547  -2.996  1.00  0.00     0.270 C 
ATOM     15  O   UNL     1       1.595   6.704  -3.839  1.00  0.00    -0.267 OA
BRANCH   8  16
ATOM     16  N   UNL     1       0.825   3.341   0.755  1.00  0.00    -0.257 N 
ATOM     17  C   UNL     1       1.233  -0.249   0.123  1.00  0.00     0.048 C 
ATOM     18  C   UNL     1       0.884   1.136   0.507  1.00  0.00    -0.013 A 
ATOM     19  C   UNL     1      -0.307   1.575   1.112  1.00  0.00     0.138 A 
ATOM     20  C   UNL     1       1.611   2.294   0.321  1.00  0.00     0.113 A 
ATOM     21  N   UNL     1      -0.389   2.901   1.168  1.00  0.00    -0.180 NA
ENDBRANCH   8  16
BRANCH  14  22
ATOM     22  C   UNL     1       3.576   7.495  -2.956  1.00  0.00     0.105 A 
ATOM     23  C   UNL     1       4.891   7.447  -2.527  1.00  0.00     0.042 A 
ATOM     24  N   UNL     1       3.410   8.761  -3.488  1.00  0.00    -0.351 N 
ATOM     25  C   UNL     1       5.412   8.770  -2.538  1.00  0.00     0.000 A 
ATOM     26  C   UNL     1       4.471   9.573  -3.175  1.00  0.00     0.046 A 
ATOM     27  H   UNL     1       2.632   9.043  -4.021  1.00  0.00     0.167 HD
ATOM     28  C   UNL     1       6.595   9.358  -2.056  1.00  0.00     0.010 A 
ATOM     29  C   UNL     1       4.669  10.939  -3.399  1.00  0.00     0.026 A 
ATOM     30  C   UNL     1       6.789  10.733  -2.227  1.00  0.00     0.001 A 
ATOM     31  C   UNL     1       5.846  11.507  -2.901  1.00  0.00     0.002 A 
ENDBRANCH  14  22
ENDBRANCH   5   8
ENDBRANCH   3   4
ENDBRANCH   2   3
ENDBRANCH   1   2
BRANCH   1  32
ATOM     32  C   UNL     1       0.774  10.950   1.734  1.00  0.00     0.116 C 
BRANCH  32  33
ATOM     33  N   UNL     1       1.217  11.818   0.637  1.00  0.00    -0.352 N 
ATOM     34  C   UNL     1       2.256  12.740   0.633  1.00  0.00     0.251 C 
ATOM     35  H   UNL     1       0.713  11.736  -0.205  1.00  0.00     0.163 HD
ATOM     36  O   UNL     1       2.292  13.642  -0.188  1.00  0.00    -0.269 OA
BRANCH  34  37
ATOM     37  C   UNL     1       3.329  12.580   1.632  1.00  0.00     0.039 A 
ATOM     38  C   UNL     1       3.961  13.657   2.267  1.00  0.00     0.014 A 
ATOM     39  C   UNL     1       3.680  11.272   1.940  1.00  0.00     0.014 A 
ATOM     40  C   UNL     1       4.920  13.386   3.245  1.00  0.00     0.010 A 
ATOM     41  C   UNL     1       4.414  11.017   3.057  1.00  0.00     0.010 A 
ATOM     42  C   UNL     1       5.136  12.056   3.624  1.00  0.00    -0.014 A 
BRANCH  42  43
ATOM     43  C   UNL     1       6.061  11.646   4.668  1.00  0.00     0.031 A 
ATOM     44  C   UNL     1       5.609  12.010   6.035  1.00  0.00     0.074 A 
ATOM     45  C   UNL     1       7.005  10.709   4.414  1.00  0.00     0.049 A 
ATOM     46  N   UNL     1       6.106  12.906   6.821  1.00  0.00    -0.248 NA
ATOM     47  C   UNL     1       4.327  11.452   6.511  1.00  0.00     0.031 C 
ATOM     48  C   UNL     1       7.258   9.995   3.151  1.00  0.00     0.029 A 
ATOM     49  N   UNL     1       7.842  10.071   5.271  1.00  0.00    -0.354 N 
ATOM     50  C   UNL     1       5.357  12.825   7.991  1.00  0.00     0.074 A 
ATOM     51  C   UNL     1       4.140  12.145   7.635  1.00  0.00     0.031 C 
ATOM     52  C   UNL     1       7.982   8.879   3.395  1.00  0.00     0.029 A 
ATOM     53  C   UNL     1       8.374   8.874   4.793  1.00  0.00     0.049 A 
ATOM     54  H   UNL     1       8.057  10.427   6.163  1.00  0.00     0.167 HD
ATOM     55  C   UNL     1       5.926  13.012   9.216  1.00  0.00     0.031 A 
ATOM     56  C   UNL     1       9.039   7.930   5.515  1.00  0.00     0.031 A 
ATOM     57  C   UNL     1       7.266  13.534   9.091  1.00  0.00     0.049 A 
ATOM     58  C   UNL     1       9.465   8.586   6.779  1.00  0.00     0.074 A 
ATOM     59  C   UNL     1       7.824  14.657   8.515  1.00  0.00     0.029 A 
ATOM     60  N   UNL     1       8.290  12.624   9.232  1.00  0.00    -0.354 N 
ATOM     61  N   UNL     1      10.320   9.572   6.819  1.00  0.00    -0.248 NA
ATOM     62  C   UNL     1       8.568   8.495   7.921  1.00  0.00     0.031 C 
ATOM     63  C   UNL     1       9.025  14.193   7.904  1.00  0.00     0.029 A 
ATOM     64  C   UNL     1       9.189  12.842   8.221  1.00  0.00     0.049 A 
ATOM     65  H   UNL     1       8.364  11.938   9.934  1.00  0.00     0.167 HD
ATOM     66  C   UNL     1       9.787  10.466   7.738  1.00  0.00     0.074 A 
ATOM     67  C   UNL     1       8.754   9.710   8.447  1.00  0.00     0.031 C 
ATOM     68  C   UNL     1      10.017  11.809   7.631  1.00  0.00     0.031 A 
BRANCH  55  69
ATOM     69  C   UNL     1       5.473  12.317  10.480  1.00  0.00    -0.014 A 
ATOM     70  C   UNL     1       6.136  12.625  11.686  1.00  0.00     0.010 A 
ATOM     71  C   UNL     1       4.621  11.193  10.494  1.00  0.00     0.010 A 
ATOM     72  C   UNL     1       6.017  11.804  12.814  1.00  0.00     0.020 A 
ATOM     73  C   UNL     1       4.458  10.394  11.627  1.00  0.00     0.020 A 
ATOM     74  C   UNL     1       5.187  10.685  12.770  1.00  0.00     0.054 A 
BRANCH  74  75
ATOM     75  S   UNL     1       5.116   9.577  14.197  1.00  0.00     0.124 S 
ATOM     76  O   UNL     1       6.471   9.036  14.223  1.00  0.00    -0.237 OA
ATOM     77  O   UNL     1       4.776  10.494  15.281  1.00  0.00    -0.237 OA
ATOM     78  O   UNL     1       4.066   8.626  13.839  1.00  0.00    -0.744 OA
ENDBRANCH  74  75
ENDBRANCH  55  69
BRANCH  56  79
ATOM     79  C   UNL     1       9.030   6.449   5.346  1.00  0.00    -0.014 A 
ATOM     80  C   UNL     1       9.958   5.623   6.013  1.00  0.00     0.010 A 
ATOM     81  C   UNL     1       7.921   5.817   4.746  1.00  0.00     0.010 A 
ATOM     82  C   UNL     1       9.754   4.232   6.124  1.00  0.00     0.020 A 
ATOM     83  C   UNL     1       7.712   4.434   4.849  1.00  0.00     0.020 A 
ATOM     84  C   UNL     1       8.618   3.648   5.557  1.00  0.00     0.054 A 
BRANCH  84  85
ATOM     85  S   UNL     1       8.263   1.886   5.847  1.00  0.00     0.124 S 
ATOM     86  O   UNL     1       9.306   1.225   5.069  1.00  0.00    -0.237 OA
ATOM     87  O   UNL     1       8.385   1.770   7.297  1.00  0.00    -0.237 OA
ATOM     88  O   UNL     1       6.906   1.720   5.327  1.00  0.00    -0.744 OA
ENDBRANCH  84  85
ENDBRANCH  56  79
BRANCH  68  89
ATOM     89  C   UNL     1      11.081  12.290   6.670  1.00  0.00    -0.014 A 
ATOM     90  C   UNL     1      11.020  12.129   5.271  1.00  0.00     0.010 A 
ATOM     91  C   UNL     1      12.095  13.100   7.206  1.00  0.00     0.010 A 
ATOM     92  C   UNL     1      11.964  12.751   4.437  1.00  0.00     0.020 A 
ATOM     93  C   UNL     1      13.025  13.736   6.383  1.00  0.00     0.020 A 
ATOM     94  C   UNL     1      12.962  13.553   5.002  1.00  0.00     0.054 A 
BRANCH  94  95
ATOM     95  S   UNL     1      14.157  14.395   3.926  1.00  0.00     0.124 S 
ATOM     96  O   UNL     1      14.943  13.284   3.395  1.00  0.00    -0.237 OA
ATOM     97  O   UNL     1      13.301  15.079   2.960  1.00  0.00    -0.237 OA
ATOM     98  O   UNL     1      14.880  15.282   4.837  1.00  0.00    -0.744 OA
ENDBRANCH  94  95
ENDBRANCH  68  89
ENDBRANCH  42  43
ENDBRANCH  34  37
ENDBRANCH  32  33
ENDBRANCH   1  32
TORSDOF 16
