REMARK SMILES O=C(NCCCCNC(=O)[C@@H]1C[N@@H+](CCOc2ccc(F)cc2)C[C@H]1C1CC1)c1ccc(-c2c3nc(c(-c4ccc(S(=O)(=O)[O-])cc4)c4ccc([nH]4)c(-c4ccc(S(=O)(=O)[O-])cc4)c4nc(c(-c5ccc(S(=O)(=O)[O-])cc5)c5ccc2[nH]5)C=C4)C=C3)cc1
REMARK SMILES IDX 6 1 5 2 4 3 3 4 1 5 2 6 29 8 30 9 88 10 31 11 87 12 32 13
REMARK SMILES IDX 33 14 34 15 81 16 35 17 86 18 80 19 82 20 36 21 85 22 79 23
REMARK SMILES IDX 78 24 37 26 67 27 48 28 66 29 49 30 52 31 65 32 83 33 50 34
REMARK SMILES IDX 51 35 64 37 84 38 53 39 38 40 39 41 47 42 40 43 46 44 41 45
REMARK SMILES IDX 42 46 43 47 44 48 45 49 68 50 69 51 77 52 70 53 76 54 71 55
REMARK SMILES IDX 72 56 73 57 74 58 75 59 54 60 55 61 63 62 56 63 62 64 57 65
REMARK SMILES IDX 58 66 59 67 60 68 61 69 7 70 8 71 9 72 10 74 11 75 12 76
REMARK SMILES IDX 25 77 13 78 24 79 26 81 27 82 28 83 14 84 15 85 16 86 17 87
REMARK SMILES IDX 18 88 23 89 19 90 22 91 20 92 21 93
REMARK H PARENT 3 7 82 25 52 36 8 73 13 80
REMARK Flexibility Score: inf
ROOT
ATOM      1  C   UNL     1       4.193  -2.529  -2.647  1.00  0.00     0.023 C 
ENDROOT
BRANCH   1   2
ATOM      2  C   UNL     1       4.664  -2.265  -1.224  1.00  0.00     0.023 C 
BRANCH   2   3
ATOM      3  C   UNL     1       4.498  -0.817  -0.793  1.00  0.00     0.116 C 
BRANCH   3   4
ATOM      4  N   UNL     1       3.114  -0.368  -0.907  1.00  0.00    -0.352 N 
ATOM      5  O   UNL     1       1.100   0.254  -0.074  1.00  0.00    -0.269 OA
ATOM      6  C   UNL     1       2.303   0.101   0.097  1.00  0.00     0.251 C 
ATOM      7  H   UNL     1       2.717  -0.406  -1.807  1.00  0.00     0.163 HD
BRANCH   6   8
ATOM      8  C   UNL     1       2.941   0.392   1.389  1.00  0.00     0.039 A 
ATOM      9  C   UNL     1       4.082   1.198   1.399  1.00  0.00     0.014 A 
ATOM     10  C   UNL     1       2.497  -0.253   2.543  1.00  0.00     0.014 A 
ATOM     11  C   UNL     1       4.874   1.229   2.534  1.00  0.00     0.010 A 
ATOM     12  C   UNL     1       3.239  -0.123   3.717  1.00  0.00     0.010 A 
ATOM     13  C   UNL     1       4.447   0.593   3.712  1.00  0.00    -0.014 A 
BRANCH  13  14
ATOM     14  C   UNL     1       5.247   0.776   4.946  1.00  0.00     0.031 A 
ATOM     15  C   UNL     1       5.896  -0.384   5.646  1.00  0.00     0.074 A 
ATOM     16  C   UNL     1       5.398   2.032   5.411  1.00  0.00     0.049 A 
ATOM     17  N   UNL     1       6.627  -0.376   6.732  1.00  0.00    -0.248 NA
ATOM     18  C   UNL     1       5.699  -1.722   5.066  1.00  0.00     0.031 C 
ATOM     19  C   UNL     1       4.806   3.231   4.805  1.00  0.00     0.029 A 
ATOM     20  N   UNL     1       6.109   2.517   6.475  1.00  0.00    -0.354 N 
ATOM     21  C   UNL     1       6.955  -1.703   6.983  1.00  0.00     0.074 A 
ATOM     22  C   UNL     1       6.328  -2.493   5.944  1.00  0.00     0.031 C 
ATOM     23  C   UNL     1       5.227   4.314   5.469  1.00  0.00     0.029 A 
ATOM     24  C   UNL     1       6.043   3.885   6.596  1.00  0.00     0.049 A 
ATOM     25  H   UNL     1       6.617   1.944   7.093  1.00  0.00     0.167 HD
ATOM     26  C   UNL     1       7.707  -2.210   7.990  1.00  0.00     0.031 A 
ATOM     27  C   UNL     1       6.558   4.707   7.526  1.00  0.00     0.031 A 
ATOM     28  C   UNL     1       8.323  -1.407   9.017  1.00  0.00     0.049 A 
ATOM     29  C   UNL     1       7.362   4.115   8.643  1.00  0.00     0.074 A 
ATOM     30  C   UNL     1       9.127  -1.821  10.066  1.00  0.00     0.029 A 
ATOM     31  N   UNL     1       8.203  -0.029   9.127  1.00  0.00    -0.354 N 
ATOM     32  N   UNL     1       7.675   2.858   8.851  1.00  0.00    -0.248 NA
ATOM     33  C   UNL     1       7.880   5.048   9.649  1.00  0.00     0.031 C 
ATOM     34  C   UNL     1       9.445  -0.701  10.841  1.00  0.00     0.029 A 
ATOM     35  C   UNL     1       8.895   0.420  10.240  1.00  0.00     0.049 A 
ATOM     36  H   UNL     1       7.699   0.545   8.506  1.00  0.00     0.167 HD
ATOM     37  C   UNL     1       8.443   2.851  10.008  1.00  0.00     0.074 A 
ATOM     38  C   UNL     1       8.563   4.231  10.437  1.00  0.00     0.031 C 
ATOM     39  C   UNL     1       8.995   1.797  10.657  1.00  0.00     0.031 A 
BRANCH  26  40
ATOM     40  C   UNL     1       7.881  -3.706   8.056  1.00  0.00    -0.014 A 
ATOM     41  C   UNL     1       8.682  -4.393   7.126  1.00  0.00     0.010 A 
ATOM     42  C   UNL     1       7.279  -4.430   9.102  1.00  0.00     0.010 A 
ATOM     43  C   UNL     1       8.848  -5.779   7.221  1.00  0.00     0.020 A 
ATOM     44  C   UNL     1       7.463  -5.811   9.216  1.00  0.00     0.020 A 
ATOM     45  C   UNL     1       8.235  -6.480   8.264  1.00  0.00     0.054 A 
BRANCH  45  46
ATOM     46  S   UNL     1       8.486  -8.273   8.375  1.00  0.00     0.124 S 
ATOM     47  O   UNL     1       7.676  -8.759   7.260  1.00  0.00    -0.237 OA
ATOM     48  O   UNL     1       9.931  -8.406   8.206  1.00  0.00    -0.237 OA
ATOM     49  O   UNL     1       7.983  -8.614   9.703  1.00  0.00    -0.744 OA
ENDBRANCH  45  46
ENDBRANCH  26  40
BRANCH  27  50
ATOM     50  C   UNL     1       6.297   6.168   7.438  1.00  0.00    -0.014 A 
ATOM     51  C   UNL     1       7.332   7.064   7.125  1.00  0.00     0.010 A 
ATOM     52  C   UNL     1       4.992   6.663   7.623  1.00  0.00     0.010 A 
ATOM     53  C   UNL     1       7.069   8.432   7.013  1.00  0.00     0.020 A 
ATOM     54  C   UNL     1       4.719   8.024   7.479  1.00  0.00     0.020 A 
ATOM     55  C   UNL     1       5.764   8.902   7.188  1.00  0.00     0.054 A 
BRANCH  55  56
ATOM     56  S   UNL     1       5.436  10.674   6.983  1.00  0.00     0.124 S 
ATOM     57  O   UNL     1       6.002  11.229   8.208  1.00  0.00    -0.237 OA
ATOM     58  O   UNL     1       6.158  10.988   5.752  1.00  0.00    -0.237 OA
ATOM     59  O   UNL     1       3.981  10.742   6.876  1.00  0.00    -0.744 OA
ENDBRANCH  55  56
ENDBRANCH  27  50
BRANCH  39  60
ATOM     60  C   UNL     1       9.805   2.105  11.887  1.00  0.00    -0.014 A 
ATOM     61  C   UNL     1       9.189   2.520  13.080  1.00  0.00     0.010 A 
ATOM     62  C   UNL     1      11.202   1.947  11.852  1.00  0.00     0.010 A 
ATOM     63  C   UNL     1       9.961   2.810  14.208  1.00  0.00     0.020 A 
ATOM     64  C   UNL     1      11.975   2.207  12.986  1.00  0.00     0.020 A 
ATOM     65  C   UNL     1      11.350   2.653  14.152  1.00  0.00     0.054 A 
BRANCH  65  66
ATOM     66  S   UNL     1      12.328   3.003  15.638  1.00  0.00     0.124 S 
ATOM     67  O   UNL     1      12.298   4.462  15.684  1.00  0.00    -0.237 OA
ATOM     68  O   UNL     1      11.570   2.326  16.688  1.00  0.00    -0.237 OA
ATOM     69  O   UNL     1      13.632   2.415  15.342  1.00  0.00    -0.744 OA
ENDBRANCH  65  66
ENDBRANCH  39  60
ENDBRANCH  13  14
ENDBRANCH   6   8
ENDBRANCH   3   4
ENDBRANCH   2   3
ENDBRANCH   1   2
BRANCH   1  70
ATOM     70  C   UNL     1       4.834  -1.595  -3.659  1.00  0.00     0.116 C 
BRANCH  70  71
ATOM     71  N   UNL     1       6.250  -1.879  -3.755  1.00  0.00    -0.356 N 
ATOM     72  C   UNL     1       6.937  -2.331  -4.837  1.00  0.00     0.229 C 
ATOM     73  H   UNL     1       6.779  -1.725  -2.938  1.00  0.00     0.163 HD
ATOM     74  O   UNL     1       8.051  -2.825  -4.673  1.00  0.00    -0.275 OA
BRANCH  72  75
ATOM     75  C   UNL     1       6.350  -2.072  -6.199  1.00  0.00     0.142 C 
ATOM     76  C   UNL     1       6.438  -3.279  -7.119  1.00  0.00     0.276 C 
ATOM     77  C   UNL     1       7.192  -0.998  -6.882  1.00  0.00     0.065 C 
ATOM     78  N   UNL     1       6.406  -2.682  -8.468  1.00  0.00    -0.331 N 
ATOM     79  C   UNL     1       7.315  -1.542  -8.315  1.00  0.00     0.267 C 
ATOM     80  H   UNL     1       6.715  -3.300  -9.219  1.00  0.00     0.348 HD
BRANCH  77  81
ATOM     81  C   UNL     1       6.689   0.428  -6.806  1.00  0.00    -0.001 C 
ATOM     82  C   UNL     1       5.353   0.890  -6.253  1.00  0.00     0.004 C 
ATOM     83  C   UNL     1       6.608   1.162  -5.486  1.00  0.00     0.004 C 
ENDBRANCH  77  81
BRANCH  78  84
ATOM     84  C   UNL     1       5.035  -2.399  -8.966  1.00  0.00     0.304 C 
BRANCH  84  85
ATOM     85  C   UNL     1       4.478  -0.968  -9.210  1.00  0.00     0.290 C 
BRANCH  85  86
ATOM     86  O   UNL     1       4.887  -0.400 -10.468  1.00  0.00    -0.488 OA
BRANCH  86  87
ATOM     87  C   UNL     1       5.663   0.723 -10.349  1.00  0.00     0.119 A 
ATOM     88  C   UNL     1       6.934   0.657 -10.927  1.00  0.00     0.049 A 
ATOM     89  C   UNL     1       5.277   1.858  -9.634  1.00  0.00     0.049 A 
ATOM     90  C   UNL     1       7.884   1.634 -10.631  1.00  0.00     0.043 A 
ATOM     91  C   UNL     1       6.218   2.860  -9.373  1.00  0.00     0.043 A 
ATOM     92  C   UNL     1       7.523   2.717  -9.839  1.00  0.00     0.123 A 
ATOM     93  F   UNL     1       8.455   3.611  -9.482  1.00  0.00    -0.207 F 
ENDBRANCH  86  87
ENDBRANCH  85  86
ENDBRANCH  84  85
ENDBRANCH  78  84
ENDBRANCH  72  75
ENDBRANCH  70  71
ENDBRANCH   1  70
TORSDOF 19
