REMARK SMILES COc1ccc(OC)c(NC(=O)[C@@H]2[C@@H](C(=O)NCCCCNC(=O)c3ccc(-c4c5nc(c(-c6ccc(S(=O)(=O)[O-])cc6)c6ccc([nH]6)c(-c6ccc(S(=O)(=O)[O-])cc6)c6nc(c(-c7ccc(S(=O)(=O)[O-])cc7)c7ccc4[nH]7)C=C6)C=C5)cc3)[C@H]3C=C[C@@H]2C3)c1
REMARK SMILES IDX 19 1 18 2 17 3 15 4 16 5 14 7 13 8 88 9 85 10 87 11 89 12
REMARK SMILES IDX 86 13 11 14 10 15 12 17 9 18 3 19 4 20 90 21 5 22 6 23 2 24
REMARK SMILES IDX 1 25 7 26 8 27 20 28 21 29 22 30 23 31 24 33 25 34 26 35
REMARK SMILES IDX 84 36 27 37 83 38 28 39 29 40 30 41 77 42 31 43 82 44 76 45
REMARK SMILES IDX 78 46 32 47 81 48 75 49 74 50 33 52 63 53 44 54 62 55 45 56
REMARK SMILES IDX 48 57 61 58 79 59 46 60 47 61 60 63 80 64 49 65 34 66 35 67
REMARK SMILES IDX 43 68 36 69 42 70 37 71 38 72 39 73 40 74 41 75 64 76 65 77
REMARK SMILES IDX 73 78 66 79 72 80 67 81 68 82 69 83 70 84 71 85 50 86 51 87
REMARK SMILES IDX 59 88 52 89 58 90 53 91 54 92 55 93 56 94 57 95
REMARK H PARENT 17 6 10 16 22 32 78 51 48 62
REMARK Flexibility Score: inf
ROOT
ATOM      1  C   UNL     1       1.662  10.267   3.910  1.00  0.00     0.023 C 
ENDROOT
BRANCH   1   2
ATOM      2  C   UNL     1       1.433   8.829   3.438  1.00  0.00     0.116 C 
BRANCH   2   3
ATOM      3  N   UNL     1       2.154   8.570   2.212  1.00  0.00    -0.356 N 
ATOM      4  C   UNL     1       3.382   8.072   1.954  1.00  0.00     0.224 C 
ATOM      5  O   UNL     1       3.695   8.039   0.755  1.00  0.00    -0.275 OA
ATOM      6  H   UNL     1       1.648   8.805   1.401  1.00  0.00     0.163 HD
BRANCH   4   7
ATOM      7  C   UNL     1       4.358   7.483   2.967  1.00  0.00     0.098 C 
ATOM      8  C   UNL     1       3.909   6.126   3.574  1.00  0.00     0.099 C 
ATOM      9  C   UNL     1       4.512   6.208   5.008  1.00  0.00     0.025 C 
ATOM     10  C   UNL     1       4.884   8.271   4.199  1.00  0.00     0.025 C 
ATOM     11  C   UNL     1       3.666   7.150   5.820  1.00  0.00    -0.027 C 
ATOM     12  C   UNL     1       5.726   7.147   4.828  1.00  0.00     0.017 C 
ATOM     13  C   UNL     1       3.913   8.383   5.353  1.00  0.00    -0.027 C 
BRANCH   8  14
ATOM     14  C   UNL     1       4.519   4.926   2.879  1.00  0.00     0.229 C 
ATOM     15  N   UNL     1       3.817   3.943   2.261  1.00  0.00    -0.323 N 
ATOM     16  H   UNL     1       4.416   3.280   1.848  1.00  0.00     0.170 HD
ATOM     17  O   UNL     1       5.751   4.799   2.827  1.00  0.00    -0.274 OA
BRANCH  15  18
ATOM     18  C   UNL     1       2.463   3.615   2.050  1.00  0.00     0.087 A 
ATOM     19  C   UNL     1       0.954   2.396   0.566  1.00  0.00     0.121 A 
ATOM     20  C   UNL     1      -0.147   2.988   1.167  1.00  0.00     0.050 A 
ATOM     21  C   UNL     1       2.245   2.730   0.977  1.00  0.00     0.076 A 
ATOM     22  C   UNL     1       0.047   3.797   2.282  1.00  0.00     0.052 A 
ATOM     23  C   UNL     1       1.340   4.043   2.768  1.00  0.00     0.142 A 
BRANCH  19  24
ATOM     24  O   UNL     1       0.735   1.535  -0.474  1.00  0.00    -0.497 OA
ATOM     25  C   UNL     1       1.126   0.206  -0.123  1.00  0.00     0.278 C 
ENDBRANCH  19  24
BRANCH  23  26
ATOM     26  O   UNL     1       1.375   4.654   3.992  1.00  0.00    -0.495 OA
ATOM     27  C   UNL     1       1.809   3.747   5.005  1.00  0.00     0.278 C 
ENDBRANCH  23  26
ENDBRANCH  15  18
ENDBRANCH   8  14
ENDBRANCH   4   7
ENDBRANCH   2   3
ENDBRANCH   1   2
BRANCH   1  28
ATOM     28  C   UNL     1       0.568  11.246   3.484  1.00  0.00     0.023 C 
BRANCH  28  29
ATOM     29  C   UNL     1      -0.780  11.010   4.159  1.00  0.00     0.116 C 
BRANCH  29  30
ATOM     30  N   UNL     1      -0.741  11.145   5.610  1.00  0.00    -0.352 N 
ATOM     31  C   UNL     1      -1.716  11.644   6.443  1.00  0.00     0.251 C 
ATOM     32  H   UNL     1       0.086  10.841   6.049  1.00  0.00     0.163 HD
ATOM     33  O   UNL     1      -1.508  11.769   7.646  1.00  0.00    -0.269 OA
BRANCH  31  34
ATOM     34  C   UNL     1      -3.001  12.070   5.854  1.00  0.00     0.039 A 
ATOM     35  C   UNL     1      -3.462  13.364   6.101  1.00  0.00     0.014 A 
ATOM     36  C   UNL     1      -3.692  11.220   4.987  1.00  0.00     0.014 A 
ATOM     37  C   UNL     1      -4.580  13.836   5.410  1.00  0.00     0.010 A 
ATOM     38  C   UNL     1      -4.754  11.720   4.242  1.00  0.00     0.010 A 
ATOM     39  C   UNL     1      -5.206  13.034   4.442  1.00  0.00    -0.014 A 
BRANCH  39  40
ATOM     40  C   UNL     1      -6.323  13.553   3.613  1.00  0.00     0.031 A 
ATOM     41  C   UNL     1      -7.679  12.909   3.687  1.00  0.00     0.074 A 
ATOM     42  C   UNL     1      -6.092  14.543   2.727  1.00  0.00     0.049 A 
ATOM     43  N   UNL     1      -8.757  13.175   2.994  1.00  0.00    -0.248 NA
ATOM     44  C   UNL     1      -7.835  11.795   4.637  1.00  0.00     0.031 C 
ATOM     45  C   UNL     1      -4.802  15.203   2.508  1.00  0.00     0.029 A 
ATOM     46  N   UNL     1      -6.933  15.157   1.833  1.00  0.00    -0.354 N 
ATOM     47  C   UNL     1      -9.706  12.246   3.403  1.00  0.00     0.074 A 
ATOM     48  C   UNL     1      -9.063  11.379   4.366  1.00  0.00     0.031 C 
ATOM     49  C   UNL     1      -4.943  16.139   1.556  1.00  0.00     0.029 A 
ATOM     50  C   UNL     1      -6.321  16.125   1.073  1.00  0.00     0.049 A 
ATOM     51  H   UNL     1      -7.886  14.925   1.744  1.00  0.00     0.167 HD
ATOM     52  C   UNL     1     -11.002  12.134   3.025  1.00  0.00     0.031 A 
ATOM     53  C   UNL     1      -6.808  16.911   0.093  1.00  0.00     0.031 A 
ATOM     54  C   UNL     1     -11.643  13.011   2.082  1.00  0.00     0.049 A 
ATOM     55  C   UNL     1      -8.258  16.798  -0.284  1.00  0.00     0.074 A 
ATOM     56  C   UNL     1     -12.972  13.037   1.698  1.00  0.00     0.029 A 
ATOM     57  N   UNL     1     -11.000  14.013   1.371  1.00  0.00    -0.354 N 
ATOM     58  N   UNL     1      -9.168  15.977   0.185  1.00  0.00    -0.248 NA
ATOM     59  C   UNL     1      -8.753  17.728  -1.308  1.00  0.00     0.031 C 
ATOM     60  C   UNL     1     -13.122  14.023   0.717  1.00  0.00     0.029 A 
ATOM     61  C   UNL     1     -11.899  14.647   0.530  1.00  0.00     0.049 A 
ATOM     62  H   UNL     1     -10.046  14.240   1.452  1.00  0.00     0.167 HD
ATOM     63  C   UNL     1     -10.348  16.304  -0.474  1.00  0.00     0.074 A 
ATOM     64  C   UNL     1     -10.040  17.408  -1.361  1.00  0.00     0.031 C 
ATOM     65  C   UNL     1     -11.576  15.740  -0.353  1.00  0.00     0.031 A 
BRANCH  52  66
ATOM     66  C   UNL     1     -11.803  11.010   3.628  1.00  0.00    -0.014 A 
ATOM     67  C   UNL     1     -12.145  11.008   4.993  1.00  0.00     0.010 A 
ATOM     68  C   UNL     1     -12.224   9.941   2.817  1.00  0.00     0.010 A 
ATOM     69  C   UNL     1     -12.839   9.930   5.548  1.00  0.00     0.020 A 
ATOM     70  C   UNL     1     -12.946   8.875   3.361  1.00  0.00     0.020 A 
ATOM     71  C   UNL     1     -13.227   8.865   4.729  1.00  0.00     0.054 A 
BRANCH  71  72
ATOM     72  S   UNL     1     -14.120   7.474   5.475  1.00  0.00     0.124 S 
ATOM     73  O   UNL     1     -13.049   6.779   6.187  1.00  0.00    -0.237 OA
ATOM     74  O   UNL     1     -15.105   8.140   6.322  1.00  0.00    -0.237 OA
ATOM     75  O   UNL     1     -14.670   6.759   4.327  1.00  0.00    -0.744 OA
ENDBRANCH  71  72
ENDBRANCH  52  66
BRANCH  53  76
ATOM     76  C   UNL     1      -5.908  17.885  -0.582  1.00  0.00    -0.014 A 
ATOM     77  C   UNL     1      -6.015  19.261  -0.316  1.00  0.00     0.010 A 
ATOM     78  C   UNL     1      -4.906  17.434  -1.462  1.00  0.00     0.010 A 
ATOM     79  C   UNL     1      -5.140  20.170  -0.920  1.00  0.00     0.020 A 
ATOM     80  C   UNL     1      -4.014  18.337  -2.047  1.00  0.00     0.020 A 
ATOM     81  C   UNL     1      -4.141  19.701  -1.777  1.00  0.00     0.054 A 
BRANCH  81  82
ATOM     82  S   UNL     1      -2.965  20.889  -2.485  1.00  0.00     0.124 S 
ATOM     83  O   UNL     1      -3.775  21.549  -3.503  1.00  0.00    -0.237 OA
ATOM     84  O   UNL     1      -2.610  21.708  -1.328  1.00  0.00    -0.237 OA
ATOM     85  O   UNL     1      -1.887  20.042  -2.991  1.00  0.00    -0.744 OA
ENDBRANCH  81  82
ENDBRANCH  53  76
BRANCH  65  86
ATOM     86  C   UNL     1     -12.689  16.320  -1.184  1.00  0.00    -0.014 A 
ATOM     87  C   UNL     1     -12.754  16.097  -2.571  1.00  0.00     0.010 A 
ATOM     88  C   UNL     1     -13.718  17.045  -0.555  1.00  0.00     0.010 A 
ATOM     89  C   UNL     1     -13.816  16.613  -3.318  1.00  0.00     0.020 A 
ATOM     90  C   UNL     1     -14.794  17.540  -1.296  1.00  0.00     0.020 A 
ATOM     91  C   UNL     1     -14.829  17.332  -2.676  1.00  0.00     0.054 A 
BRANCH  91  92
ATOM     92  S   UNL     1     -16.222  17.950  -3.660  1.00  0.00     0.124 S 
ATOM     93  O   UNL     1     -15.620  19.081  -4.361  1.00  0.00    -0.237 OA
ATOM     94  O   UNL     1     -16.561  16.800  -4.496  1.00  0.00    -0.237 OA
ATOM     95  O   UNL     1     -17.226  18.301  -2.658  1.00  0.00    -0.744 OA
ENDBRANCH  91  92
ENDBRANCH  65  86
ENDBRANCH  39  40
ENDBRANCH  31  34
ENDBRANCH  29  30
ENDBRANCH  28  29
ENDBRANCH   1  28
TORSDOF 18
