REMARK SMILES Nc1ccc(F)cc1SCCOc1ccc(C(=O)NCCCCNC(=O)c2ccc(-c3c4nc(c(-c5ccc(S(=O)(=O)[O-])cc5)c5ccc([nH]5)c(-c5ccc(S(=O)(=O)[O-])cc5)c5nc(c(-c6ccc(S(=O)(=O)[O-])cc6)c6ccc3[nH]6)C=C5)C=C4)cc2)cc1
REMARK SMILES IDX 20 1 19 2 17 3 18 4 16 6 13 7 14 8 88 9 15 10 87 11 12 12
REMARK SMILES IDX 11 13 10 14 9 15 8 16 2 17 3 18 4 19 7 20 5 21 6 22 1 23
REMARK SMILES IDX 21 26 22 27 23 28 24 29 25 30 26 32 27 33 28 34 86 35 29 36
REMARK SMILES IDX 85 37 30 38 31 39 32 40 79 41 33 42 84 43 78 44 80 45 34 46
REMARK SMILES IDX 83 47 77 48 76 49 35 51 65 52 46 53 64 54 47 55 50 56 63 57
REMARK SMILES IDX 81 58 48 59 49 60 62 62 82 63 51 64 36 65 37 66 45 67 38 68
REMARK SMILES IDX 44 69 39 70 40 71 41 72 42 73 43 74 66 75 67 76 75 77 68 78
REMARK SMILES IDX 74 79 69 80 70 81 71 82 72 83 73 84 52 85 53 86 61 87 54 88
REMARK SMILES IDX 60 89 55 90 56 91 57 92 58 93 59 94
REMARK H PARENT 19 5 1 24 1 25 24 31 80 50 50 61
REMARK Flexibility Score: inf
ROOT
ATOM      1  C   UNL     1      -2.944  -4.281   3.193  1.00  0.00     0.116 C 
ENDROOT
BRANCH   1   2
ATOM      2  N   UNL     1      -3.230  -4.438   1.782  1.00  0.00    -0.352 N 
ATOM      3  C   UNL     1      -3.236  -3.522   0.763  1.00  0.00     0.251 C 
ATOM      4  O   UNL     1      -3.751  -3.836  -0.309  1.00  0.00    -0.269 OA
ATOM      5  H   UNL     1      -3.458  -5.356   1.509  1.00  0.00     0.163 HD
BRANCH   3   6
ATOM      6  C   UNL     1      -2.643  -2.168   0.903  1.00  0.00     0.040 A 
ATOM      7  C   UNL     1      -1.361   0.323   0.717  1.00  0.00     0.119 A 
ATOM      8  C   UNL     1      -2.576   0.114   0.068  1.00  0.00     0.047 A 
ATOM      9  C   UNL     1      -0.855  -0.670   1.554  1.00  0.00     0.047 A 
ATOM     10  C   UNL     1      -3.213  -1.128   0.159  1.00  0.00     0.017 A 
ATOM     11  C   UNL     1      -1.457  -1.928   1.597  1.00  0.00     0.017 A 
BRANCH   7  12
ATOM     12  O   UNL     1      -0.537   1.403   0.559  1.00  0.00    -0.493 OA
BRANCH  12  13
ATOM     13  C   UNL     1      -0.595   2.095  -0.691  1.00  0.00     0.241 C 
BRANCH  13  14
ATOM     14  C   UNL     1       0.356   1.555  -1.770  1.00  0.00     0.116 C 
BRANCH  14  15
ATOM     15  S   UNL     1      -0.154   0.014  -2.614  1.00  0.00    -0.120 SA
BRANCH  15  16
ATOM     16  C   UNL     1       0.402  -1.392  -1.629  1.00  0.00     0.033 A 
ATOM     17  C   UNL     1       1.454  -1.458  -0.687  1.00  0.00     0.045 A 
ATOM     18  C   UNL     1       1.737  -2.685  -0.050  1.00  0.00     0.029 A 
ATOM     19  C   UNL     1       1.021  -3.841  -0.348  1.00  0.00     0.041 A 
ATOM     20  C   UNL     1      -0.300  -2.580  -1.925  1.00  0.00     0.056 A 
ATOM     21  C   UNL     1       0.009  -3.777  -1.287  1.00  0.00     0.124 A 
ATOM     22  F   UNL     1      -0.688  -4.884  -1.576  1.00  0.00    -0.207 F 
BRANCH  17  23
ATOM     23  N   UNL     1       2.138  -0.335  -0.210  1.00  0.00    -0.398 N 
ATOM     24  H   UNL     1       2.864  -0.443   0.447  1.00  0.00     0.156 HD
ATOM     25  H   UNL     1       1.894   0.563  -0.530  1.00  0.00     0.156 HD
ENDBRANCH  17  23
ENDBRANCH  15  16
ENDBRANCH  14  15
ENDBRANCH  13  14
ENDBRANCH  12  13
ENDBRANCH   7  12
ENDBRANCH   3   6
ENDBRANCH   1   2
BRANCH   1  26
ATOM     26  C   UNL     1      -4.140  -3.740   3.966  1.00  0.00     0.023 C 
BRANCH  26  27
ATOM     27  C   UNL     1      -5.271  -4.746   4.160  1.00  0.00     0.023 C 
BRANCH  27  28
ATOM     28  C   UNL     1      -4.851  -6.099   4.722  1.00  0.00     0.116 C 
BRANCH  28  29
ATOM     29  N   UNL     1      -4.008  -6.018   5.911  1.00  0.00    -0.352 N 
ATOM     30  C   UNL     1      -3.962  -6.885   6.979  1.00  0.00     0.251 C 
ATOM     31  H   UNL     1      -3.397  -5.247   5.955  1.00  0.00     0.163 HD
ATOM     32  O   UNL     1      -3.224  -6.671   7.934  1.00  0.00    -0.269 OA
BRANCH  30  33
ATOM     33  C   UNL     1      -4.872  -8.045   6.968  1.00  0.00     0.039 A 
ATOM     34  C   UNL     1      -4.896  -8.896   5.863  1.00  0.00     0.014 A 
ATOM     35  C   UNL     1      -5.803  -8.180   8.000  1.00  0.00     0.014 A 
ATOM     36  C   UNL     1      -5.971  -9.759   5.699  1.00  0.00     0.010 A 
ATOM     37  C   UNL     1      -6.835  -9.110   7.870  1.00  0.00     0.010 A 
ATOM     38  C   UNL     1      -6.963  -9.861   6.691  1.00  0.00    -0.014 A 
BRANCH  38  39
ATOM     39  C   UNL     1      -8.139 -10.736   6.457  1.00  0.00     0.031 A 
ATOM     40  C   UNL     1      -9.520 -10.148   6.324  1.00  0.00     0.074 A 
ATOM     41  C   UNL     1      -7.946 -12.058   6.292  1.00  0.00     0.049 A 
ATOM     42  N   UNL     1     -10.654 -10.764   6.105  1.00  0.00    -0.248 NA
ATOM     43  C   UNL     1      -9.651  -8.687   6.450  1.00  0.00     0.031 C 
ATOM     44  C   UNL     1      -6.646 -12.730   6.362  1.00  0.00     0.029 A 
ATOM     45  N   UNL     1      -8.827 -13.066   5.995  1.00  0.00    -0.354 N 
ATOM     46  C   UNL     1     -11.630  -9.775   6.089  1.00  0.00     0.074 A 
ATOM     47  C   UNL     1     -10.963  -8.518   6.343  1.00  0.00     0.031 C 
ATOM     48  C   UNL     1      -6.805 -14.023   6.048  1.00  0.00     0.029 A 
ATOM     49  C   UNL     1      -8.224 -14.290   5.830  1.00  0.00     0.049 A 
ATOM     50  H   UNL     1      -9.798 -12.926   5.909  1.00  0.00     0.167 HD
ATOM     51  C   UNL     1     -12.960  -9.905   5.872  1.00  0.00     0.031 A 
ATOM     52  C   UNL     1      -8.747 -15.498   5.547  1.00  0.00     0.031 A 
ATOM     53  C   UNL     1     -13.612 -11.159   5.597  1.00  0.00     0.049 A 
ATOM     54  C   UNL     1     -10.229 -15.624   5.355  1.00  0.00     0.074 A 
ATOM     55  C   UNL     1     -14.956 -11.390   5.358  1.00  0.00     0.029 A 
ATOM     56  N   UNL     1     -12.973 -12.387   5.514  1.00  0.00    -0.354 N 
ATOM     57  N   UNL     1     -11.139 -14.680   5.371  1.00  0.00    -0.248 NA
ATOM     58  C   UNL     1     -10.760 -16.973   5.118  1.00  0.00     0.031 C 
ATOM     59  C   UNL     1     -15.137 -12.764   5.183  1.00  0.00     0.029 A 
ATOM     60  C   UNL     1     -13.899 -13.383   5.251  1.00  0.00     0.049 A 
ATOM     61  H   UNL     1     -12.006 -12.530   5.626  1.00  0.00     0.167 HD
ATOM     62  C   UNL     1     -12.351 -15.319   5.145  1.00  0.00     0.074 A 
ATOM     63  C   UNL     1     -12.057 -16.727   4.973  1.00  0.00     0.031 C 
ATOM     64  C   UNL     1     -13.594 -14.783   5.092  1.00  0.00     0.031 A 
BRANCH  51  65
ATOM     65  C   UNL     1     -13.822  -8.670   5.925  1.00  0.00    -0.014 A 
ATOM     66  C   UNL     1     -14.744  -8.510   6.976  1.00  0.00     0.010 A 
ATOM     67  C   UNL     1     -13.807  -7.729   4.880  1.00  0.00     0.010 A 
ATOM     68  C   UNL     1     -15.654  -7.450   6.970  1.00  0.00     0.020 A 
ATOM     69  C   UNL     1     -14.700  -6.652   4.883  1.00  0.00     0.020 A 
ATOM     70  C   UNL     1     -15.633  -6.532   5.916  1.00  0.00     0.054 A 
BRANCH  70  71
ATOM     71  S   UNL     1     -16.832  -5.170   5.913  1.00  0.00     0.124 S 
ATOM     72  O   UNL     1     -18.052  -5.834   5.465  1.00  0.00    -0.237 OA
ATOM     73  O   UNL     1     -16.826  -4.734   7.308  1.00  0.00    -0.237 OA
ATOM     74  O   UNL     1     -16.257  -4.213   4.970  1.00  0.00    -0.744 OA
ENDBRANCH  70  71
ENDBRANCH  51  65
BRANCH  52  75
ATOM     75  C   UNL     1      -7.833 -16.666   5.426  1.00  0.00    -0.014 A 
ATOM     76  C   UNL     1      -7.149 -17.149   6.557  1.00  0.00     0.010 A 
ATOM     77  C   UNL     1      -7.554 -17.222   4.167  1.00  0.00     0.010 A 
ATOM     78  C   UNL     1      -6.153 -18.119   6.423  1.00  0.00     0.020 A 
ATOM     79  C   UNL     1      -6.579 -18.215   4.032  1.00  0.00     0.020 A 
ATOM     80  C   UNL     1      -5.861 -18.632   5.157  1.00  0.00     0.054 A 
BRANCH  80  81
ATOM     81  S   UNL     1      -4.518 -19.839   4.993  1.00  0.00     0.124 S 
ATOM     82  O   UNL     1      -3.338 -18.979   5.028  1.00  0.00    -0.237 OA
ATOM     83  O   UNL     1      -4.708 -20.694   6.162  1.00  0.00    -0.237 OA
ATOM     84  O   UNL     1      -4.789 -20.478   3.708  1.00  0.00    -0.744 OA
ENDBRANCH  80  81
ENDBRANCH  52  75
BRANCH  64  85
ATOM     85  C   UNL     1     -14.754 -15.710   4.849  1.00  0.00    -0.014 A 
ATOM     86  C   UNL     1     -15.452 -15.650   3.628  1.00  0.00     0.010 A 
ATOM     87  C   UNL     1     -15.234 -16.540   5.877  1.00  0.00     0.010 A 
ATOM     88  C   UNL     1     -16.632 -16.375   3.453  1.00  0.00     0.020 A 
ATOM     89  C   UNL     1     -16.401 -17.286   5.695  1.00  0.00     0.020 A 
ATOM     90  C   UNL     1     -17.107 -17.178   4.493  1.00  0.00     0.054 A 
BRANCH  90  91
ATOM     91  S   UNL     1     -18.663 -18.081   4.263  1.00  0.00     0.124 S 
ATOM     92  O   UNL     1     -19.659 -17.034   4.467  1.00  0.00    -0.237 OA
ATOM     93  O   UNL     1     -18.546 -18.583   2.896  1.00  0.00    -0.237 OA
ATOM     94  O   UNL     1     -18.616 -19.110   5.300  1.00  0.00    -0.744 OA
ENDBRANCH  90  91
ENDBRANCH  64  85
ENDBRANCH  38  39
ENDBRANCH  30  33
ENDBRANCH  28  29
ENDBRANCH  27  28
ENDBRANCH  26  27
ENDBRANCH   1  26
TORSDOF 20
