REMARK SMILES Cc1ccc([C@H](C)Nc2ccc(C(=O)NCCCCNC(=O)c3ccc(-c4c5nc(c(-c6ccc(S(=O)(=O)[O-])cc6)c6ccc([nH]6)c(-c6ccc(S(=O)(=O)[O-])cc6)c6nc(c(-c7ccc(S(=O)(=O)[O-])cc7)c7ccc4[nH]7)C=C6)C=C5)cc3)cc2Cl)cc1F
REMARK SMILES IDX 17 1 16 2 15 3 13 4 14 5 12 7 9 8 10 9 84 10 11 11 83 12
REMARK SMILES IDX 85 13 8 14 6 16 7 17 5 18 1 19 2 20 3 21 87 22 4 23 86 24
REMARK SMILES IDX 88 25 18 26 19 27 20 28 21 29 22 31 23 32 24 33 82 34 25 35
REMARK SMILES IDX 81 36 26 37 27 38 28 39 75 40 29 41 80 42 74 43 76 44 30 45
REMARK SMILES IDX 79 46 73 47 72 48 31 50 61 51 42 52 60 53 43 54 46 55 59 56
REMARK SMILES IDX 77 57 44 58 45 59 58 61 78 62 47 63 32 64 33 65 41 66 34 67
REMARK SMILES IDX 40 68 35 69 36 70 37 71 38 72 39 73 62 74 63 75 71 76 64 77
REMARK SMILES IDX 70 78 65 79 66 80 67 81 68 82 69 83 48 84 49 85 57 86 50 87
REMARK SMILES IDX 56 88 51 89 52 90 53 91 54 92 55 93
REMARK H PARENT 15 6 8 15 20 30 76 49 46 60
REMARK Flexibility Score: inf
ROOT
ATOM      1  C   UNL     1      -9.663  -3.226   3.219  1.00  0.00     0.023 C 
ENDROOT
BRANCH   1   2
ATOM      2  C   UNL     1      -9.168  -1.944   3.897  1.00  0.00     0.116 C 
BRANCH   2   3
ATOM      3  N   UNL     1      -8.332  -2.249   5.042  1.00  0.00    -0.352 N 
ATOM      4  C   UNL     1      -6.990  -2.495   5.186  1.00  0.00     0.251 C 
ATOM      5  O   UNL     1      -6.583  -2.709   6.330  1.00  0.00    -0.269 OA
ATOM      6  H   UNL     1      -8.830  -2.287   5.891  1.00  0.00     0.163 HD
BRANCH   4   7
ATOM      7  C   UNL     1      -6.000  -2.497   4.066  1.00  0.00     0.041 A 
ATOM      8  C   UNL     1      -3.953  -2.525   2.046  1.00  0.00     0.053 A 
ATOM      9  C   UNL     1      -3.649  -2.543   3.420  1.00  0.00     0.028 A 
ATOM     10  C   UNL     1      -5.318  -2.457   1.717  1.00  0.00     0.065 A 
ATOM     11  C   UNL     1      -4.644  -2.513   4.408  1.00  0.00     0.016 A 
ATOM     12  C   UNL     1      -6.310  -2.504   2.711  1.00  0.00     0.036 A 
ATOM     13  Cl  UNL     1      -5.949  -2.377   0.104  1.00  0.00    -0.082 Cl
BRANCH   8  14
ATOM     14  N   UNL     1      -2.873  -2.551   1.182  1.00  0.00    -0.377 N 
ATOM     15  H   UNL     1      -2.100  -3.088   1.470  1.00  0.00     0.161 HD
BRANCH  14  16
ATOM     16  C   UNL     1      -2.744  -1.879  -0.105  1.00  0.00     0.106 C 
ATOM     17  C   UNL     1      -1.599  -0.864   0.045  1.00  0.00     0.036 C 
BRANCH  16  18
ATOM     18  C   UNL     1      -2.568  -2.902  -1.228  1.00  0.00    -0.023 A 
ATOM     19  C   UNL     1      -2.729  -5.503  -4.699  1.00  0.00     0.047 C 
ATOM     20  C   UNL     1      -2.601  -4.646  -3.478  1.00  0.00    -0.015 A 
ATOM     21  C   UNL     1      -1.735  -3.551  -3.437  1.00  0.00     0.007 A 
ATOM     22  C   UNL     1      -3.412  -4.886  -2.374  1.00  0.00     0.126 A 
ATOM     23  C   UNL     1      -1.722  -2.689  -2.329  1.00  0.00     0.006 A 
ATOM     24  C   UNL     1      -3.383  -4.049  -1.263  1.00  0.00     0.045 A 
ATOM     25  F   UNL     1      -4.268  -5.918  -2.385  1.00  0.00    -0.207 F 
ENDBRANCH  16  18
ENDBRANCH  14  16
ENDBRANCH   8  14
ENDBRANCH   4   7
ENDBRANCH   2   3
ENDBRANCH   1   2
BRANCH   1  26
ATOM     26  C   UNL     1     -10.972  -3.769   3.797  1.00  0.00     0.023 C 
BRANCH  26  27
ATOM     27  C   UNL     1     -12.184  -2.876   3.552  1.00  0.00     0.116 C 
BRANCH  27  28
ATOM     28  N   UNL     1     -12.467  -2.658   2.142  1.00  0.00    -0.352 N 
ATOM     29  C   UNL     1     -13.671  -2.323   1.565  1.00  0.00     0.251 C 
ATOM     30  H   UNL     1     -11.706  -2.762   1.526  1.00  0.00     0.163 HD
ATOM     31  O   UNL     1     -13.784  -2.264   0.348  1.00  0.00    -0.269 OA
BRANCH  29  32
ATOM     32  C   UNL     1     -14.838  -2.091   2.442  1.00  0.00     0.039 A 
ATOM     33  C   UNL     1     -16.011  -2.809   2.201  1.00  0.00     0.014 A 
ATOM     34  C   UNL     1     -14.750  -1.217   3.528  1.00  0.00     0.014 A 
ATOM     35  C   UNL     1     -17.076  -2.705   3.097  1.00  0.00     0.010 A 
ATOM     36  C   UNL     1     -15.786  -1.165   4.454  1.00  0.00     0.010 A 
ATOM     37  C   UNL     1     -16.956  -1.911   4.250  1.00  0.00    -0.014 A 
BRANCH  37  38
ATOM     38  C   UNL     1     -18.043  -1.854   5.259  1.00  0.00     0.031 A 
ATOM     39  C   UNL     1     -18.774  -0.564   5.504  1.00  0.00     0.074 A 
ATOM     40  C   UNL     1     -18.323  -2.945   5.999  1.00  0.00     0.049 A 
ATOM     41  N   UNL     1     -19.702  -0.298   6.387  1.00  0.00    -0.248 NA
ATOM     42  C   UNL     1     -18.395   0.584   4.664  1.00  0.00     0.031 C 
ATOM     43  C   UNL     1     -17.651  -4.243   5.888  1.00  0.00     0.029 A 
ATOM     44  N   UNL     1     -19.242  -3.134   7.000  1.00  0.00    -0.354 N 
ATOM     45  C   UNL     1     -20.010   1.046   6.217  1.00  0.00     0.074 A 
ATOM     46  C   UNL     1     -19.134   1.554   5.184  1.00  0.00     0.031 C 
ATOM     47  C   UNL     1     -18.195  -5.097   6.770  1.00  0.00     0.029 A 
ATOM     48  C   UNL     1     -19.229  -4.402   7.531  1.00  0.00     0.049 A 
ATOM     49  H   UNL     1     -19.854  -2.427   7.309  1.00  0.00     0.167 HD
ATOM     50  C   UNL     1     -20.952   1.788   6.848  1.00  0.00     0.031 A 
ATOM     51  C   UNL     1     -19.962  -4.943   8.523  1.00  0.00     0.031 A 
ATOM     52  C   UNL     1     -21.829   1.279   7.868  1.00  0.00     0.049 A 
ATOM     53  C   UNL     1     -21.004  -4.101   9.207  1.00  0.00     0.074 A 
ATOM     54  C   UNL     1     -22.842   1.939   8.541  1.00  0.00     0.029 A 
ATOM     55  N   UNL     1     -21.800  -0.018   8.358  1.00  0.00    -0.354 N 
ATOM     56  N   UNL     1     -21.316  -2.845   8.995  1.00  0.00    -0.248 NA
ATOM     57  C   UNL     1     -21.802  -4.754  10.254  1.00  0.00     0.031 C 
ATOM     58  C   UNL     1     -23.404   1.050   9.464  1.00  0.00     0.029 A 
ATOM     59  C   UNL     1     -22.771  -0.176   9.332  1.00  0.00     0.049 A 
ATOM     60  H   UNL     1     -21.181  -0.722   8.058  1.00  0.00     0.167 HD
ATOM     61  C   UNL     1     -22.363  -2.564   9.865  1.00  0.00     0.074 A 
ATOM     62  C   UNL     1     -22.640  -3.784  10.595  1.00  0.00     0.031 C 
ATOM     63  C   UNL     1     -23.035  -1.400  10.044  1.00  0.00     0.031 A 
BRANCH  50  64
ATOM     64  C   UNL     1     -21.080   3.231   6.441  1.00  0.00    -0.014 A 
ATOM     65  C   UNL     1     -21.613   3.580   5.186  1.00  0.00     0.010 A 
ATOM     66  C   UNL     1     -20.689   4.250   7.327  1.00  0.00     0.010 A 
ATOM     67  C   UNL     1     -21.709   4.921   4.807  1.00  0.00     0.020 A 
ATOM     68  C   UNL     1     -20.808   5.594   6.961  1.00  0.00     0.020 A 
ATOM     69  C   UNL     1     -21.300   5.920   5.695  1.00  0.00     0.054 A 
BRANCH  69  70
ATOM     70  S   UNL     1     -21.448   7.653   5.182  1.00  0.00     0.124 S 
ATOM     71  O   UNL     1     -20.334   7.785   4.246  1.00  0.00    -0.237 OA
ATOM     72  O   UNL     1     -22.779   7.700   4.583  1.00  0.00    -0.237 OA
ATOM     73  O   UNL     1     -21.303   8.397   6.431  1.00  0.00    -0.744 OA
ENDBRANCH  69  70
ENDBRANCH  50  64
BRANCH  51  74
ATOM     74  C   UNL     1     -19.750  -6.362   8.918  1.00  0.00    -0.014 A 
ATOM     75  C   UNL     1     -20.708  -7.341   8.601  1.00  0.00     0.010 A 
ATOM     76  C   UNL     1     -18.587  -6.741   9.611  1.00  0.00     0.010 A 
ATOM     77  C   UNL     1     -20.519  -8.669   8.993  1.00  0.00     0.020 A 
ATOM     78  C   UNL     1     -18.382  -8.073   9.982  1.00  0.00     0.020 A 
ATOM     79  C   UNL     1     -19.357  -9.027   9.682  1.00  0.00     0.054 A 
BRANCH  79  80
ATOM     80  S   UNL     1     -19.111 -10.764  10.146  1.00  0.00     0.124 S 
ATOM     81  O   UNL     1     -19.999 -10.899  11.297  1.00  0.00    -0.237 OA
ATOM     82  O   UNL     1     -19.525 -11.477   8.940  1.00  0.00    -0.237 OA
ATOM     83  O   UNL     1     -17.682 -10.837  10.443  1.00  0.00    -0.744 OA
ENDBRANCH  79  80
ENDBRANCH  51  74
BRANCH  63  84
ATOM     84  C   UNL     1     -24.159  -1.399  11.044  1.00  0.00    -0.014 A 
ATOM     85  C   UNL     1     -23.903  -1.411  12.426  1.00  0.00     0.010 A 
ATOM     86  C   UNL     1     -25.489  -1.331  10.591  1.00  0.00     0.010 A 
ATOM     87  C   UNL     1     -24.960  -1.385  13.339  1.00  0.00     0.020 A 
ATOM     88  C   UNL     1     -26.548  -1.280  11.501  1.00  0.00     0.020 A 
ATOM     89  C   UNL     1     -26.276  -1.321  12.870  1.00  0.00     0.054 A 
BRANCH  89  90
ATOM     90  S   UNL     1     -27.631  -1.240  14.073  1.00  0.00     0.124 S 
ATOM     91  O   UNL     1     -27.708  -2.623  14.537  1.00  0.00    -0.237 OA
ATOM     92  O   UNL     1     -27.136  -0.276  15.053  1.00  0.00    -0.237 OA
ATOM     93  O   UNL     1     -28.771  -0.783  13.281  1.00  0.00    -0.744 OA
ENDBRANCH  89  90
ENDBRANCH  63  84
ENDBRANCH  37  38
ENDBRANCH  29  32
ENDBRANCH  27  28
ENDBRANCH  26  27
ENDBRANCH   1  26
TORSDOF 17
