REMARK SMILES Nc1nc(SCc2c(C(=O)NCCCCNC(=O)c3ccc(-c4c5nc(c(-c6ccc(S(=O)(=O)[O-])cc6)c6ccc([nH]6)c(-c6ccc(S(=O)(=O)[O-])cc6)c6nc(c(-c7ccc(S(=O)(=O)[O-])cc7)c7ccc4[nH]7)C=C6)C=C5)cc3)sc3cccc(F)c23)n[nH]1
REMARK SMILES IDX 13 1 12 2 11 3 9 4 10 5 8 7 7 8 86 9 79 10 80 11 84 12 81 13
REMARK SMILES IDX 83 14 85 15 82 16 6 17 5 18 4 19 2 20 3 21 88 22 87 23 1 25
REMARK SMILES IDX 14 28 15 29 16 30 17 31 18 33 19 34 20 35 78 36 21 37 77 38
REMARK SMILES IDX 22 39 23 40 24 41 71 42 25 43 76 44 70 45 72 46 26 47 75 48
REMARK SMILES IDX 69 49 68 50 27 52 57 53 38 54 56 55 39 56 42 57 55 58 73 59
REMARK SMILES IDX 40 60 41 61 54 63 74 64 43 65 28 66 29 67 37 68 30 69 36 70
REMARK SMILES IDX 31 71 32 72 33 73 34 74 35 75 58 76 59 77 67 78 60 79 66 80
REMARK SMILES IDX 61 81 62 82 63 83 64 84 65 85 44 86 45 87 53 88 46 89 52 90
REMARK SMILES IDX 47 91 48 92 49 93 50 94 51 95
REMARK H PARENT 11 6 88 24 1 26 1 27 16 32 72 51 42 62
REMARK Flexibility Score: inf
ROOT
ATOM      1  C   UNL     1       0.474   2.336   2.739  1.00  0.00     0.023 C 
ENDROOT
BRANCH   1   2
ATOM      2  C   UNL     1       0.529   2.704   1.253  1.00  0.00     0.116 C 
BRANCH   2   3
ATOM      3  N   UNL     1      -0.458   2.025   0.440  1.00  0.00    -0.351 N 
ATOM      4  C   UNL     1      -0.637   1.986  -0.930  1.00  0.00     0.261 C 
ATOM      5  O   UNL     1      -1.523   1.230  -1.335  1.00  0.00    -0.268 OA
ATOM      6  H   UNL     1      -1.115   1.500   0.952  1.00  0.00     0.163 HD
BRANCH   4   7
ATOM      7  C   UNL     1       0.084   2.906  -1.787  1.00  0.00     0.097 A 
ATOM      8  C   UNL     1       1.372   3.428  -1.835  1.00  0.00    -0.003 A 
ATOM      9  C   UNL     1       1.204   4.828  -2.237  1.00  0.00     0.033 A 
ATOM     10  S   UNL     1      -0.774   3.509  -3.163  1.00  0.00    -0.130 S 
ATOM     11  C   UNL     1       0.086   4.986  -3.062  1.00  0.00     0.038 A 
ATOM     12  C   UNL     1       1.936   6.003  -1.942  1.00  0.00     0.132 A 
ATOM     13  C   UNL     1      -0.254   6.212  -3.664  1.00  0.00     0.020 A 
ATOM     14  C   UNL     1       1.533   7.253  -2.423  1.00  0.00     0.040 A 
ATOM     15  F   UNL     1       2.962   5.952  -1.079  1.00  0.00    -0.206 F 
ATOM     16  C   UNL     1       0.461   7.353  -3.300  1.00  0.00     0.005 A 
BRANCH   8  17
ATOM     17  C   UNL     1       2.669   2.851  -1.320  1.00  0.00     0.116 C 
BRANCH  17  18
ATOM     18  S   UNL     1       3.168   1.218  -1.905  1.00  0.00    -0.080 SA
BRANCH  18  19
ATOM     19  C   UNL     1       2.106  -0.021  -1.301  1.00  0.00     0.210 A 
ATOM     20  C   UNL     1       0.568  -1.058  -0.297  1.00  0.00     0.216 A 
ATOM     21  N   UNL     1       1.290   0.038  -0.204  1.00  0.00    -0.186 NA
ATOM     22  N   UNL     1       1.080  -1.830  -1.297  1.00  0.00    -0.245 N 
ATOM     23  N   UNL     1       2.060  -1.191  -1.948  1.00  0.00    -0.145 NA
ATOM     24  H   UNL     1       0.770  -2.739  -1.512  1.00  0.00     0.193 HD
BRANCH  20  25
ATOM     25  N   UNL     1      -0.543  -1.413   0.368  1.00  0.00    -0.368 N 
ATOM     26  H   UNL     1      -0.893  -0.838   1.086  1.00  0.00     0.159 HD
ATOM     27  H   UNL     1      -1.008  -2.250   0.138  1.00  0.00     0.159 HD
ENDBRANCH  20  25
ENDBRANCH  18  19
ENDBRANCH  17  18
ENDBRANCH   8  17
ENDBRANCH   4   7
ENDBRANCH   2   3
ENDBRANCH   1   2
BRANCH   1  28
ATOM     28  C   UNL     1       0.958   0.914   3.084  1.00  0.00     0.023 C 
BRANCH  28  29
ATOM     29  C   UNL     1       2.438   0.624   2.814  1.00  0.00     0.116 C 
BRANCH  29  30
ATOM     30  N   UNL     1       3.312   1.157   3.845  1.00  0.00    -0.352 N 
ATOM     31  C   UNL     1       4.563   0.744   4.245  1.00  0.00     0.251 C 
ATOM     32  H   UNL     1       2.954   1.934   4.332  1.00  0.00     0.163 HD
ATOM     33  O   UNL     1       5.016   1.215   5.288  1.00  0.00    -0.269 OA
BRANCH  31  34
ATOM     34  C   UNL     1       5.370  -0.237   3.470  1.00  0.00     0.039 A 
ATOM     35  C   UNL     1       6.343  -0.984   4.152  1.00  0.00     0.014 A 
ATOM     36  C   UNL     1       5.262  -0.371   2.082  1.00  0.00     0.014 A 
ATOM     37  C   UNL     1       7.179  -1.855   3.453  1.00  0.00     0.010 A 
ATOM     38  C   UNL     1       6.066  -1.268   1.388  1.00  0.00     0.010 A 
ATOM     39  C   UNL     1       7.044  -1.990   2.066  1.00  0.00    -0.014 A 
BRANCH  39  40
ATOM     40  C   UNL     1       7.901  -2.932   1.351  1.00  0.00     0.031 A 
ATOM     41  C   UNL     1       7.722  -4.372   1.683  1.00  0.00     0.074 A 
ATOM     42  C   UNL     1       8.704  -2.602   0.320  1.00  0.00     0.049 A 
ATOM     43  N   UNL     1       8.543  -5.160   2.297  1.00  0.00    -0.248 NA
ATOM     44  C   UNL     1       6.441  -4.998   1.327  1.00  0.00     0.031 C 
ATOM     45  C   UNL     1       8.799  -1.328  -0.397  1.00  0.00     0.029 A 
ATOM     46  N   UNL     1       9.564  -3.407  -0.365  1.00  0.00    -0.354 N 
ATOM     47  C   UNL     1       7.965  -6.427   2.264  1.00  0.00     0.074 A 
ATOM     48  C   UNL     1       6.623  -6.245   1.765  1.00  0.00     0.031 C 
ATOM     49  C   UNL     1       9.514  -1.506  -1.533  1.00  0.00     0.029 A 
ATOM     50  C   UNL     1      10.059  -2.853  -1.536  1.00  0.00     0.049 A 
ATOM     51  H   UNL     1       9.813  -4.307  -0.054  1.00  0.00     0.167 HD
ATOM     52  C   UNL     1       8.680  -7.568   2.473  1.00  0.00     0.031 A 
ATOM     53  C   UNL     1      10.843  -3.474  -2.450  1.00  0.00     0.031 A 
ATOM     54  C   UNL     1       9.983  -7.309   3.022  1.00  0.00     0.049 A 
ATOM     55  C   UNL     1      11.520  -4.594  -1.752  1.00  0.00     0.074 A 
ATOM     56  C   UNL     1      10.461  -6.730   4.181  1.00  0.00     0.029 A 
ATOM     57  N   UNL     1      11.048  -7.341   2.153  1.00  0.00    -0.354 N 
ATOM     58  N   UNL     1      12.382  -4.431  -0.787  1.00  0.00    -0.248 NA
ATOM     59  C   UNL     1      10.970  -5.934  -1.872  1.00  0.00     0.031 C 
ATOM     60  C   UNL     1      11.630  -6.015   3.781  1.00  0.00     0.029 A 
ATOM     61  C   UNL     1      11.812  -6.231   2.413  1.00  0.00     0.049 A 
ATOM     62  H   UNL     1      11.229  -8.030   1.474  1.00  0.00     0.167 HD
ATOM     63  C   UNL     1      12.185  -5.511   0.059  1.00  0.00     0.074 A 
ATOM     64  C   UNL     1      11.395  -6.459  -0.720  1.00  0.00     0.031 C 
ATOM     65  C   UNL     1      12.454  -5.424   1.395  1.00  0.00     0.031 A 
BRANCH  52  66
ATOM     66  C   UNL     1       8.329  -8.903   1.865  1.00  0.00    -0.014 A 
ATOM     67  C   UNL     1       9.001 -10.065   2.297  1.00  0.00     0.010 A 
ATOM     68  C   UNL     1       7.547  -9.011   0.696  1.00  0.00     0.010 A 
ATOM     69  C   UNL     1       8.927 -11.262   1.568  1.00  0.00     0.020 A 
ATOM     70  C   UNL     1       7.431 -10.210  -0.012  1.00  0.00     0.020 A 
ATOM     71  C   UNL     1       8.147 -11.322   0.412  1.00  0.00     0.054 A 
BRANCH  71  72
ATOM     72  S   UNL     1       8.159 -12.831  -0.591  1.00  0.00     0.124 S 
ATOM     73  O   UNL     1       9.576 -12.961  -0.926  1.00  0.00    -0.237 OA
ATOM     74  O   UNL     1       7.637 -13.824   0.343  1.00  0.00    -0.237 OA
ATOM     75  O   UNL     1       7.280 -12.507  -1.710  1.00  0.00    -0.744 OA
ENDBRANCH  71  72
ENDBRANCH  52  66
BRANCH  53  76
ATOM     76  C   UNL     1      10.817  -3.345  -3.928  1.00  0.00    -0.014 A 
ATOM     77  C   UNL     1      11.820  -3.940  -4.717  1.00  0.00     0.010 A 
ATOM     78  C   UNL     1       9.652  -2.893  -4.581  1.00  0.00     0.010 A 
ATOM     79  C   UNL     1      11.628  -4.152  -6.092  1.00  0.00     0.020 A 
ATOM     80  C   UNL     1       9.457  -3.093  -5.953  1.00  0.00     0.020 A 
ATOM     81  C   UNL     1      10.432  -3.755  -6.695  1.00  0.00     0.054 A 
BRANCH  81  82
ATOM     82  S   UNL     1      10.121  -4.203  -8.428  1.00  0.00     0.124 S 
ATOM     83  O   UNL     1      11.236  -3.566  -9.124  1.00  0.00    -0.237 OA
ATOM     84  O   UNL     1      10.157  -5.662  -8.382  1.00  0.00    -0.237 OA
ATOM     85  O   UNL     1       8.807  -3.626  -8.705  1.00  0.00    -0.744 OA
ENDBRANCH  81  82
ENDBRANCH  53  76
BRANCH  65  86
ATOM     86  C   UNL     1      13.246  -4.234   1.890  1.00  0.00    -0.014 A 
ATOM     87  C   UNL     1      12.749  -2.916   1.860  1.00  0.00     0.010 A 
ATOM     88  C   UNL     1      14.449  -4.482   2.573  1.00  0.00     0.010 A 
ATOM     89  C   UNL     1      13.438  -1.875   2.500  1.00  0.00     0.020 A 
ATOM     90  C   UNL     1      15.133  -3.452   3.224  1.00  0.00     0.020 A 
ATOM     91  C   UNL     1      14.621  -2.153   3.191  1.00  0.00     0.054 A 
BRANCH  91  92
ATOM     92  S   UNL     1      15.463  -0.817   4.089  1.00  0.00     0.124 S 
ATOM     93  O   UNL     1      15.758   0.148   3.033  1.00  0.00    -0.237 OA
ATOM     94  O   UNL     1      14.453  -0.399   5.058  1.00  0.00    -0.237 OA
ATOM     95  O   UNL     1      16.635  -1.470   4.670  1.00  0.00    -0.744 OA
ENDBRANCH  91  92
ENDBRANCH  65  86
ENDBRANCH  39  40
ENDBRANCH  31  34
ENDBRANCH  29  30
ENDBRANCH  28  29
ENDBRANCH   1  28
TORSDOF 18
