REMARK SMILES CC[C@H](C)[C@@H](NC(=O)c1csc(NC(C)=O)n1)C(=O)NCCCCNC(=O)c1ccc(-c2c3nc(c(-c4ccc(S(=O)(=O)[O-])cc4)c4ccc([nH]4)c(-c4ccc(S(=O)(=O)[O-])cc4)c4nc(c(-c5ccc(S(=O)(=O)[O-])cc5)c5ccc2[nH]5)C=C4)C=C3)cc1
REMARK SMILES IDX 22 1 21 2 20 3 18 4 19 5 5 7 3 8 4 9 2 10 1 11 6 12 7 13
REMARK SMILES IDX 8 15 9 16 10 17 17 18 11 19 12 20 13 21 14 22 15 24 16 25
REMARK SMILES IDX 23 26 24 27 25 28 26 29 27 31 28 32 29 33 87 34 30 35 86 36
REMARK SMILES IDX 31 37 32 38 33 39 80 40 34 41 85 42 79 43 81 44 35 45 84 46
REMARK SMILES IDX 78 47 77 48 36 50 66 51 47 52 65 53 48 54 51 55 64 56 82 57
REMARK SMILES IDX 49 58 50 59 63 61 83 62 52 63 37 64 38 65 46 66 39 67 45 68
REMARK SMILES IDX 40 69 41 70 42 71 43 72 44 73 67 74 68 75 76 76 69 77 75 78
REMARK SMILES IDX 70 79 71 80 72 81 73 82 74 83 53 84 54 85 62 86 55 87 61 88
REMARK SMILES IDX 56 89 57 90 58 91 59 92 60 93
REMARK H PARENT 20 6 6 14 13 23 25 30 81 49 51 60
REMARK Flexibility Score: inf
ROOT
ATOM      1  C   UNL     1       4.572   2.952  -1.812  1.00  0.00     0.023 C 
ENDROOT
BRANCH   1   2
ATOM      2  C   UNL     1       3.624   3.892  -1.078  1.00  0.00     0.116 C 
BRANCH   2   3
ATOM      3  N   UNL     1       2.582   4.369  -1.964  1.00  0.00    -0.354 N 
ATOM      4  C   UNL     1       1.229   4.388  -1.797  1.00  0.00     0.242 C 
ATOM      5  O   UNL     1       0.537   4.725  -2.766  1.00  0.00    -0.273 OA
ATOM      6  H   UNL     1       2.900   4.737  -2.820  1.00  0.00     0.163 HD
BRANCH   4   7
ATOM      7  C   UNL     1       0.568   3.846  -0.505  1.00  0.00     0.174 C 
BRANCH   7   8
ATOM      8  C   UNL     1       0.614   2.274  -0.548  1.00  0.00     0.018 C 
ATOM      9  C   UNL     1      -0.213   1.629   0.578  1.00  0.00     0.010 C 
BRANCH   8  10
ATOM     10  C   UNL     1       0.182   1.675  -1.911  1.00  0.00     0.002 C 
ATOM     11  C   UNL     1       0.577   0.210  -2.069  1.00  0.00     0.004 C 
ENDBRANCH   8  10
ENDBRANCH   7   8
BRANCH   7  12
ATOM     12  N   UNL     1       1.183   4.326   0.759  1.00  0.00    -0.339 N 
ATOM     13  C   UNL     1       1.527   5.582   1.202  1.00  0.00     0.271 C 
ATOM     14  H   UNL     1       1.382   3.608   1.402  1.00  0.00     0.164 HD
ATOM     15  O   UNL     1       1.810   5.705   2.395  1.00  0.00    -0.267 OA
BRANCH  13  16
ATOM     16  C   UNL     1       1.728   6.668   0.248  1.00  0.00     0.141 A 
ATOM     17  C   UNL     1       2.819   7.520   0.313  1.00  0.00     0.102 A 
ATOM     18  N   UNL     1       0.897   6.896  -0.838  1.00  0.00    -0.215 NA
ATOM     19  S   UNL     1       2.913   8.454  -1.119  1.00  0.00    -0.104 S 
ATOM     20  C   UNL     1       1.499   7.698  -1.688  1.00  0.00     0.190 A 
BRANCH  20  21
ATOM     21  N   UNL     1       1.005   7.881  -2.952  1.00  0.00    -0.302 N 
ATOM     22  C   UNL     1       1.691   8.400  -4.025  1.00  0.00     0.223 C 
ATOM     23  H   UNL     1       0.070   7.615  -3.108  1.00  0.00     0.172 HD
ATOM     24  C   UNL     1       0.845   8.500  -5.270  1.00  0.00     0.114 C 
ATOM     25  O   UNL     1       2.872   8.727  -4.052  1.00  0.00    -0.275 OA
ENDBRANCH  20  21
ENDBRANCH  13  16
ENDBRANCH   7  12
ENDBRANCH   4   7
ENDBRANCH   2   3
ENDBRANCH   1   2
BRANCH   1  26
ATOM     26  C   UNL     1       5.424   3.638  -2.882  1.00  0.00     0.023 C 
BRANCH  26  27
ATOM     27  C   UNL     1       6.276   4.793  -2.372  1.00  0.00     0.116 C 
BRANCH  27  28
ATOM     28  N   UNL     1       7.229   4.378  -1.350  1.00  0.00    -0.352 N 
ATOM     29  C   UNL     1       8.540   4.770  -1.222  1.00  0.00     0.251 C 
ATOM     30  H   UNL     1       6.895   3.744  -0.675  1.00  0.00     0.163 HD
ATOM     31  O   UNL     1       9.280   4.248  -0.396  1.00  0.00    -0.269 OA
BRANCH  29  32
ATOM     32  C   UNL     1       9.038   5.817  -2.132  1.00  0.00     0.039 A 
ATOM     33  C   UNL     1      10.094   5.523  -2.997  1.00  0.00     0.014 A 
ATOM     34  C   UNL     1       8.370   7.043  -2.199  1.00  0.00     0.014 A 
ATOM     35  C   UNL     1      10.440   6.442  -3.987  1.00  0.00     0.010 A 
ATOM     36  C   UNL     1       8.679   7.929  -3.221  1.00  0.00     0.010 A 
ATOM     37  C   UNL     1       9.711   7.634  -4.128  1.00  0.00    -0.014 A 
BRANCH  37  38
ATOM     38  C   UNL     1       9.989   8.597  -5.220  1.00  0.00     0.031 A 
ATOM     39  C   UNL     1      10.486   9.972  -4.883  1.00  0.00     0.074 A 
ATOM     40  C   UNL     1       9.676   8.279  -6.490  1.00  0.00     0.049 A 
ATOM     41  N   UNL     1      10.637  11.010  -5.664  1.00  0.00    -0.248 NA
ATOM     42  C   UNL     1      10.825  10.220  -3.473  1.00  0.00     0.031 C 
ATOM     43  C   UNL     1       9.139   6.991  -6.935  1.00  0.00     0.029 A 
ATOM     44  N   UNL     1       9.732   9.030  -7.637  1.00  0.00    -0.354 N 
ATOM     45  C   UNL     1      11.046  12.045  -4.833  1.00  0.00     0.074 A 
ATOM     46  C   UNL     1      11.095  11.516  -3.487  1.00  0.00     0.031 C 
ATOM     47  C   UNL     1       8.912   7.044  -8.258  1.00  0.00     0.029 A 
ATOM     48  C   UNL     1       9.248   8.379  -8.746  1.00  0.00     0.049 A 
ATOM     49  H   UNL     1      10.086   9.949  -7.663  1.00  0.00     0.167 HD
ATOM     50  C   UNL     1      11.358  13.321  -5.163  1.00  0.00     0.031 A 
ATOM     51  C   UNL     1       9.072   8.812 -10.009  1.00  0.00     0.031 A 
ATOM     52  C   UNL     1      11.321  13.837  -6.503  1.00  0.00     0.049 A 
ATOM     53  C   UNL     1       9.456  10.220 -10.364  1.00  0.00     0.074 A 
ATOM     54  C   UNL     1      11.685  15.093  -6.954  1.00  0.00     0.029 A 
ATOM     55  N   UNL     1      10.887  13.123  -7.611  1.00  0.00    -0.354 N 
ATOM     56  N   UNL     1       9.911  11.168  -9.581  1.00  0.00    -0.248 NA
ATOM     57  C   UNL     1       9.315  10.614 -11.773  1.00  0.00     0.031 C 
ATOM     58  C   UNL     1      11.440  15.150  -8.330  1.00  0.00     0.029 A 
ATOM     59  C   UNL     1      10.962  13.916  -8.743  1.00  0.00     0.049 A 
ATOM     60  H   UNL     1      10.573  12.190  -7.594  1.00  0.00     0.167 HD
ATOM     61  C   UNL     1      10.131  12.267 -10.403  1.00  0.00     0.074 A 
ATOM     62  C   UNL     1       9.766  11.863 -11.747  1.00  0.00     0.031 C 
ATOM     63  C   UNL     1      10.599  13.496 -10.074  1.00  0.00     0.031 A 
BRANCH  50  64
ATOM     64  C   UNL     1      11.738  14.242  -4.035  1.00  0.00    -0.014 A 
ATOM     65  C   UNL     1      12.957  14.089  -3.350  1.00  0.00     0.010 A 
ATOM     66  C   UNL     1      10.852  15.259  -3.639  1.00  0.00     0.010 A 
ATOM     67  C   UNL     1      13.252  14.891  -2.244  1.00  0.00     0.020 A 
ATOM     68  C   UNL     1      11.155  16.082  -2.551  1.00  0.00     0.020 A 
ATOM     69  C   UNL     1      12.341  15.873  -1.843  1.00  0.00     0.054 A 
BRANCH  69  70
ATOM     70  S   UNL     1      12.728  16.882  -0.387  1.00  0.00     0.124 S 
ATOM     71  O   UNL     1      12.388  15.974   0.706  1.00  0.00    -0.237 OA
ATOM     72  O   UNL     1      14.153  17.158  -0.552  1.00  0.00    -0.237 OA
ATOM     73  O   UNL     1      11.852  18.043  -0.529  1.00  0.00    -0.744 OA
ENDBRANCH  69  70
ENDBRANCH  50  64
BRANCH  51  74
ATOM     74  C   UNL     1       8.513   7.880 -11.024  1.00  0.00    -0.014 A 
ATOM     75  C   UNL     1       9.357   7.266 -11.965  1.00  0.00     0.010 A 
ATOM     76  C   UNL     1       7.147   7.542 -11.003  1.00  0.00     0.010 A 
ATOM     77  C   UNL     1       8.847   6.322 -12.862  1.00  0.00     0.020 A 
ATOM     78  C   UNL     1       6.638   6.585 -11.886  1.00  0.00     0.020 A 
ATOM     79  C   UNL     1       7.492   5.981 -12.811  1.00  0.00     0.054 A 
BRANCH  79  80
ATOM     80  S   UNL     1       6.875   4.676 -13.911  1.00  0.00     0.124 S 
ATOM     81  O   UNL     1       6.785   5.372 -15.190  1.00  0.00    -0.237 OA
ATOM     82  O   UNL     1       7.921   3.659 -13.816  1.00  0.00    -0.237 OA
ATOM     83  O   UNL     1       5.598   4.299 -13.309  1.00  0.00    -0.744 OA
ENDBRANCH  79  80
ENDBRANCH  51  74
BRANCH  63  84
ATOM     84  C   UNL     1      10.779  14.493 -11.185  1.00  0.00    -0.014 A 
ATOM     85  C   UNL     1       9.680  15.172 -11.737  1.00  0.00     0.010 A 
ATOM     86  C   UNL     1      12.078  14.818 -11.616  1.00  0.00     0.010 A 
ATOM     87  C   UNL     1       9.877  16.155 -12.711  1.00  0.00     0.020 A 
ATOM     88  C   UNL     1      12.280  15.814 -12.575  1.00  0.00     0.020 A 
ATOM     89  C   UNL     1      11.176  16.472 -13.122  1.00  0.00     0.054 A 
BRANCH  89  90
ATOM     90  S   UNL     1      11.413  17.803 -14.331  1.00  0.00     0.124 S 
ATOM     91  O   UNL     1      11.039  17.148 -15.582  1.00  0.00    -0.237 OA
ATOM     92  O   UNL     1      10.491  18.835 -13.862  1.00  0.00    -0.237 OA
ATOM     93  O   UNL     1      12.830  18.138 -14.202  1.00  0.00    -0.744 OA
ENDBRANCH  89  90
ENDBRANCH  63  84
ENDBRANCH  37  38
ENDBRANCH  29  32
ENDBRANCH  27  28
ENDBRANCH  26  27
ENDBRANCH   1  26
TORSDOF 19
