REMARK SMILES CN1C(=O)/C(=C\c2ccc(-c3ccccc3C(=O)NCCCCNC(=O)c3ccc(-c4c5nc(c(-c6ccc(S(=O)(=O)[O-])cc6)c6ccc([nH]6)c(-c6ccc(S(=O)(=O)[O-])cc6)c6nc(c(-c7ccc(S(=O)(=O)[O-])cc7)c7ccc4[nH]7)C=C6)C=C5)cc3)o2)C(=O)[NH+]=C1S
REMARK SMILES IDX 21 1 20 2 19 3 17 4 18 5 16 7 11 8 12 9 13 10 15 11 14 12
REMARK SMILES IDX 10 13 7 14 8 15 87 16 9 17 6 18 1 19 2 20 3 21 91 22 4 23
REMARK SMILES IDX 5 24 90 25 88 26 89 28 92 29 22 31 23 32 24 33 25 34 26 36
REMARK SMILES IDX 27 37 28 38 86 39 29 40 85 41 30 42 31 43 32 44 79 45 33 46
REMARK SMILES IDX 84 47 78 48 80 49 34 50 83 51 77 52 76 53 35 55 65 56 46 57
REMARK SMILES IDX 64 58 47 59 50 60 63 61 81 62 48 63 49 64 62 66 82 67 51 68
REMARK SMILES IDX 36 69 37 70 45 71 38 72 44 73 39 74 40 75 41 76 42 77 43 78
REMARK SMILES IDX 66 79 67 80 75 81 68 82 74 83 69 84 70 85 71 86 72 87 73 88
REMARK SMILES IDX 52 89 53 90 61 91 54 92 60 93 55 94 56 95 57 96 58 97 59 98
REMARK H PARENT 19 6 90 27 92 30 24 35 80 54 50 65
REMARK Flexibility Score: inf
ROOT
ATOM      1  C   UNL     1       2.422  -5.795   3.956  1.00  0.00     0.023 C 
ENDROOT
BRANCH   1   2
ATOM      2  C   UNL     1       2.838  -6.469   2.651  1.00  0.00     0.116 C 
BRANCH   2   3
ATOM      3  N   UNL     1       2.626  -7.893   2.655  1.00  0.00    -0.352 N 
ATOM      4  C   UNL     1       1.877  -8.814   1.991  1.00  0.00     0.252 C 
ATOM      5  O   UNL     1       2.365  -9.951   2.088  1.00  0.00    -0.269 OA
ATOM      6  H   UNL     1       3.187  -8.327   3.338  1.00  0.00     0.163 HD
BRANCH   4   7
ATOM      7  C   UNL     1       0.568  -8.683   1.254  1.00  0.00     0.050 A 
ATOM      8  C   UNL     1      -0.205  -7.573   0.865  1.00  0.00     0.030 A 
ATOM      9  C   UNL     1      -1.466  -7.788   0.239  1.00  0.00     0.013 A 
ATOM     10  C   UNL     1      -1.957  -9.059  -0.046  1.00  0.00     0.001 A 
ATOM     11  C   UNL     1       0.029  -9.966   0.933  1.00  0.00     0.014 A 
ATOM     12  C   UNL     1      -1.195 -10.157   0.291  1.00  0.00     0.001 A 
BRANCH   8  13
ATOM     13  C   UNL     1       0.178  -6.178   0.892  1.00  0.00     0.135 A 
ATOM     14  C   UNL     1       0.019  -4.089   1.673  1.00  0.00     0.128 A 
ATOM     15  C   UNL     1       0.827  -4.081   0.539  1.00  0.00     0.051 A 
ATOM     16  O   UNL     1      -0.356  -5.409   1.881  1.00  0.00    -0.457 OA
ATOM     17  C   UNL     1       0.864  -5.387   0.002  1.00  0.00     0.051 A 
BRANCH  14  18
ATOM     18  C   UNL     1      -0.338  -3.060   2.597  1.00  0.00     0.071 C 
ATOM     19  C   UNL     1       0.935   0.731  -0.105  1.00  0.00     0.301 C 
ATOM     20  N   UNL     1       0.327   0.198   1.109  1.00  0.00    -0.189 N 
ATOM     21  C   UNL     1      -0.161  -1.086   1.056  1.00  0.00     0.349 C 
ATOM     22  C   UNL     1       0.138   0.932   2.252  1.00  0.00     0.318 C 
ATOM     23  O   UNL     1      -0.494  -1.632   0.007  1.00  0.00    -0.240 OA
ATOM     24  C   UNL     1      -0.357  -1.731   2.368  1.00  0.00     0.157 C 
ATOM     25  N   UNL     1      -0.334   0.485   3.361  1.00  0.00    -0.200 N 
ATOM     26  C   UNL     1      -0.574  -0.846   3.540  1.00  0.00     0.347 C 
ATOM     27  H   UNL     1      -0.525   1.114   4.094  1.00  0.00     0.316 HD
ATOM     28  O   UNL     1      -0.946  -1.299   4.618  1.00  0.00    -0.241 OA
BRANCH  22  29
ATOM     29  S   UNL     1       0.487   2.646   2.210  1.00  0.00    -0.055 SA
ATOM     30  H   UNL     1       0.976   2.979   0.986  1.00  0.00     0.116 HD
ENDBRANCH  22  29
ENDBRANCH  14  18
ENDBRANCH   8  13
ENDBRANCH   4   7
ENDBRANCH   2   3
ENDBRANCH   1   2
BRANCH   1  31
ATOM     31  C   UNL     1       3.537  -4.966   4.596  1.00  0.00     0.023 C 
BRANCH  31  32
ATOM     32  C   UNL     1       4.234  -3.952   3.696  1.00  0.00     0.116 C 
BRANCH  32  33
ATOM     33  N   UNL     1       3.382  -2.878   3.210  1.00  0.00    -0.352 N 
ATOM     34  C   UNL     1       3.728  -1.554   3.019  1.00  0.00     0.251 C 
ATOM     35  H   UNL     1       2.453  -3.122   2.993  1.00  0.00     0.163 HD
ATOM     36  O   UNL     1       2.902  -0.746   2.605  1.00  0.00    -0.269 OA
BRANCH  34  37
ATOM     37  C   UNL     1       5.105  -1.133   3.377  1.00  0.00     0.039 A 
ATOM     38  C   UNL     1       5.288  -0.156   4.357  1.00  0.00     0.014 A 
ATOM     39  C   UNL     1       6.201  -1.835   2.866  1.00  0.00     0.014 A 
ATOM     40  C   UNL     1       6.560   0.032   4.911  1.00  0.00     0.010 A 
ATOM     41  C   UNL     1       7.441  -1.711   3.486  1.00  0.00     0.010 A 
ATOM     42  C   UNL     1       7.633  -0.792   4.530  1.00  0.00    -0.014 A 
BRANCH  42  43
ATOM     43  C   UNL     1       8.946  -0.745   5.233  1.00  0.00     0.031 A 
ATOM     44  C   UNL     1      10.204  -0.412   4.474  1.00  0.00     0.074 A 
ATOM     45  C   UNL     1       9.027  -1.084   6.537  1.00  0.00     0.049 A 
ATOM     46  N   UNL     1      11.442  -0.384   4.896  1.00  0.00    -0.248 NA
ATOM     47  C   UNL     1      10.050  -0.103   3.044  1.00  0.00     0.031 C 
ATOM     48  C   UNL     1       7.898  -1.476   7.386  1.00  0.00     0.029 A 
ATOM     49  N   UNL     1      10.109  -1.155   7.382  1.00  0.00    -0.354 N 
ATOM     50  C   UNL     1      12.214  -0.072   3.783  1.00  0.00     0.074 A 
ATOM     51  C   UNL     1      11.310   0.013   2.656  1.00  0.00     0.031 C 
ATOM     52  C   UNL     1       8.338  -1.694   8.636  1.00  0.00     0.029 A 
ATOM     53  C   UNL     1       9.784  -1.505   8.673  1.00  0.00     0.049 A 
ATOM     54  H   UNL     1      11.031  -0.972   7.090  1.00  0.00     0.167 HD
ATOM     55  C   UNL     1      13.548   0.153   3.703  1.00  0.00     0.031 A 
ATOM     56  C   UNL     1      10.559  -1.651   9.766  1.00  0.00     0.031 A 
ATOM     57  C   UNL     1      14.448   0.072   4.822  1.00  0.00     0.049 A 
ATOM     58  C   UNL     1      12.042  -1.419   9.654  1.00  0.00     0.074 A 
ATOM     59  C   UNL     1      15.808   0.325   4.855  1.00  0.00     0.029 A 
ATOM     60  N   UNL     1      14.078  -0.292   6.108  1.00  0.00    -0.354 N 
ATOM     61  N   UNL     1      12.743  -1.066   8.603  1.00  0.00    -0.248 NA
ATOM     62  C   UNL     1      12.835  -1.599  10.878  1.00  0.00     0.031 C 
ATOM     63  C   UNL     1      16.268   0.070   6.152  1.00  0.00     0.029 A 
ATOM     64  C   UNL     1      15.186  -0.289   6.939  1.00  0.00     0.049 A 
ATOM     65  H   UNL     1      13.162  -0.519   6.389  1.00  0.00     0.167 HD
ATOM     66  C   UNL     1      14.056  -0.950   9.046  1.00  0.00     0.074 A 
ATOM     67  C   UNL     1      14.050  -1.264  10.461  1.00  0.00     0.031 C 
ATOM     68  C   UNL     1      15.165  -0.608   8.345  1.00  0.00     0.031 A 
BRANCH  55  69
ATOM     69  C   UNL     1      14.101   0.498   2.343  1.00  0.00    -0.014 A 
ATOM     70  C   UNL     1      13.772   1.715   1.716  1.00  0.00     0.010 A 
ATOM     71  C   UNL     1      14.935  -0.412   1.671  1.00  0.00     0.010 A 
ATOM     72  C   UNL     1      14.200   1.979   0.413  1.00  0.00     0.020 A 
ATOM     73  C   UNL     1      15.394  -0.137   0.379  1.00  0.00     0.020 A 
ATOM     74  C   UNL     1      14.997   1.044  -0.253  1.00  0.00     0.054 A 
BRANCH  74  75
ATOM     75  S   UNL     1      15.505   1.392  -1.959  1.00  0.00     0.124 S 
ATOM     76  O   UNL     1      14.270   1.131  -2.696  1.00  0.00    -0.237 OA
ATOM     77  O   UNL     1      15.912   2.793  -1.895  1.00  0.00    -0.237 OA
ATOM     78  O   UNL     1      16.587   0.441  -2.199  1.00  0.00    -0.744 OA
ENDBRANCH  74  75
ENDBRANCH  55  69
BRANCH  56  79
ATOM     79  C   UNL     1       9.938  -1.985  11.078  1.00  0.00    -0.014 A 
ATOM     80  C   UNL     1       9.850  -1.005  12.084  1.00  0.00     0.010 A 
ATOM     81  C   UNL     1       9.408  -3.264  11.324  1.00  0.00     0.010 A 
ATOM     82  C   UNL     1       9.248  -1.298  13.311  1.00  0.00     0.020 A 
ATOM     83  C   UNL     1       8.783  -3.554  12.542  1.00  0.00     0.020 A 
ATOM     84  C   UNL     1       8.712  -2.569  13.530  1.00  0.00     0.054 A 
BRANCH  84  85
ATOM     85  S   UNL     1       7.871  -2.901  15.104  1.00  0.00     0.124 S 
ATOM     86  O   UNL     1       8.991  -2.973  16.038  1.00  0.00    -0.237 OA
ATOM     87  O   UNL     1       7.000  -1.737  15.247  1.00  0.00    -0.237 OA
ATOM     88  O   UNL     1       7.176  -4.163  14.860  1.00  0.00    -0.744 OA
ENDBRANCH  84  85
ENDBRANCH  56  79
BRANCH  68  89
ATOM     89  C   UNL     1      16.464  -0.520   9.101  1.00  0.00    -0.014 A 
ATOM     90  C   UNL     1      17.136  -1.676   9.536  1.00  0.00     0.010 A 
ATOM     91  C   UNL     1      17.050   0.740   9.325  1.00  0.00     0.010 A 
ATOM     92  C   UNL     1      18.359  -1.571  10.205  1.00  0.00     0.020 A 
ATOM     93  C   UNL     1      18.285   0.846   9.970  1.00  0.00     0.020 A 
ATOM     94  C   UNL     1      18.926  -0.310  10.417  1.00  0.00     0.054 A 
BRANCH  94  95
ATOM     95  S   UNL     1      20.540  -0.204  11.239  1.00  0.00     0.124 S 
ATOM     96  O   UNL     1      20.192  -0.486  12.629  1.00  0.00    -0.237 OA
ATOM     97  O   UNL     1      21.313  -1.242  10.562  1.00  0.00    -0.237 OA
ATOM     98  O   UNL     1      20.976   1.164  10.970  1.00  0.00    -0.744 OA
ENDBRANCH  94  95
ENDBRANCH  68  89
ENDBRANCH  42  43
ENDBRANCH  34  37
ENDBRANCH  32  33
ENDBRANCH  31  32
ENDBRANCH   1  31
TORSDOF 17
