REMARK SMILES CN(C)S(=O)(=O)Nc1ccc(-n2nnc(C(=O)NCCCCNC(=O)c3ccc(-c4c5nc(c(-c6ccc(S(=O)(=O)[O-])cc6)c6ccc([nH]6)c(-c6ccc(S(=O)(=O)[O-])cc6)c6nc(c(-c7ccc(S(=O)(=O)[O-])cc7)c7ccc4[nH]7)C=C6)C=C5)cc3)c2N)cc1
REMARK SMILES IDX 20 1 19 2 18 3 16 4 17 5 15 7 12 8 13 9 86 10 14 11 11 12
REMARK SMILES IDX 8 13 9 14 89 15 10 16 88 17 7 18 4 20 5 21 6 22 2 23 1 24
REMARK SMILES IDX 3 25 87 26 21 29 22 30 23 31 24 32 25 34 26 35 27 36 85 37
REMARK SMILES IDX 28 38 84 39 29 40 30 41 31 42 78 43 32 44 83 45 77 46 79 47
REMARK SMILES IDX 33 48 82 49 76 50 75 51 34 53 64 54 45 55 63 56 46 57 49 58
REMARK SMILES IDX 62 59 80 60 47 61 48 62 61 64 81 65 50 66 35 67 36 68 44 69
REMARK SMILES IDX 37 70 43 71 38 72 39 73 40 74 41 75 42 76 65 77 66 78 74 79
REMARK SMILES IDX 67 80 73 81 68 82 69 83 70 84 71 85 72 86 51 87 52 88 60 89
REMARK SMILES IDX 53 90 59 91 54 92 55 93 56 94 57 95 58 96
REMARK H PARENT 18 6 7 19 87 27 87 28 23 33 79 52 49 63
REMARK Flexibility Score: inf
ROOT
ATOM      1  C   UNL     1      -7.543  -7.450  -1.652  1.00  0.00     0.023 C 
ENDROOT
BRANCH   1   2
ATOM      2  C   UNL     1      -6.977  -6.651  -0.484  1.00  0.00     0.116 C 
BRANCH   2   3
ATOM      3  N   UNL     1      -7.224  -7.120   0.867  1.00  0.00    -0.351 N 
ATOM      4  C   UNL     1      -6.323  -7.182   1.932  1.00  0.00     0.275 C 
ATOM      5  O   UNL     1      -6.741  -7.600   3.011  1.00  0.00    -0.267 OA
ATOM      6  H   UNL     1      -8.138  -7.432   1.056  1.00  0.00     0.163 HD
BRANCH   4   7
ATOM      7  C   UNL     1      -4.916  -6.826   1.733  1.00  0.00     0.194 A 
ATOM      8  N   UNL     1      -2.995  -6.112   0.933  1.00  0.00    -0.197 N 
ATOM      9  N   UNL     1      -2.750  -7.202   1.697  1.00  0.00    -0.059 NA
ATOM     10  C   UNL     1      -4.360  -5.797   0.985  1.00  0.00     0.161 A 
ATOM     11  N   UNL     1      -3.897  -7.611   2.225  1.00  0.00    -0.122 NA
BRANCH   8  12
ATOM     12  C   UNL     1      -1.973  -5.480   0.172  1.00  0.00     0.069 A 
ATOM     13  C   UNL     1      -0.012  -4.142  -1.316  1.00  0.00     0.050 A 
ATOM     14  C   UNL     1       0.230  -5.433  -0.830  1.00  0.00     0.029 A 
ATOM     15  C   UNL     1      -1.284  -3.623  -1.222  1.00  0.00     0.029 A 
ATOM     16  C   UNL     1      -0.753  -6.113  -0.091  1.00  0.00     0.031 A 
ATOM     17  C   UNL     1      -2.198  -4.215  -0.370  1.00  0.00     0.031 A 
BRANCH  13  18
ATOM     18  N   UNL     1       1.055  -3.424  -1.921  1.00  0.00    -0.271 N 
ATOM     19  H   UNL     1       1.801  -3.936  -2.308  1.00  0.00     0.181 HD
BRANCH  18  20
ATOM     20  S   UNL     1       1.110  -1.742  -2.011  1.00  0.00     0.301 S 
ATOM     21  O   UNL     1       0.032  -1.295  -2.871  1.00  0.00    -0.189 OA
ATOM     22  O   UNL     1       2.477  -1.450  -2.366  1.00  0.00    -0.189 OA
BRANCH  20  23
ATOM     23  N   UNL     1       0.830  -1.179  -0.426  1.00  0.00    -0.191 NA
ATOM     24  C   UNL     1       1.651  -0.000  -0.067  1.00  0.00     0.125 C 
ATOM     25  C   UNL     1      -0.575  -0.952   0.010  1.00  0.00     0.125 C 
ENDBRANCH  20  23
ENDBRANCH  18  20
ENDBRANCH  13  18
ENDBRANCH   8  12
BRANCH  10  26
ATOM     26  N   UNL     1      -4.945  -4.772   0.302  1.00  0.00    -0.382 N 
ATOM     27  H   UNL     1      -4.387  -4.121  -0.182  1.00  0.00     0.158 HD
ATOM     28  H   UNL     1      -5.926  -4.683   0.292  1.00  0.00     0.158 HD
ENDBRANCH  10  26
ENDBRANCH   4   7
ENDBRANCH   2   3
ENDBRANCH   1   2
BRANCH   1  29
ATOM     29  C   UNL     1      -9.019  -7.284  -2.001  1.00  0.00     0.023 C 
BRANCH  29  30
ATOM     30  C   UNL     1      -9.499  -5.853  -2.200  1.00  0.00     0.116 C 
BRANCH  30  31
ATOM     31  N   UNL     1      -8.919  -5.154  -3.351  1.00  0.00    -0.352 N 
ATOM     32  C   UNL     1      -9.332  -3.927  -3.859  1.00  0.00     0.251 C 
ATOM     33  H   UNL     1      -8.167  -5.595  -3.807  1.00  0.00     0.163 HD
ATOM     34  O   UNL     1      -9.043  -3.576  -4.996  1.00  0.00    -0.269 OA
BRANCH  32  35
ATOM     35  C   UNL     1     -10.107  -3.043  -2.967  1.00  0.00     0.039 A 
ATOM     36  C   UNL     1     -11.271  -2.381  -3.371  1.00  0.00     0.014 A 
ATOM     37  C   UNL     1      -9.664  -2.966  -1.650  1.00  0.00     0.014 A 
ATOM     38  C   UNL     1     -12.028  -1.714  -2.405  1.00  0.00     0.010 A 
ATOM     39  C   UNL     1     -10.498  -2.479  -0.683  1.00  0.00     0.010 A 
ATOM     40  C   UNL     1     -11.643  -1.788  -1.056  1.00  0.00    -0.014 A 
BRANCH  40  41
ATOM     41  C   UNL     1     -12.482  -1.272   0.021  1.00  0.00     0.031 A 
ATOM     42  C   UNL     1     -13.845  -1.866   0.048  1.00  0.00     0.074 A 
ATOM     43  C   UNL     1     -11.982  -0.539   1.044  1.00  0.00     0.049 A 
ATOM     44  N   UNL     1     -14.954  -1.306  -0.305  1.00  0.00    -0.248 NA
ATOM     45  C   UNL     1     -13.974  -3.312   0.311  1.00  0.00     0.031 C 
ATOM     46  C   UNL     1     -10.577  -0.185   1.301  1.00  0.00     0.029 A 
ATOM     47  N   UNL     1     -12.605  -0.051   2.150  1.00  0.00    -0.354 N 
ATOM     48  C   UNL     1     -15.949  -2.241  -0.035  1.00  0.00     0.074 A 
ATOM     49  C   UNL     1     -15.277  -3.507   0.097  1.00  0.00     0.031 C 
ATOM     50  C   UNL     1     -10.433   0.228   2.581  1.00  0.00     0.029 A 
ATOM     51  C   UNL     1     -11.749   0.351   3.175  1.00  0.00     0.049 A 
ATOM     52  H   UNL     1     -13.585   0.015   2.220  1.00  0.00     0.167 HD
ATOM     53  C   UNL     1     -17.189  -1.847   0.375  1.00  0.00     0.031 A 
ATOM     54  C   UNL     1     -12.095   0.750   4.428  1.00  0.00     0.031 A 
ATOM     55  C   UNL     1     -17.362  -0.426   0.198  1.00  0.00     0.049 A 
ATOM     56  C   UNL     1     -13.520   1.146   4.365  1.00  0.00     0.074 A 
ATOM     57  C   UNL     1     -17.353   0.442  -0.873  1.00  0.00     0.029 A 
ATOM     58  N   UNL     1     -17.161   0.337   1.324  1.00  0.00    -0.354 N 
ATOM     59  N   UNL     1     -13.954   2.149   3.652  1.00  0.00    -0.248 NA
ATOM     60  C   UNL     1     -14.518   0.150   4.714  1.00  0.00     0.031 C 
ATOM     61  C   UNL     1     -16.721   1.623  -0.383  1.00  0.00     0.029 A 
ATOM     62  C   UNL     1     -16.458   1.457   0.980  1.00  0.00     0.049 A 
ATOM     63  H   UNL     1     -17.473   0.112   2.231  1.00  0.00     0.167 HD
ATOM     64  C   UNL     1     -15.141   1.697   3.093  1.00  0.00     0.074 A 
ATOM     65  C   UNL     1     -15.490   0.506   3.869  1.00  0.00     0.031 C 
ATOM     66  C   UNL     1     -15.568   2.163   1.882  1.00  0.00     0.031 A 
BRANCH  53  67
ATOM     67  C   UNL     1     -18.038  -2.614   1.369  1.00  0.00    -0.014 A 
ATOM     68  C   UNL     1     -19.286  -2.070   1.742  1.00  0.00     0.010 A 
ATOM     69  C   UNL     1     -17.546  -3.672   2.161  1.00  0.00     0.010 A 
ATOM     70  C   UNL     1     -19.959  -2.503   2.893  1.00  0.00     0.020 A 
ATOM     71  C   UNL     1     -18.229  -4.140   3.286  1.00  0.00     0.020 A 
ATOM     72  C   UNL     1     -19.416  -3.529   3.664  1.00  0.00     0.054 A 
BRANCH  72  73
ATOM     73  S   UNL     1     -20.243  -4.021   5.195  1.00  0.00     0.124 S 
ATOM     74  O   UNL     1     -20.102  -2.820   6.011  1.00  0.00    -0.237 OA
ATOM     75  O   UNL     1     -21.595  -4.320   4.730  1.00  0.00    -0.237 OA
ATOM     76  O   UNL     1     -19.472  -5.179   5.642  1.00  0.00    -0.744 OA
ENDBRANCH  72  73
ENDBRANCH  53  67
BRANCH  54  77
ATOM     77  C   UNL     1     -11.386   0.502   5.713  1.00  0.00    -0.014 A 
ATOM     78  C   UNL     1     -11.693   1.229   6.881  1.00  0.00     0.010 A 
ATOM     79  C   UNL     1     -10.602  -0.661   5.862  1.00  0.00     0.010 A 
ATOM     80  C   UNL     1     -11.271   0.784   8.151  1.00  0.00     0.020 A 
ATOM     81  C   UNL     1     -10.179  -1.110   7.121  1.00  0.00     0.020 A 
ATOM     82  C   UNL     1     -10.529  -0.394   8.264  1.00  0.00     0.054 A 
BRANCH  82  83
ATOM     83  S   UNL     1     -10.111  -1.044   9.913  1.00  0.00     0.124 S 
ATOM     84  O   UNL     1      -9.139  -0.066  10.395  1.00  0.00    -0.237 OA
ATOM     85  O   UNL     1     -11.402  -1.040  10.595  1.00  0.00    -0.237 OA
ATOM     86  O   UNL     1      -9.566  -2.371   9.632  1.00  0.00    -0.744 OA
ENDBRANCH  82  83
ENDBRANCH  54  77
BRANCH  66  87
ATOM     87  C   UNL     1     -14.954   3.433   1.339  1.00  0.00    -0.014 A 
ATOM     88  C   UNL     1     -13.610   3.572   0.940  1.00  0.00     0.010 A 
ATOM     89  C   UNL     1     -15.847   4.485   1.070  1.00  0.00     0.010 A 
ATOM     90  C   UNL     1     -13.177   4.743   0.294  1.00  0.00     0.020 A 
ATOM     91  C   UNL     1     -15.428   5.640   0.412  1.00  0.00     0.020 A 
ATOM     92  C   UNL     1     -14.093   5.769   0.032  1.00  0.00     0.054 A 
BRANCH  92  93
ATOM     93  S   UNL     1     -13.554   7.259  -0.855  1.00  0.00     0.124 S 
ATOM     94  O   UNL     1     -12.677   7.906   0.117  1.00  0.00    -0.237 OA
ATOM     95  O   UNL     1     -12.891   6.713  -2.036  1.00  0.00    -0.237 OA
ATOM     96  O   UNL     1     -14.802   7.971  -1.130  1.00  0.00    -0.744 OA
ENDBRANCH  92  93
ENDBRANCH  66  87
ENDBRANCH  40  41
ENDBRANCH  32  35
ENDBRANCH  30  31
ENDBRANCH  29  30
ENDBRANCH   1  29
TORSDOF 19
