REMARK SMILES O=C(NCCCCNC(=O)C1CC[NH+]([C@H]2CC(=O)N(c3ccc4c(c3)OCCO4)C2=O)CC1)c1ccc(-c2c3nc(c(-c4ccc(S(=O)(=O)[O-])cc4)c4ccc([nH]4)c(-c4ccc(S(=O)(=O)[O-])cc4)c4nc(c(-c5ccc(S(=O)(=O)[O-])cc5)c5ccc2[nH]5)C=C4)C=C3)cc1
REMARK SMILES IDX 5 1 4 2 3 3 1 4 2 5 34 7 35 8 93 9 36 10 92 11 37 12 38 13
REMARK SMILES IDX 39 14 86 15 40 16 91 17 85 18 87 19 41 20 90 21 84 22 83 23
REMARK SMILES IDX 42 25 72 26 53 27 71 28 54 29 57 30 70 31 88 32 55 33 56 34
REMARK SMILES IDX 69 36 89 37 58 38 43 39 44 40 52 41 45 42 51 43 46 44 47 45
REMARK SMILES IDX 48 46 49 47 50 48 73 49 74 50 82 51 75 52 81 53 76 54 77 55
REMARK SMILES IDX 78 56 79 57 80 58 59 59 60 60 68 61 61 62 67 63 62 64 63 65
REMARK SMILES IDX 64 66 65 67 66 68 6 69 7 70 8 71 9 72 10 74 11 75 12 76
REMARK SMILES IDX 33 77 13 78 32 79 14 80 15 82 16 83 30 84 17 85 19 86 31 87
REMARK SMILES IDX 18 88 20 89 21 90 25 91 22 92 24 93 23 94 26 95 29 96 27 97
REMARK SMILES IDX 28 98
REMARK H PARENT 3 6 87 24 57 35 8 73 14 81
REMARK Flexibility Score: inf
ROOT
ATOM      1  C   UNL     1      14.852  12.603   2.183  1.00  0.00     0.023 C 
ENDROOT
BRANCH   1   2
ATOM      2  C   UNL     1      14.477  13.569   3.295  1.00  0.00     0.116 C 
BRANCH   2   3
ATOM      3  N   UNL     1      14.370  12.925   4.598  1.00  0.00    -0.352 N 
ATOM      4  O   UNL     1      14.948  12.547   6.755  1.00  0.00    -0.269 OA
ATOM      5  C   UNL     1      15.011  13.268   5.766  1.00  0.00     0.251 C 
ATOM      6  H   UNL     1      13.764  12.150   4.648  1.00  0.00     0.163 HD
BRANCH   5   7
ATOM      7  C   UNL     1      15.804  14.514   5.786  1.00  0.00     0.039 A 
ATOM      8  C   UNL     1      15.253  15.684   5.262  1.00  0.00     0.014 A 
ATOM      9  C   UNL     1      17.122  14.491   6.245  1.00  0.00     0.014 A 
ATOM     10  C   UNL     1      16.071  16.777   5.031  1.00  0.00     0.010 A 
ATOM     11  C   UNL     1      17.910  15.640   6.125  1.00  0.00     0.010 A 
ATOM     12  C   UNL     1      17.399  16.783   5.491  1.00  0.00    -0.014 A 
BRANCH  12  13
ATOM     13  C   UNL     1      18.180  18.041   5.383  1.00  0.00     0.031 A 
ATOM     14  C   UNL     1      19.440  18.128   4.568  1.00  0.00     0.074 A 
ATOM     15  C   UNL     1      17.695  19.133   6.010  1.00  0.00     0.049 A 
ATOM     16  N   UNL     1      20.204  19.170   4.356  1.00  0.00    -0.248 NA
ATOM     17  C   UNL     1      19.911  16.898   3.911  1.00  0.00     0.031 C 
ATOM     18  C   UNL     1      16.482  19.161   6.837  1.00  0.00     0.029 A 
ATOM     19  N   UNL     1      18.135  20.430   6.032  1.00  0.00    -0.354 N 
ATOM     20  C   UNL     1      21.251  18.724   3.557  1.00  0.00     0.074 A 
ATOM     21  C   UNL     1      21.039  17.308   3.343  1.00  0.00     0.031 C 
ATOM     22  C   UNL     1      16.241  20.419   7.226  1.00  0.00     0.029 A 
ATOM     23  C   UNL     1      17.325  21.270   6.757  1.00  0.00     0.049 A 
ATOM     24  H   UNL     1      18.952  20.731   5.572  1.00  0.00     0.167 HD
ATOM     25  C   UNL     1      22.288  19.434   3.049  1.00  0.00     0.031 A 
ATOM     26  C   UNL     1      17.448  22.578   7.044  1.00  0.00     0.031 A 
ATOM     27  C   UNL     1      22.490  20.844   3.276  1.00  0.00     0.049 A 
ATOM     28  C   UNL     1      18.633  23.323   6.505  1.00  0.00     0.074 A 
ATOM     29  C   UNL     1      23.499  21.657   2.788  1.00  0.00     0.029 A 
ATOM     30  N   UNL     1      21.674  21.650   4.057  1.00  0.00    -0.354 N 
ATOM     31  N   UNL     1      19.594  22.887   5.726  1.00  0.00    -0.248 NA
ATOM     32  C   UNL     1      18.749  24.736   6.882  1.00  0.00     0.031 C 
ATOM     33  C   UNL     1      23.328  22.938   3.323  1.00  0.00     0.029 A 
ATOM     34  C   UNL     1      22.174  22.943   4.088  1.00  0.00     0.049 A 
ATOM     35  H   UNL     1      20.861  21.348   4.522  1.00  0.00     0.167 HD
ATOM     36  C   UNL     1      20.423  23.979   5.506  1.00  0.00     0.074 A 
ATOM     37  C   UNL     1      19.829  25.101   6.206  1.00  0.00     0.031 C 
ATOM     38  C   UNL     1      21.575  24.047   4.796  1.00  0.00     0.031 A 
BRANCH  25  39
ATOM     39  C   UNL     1      23.305  18.703   2.208  1.00  0.00    -0.014 A 
ATOM     40  C   UNL     1      22.993  18.254   0.912  1.00  0.00     0.010 A 
ATOM     41  C   UNL     1      24.620  18.542   2.687  1.00  0.00     0.010 A 
ATOM     42  C   UNL     1      23.969  17.640   0.121  1.00  0.00     0.020 A 
ATOM     43  C   UNL     1      25.605  17.953   1.888  1.00  0.00     0.020 A 
ATOM     44  C   UNL     1      25.270  17.497   0.612  1.00  0.00     0.054 A 
BRANCH  44  45
ATOM     45  S   UNL     1      26.526  16.742  -0.459  1.00  0.00     0.124 S 
ATOM     46  O   UNL     1      26.088  15.348  -0.500  1.00  0.00    -0.237 OA
ATOM     47  O   UNL     1      26.369  17.485  -1.706  1.00  0.00    -0.237 OA
ATOM     48  O   UNL     1      27.779  16.979   0.252  1.00  0.00    -0.744 OA
ENDBRANCH  44  45
ENDBRANCH  25  39
BRANCH  26  49
ATOM     49  C   UNL     1      16.446  23.246   7.918  1.00  0.00    -0.014 A 
ATOM     50  C   UNL     1      15.614  24.262   7.417  1.00  0.00     0.010 A 
ATOM     51  C   UNL     1      16.322  22.864   9.267  1.00  0.00     0.010 A 
ATOM     52  C   UNL     1      14.704  24.907   8.258  1.00  0.00     0.020 A 
ATOM     53  C   UNL     1      15.387  23.479  10.100  1.00  0.00     0.020 A 
ATOM     54  C   UNL     1      14.598  24.512   9.595  1.00  0.00     0.054 A 
BRANCH  54  55
ATOM     55  S   UNL     1      13.399  25.352  10.665  1.00  0.00     0.124 S 
ATOM     56  O   UNL     1      14.034  26.649  10.869  1.00  0.00    -0.237 OA
ATOM     57  O   UNL     1      12.192  25.358   9.841  1.00  0.00    -0.237 OA
ATOM     58  O   UNL     1      13.334  24.493  11.845  1.00  0.00    -0.744 OA
ENDBRANCH  54  55
ENDBRANCH  26  49
BRANCH  38  59
ATOM     59  C   UNL     1      22.250  25.391   4.720  1.00  0.00    -0.014 A 
ATOM     60  C   UNL     1      22.863  25.965   5.848  1.00  0.00     0.010 A 
ATOM     61  C   UNL     1      22.282  26.083   3.496  1.00  0.00     0.010 A 
ATOM     62  C   UNL     1      23.454  27.228   5.765  1.00  0.00     0.020 A 
ATOM     63  C   UNL     1      22.903  27.330   3.400  1.00  0.00     0.020 A 
ATOM     64  C   UNL     1      23.468  27.903   4.541  1.00  0.00     0.054 A 
BRANCH  64  65
ATOM     65  S   UNL     1      24.261  29.531   4.454  1.00  0.00     0.124 S 
ATOM     66  O   UNL     1      23.306  30.373   5.170  1.00  0.00    -0.237 OA
ATOM     67  O   UNL     1      25.533  29.304   5.135  1.00  0.00    -0.237 OA
ATOM     68  O   UNL     1      24.366  29.790   3.020  1.00  0.00    -0.744 OA
ENDBRANCH  64  65
ENDBRANCH  38  59
ENDBRANCH  12  13
ENDBRANCH   5   7
ENDBRANCH   2   3
ENDBRANCH   1   2
BRANCH   1  69
ATOM     69  C   UNL     1      13.815  11.520   1.926  1.00  0.00     0.023 C 
BRANCH  69  70
ATOM     70  C   UNL     1      12.425  12.063   1.629  1.00  0.00     0.116 C 
BRANCH  70  71
ATOM     71  N   UNL     1      12.365  12.758   0.348  1.00  0.00    -0.356 N 
ATOM     72  C   UNL     1      11.472  12.570  -0.677  1.00  0.00     0.223 C 
ATOM     73  H   UNL     1      13.050  13.449   0.201  1.00  0.00     0.163 HD
ATOM     74  O   UNL     1      11.541  13.262  -1.687  1.00  0.00    -0.275 OA
BRANCH  72  75
ATOM     75  C   UNL     1      10.398  11.518  -0.459  1.00  0.00     0.089 C 
ATOM     76  C   UNL     1       9.803  10.937  -1.753  1.00  0.00     0.075 C 
ATOM     77  C   UNL     1       9.416  12.041   0.609  1.00  0.00     0.075 C 
ATOM     78  C   UNL     1       8.281  10.966  -1.876  1.00  0.00     0.263 C 
ATOM     79  C   UNL     1       7.966  12.116   0.181  1.00  0.00     0.263 C 
ATOM     80  N   UNL     1       7.543  10.974  -0.615  1.00  0.00    -0.324 N 
ATOM     81  H   UNL     1       6.553  11.133  -0.805  1.00  0.00     0.348 HD
BRANCH  80  82
ATOM     82  C   UNL     1       7.351   9.664   0.042  1.00  0.00     0.284 C 
ATOM     83  C   UNL     1       8.541   8.885   0.581  1.00  0.00     0.176 C 
ATOM     84  C   UNL     1       6.447   9.748   1.278  1.00  0.00     0.292 C 
ATOM     85  C   UNL     1       8.496   9.106   2.062  1.00  0.00     0.240 C 
ATOM     86  N   UNL     1       7.220   9.490   2.391  1.00  0.00    -0.245 N 
ATOM     87  O   UNL     1       5.256  10.035   1.250  1.00  0.00    -0.267 OA
ATOM     88  O   UNL     1       9.438   8.861   2.798  1.00  0.00    -0.274 OA
BRANCH  86  89
ATOM     89  C   UNL     1       6.740   9.477   3.719  1.00  0.00     0.056 A 
ATOM     90  C   UNL     1       5.567   8.771   4.021  1.00  0.00     0.031 A 
ATOM     91  C   UNL     1       7.458  10.087   4.756  1.00  0.00     0.077 A 
ATOM     92  C   UNL     1       5.142   8.639   5.345  1.00  0.00     0.052 A 
ATOM     93  C   UNL     1       6.997  10.005   6.073  1.00  0.00     0.163 A 
ATOM     94  C   UNL     1       5.844   9.272   6.366  1.00  0.00     0.161 A 
ATOM     95  O   UNL     1       7.716  10.684   7.022  1.00  0.00    -0.486 OA
ATOM     96  O   UNL     1       5.347   9.124   7.635  1.00  0.00    -0.486 OA
ATOM     97  C   UNL     1       7.358  10.293   8.353  1.00  0.00     0.271 C 
ATOM     98  C   UNL     1       5.853  10.140   8.506  1.00  0.00     0.271 C 
ENDBRANCH  86  89
ENDBRANCH  80  82
ENDBRANCH  72  75
ENDBRANCH  70  71
ENDBRANCH  69  70
ENDBRANCH   1  69
TORSDOF 16
