REMARK SMILES Cc1c[nH]c(C[N@H+]2C[C@@H]3CN(S(C)(=O)=O)C[C@]3(C(=O)NCCCCNC(=O)c3ccc(-c4c5nc(c(-c6ccc(S(=O)(=O)[O-])cc6)c6ccc([nH]6)c(-c6ccc(S(=O)(=O)[O-])cc6)c6nc(c(-c7ccc(S(=O)(=O)[O-])cc7)c7ccc4[nH]7)C=C6)C=C5)cc3)C2)n1
REMARK SMILES IDX 23 1 22 2 21 3 20 4 18 5 19 6 17 8 7 9 8 10 88 11 9 13 10 14
REMARK SMILES IDX 16 15 11 16 6 17 5 18 1 19 2 20 3 21 89 22 4 23 12 25 13 26
REMARK SMILES IDX 14 27 15 28 24 29 25 30 26 31 27 33 28 34 29 35 87 36 30 37
REMARK SMILES IDX 86 38 31 39 32 40 33 41 80 42 34 43 85 44 79 45 81 46 35 47
REMARK SMILES IDX 84 48 78 49 77 50 36 52 66 53 47 54 65 55 48 56 51 57 64 58
REMARK SMILES IDX 82 59 49 60 50 61 63 63 83 64 52 65 37 66 38 67 46 68 39 69
REMARK SMILES IDX 45 70 40 71 41 72 42 73 43 74 44 75 67 76 68 77 76 78 69 79
REMARK SMILES IDX 75 80 70 81 71 82 72 83 73 84 74 85 53 86 54 87 62 88 55 89
REMARK SMILES IDX 61 90 56 91 57 92 58 93 59 94 60 95
REMARK H PARENT 20 7 7 12 4 24 25 32 81 51 51 62
REMARK Flexibility Score: inf
ROOT
ATOM      1  C   UNL     1       0.217   8.481   4.885  1.00  0.00     0.023 C 
ENDROOT
BRANCH   1   2
ATOM      2  C   UNL     1      -0.060   6.991   4.941  1.00  0.00     0.023 C 
BRANCH   2   3
ATOM      3  C   UNL     1      -1.083   6.495   3.909  1.00  0.00     0.116 C 
BRANCH   3   4
ATOM      4  N   UNL     1      -0.396   6.045   2.712  1.00  0.00    -0.355 N 
ATOM      5  C   UNL     1       0.004   4.754   2.434  1.00  0.00     0.233 C 
ATOM      6  O   UNL     1       1.026   4.602   1.765  1.00  0.00    -0.274 OA
ATOM      7  H   UNL     1      -0.197   6.728   2.032  1.00  0.00     0.163 HD
BRANCH   5   8
ATOM      8  C   UNL     1      -0.910   3.580   2.976  1.00  0.00     0.121 C 
ATOM      9  N   UNL     1      -2.372   2.363   1.292  1.00  0.00    -0.327 N 
ATOM     10  C   UNL     1      -2.228   1.514   2.446  1.00  0.00     0.268 C 
ATOM     11  C   UNL     1      -1.310   3.387   1.432  1.00  0.00     0.281 C 
ATOM     12  H   UNL     1      -3.301   2.783   1.264  1.00  0.00     0.348 HD
ATOM     13  C   UNL     1      -0.915   1.971   3.048  1.00  0.00     0.082 C 
ATOM     14  C   UNL     1      -0.856   1.460   4.486  1.00  0.00     0.113 C 
ATOM     15  C   UNL     1       0.118   3.525   4.169  1.00  0.00     0.125 C 
ATOM     16  N   UNL     1      -0.475   2.651   5.209  1.00  0.00    -0.200 NA
BRANCH   9  17
ATOM     17  C   UNL     1      -2.306   1.638   0.003  1.00  0.00     0.338 C 
BRANCH  17  18
ATOM     18  C   UNL     1      -1.155   0.676  -0.138  1.00  0.00     0.161 A 
ATOM     19  C   UNL     1       2.285  -0.220  -0.103  1.00  0.00     0.068 C 
ATOM     20  C   UNL     1       0.807  -0.215  -0.145  1.00  0.00     0.056 A 
ATOM     21  C   UNL     1      -0.082  -1.265  -0.112  1.00  0.00     0.107 A 
ATOM     22  N   UNL     1       0.127   0.974  -0.191  1.00  0.00    -0.233 NA
ATOM     23  N   UNL     1      -1.323  -0.689  -0.141  1.00  0.00    -0.344 N 
ATOM     24  H   UNL     1      -2.183  -1.167  -0.161  1.00  0.00     0.167 HD
ENDBRANCH  17  18
ENDBRANCH   9  17
BRANCH  16  25
ATOM     25  S   UNL     1      -1.526   3.254   6.380  1.00  0.00     0.211 S 
ATOM     26  C   UNL     1      -3.072   3.529   5.519  1.00  0.00     0.176 C 
ATOM     27  O   UNL     1      -1.764   2.193   7.332  1.00  0.00    -0.213 OA
ATOM     28  O   UNL     1      -1.026   4.542   6.811  1.00  0.00    -0.213 OA
ENDBRANCH  16  25
ENDBRANCH   5   8
ENDBRANCH   3   4
ENDBRANCH   2   3
ENDBRANCH   1   2
BRANCH   1  29
ATOM     29  C   UNL     1      -1.008   9.337   5.143  1.00  0.00     0.116 C 
BRANCH  29  30
ATOM     30  N   UNL     1      -1.704   9.036   6.392  1.00  0.00    -0.352 N 
ATOM     31  C   UNL     1      -2.373   9.934   7.195  1.00  0.00     0.251 C 
ATOM     32  H   UNL     1      -1.694   8.098   6.690  1.00  0.00     0.163 HD
ATOM     33  O   UNL     1      -2.886   9.604   8.256  1.00  0.00    -0.269 OA
BRANCH  31  34
ATOM     34  C   UNL     1      -2.400  11.332   6.734  1.00  0.00     0.039 A 
ATOM     35  C   UNL     1      -1.723  12.301   7.475  1.00  0.00     0.014 A 
ATOM     36  C   UNL     1      -2.877  11.599   5.449  1.00  0.00     0.014 A 
ATOM     37  C   UNL     1      -1.451  13.535   6.885  1.00  0.00     0.010 A 
ATOM     38  C   UNL     1      -2.501  12.779   4.830  1.00  0.00     0.010 A 
ATOM     39  C   UNL     1      -1.792  13.762   5.542  1.00  0.00    -0.014 A 
BRANCH  39  40
ATOM     40  C   UNL     1      -1.467  15.032   4.846  1.00  0.00     0.031 A 
ATOM     41  C   UNL     1      -2.596  15.850   4.279  1.00  0.00     0.074 A 
ATOM     42  C   UNL     1      -0.186  15.396   4.638  1.00  0.00     0.049 A 
ATOM     43  N   UNL     1      -2.547  16.893   3.495  1.00  0.00    -0.248 NA
ATOM     44  C   UNL     1      -3.964  15.403   4.602  1.00  0.00     0.031 C 
ATOM     45  C   UNL     1       0.997  14.674   5.114  1.00  0.00     0.029 A 
ATOM     46  N   UNL     1       0.336  16.466   3.953  1.00  0.00    -0.354 N 
ATOM     47  C   UNL     1      -3.871  17.201   3.204  1.00  0.00     0.074 A 
ATOM     48  C   UNL     1      -4.695  16.200   3.840  1.00  0.00     0.031 C 
ATOM     49  C   UNL     1       2.101  15.335   4.729  1.00  0.00     0.029 A 
ATOM     50  C   UNL     1       1.712  16.495   3.932  1.00  0.00     0.049 A 
ATOM     51  H   UNL     1      -0.223  17.150   3.518  1.00  0.00     0.167 HD
ATOM     52  C   UNL     1      -4.360  18.242   2.493  1.00  0.00     0.031 A 
ATOM     53  C   UNL     1       2.561  17.349   3.325  1.00  0.00     0.031 A 
ATOM     54  C   UNL     1      -3.534  19.250   1.888  1.00  0.00     0.049 A 
ATOM     55  C   UNL     1       1.995  18.492   2.523  1.00  0.00     0.074 A 
ATOM     56  C   UNL     1      -3.929  20.377   1.193  1.00  0.00     0.029 A 
ATOM     57  N   UNL     1      -2.148  19.253   1.913  1.00  0.00    -0.354 N 
ATOM     58  N   UNL     1       0.738  18.798   2.298  1.00  0.00    -0.248 NA
ATOM     59  C   UNL     1       2.958  19.411   1.900  1.00  0.00     0.031 C 
ATOM     60  C   UNL     1      -2.779  21.032   0.744  1.00  0.00     0.029 A 
ATOM     61  C   UNL     1      -1.670  20.354   1.226  1.00  0.00     0.049 A 
ATOM     62  H   UNL     1      -1.587  18.574   2.353  1.00  0.00     0.167 HD
ATOM     63  C   UNL     1       0.761  19.968   1.547  1.00  0.00     0.074 A 
ATOM     64  C   UNL     1       2.154  20.315   1.355  1.00  0.00     0.031 C 
ATOM     65  C   UNL     1      -0.278  20.695   1.067  1.00  0.00     0.031 A 
BRANCH  52  66
ATOM     66  C   UNL     1      -5.853  18.334   2.329  1.00  0.00    -0.014 A 
ATOM     67  C   UNL     1      -6.694  18.596   3.427  1.00  0.00     0.010 A 
ATOM     68  C   UNL     1      -6.424  18.182   1.052  1.00  0.00     0.010 A 
ATOM     69  C   UNL     1      -8.079  18.659   3.259  1.00  0.00     0.020 A 
ATOM     70  C   UNL     1      -7.806  18.281   0.874  1.00  0.00     0.020 A 
ATOM     71  C   UNL     1      -8.626  18.501   1.982  1.00  0.00     0.054 A 
BRANCH  71  72
ATOM     72  S   UNL     1     -10.425  18.616   1.790  1.00  0.00     0.124 S 
ATOM     73  O   UNL     1     -10.874  17.379   2.423  1.00  0.00    -0.237 OA
ATOM     74  O   UNL     1     -10.744  19.844   2.515  1.00  0.00    -0.237 OA
ATOM     75  O   UNL     1     -10.617  18.681   0.344  1.00  0.00    -0.744 OA
ENDBRANCH  71  72
ENDBRANCH  52  66
BRANCH  53  76
ATOM     76  C   UNL     1       4.034  17.165   3.460  1.00  0.00    -0.014 A 
ATOM     77  C   UNL     1       4.805  18.086   4.191  1.00  0.00     0.010 A 
ATOM     78  C   UNL     1       4.676  16.065   2.860  1.00  0.00     0.010 A 
ATOM     79  C   UNL     1       6.190  17.925   4.301  1.00  0.00     0.020 A 
ATOM     80  C   UNL     1       6.056  15.883   2.995  1.00  0.00     0.020 A 
ATOM     81  C   UNL     1       6.806  16.822   3.705  1.00  0.00     0.054 A 
BRANCH  81  82
ATOM     82  S   UNL     1       8.599  16.611   3.898  1.00  0.00     0.124 S 
ATOM     83  O   UNL     1       9.123  17.686   3.062  1.00  0.00    -0.237 OA
ATOM     84  O   UNL     1       8.781  16.783   5.338  1.00  0.00    -0.237 OA
ATOM     85  O   UNL     1       8.840  15.258   3.404  1.00  0.00    -0.744 OA
ENDBRANCH  81  82
ENDBRANCH  53  76
BRANCH  65  86
ATOM     86  C   UNL     1       0.030  21.980   0.347  1.00  0.00    -0.014 A 
ATOM     87  C   UNL     1       0.567  21.988  -0.951  1.00  0.00     0.010 A 
ATOM     88  C   UNL     1      -0.334  23.201   0.949  1.00  0.00     0.010 A 
ATOM     89  C   UNL     1       0.743  23.197  -1.631  1.00  0.00     0.020 A 
ATOM     90  C   UNL     1      -0.188  24.406   0.260  1.00  0.00     0.020 A 
ATOM     91  C   UNL     1       0.355  24.397  -1.025  1.00  0.00     0.054 A 
BRANCH  91  92
ATOM     92  S   UNL     1       0.513  25.940  -1.964  1.00  0.00     0.124 S 
ATOM     93  O   UNL     1       1.960  26.133  -1.993  1.00  0.00    -0.237 OA
ATOM     94  O   UNL     1      -0.102  25.597  -3.244  1.00  0.00    -0.237 OA
ATOM     95  O   UNL     1      -0.229  26.912  -1.164  1.00  0.00    -0.744 OA
ENDBRANCH  91  92
ENDBRANCH  65  86
ENDBRANCH  39  40
ENDBRANCH  31  34
ENDBRANCH  29  30
ENDBRANCH   1  29
TORSDOF 17
