REMARK SMILES CS(=O)(=O)c1ccc(-c2cc(Cl)cc3c2O[C@H](C(F)(F)F)C(C(=O)NCCCCNC(=O)c2ccc(-c4c5nc(c(-c6ccc(S(=O)(=O)[O-])cc6)c6ccc([nH]6)c(-c6ccc(S(=O)(=O)[O-])cc6)c6nc(c(-c7ccc(S(=O)(=O)[O-])cc7)c7ccc4[nH]7)C=C6)C=C5)cc2)=C3)cc1
REMARK SMILES IDX 28 1 27 2 26 3 25 4 23 5 24 6 22 8 9 9 10 10 15 11 11 12
REMARK SMILES IDX 14 13 16 14 12 15 13 16 93 17 17 18 8 19 5 20 6 21 95 22
REMARK SMILES IDX 7 23 94 24 2 25 1 26 3 27 4 28 18 29 19 30 20 31 21 32 29 33
REMARK SMILES IDX 30 34 31 35 32 37 33 38 34 39 92 40 35 41 91 42 36 43 37 44
REMARK SMILES IDX 38 45 85 46 39 47 90 48 84 49 86 50 40 51 89 52 83 53 82 54
REMARK SMILES IDX 41 56 71 57 52 58 70 59 53 60 56 61 69 62 87 63 54 64 55 65
REMARK SMILES IDX 68 67 88 68 57 69 42 70 43 71 51 72 44 73 50 74 45 75 46 76
REMARK SMILES IDX 47 77 48 78 49 79 72 80 73 81 81 82 74 83 80 84 75 85 76 86
REMARK SMILES IDX 77 87 78 88 79 89 58 90 59 91 67 92 60 93 66 94 61 95 62 96
REMARK SMILES IDX 63 97 64 98 65 99
REMARK H PARENT 25 7 30 36 86 55 56 66
REMARK Flexibility Score: inf
ROOT
ATOM      1  C   UNL     1       6.164  13.470  -6.259  1.00  0.00     0.023 C 
ENDROOT
BRANCH   1   2
ATOM      2  C   UNL     1       5.981  12.913  -4.839  1.00  0.00     0.023 C 
BRANCH   2   3
ATOM      3  C   UNL     1       4.573  12.390  -4.519  1.00  0.00     0.116 C 
BRANCH   3   4
ATOM      4  N   UNL     1       4.231  11.325  -5.437  1.00  0.00    -0.352 N 
ATOM      5  C   UNL     1       3.747  10.091  -5.169  1.00  0.00     0.251 C 
ATOM      6  O   UNL     1       4.083   9.163  -5.897  1.00  0.00    -0.270 OA
ATOM      7  H   UNL     1       4.369  11.527  -6.390  1.00  0.00     0.163 HD
BRANCH   5   8
ATOM      8  C   UNL     1       2.731   9.943  -4.082  1.00  0.00     0.067 C 
ATOM      9  C   UNL     1       2.308   5.886  -4.090  1.00  0.00     0.026 A 
ATOM     10  C   UNL     1       2.250   5.494  -5.452  1.00  0.00     0.033 A 
ATOM     11  C   UNL     1       2.177   7.263  -3.835  1.00  0.00     0.135 A 
ATOM     12  C   UNL     1       1.874   6.370  -6.467  1.00  0.00     0.042 A 
ATOM     13  C   UNL     1       1.670   8.107  -4.854  1.00  0.00     0.019 A 
ATOM     14  O   UNL     1       2.572   7.861  -2.645  1.00  0.00    -0.475 OA
ATOM     15  Cl  UNL     1       1.837   5.824  -8.095  1.00  0.00    -0.084 Cl
ATOM     16  C   UNL     1       1.497   7.662  -6.160  1.00  0.00     0.032 A 
ATOM     17  C   UNL     1       1.530   9.548  -4.548  1.00  0.00     0.025 C 
ATOM     18  C   UNL     1       3.213   9.203  -2.839  1.00  0.00     0.314 C 
BRANCH   9  19
ATOM     19  C   UNL     1       2.207   4.764  -3.113  1.00  0.00    -0.015 A 
ATOM     20  C   UNL     1       1.275   2.268  -2.159  1.00  0.00     0.067 A 
ATOM     21  C   UNL     1       2.486   2.337  -2.847  1.00  0.00     0.021 A 
ATOM     22  C   UNL     1       0.577   3.437  -1.851  1.00  0.00     0.021 A 
ATOM     23  C   UNL     1       2.960   3.581  -3.292  1.00  0.00     0.010 A 
ATOM     24  C   UNL     1       1.053   4.676  -2.309  1.00  0.00     0.010 A 
BRANCH  20  25
ATOM     25  S   UNL     1       0.521   0.683  -1.849  1.00  0.00     0.175 S 
ATOM     26  C   UNL     1       0.989   0.304  -0.186  1.00  0.00     0.163 C 
ATOM     27  O   UNL     1       1.150  -0.289  -2.720  1.00  0.00    -0.224 OA
ATOM     28  O   UNL     1      -0.921   0.872  -1.873  1.00  0.00    -0.224 OA
ENDBRANCH  20  25
ENDBRANCH   9  19
BRANCH  18  29
ATOM     29  C   UNL     1       2.992  10.120  -1.615  1.00  0.00     0.429 C 
ATOM     30  F   UNL     1       2.024   9.665  -0.789  1.00  0.00    -0.167 F 
ATOM     31  F   UNL     1       4.127  10.245  -0.884  1.00  0.00    -0.167 F 
ATOM     32  F   UNL     1       2.632  11.383  -1.968  1.00  0.00    -0.167 F 
ENDBRANCH  18  29
ENDBRANCH   5   8
ENDBRANCH   3   4
ENDBRANCH   2   3
ENDBRANCH   1   2
BRANCH   1  33
ATOM     33  C   UNL     1       5.176  14.561  -6.652  1.00  0.00     0.116 C 
BRANCH  33  34
ATOM     34  N   UNL     1       5.334  15.753  -5.835  1.00  0.00    -0.352 N 
ATOM     35  C   UNL     1       5.612  17.040  -6.226  1.00  0.00     0.251 C 
ATOM     36  H   UNL     1       5.227  15.619  -4.865  1.00  0.00     0.163 HD
ATOM     37  O   UNL     1       5.917  17.881  -5.385  1.00  0.00    -0.269 OA
BRANCH  35  38
ATOM     38  C   UNL     1       5.564  17.401  -7.660  1.00  0.00     0.039 A 
ATOM     39  C   UNL     1       6.601  18.164  -8.201  1.00  0.00     0.014 A 
ATOM     40  C   UNL     1       4.505  16.981  -8.469  1.00  0.00     0.014 A 
ATOM     41  C   UNL     1       6.609  18.448  -9.569  1.00  0.00     0.010 A 
ATOM     42  C   UNL     1       4.555  17.198  -9.844  1.00  0.00     0.010 A 
ATOM     43  C   UNL     1       5.606  17.936 -10.409  1.00  0.00    -0.014 A 
BRANCH  43  44
ATOM     44  C   UNL     1       5.646  18.152 -11.880  1.00  0.00     0.031 A 
ATOM     45  C   UNL     1       4.547  18.919 -12.566  1.00  0.00     0.074 A 
ATOM     46  C   UNL     1       6.641  17.604 -12.608  1.00  0.00     0.049 A 
ATOM     47  N   UNL     1       4.385  19.164 -13.841  1.00  0.00    -0.248 NA
ATOM     48  C   UNL     1       3.479  19.463 -11.711  1.00  0.00     0.031 C 
ATOM     49  C   UNL     1       7.745  16.805 -12.069  1.00  0.00     0.029 A 
ATOM     50  N   UNL     1       6.883  17.631 -13.959  1.00  0.00    -0.354 N 
ATOM     51  C   UNL     1       3.193  19.873 -13.943  1.00  0.00     0.074 A 
ATOM     52  C   UNL     1       2.648  19.974 -12.607  1.00  0.00     0.031 C 
ATOM     53  C   UNL     1       8.559  16.444 -13.074  1.00  0.00     0.029 A 
ATOM     54  C   UNL     1       8.014  16.943 -14.332  1.00  0.00     0.049 A 
ATOM     55  H   UNL     1       6.302  18.099 -14.601  1.00  0.00     0.167 HD
ATOM     56  C   UNL     1       2.615  20.410 -15.044  1.00  0.00     0.031 A 
ATOM     57  C   UNL     1       8.550  16.727 -15.550  1.00  0.00     0.031 A 
ATOM     58  C   UNL     1       3.163  20.311 -16.371  1.00  0.00     0.049 A 
ATOM     59  C   UNL     1       7.877  17.314 -16.761  1.00  0.00     0.074 A 
ATOM     60  C   UNL     1       2.681  20.866 -17.544  1.00  0.00     0.029 A 
ATOM     61  N   UNL     1       4.311  19.607 -16.706  1.00  0.00    -0.354 N 
ATOM     62  N   UNL     1       6.788  18.042 -16.827  1.00  0.00    -0.248 NA
ATOM     63  C   UNL     1       8.512  17.060 -18.062  1.00  0.00     0.031 C 
ATOM     64  C   UNL     1       3.500  20.446 -18.596  1.00  0.00     0.029 A 
ATOM     65  C   UNL     1       4.535  19.689 -18.070  1.00  0.00     0.049 A 
ATOM     66  H   UNL     1       4.882  19.121 -16.067  1.00  0.00     0.167 HD
ATOM     67  C   UNL     1       6.625  18.358 -18.172  1.00  0.00     0.074 A 
ATOM     68  C   UNL     1       7.735  17.756 -18.880  1.00  0.00     0.031 C 
ATOM     69  C   UNL     1       5.644  19.084 -18.765  1.00  0.00     0.031 A 
BRANCH  56  70
ATOM     70  C   UNL     1       1.312  21.146 -14.861  1.00  0.00    -0.014 A 
ATOM     71  C   UNL     1       1.258  22.372 -14.173  1.00  0.00     0.010 A 
ATOM     72  C   UNL     1       0.131  20.628 -15.424  1.00  0.00     0.010 A 
ATOM     73  C   UNL     1       0.043  23.043 -14.014  1.00  0.00     0.020 A 
ATOM     74  C   UNL     1      -1.081  21.312 -15.296  1.00  0.00     0.020 A 
ATOM     75  C   UNL     1      -1.120  22.508 -14.576  1.00  0.00     0.054 A 
BRANCH  75  76
ATOM     76  S   UNL     1      -2.678  23.414 -14.374  1.00  0.00     0.124 S 
ATOM     77  O   UNL     1      -2.958  23.217 -12.954  1.00  0.00    -0.237 OA
ATOM     78  O   UNL     1      -2.309  24.774 -14.758  1.00  0.00    -0.237 OA
ATOM     79  O   UNL     1      -3.595  22.738 -15.288  1.00  0.00    -0.744 OA
ENDBRANCH  75  76
ENDBRANCH  56  70
BRANCH  57  80
ATOM     80  C   UNL     1       9.799  15.925 -15.683  1.00  0.00    -0.014 A 
ATOM     81  C   UNL     1      11.004  16.534 -16.075  1.00  0.00     0.010 A 
ATOM     82  C   UNL     1       9.790  14.544 -15.409  1.00  0.00     0.010 A 
ATOM     83  C   UNL     1      12.171  15.775 -16.210  1.00  0.00     0.020 A 
ATOM     84  C   UNL     1      10.962  13.789 -15.511  1.00  0.00     0.020 A 
ATOM     85  C   UNL     1      12.143  14.408 -15.923  1.00  0.00     0.054 A 
BRANCH  85  86
ATOM     86  S   UNL     1      13.681  13.455 -16.056  1.00  0.00     0.124 S 
ATOM     87  O   UNL     1      13.878  13.395 -17.501  1.00  0.00    -0.237 OA
ATOM     88  O   UNL     1      14.631  14.287 -15.321  1.00  0.00    -0.237 OA
ATOM     89  O   UNL     1      13.353  12.184 -15.415  1.00  0.00    -0.744 OA
ENDBRANCH  85  86
ENDBRANCH  57  80
BRANCH  69  90
ATOM     90  C   UNL     1       5.744  19.304 -20.252  1.00  0.00    -0.014 A 
ATOM     91  C   UNL     1       5.532  18.256 -21.165  1.00  0.00     0.010 A 
ATOM     92  C   UNL     1       6.000  20.598 -20.743  1.00  0.00     0.010 A 
ATOM     93  C   UNL     1       5.606  18.492 -22.541  1.00  0.00     0.020 A 
ATOM     94  C   UNL     1       6.042  20.845 -22.117  1.00  0.00     0.020 A 
ATOM     95  C   UNL     1       5.859  19.786 -23.008  1.00  0.00     0.054 A 
BRANCH  95  96
ATOM     96  S   UNL     1       5.905  20.073 -24.798  1.00  0.00     0.124 S 
ATOM     97  O   UNL     1       7.161  19.432 -25.177  1.00  0.00    -0.237 OA
ATOM     98  O   UNL     1       4.692  19.403 -25.261  1.00  0.00    -0.237 OA
ATOM     99  O   UNL     1       5.889  21.530 -24.917  1.00  0.00    -0.744 OA
ENDBRANCH  95  96
ENDBRANCH  69  90
ENDBRANCH  43  44
ENDBRANCH  35  38
ENDBRANCH  33  34
ENDBRANCH   1  33
TORSDOF 17
