REMARK SMILES O=C(NCCCCNC(=O)[C@H](c1c[nH]c2ccc(Cl)cc12)[NH+]1CCN(c2cccc(Cl)c2)CC1)c1ccc(-c2c3nc(c(-c4ccc(S(=O)(=O)[O-])cc4)c4ccc([nH]4)c(-c4ccc(S(=O)(=O)[O-])cc4)c4nc(c(-c5ccc(S(=O)(=O)[O-])cc5)c5ccc2[nH]5)C=C4)C=C3)cc1
REMARK SMILES IDX 5 1 4 2 3 3 1 4 2 5 35 7 36 8 94 9 37 10 93 11 38 12 39 13
REMARK SMILES IDX 40 14 87 15 41 16 92 17 86 18 88 19 42 20 91 21 85 22 84 23
REMARK SMILES IDX 43 25 73 26 54 27 72 28 55 29 58 30 71 31 89 32 56 33 57 34
REMARK SMILES IDX 70 36 90 37 59 38 44 39 45 40 53 41 46 42 52 43 47 44 48 45
REMARK SMILES IDX 49 46 50 47 51 48 74 49 75 50 83 51 76 52 82 53 77 54 78 55
REMARK SMILES IDX 79 56 80 57 81 58 60 59 61 60 69 61 62 62 68 63 63 64 64 65
REMARK SMILES IDX 65 66 66 67 67 68 6 69 7 70 8 71 9 72 10 74 11 75 22 76
REMARK SMILES IDX 23 77 34 78 24 80 33 81 25 82 26 83 27 84 32 85 28 86 30 87
REMARK SMILES IDX 29 88 31 89 12 90 13 91 21 92 14 93 15 94 20 95 16 97 18 98
REMARK SMILES IDX 17 99 19 100
REMARK H PARENT 3 6 88 24 58 35 8 73 22 79 14 96
REMARK Flexibility Score: inf
ROOT
ATOM      1  C   UNL     1       7.681   9.449  -0.939  1.00  0.00     0.023 C 
ENDROOT
BRANCH   1   2
ATOM      2  C   UNL     1       7.165  10.883  -0.922  1.00  0.00     0.116 C 
BRANCH   2   3
ATOM      3  N   UNL     1       8.082  11.817  -0.287  1.00  0.00    -0.352 N 
ATOM      4  O   UNL     1       9.202  13.765  -0.061  1.00  0.00    -0.269 OA
ATOM      5  C   UNL     1       8.310  13.132  -0.617  1.00  0.00     0.251 C 
ATOM      6  H   UNL     1       8.603  11.464   0.471  1.00  0.00     0.163 HD
BRANCH   5   7
ATOM      7  C   UNL     1       7.489  13.758  -1.673  1.00  0.00     0.039 A 
ATOM      8  C   UNL     1       6.097  13.646  -1.642  1.00  0.00     0.014 A 
ATOM      9  C   UNL     1       8.123  14.441  -2.715  1.00  0.00     0.014 A 
ATOM     10  C   UNL     1       5.345  14.118  -2.711  1.00  0.00     0.010 A 
ATOM     11  C   UNL     1       7.358  14.977  -3.754  1.00  0.00     0.010 A 
ATOM     12  C   UNL     1       5.966  14.803  -3.770  1.00  0.00    -0.014 A 
BRANCH  12  13
ATOM     13  C   UNL     1       5.124  15.408  -4.830  1.00  0.00     0.031 A 
ATOM     14  C   UNL     1       5.167  14.908  -6.247  1.00  0.00     0.074 A 
ATOM     15  C   UNL     1       4.298  16.415  -4.486  1.00  0.00     0.049 A 
ATOM     16  N   UNL     1       4.478  15.321  -7.280  1.00  0.00    -0.248 NA
ATOM     17  C   UNL     1       6.101  13.811  -6.549  1.00  0.00     0.031 C 
ATOM     18  C   UNL     1       4.186  16.991  -3.142  1.00  0.00     0.029 A 
ATOM     19  N   UNL     1       3.387  17.123  -5.225  1.00  0.00    -0.354 N 
ATOM     20  C   UNL     1       4.906  14.554  -8.357  1.00  0.00     0.074 A 
ATOM     21  C   UNL     1       5.924  13.655  -7.856  1.00  0.00     0.031 C 
ATOM     22  C   UNL     1       3.234  17.935  -3.144  1.00  0.00     0.029 A 
ATOM     23  C   UNL     1       2.709  18.072  -4.497  1.00  0.00     0.049 A 
ATOM     24  H   UNL     1       3.232  16.967  -6.185  1.00  0.00     0.167 HD
ATOM     25  C   UNL     1       4.485  14.598  -9.644  1.00  0.00     0.031 A 
ATOM     26  C   UNL     1       1.783  18.971  -4.877  1.00  0.00     0.031 A 
ATOM     27  C   UNL     1       3.463  15.489 -10.131  1.00  0.00     0.049 A 
ATOM     28  C   UNL     1       1.349  19.004  -6.313  1.00  0.00     0.074 A 
ATOM     29  C   UNL     1       2.935  15.573 -11.409  1.00  0.00     0.029 A 
ATOM     30  N   UNL     1       2.819  16.452  -9.370  1.00  0.00    -0.354 N 
ATOM     31  N   UNL     1       1.734  18.236  -7.304  1.00  0.00    -0.248 NA
ATOM     32  C   UNL     1       0.359  20.024  -6.681  1.00  0.00     0.031 C 
ATOM     33  C   UNL     1       2.006  16.620 -11.431  1.00  0.00     0.029 A 
ATOM     34  C   UNL     1       1.921  17.155 -10.156  1.00  0.00     0.049 A 
ATOM     35  H   UNL     1       2.977  16.613  -8.411  1.00  0.00     0.167 HD
ATOM     36  C   UNL     1       1.028  18.679  -8.415  1.00  0.00     0.074 A 
ATOM     37  C   UNL     1       0.173  19.760  -7.967  1.00  0.00     0.031 C 
ATOM     38  C   UNL     1       1.088  18.235  -9.694  1.00  0.00     0.031 A 
BRANCH  25  39
ATOM     39  C   UNL     1       5.136  13.672 -10.637  1.00  0.00    -0.014 A 
ATOM     40  C   UNL     1       4.815  12.305 -10.675  1.00  0.00     0.010 A 
ATOM     41  C   UNL     1       6.006  14.200 -11.610  1.00  0.00     0.010 A 
ATOM     42  C   UNL     1       5.363  11.477 -11.660  1.00  0.00     0.020 A 
ATOM     43  C   UNL     1       6.541  13.379 -12.608  1.00  0.00     0.020 A 
ATOM     44  C   UNL     1       6.222  12.020 -12.622  1.00  0.00     0.054 A 
BRANCH  44  45
ATOM     45  S   UNL     1       6.872  10.936 -13.924  1.00  0.00     0.124 S 
ATOM     46  O   UNL     1       7.867  10.154 -13.194  1.00  0.00    -0.237 OA
ATOM     47  O   UNL     1       5.685  10.199 -14.350  1.00  0.00    -0.237 OA
ATOM     48  O   UNL     1       7.413  11.865 -14.912  1.00  0.00    -0.744 OA
ENDBRANCH  44  45
ENDBRANCH  25  39
BRANCH  26  49
ATOM     49  C   UNL     1       1.235  19.933  -3.885  1.00  0.00    -0.014 A 
ATOM     50  C   UNL     1      -0.096  19.834  -3.447  1.00  0.00     0.010 A 
ATOM     51  C   UNL     1       2.056  20.950  -3.365  1.00  0.00     0.010 A 
ATOM     52  C   UNL     1      -0.603  20.751  -2.522  1.00  0.00     0.020 A 
ATOM     53  C   UNL     1       1.562  21.850  -2.420  1.00  0.00     0.020 A 
ATOM     54  C   UNL     1       0.229  21.755  -2.016  1.00  0.00     0.054 A 
BRANCH  54  55
ATOM     55  S   UNL     1      -0.432  22.914  -0.787  1.00  0.00     0.124 S 
ATOM     56  O   UNL     1      -1.184  23.844  -1.624  1.00  0.00    -0.237 OA
ATOM     57  O   UNL     1      -1.233  22.046   0.072  1.00  0.00    -0.237 OA
ATOM     58  O   UNL     1       0.768  23.462  -0.159  1.00  0.00    -0.744 OA
ENDBRANCH  54  55
ENDBRANCH  26  49
BRANCH  38  59
ATOM     59  C   UNL     1       0.195  18.915 -10.693  1.00  0.00    -0.014 A 
ATOM     60  C   UNL     1       0.492  20.206 -11.164  1.00  0.00     0.010 A 
ATOM     61  C   UNL     1      -0.938  18.244 -11.187  1.00  0.00     0.010 A 
ATOM     62  C   UNL     1      -0.350  20.830 -12.087  1.00  0.00     0.020 A 
ATOM     63  C   UNL     1      -1.768  18.856 -12.129  1.00  0.00     0.020 A 
ATOM     64  C   UNL     1      -1.477  20.152 -12.561  1.00  0.00     0.054 A 
BRANCH  64  65
ATOM     65  S   UNL     1      -2.539  20.968 -13.783  1.00  0.00     0.124 S 
ATOM     66  O   UNL     1      -3.290  21.907 -12.954  1.00  0.00    -0.237 OA
ATOM     67  O   UNL     1      -1.574  21.572 -14.699  1.00  0.00    -0.237 OA
ATOM     68  O   UNL     1      -3.321  19.871 -14.348  1.00  0.00    -0.744 OA
ENDBRANCH  64  65
ENDBRANCH  38  59
ENDBRANCH  12  13
ENDBRANCH   5   7
ENDBRANCH   2   3
ENDBRANCH   1   2
BRANCH   1  69
ATOM     69  C   UNL     1       7.990   8.855   0.438  1.00  0.00     0.023 C 
BRANCH  69  70
ATOM     70  C   UNL     1       6.818   8.907   1.417  1.00  0.00     0.116 C 
BRANCH  70  71
ATOM     71  N   UNL     1       5.756   7.998   1.028  1.00  0.00    -0.351 N 
ATOM     72  C   UNL     1       5.539   6.693   1.403  1.00  0.00     0.283 C 
ATOM     73  H   UNL     1       5.092   8.370   0.404  1.00  0.00     0.163 HD
ATOM     74  O   UNL     1       4.616   6.088   0.848  1.00  0.00    -0.268 OA
BRANCH  72  75
ATOM     75  C   UNL     1       6.436   6.056   2.499  1.00  0.00     0.307 C 
BRANCH  75  76
ATOM     76  N   UNL     1       5.574   5.610   3.619  1.00  0.00    -0.318 N 
ATOM     77  C   UNL     1       5.240   4.182   3.725  1.00  0.00     0.284 C 
ATOM     78  C   UNL     1       5.982   6.134   4.934  1.00  0.00     0.284 C 
ATOM     79  H   UNL     1       4.699   6.047   3.330  1.00  0.00     0.349 HD
ATOM     80  C   UNL     1       6.294   3.295   4.442  1.00  0.00     0.178 C 
ATOM     81  C   UNL     1       7.096   5.328   5.629  1.00  0.00     0.178 C 
ATOM     82  N   UNL     1       6.716   3.911   5.710  1.00  0.00    -0.360 N 
BRANCH  82  83
ATOM     83  C   UNL     1       7.384   3.151   6.657  1.00  0.00     0.038 A 
ATOM     84  C   UNL     1       7.045   3.303   8.010  1.00  0.00     0.026 A 
ATOM     85  C   UNL     1       8.390   2.236   6.327  1.00  0.00     0.046 A 
ATOM     86  C   UNL     1       7.667   2.550   9.007  1.00  0.00     0.004 A 
ATOM     87  C   UNL     1       9.023   1.492   7.325  1.00  0.00     0.043 A 
ATOM     88  C   UNL     1       8.661   1.639   8.662  1.00  0.00     0.020 A 
ATOM     89  Cl  UNL     1      10.268   0.380   6.901  1.00  0.00    -0.084 Cl
ENDBRANCH  82  83
ENDBRANCH  75  76
BRANCH  75  90
ATOM     90  C   UNL     1       7.388   5.038   1.920  1.00  0.00     0.044 A 
ATOM     91  C   UNL     1       7.101   3.953   1.107  1.00  0.00     0.094 A 
ATOM     92  C   UNL     1       8.819   5.059   2.060  1.00  0.00     0.011 A 
ATOM     93  N   UNL     1       8.259   3.272   0.854  1.00  0.00    -0.361 N 
ATOM     94  C   UNL     1       9.325   3.923   1.428  1.00  0.00     0.046 A 
ATOM     95  C   UNL     1       9.730   5.945   2.675  1.00  0.00     0.031 A 
ATOM     96  H   UNL     1       8.320   2.437   0.337  1.00  0.00     0.166 HD
ATOM     97  C   UNL     1      10.687   3.599   1.422  1.00  0.00     0.028 A 
ATOM     98  C   UNL     1      11.094   5.646   2.654  1.00  0.00     0.041 A 
ATOM     99  C   UNL     1      11.567   4.486   2.050  1.00  0.00     0.022 A 
ATOM    100  Cl  UNL     1      12.204   6.739   3.390  1.00  0.00    -0.084 Cl
ENDBRANCH  75  90
ENDBRANCH  72  75
ENDBRANCH  70  71
ENDBRANCH  69  70
ENDBRANCH   1  69
TORSDOF 17
