REMARK SMILES Cc1c[nH]c(C[N@@H+](C)[C@@H](C(=O)NCCCCNC(=O)c2ccc(-c3c4nc(c(-c5ccc(S(=O)(=O)[O-])cc5)c5ccc([nH]5)c(-c5ccc(S(=O)(=O)[O-])cc5)c5nc(c(-c6ccc(S(=O)(=O)[O-])cc6)c6ccc3[nH]6)C=C5)C=C4)cc2)c2ccc(NC(=O)N3CCCC3)cc2)n1
REMARK SMILES IDX 14 1 13 2 12 3 10 4 11 5 9 7 7 8 8 9 6 11 5 12 1 13 2 14
REMARK SMILES IDX 3 15 94 16 4 17 80 19 81 20 93 21 82 22 92 23 83 24 84 25
REMARK SMILES IDX 85 26 86 28 87 29 88 30 91 31 89 32 90 33 15 34 16 35 17 36
REMARK SMILES IDX 18 37 19 39 20 40 21 41 79 42 22 43 78 44 23 45 24 46 25 47
REMARK SMILES IDX 72 48 26 49 77 50 71 51 73 52 27 53 76 54 70 55 69 56 28 58
REMARK SMILES IDX 58 59 39 60 57 61 40 62 43 63 56 64 74 65 41 66 42 67 55 69
REMARK SMILES IDX 75 70 44 71 29 72 30 73 38 74 31 75 37 76 32 77 33 78 34 79
REMARK SMILES IDX 35 80 36 81 59 82 60 83 68 84 61 85 67 86 62 87 63 88 64 89
REMARK SMILES IDX 65 90 66 91 45 92 46 93 54 94 47 95 53 96 48 97 49 98 50 99
REMARK SMILES IDX 51 100 52 101
REMARK H PARENT 12 6 7 10 4 18 84 27 17 38 73 57 43 68
REMARK Flexibility Score: inf
ROOT
ATOM      1  C   UNL     1      -5.853   3.612   1.335  1.00  0.00     0.023 C 
ENDROOT
BRANCH   1   2
ATOM      2  C   UNL     1      -5.210   3.075   2.615  1.00  0.00     0.116 C 
BRANCH   2   3
ATOM      3  N   UNL     1      -4.913   1.668   2.462  1.00  0.00    -0.351 N 
ATOM      4  C   UNL     1      -3.735   1.088   2.076  1.00  0.00     0.283 C 
ATOM      5  O   UNL     1      -3.808  -0.055   1.607  1.00  0.00    -0.268 OA
ATOM      6  H   UNL     1      -5.652   1.048   2.659  1.00  0.00     0.163 HD
BRANCH   4   7
ATOM      7  C   UNL     1      -2.379   1.850   2.256  1.00  0.00     0.305 C 
BRANCH   7   8
ATOM      8  N   UNL     1      -1.964   2.528   0.999  1.00  0.00    -0.317 N 
ATOM      9  C   UNL     1      -2.325   3.923   0.871  1.00  0.00     0.334 C 
ATOM     10  H   UNL     1      -0.957   2.523   1.162  1.00  0.00     0.349 HD
BRANCH   8  11
ATOM     11  C   UNL     1      -2.097   1.784  -0.262  1.00  0.00     0.339 C 
BRANCH  11  12
ATOM     12  C   UNL     1      -0.963   0.838  -0.502  1.00  0.00     0.161 A 
ATOM     13  C   UNL     1       2.458  -0.081  -0.770  1.00  0.00     0.068 C 
ATOM     14  C   UNL     1       0.981  -0.049  -0.757  1.00  0.00     0.056 A 
ATOM     15  C   UNL     1       0.083  -1.091  -0.800  1.00  0.00     0.107 A 
ATOM     16  N   UNL     1       0.314   1.146  -0.644  1.00  0.00    -0.233 NA
ATOM     17  N   UNL     1      -1.145  -0.519  -0.600  1.00  0.00    -0.344 N 
ATOM     18  H   UNL     1      -2.004  -0.996  -0.538  1.00  0.00     0.167 HD
ENDBRANCH  11  12
ENDBRANCH   8  11
ENDBRANCH   7   8
BRANCH   7  19
ATOM     19  C   UNL     1      -1.266   0.934   2.800  1.00  0.00     0.019 A 
ATOM     20  C   UNL     1      -1.546  -0.237   3.515  1.00  0.00     0.012 A 
ATOM     21  C   UNL     1       0.084   1.240   2.569  1.00  0.00     0.012 A 
ATOM     22  C   UNL     1      -0.548  -1.188   3.729  1.00  0.00     0.027 A 
ATOM     23  C   UNL     1       1.078   0.279   2.765  1.00  0.00     0.027 A 
ATOM     24  C   UNL     1       0.730  -0.991   3.214  1.00  0.00     0.042 A 
BRANCH  24  25
ATOM     25  N   UNL     1       1.680  -2.018   3.091  1.00  0.00    -0.308 N 
ATOM     26  C   UNL     1       1.541  -3.371   3.154  1.00  0.00     0.321 C 
ATOM     27  H   UNL     1       2.600  -1.708   2.932  1.00  0.00     0.171 HD
ATOM     28  O   UNL     1       2.525  -4.046   3.469  1.00  0.00    -0.248 OA
ATOM     29  N   UNL     1       0.344  -3.956   2.853  1.00  0.00    -0.325 N 
ATOM     30  C   UNL     1      -0.574  -3.604   1.784  1.00  0.00     0.121 C 
ATOM     31  C   UNL     1       0.011  -5.270   3.354  1.00  0.00     0.121 C 
ATOM     32  C   UNL     1      -1.885  -4.211   2.245  1.00  0.00     0.023 C 
ATOM     33  C   UNL     1      -1.461  -5.475   2.996  1.00  0.00     0.023 C 
ENDBRANCH  24  25
ENDBRANCH   7  19
ENDBRANCH   4   7
ENDBRANCH   2   3
ENDBRANCH   1   2
BRANCH   1  34
ATOM     34  C   UNL     1      -7.291   3.153   1.103  1.00  0.00     0.023 C 
BRANCH  34  35
ATOM     35  C   UNL     1      -8.272   3.551   2.194  1.00  0.00     0.116 C 
BRANCH  35  36
ATOM     36  N   UNL     1      -8.320   4.988   2.421  1.00  0.00    -0.352 N 
ATOM     37  C   UNL     1      -9.423   5.785   2.612  1.00  0.00     0.251 C 
ATOM     38  H   UNL     1      -7.450   5.449   2.441  1.00  0.00     0.163 HD
ATOM     39  O   UNL     1      -9.305   7.005   2.667  1.00  0.00    -0.269 OA
BRANCH  37  40
ATOM     40  C   UNL     1     -10.752   5.151   2.710  1.00  0.00     0.039 A 
ATOM     41  C   UNL     1     -11.795   5.632   1.916  1.00  0.00     0.014 A 
ATOM     42  C   UNL     1     -10.942   4.039   3.536  1.00  0.00     0.014 A 
ATOM     43  C   UNL     1     -13.012   4.949   1.896  1.00  0.00     0.010 A 
ATOM     44  C   UNL     1     -12.122   3.313   3.447  1.00  0.00     0.010 A 
ATOM     45  C   UNL     1     -13.171   3.763   2.631  1.00  0.00    -0.014 A 
BRANCH  45  46
ATOM     46  C   UNL     1     -14.428   2.977   2.572  1.00  0.00     0.031 A 
ATOM     47  C   UNL     1     -15.249   2.785   3.818  1.00  0.00     0.074 A 
ATOM     48  C   UNL     1     -14.788   2.374   1.422  1.00  0.00     0.049 A 
ATOM     49  N   UNL     1     -16.334   2.076   3.989  1.00  0.00    -0.248 NA
ATOM     50  C   UNL     1     -14.766   3.449   5.040  1.00  0.00     0.031 C 
ATOM     51  C   UNL     1     -14.048   2.441   0.159  1.00  0.00     0.029 A 
ATOM     52  N   UNL     1     -15.867   1.578   1.131  1.00  0.00    -0.354 N 
ATOM     53  C   UNL     1     -16.648   2.188   5.339  1.00  0.00     0.074 A 
ATOM     54  C   UNL     1     -15.608   2.986   5.950  1.00  0.00     0.031 C 
ATOM     55  C   UNL     1     -14.713   1.746  -0.778  1.00  0.00     0.029 A 
ATOM     56  C   UNL     1     -15.902   1.153  -0.176  1.00  0.00     0.049 A 
ATOM     57  H   UNL     1     -16.552   1.335   1.795  1.00  0.00     0.167 HD
ATOM     58  C   UNL     1     -17.716   1.691   6.006  1.00  0.00     0.031 A 
ATOM     59  C   UNL     1     -16.794   0.372  -0.819  1.00  0.00     0.031 A 
ATOM     60  C   UNL     1     -18.759   0.918   5.389  1.00  0.00     0.049 A 
ATOM     61  C   UNL     1     -17.981  -0.156  -0.063  1.00  0.00     0.074 A 
ATOM     62  C   UNL     1     -19.918   0.425   5.960  1.00  0.00     0.029 A 
ATOM     63  N   UNL     1     -18.769   0.527   4.058  1.00  0.00    -0.354 N 
ATOM     64  N   UNL     1     -18.296   0.017   1.199  1.00  0.00    -0.248 NA
ATOM     65  C   UNL     1     -18.938  -0.973  -0.820  1.00  0.00     0.031 C 
ATOM     66  C   UNL     1     -20.608  -0.303   4.984  1.00  0.00     0.029 A 
ATOM     67  C   UNL     1     -19.904  -0.219   3.793  1.00  0.00     0.049 A 
ATOM     68  H   UNL     1     -18.071   0.747   3.400  1.00  0.00     0.167 HD
ATOM     69  C   UNL     1     -19.502  -0.651   1.382  1.00  0.00     0.074 A 
ATOM     70  C   UNL     1     -19.864  -1.219   0.098  1.00  0.00     0.031 C 
ATOM     71  C   UNL     1     -20.244  -0.780   2.509  1.00  0.00     0.031 A 
BRANCH  58  72
ATOM     72  C   UNL     1     -17.796   1.971   7.484  1.00  0.00    -0.014 A 
ATOM     73  C   UNL     1     -18.033   3.272   7.966  1.00  0.00     0.010 A 
ATOM     74  C   UNL     1     -17.633   0.920   8.404  1.00  0.00     0.010 A 
ATOM     75  C   UNL     1     -18.044   3.527   9.339  1.00  0.00     0.020 A 
ATOM     76  C   UNL     1     -17.674   1.166   9.780  1.00  0.00     0.020 A 
ATOM     77  C   UNL     1     -17.856   2.473  10.238  1.00  0.00     0.054 A 
BRANCH  77  78
ATOM     78  S   UNL     1     -17.868   2.832  12.015  1.00  0.00     0.124 S 
ATOM     79  O   UNL     1     -16.562   3.460  12.202  1.00  0.00    -0.237 OA
ATOM     80  O   UNL     1     -19.018   3.721  12.156  1.00  0.00    -0.237 OA
ATOM     81  O   UNL     1     -18.021   1.517  12.633  1.00  0.00    -0.744 OA
ENDBRANCH  77  78
ENDBRANCH  58  72
BRANCH  59  82
ATOM     82  C   UNL     1     -16.610   0.078  -2.265  1.00  0.00    -0.014 A 
ATOM     83  C   UNL     1     -17.439   0.689  -3.223  1.00  0.00     0.010 A 
ATOM     84  C   UNL     1     -15.586  -0.785  -2.696  1.00  0.00     0.010 A 
ATOM     85  C   UNL     1     -17.252   0.437  -4.585  1.00  0.00     0.020 A 
ATOM     86  C   UNL     1     -15.381  -1.020  -4.059  1.00  0.00     0.020 A 
ATOM     87  C   UNL     1     -16.220  -0.413  -4.995  1.00  0.00     0.054 A 
BRANCH  87  88
ATOM     88  S   UNL     1     -15.950  -0.667  -6.772  1.00  0.00     0.124 S 
ATOM     89  O   UNL     1     -17.060  -1.547  -7.125  1.00  0.00    -0.237 OA
ATOM     90  O   UNL     1     -16.027   0.692  -7.300  1.00  0.00    -0.237 OA
ATOM     91  O   UNL     1     -14.623  -1.276  -6.830  1.00  0.00    -0.744 OA
ENDBRANCH  87  88
ENDBRANCH  59  82
BRANCH  71  92
ATOM     92  C   UNL     1     -21.536  -1.542   2.402  1.00  0.00    -0.014 A 
ATOM     93  C   UNL     1     -21.546  -2.942   2.279  1.00  0.00     0.010 A 
ATOM     94  C   UNL     1     -22.758  -0.850   2.486  1.00  0.00     0.010 A 
ATOM     95  C   UNL     1     -22.758  -3.635   2.213  1.00  0.00     0.020 A 
ATOM     96  C   UNL     1     -23.971  -1.542   2.447  1.00  0.00     0.020 A 
ATOM     97  C   UNL     1     -23.963  -2.930   2.298  1.00  0.00     0.054 A 
BRANCH  97  98
ATOM     98  S   UNL     1     -25.522  -3.856   2.259  1.00  0.00     0.124 S 
ATOM     99  O   UNL     1     -25.630  -4.207   0.846  1.00  0.00    -0.237 OA
ATOM    100  O   UNL     1     -25.257  -4.970   3.165  1.00  0.00    -0.237 OA
ATOM    101  O   UNL     1     -26.509  -2.891   2.739  1.00  0.00    -0.744 OA
ENDBRANCH  97  98
ENDBRANCH  71  92
ENDBRANCH  45  46
ENDBRANCH  37  40
ENDBRANCH  35  36
ENDBRANCH  34  35
ENDBRANCH   1  34
TORSDOF 19
