REMARK SMILES NS(=O)(=O)c1ccc(-n2nc(C(=O)NCCCCCCCCCCC(=O)NCCCCNC(=O)c3ccc(-c4c5nc(c(-c6ccc(S(=O)(=O)[O-])cc6)c6ccc([nH]6)c(-c6ccc(S(=O)(=O)[O-])cc6)c6nc(c(-c7ccc(S(=O)(=O)[O-])cc7)c7ccc4[nH]7)C=C6)C=C5)cc3)cc2-c2ccccc2)cc1
REMARK SMILES IDX 22 1 21 2 20 3 19 4 18 5 17 6 16 7 15 8 14 9 12 10 13 11
REMARK SMILES IDX 11 13 9 14 10 15 96 16 95 17 8 18 5 19 6 20 104 21 7 22
REMARK SMILES IDX 103 23 2 24 3 25 4 26 1 27 97 30 98 31 102 32 99 33 101 34
REMARK SMILES IDX 100 35 23 36 24 37 25 38 26 39 27 40 28 42 29 43 30 44 31 45
REMARK SMILES IDX 32 46 33 47 34 49 35 50 36 51 94 52 37 53 93 54 38 55 39 56
REMARK SMILES IDX 40 57 87 58 41 59 92 60 86 61 88 62 42 63 91 64 85 65 84 66
REMARK SMILES IDX 43 68 73 69 54 70 72 71 55 72 58 73 71 74 89 75 56 76 57 77
REMARK SMILES IDX 70 79 90 80 59 81 44 82 45 83 53 84 46 85 52 86 47 87 48 88
REMARK SMILES IDX 49 89 50 90 51 91 74 92 75 93 83 94 76 95 82 96 77 97 78 98
REMARK SMILES IDX 79 99 80 100 81 101 60 102 61 103 69 104 62 105 68 106
REMARK SMILES IDX 63 107 64 108 65 109 66 110 67 111
REMARK H PARENT 14 12 1 28 1 29 27 41 32 48 88 67 58 78
REMARK Flexibility Score: inf
ROOT
ATOM      1  C   UNL     1       5.846  13.002  10.252  1.00  0.00     0.001 C 
ENDROOT
BRANCH   1   2
ATOM      2  C   UNL     1       5.761  13.217   8.738  1.00  0.00     0.000 C 
BRANCH   2   3
ATOM      3  C   UNL     1       5.620  11.906   7.976  1.00  0.00     0.000 C 
BRANCH   3   4
ATOM      4  C   UNL     1       4.335  11.146   8.313  1.00  0.00     0.000 C 
BRANCH   4   5
ATOM      5  C   UNL     1       3.053  11.919   7.981  1.00  0.00     0.000 C 
BRANCH   5   6
ATOM      6  C   UNL     1       2.866  12.204   6.484  1.00  0.00     0.002 C 
BRANCH   6   7
ATOM      7  C   UNL     1       3.086  10.979   5.590  1.00  0.00     0.021 C 
BRANCH   7   8
ATOM      8  C   UNL     1       2.185   9.812   5.990  1.00  0.00     0.116 C 
BRANCH   8   9
ATOM      9  N   UNL     1       0.973   9.835   5.213  1.00  0.00    -0.351 N 
ATOM     10  C   UNL     1       0.573   9.113   4.118  1.00  0.00     0.271 C 
ATOM     11  O   UNL     1      -0.530   9.411   3.653  1.00  0.00    -0.267 OA
ATOM     12  H   UNL     1       0.309  10.490   5.526  1.00  0.00     0.163 HD
BRANCH  10  13
ATOM     13  C   UNL     1       1.381   7.996   3.587  1.00  0.00     0.151 A 
ATOM     14  N   UNL     1       1.682   6.114   2.595  1.00  0.00    -0.232 N 
ATOM     15  N   UNL     1       0.821   7.143   2.709  1.00  0.00    -0.162 NA
ATOM     16  C   UNL     1       2.859   6.335   3.285  1.00  0.00     0.075 A 
ATOM     17  C   UNL     1       2.723   7.602   3.814  1.00  0.00     0.065 A 
BRANCH  14  18
ATOM     18  C   UNL     1       1.314   4.993   1.820  1.00  0.00     0.065 A 
ATOM     19  C   UNL     1       0.714   2.831   0.196  1.00  0.00     0.082 A 
ATOM     20  C   UNL     1       1.275   2.611   1.458  1.00  0.00     0.024 A 
ATOM     21  C   UNL     1       0.415   4.125  -0.243  1.00  0.00     0.024 A 
ATOM     22  C   UNL     1       1.593   3.698   2.268  1.00  0.00     0.030 A 
ATOM     23  C   UNL     1       0.686   5.210   0.587  1.00  0.00     0.030 A 
BRANCH  19  24
ATOM     24  S   UNL     1       0.412   1.489  -0.908  1.00  0.00     0.238 S 
ATOM     25  O   UNL     1       1.169   1.727  -2.128  1.00  0.00    -0.207 OA
ATOM     26  O   UNL     1      -0.986   1.185  -0.904  1.00  0.00    -0.207 OA
BRANCH  24  27
ATOM     27  N   UNL     1       1.173   0.173  -0.186  1.00  0.00    -0.225 NA
ATOM     28  H   UNL     1       1.046  -0.655  -0.768  1.00  0.00     0.137 HD
ATOM     29  H   UNL     1       0.766   0.008   0.734  1.00  0.00     0.137 HD
ENDBRANCH  24  27
ENDBRANCH  19  24
ENDBRANCH  14  18
BRANCH  16  30
ATOM     30  C   UNL     1       4.031   5.467   3.314  1.00  0.00     0.000 A 
ATOM     31  C   UNL     1       4.760   5.209   2.149  1.00  0.00     0.010 A 
ATOM     32  C   UNL     1       4.450   4.904   4.527  1.00  0.00     0.010 A 
ATOM     33  C   UNL     1       5.886   4.385   2.193  1.00  0.00     0.001 A 
ATOM     34  C   UNL     1       5.574   4.077   4.568  1.00  0.00     0.001 A 
ATOM     35  C   UNL     1       6.291   3.818   3.401  1.00  0.00     0.000 A 
ENDBRANCH  16  30
ENDBRANCH  10  13
ENDBRANCH   8   9
ENDBRANCH   7   8
ENDBRANCH   6   7
ENDBRANCH   5   6
ENDBRANCH   4   5
ENDBRANCH   3   4
ENDBRANCH   2   3
ENDBRANCH   1   2
BRANCH   1  36
ATOM     36  C   UNL     1       7.156  13.467  10.872  1.00  0.00     0.010 C 
BRANCH  36  37
ATOM     37  C   UNL     1       7.487  14.944  10.667  1.00  0.00     0.100 C 
BRANCH  37  38
ATOM     38  C   UNL     1       6.873  15.856  11.710  1.00  0.00     0.219 C 
ATOM     39  O   UNL     1       7.465  16.073  12.771  1.00  0.00    -0.275 OA
ATOM     40  N   UNL     1       5.665  16.456  11.520  1.00  0.00    -0.356 N 
ATOM     41  H   UNL     1       5.412  17.091  12.228  1.00  0.00     0.163 HD
BRANCH  40  42
ATOM     42  C   UNL     1       4.684  16.326  10.455  1.00  0.00     0.116 C 
BRANCH  42  43
ATOM     43  C   UNL     1       3.432  15.562  10.921  1.00  0.00     0.023 C 
BRANCH  43  44
ATOM     44  C   UNL     1       2.387  16.358  11.712  1.00  0.00     0.023 C 
BRANCH  44  45
ATOM     45  C   UNL     1       1.565  17.349  10.899  1.00  0.00     0.116 C 
BRANCH  45  46
ATOM     46  N   UNL     1       0.723  16.715   9.879  1.00  0.00    -0.352 N 
ATOM     47  C   UNL     1       0.121  17.326   8.789  1.00  0.00     0.251 C 
ATOM     48  H   UNL     1       0.568  15.748   9.979  1.00  0.00     0.163 HD
ATOM     49  O   UNL     1      -0.857  16.835   8.242  1.00  0.00    -0.269 OA
BRANCH  47  50
ATOM     50  C   UNL     1       0.714  18.581   8.302  1.00  0.00     0.039 A 
ATOM     51  C   UNL     1      -0.053  19.724   8.059  1.00  0.00     0.014 A 
ATOM     52  C   UNL     1       2.102  18.613   8.225  1.00  0.00     0.014 A 
ATOM     53  C   UNL     1       0.605  20.935   7.845  1.00  0.00     0.010 A 
ATOM     54  C   UNL     1       2.735  19.827   8.191  1.00  0.00     0.010 A 
ATOM     55  C   UNL     1       2.005  20.988   7.947  1.00  0.00    -0.014 A 
BRANCH  55  56
ATOM     56  C   UNL     1       2.724  22.259   7.912  1.00  0.00     0.031 A 
ATOM     57  C   UNL     1       2.242  23.299   8.864  1.00  0.00     0.074 A 
ATOM     58  C   UNL     1       3.897  22.418   7.259  1.00  0.00     0.049 A 
ATOM     59  N   UNL     1       1.619  24.397   8.588  1.00  0.00    -0.248 NA
ATOM     60  C   UNL     1       2.355  23.029  10.306  1.00  0.00     0.031 C 
ATOM     61  C   UNL     1       4.687  21.404   6.544  1.00  0.00     0.029 A 
ATOM     62  N   UNL     1       4.707  23.508   7.210  1.00  0.00    -0.354 N 
ATOM     63  C   UNL     1       1.475  25.073   9.798  1.00  0.00     0.074 A 
ATOM     64  C   UNL     1       1.752  24.101  10.826  1.00  0.00     0.031 C 
ATOM     65  C   UNL     1       5.949  21.851   6.368  1.00  0.00     0.029 A 
ATOM     66  C   UNL     1       5.996  23.244   6.762  1.00  0.00     0.049 A 
ATOM     67  H   UNL     1       4.407  24.409   7.470  1.00  0.00     0.167 HD
ATOM     68  C   UNL     1       1.404  26.435   9.853  1.00  0.00     0.031 A 
ATOM     69  C   UNL     1       7.040  24.107   6.719  1.00  0.00     0.031 A 
ATOM     70  C   UNL     1       1.187  27.005   8.545  1.00  0.00     0.049 A 
ATOM     71  C   UNL     1       6.466  25.473   6.737  1.00  0.00     0.074 A 
ATOM     72  C   UNL     1       0.220  26.872   7.569  1.00  0.00     0.029 A 
ATOM     73  N   UNL     1       2.283  27.553   7.918  1.00  0.00    -0.354 N 
ATOM     74  N   UNL     1       5.725  25.949   5.775  1.00  0.00    -0.248 NA
ATOM     75  C   UNL     1       6.341  26.153   8.014  1.00  0.00     0.031 C 
ATOM     76  C   UNL     1       0.940  26.887   6.337  1.00  0.00     0.029 A 
ATOM     77  C   UNL     1       2.289  27.105   6.623  1.00  0.00     0.049 A 
ATOM     78  H   UNL     1       2.943  28.159   8.327  1.00  0.00     0.167 HD
ATOM     79  C   UNL     1       4.737  26.681   6.417  1.00  0.00     0.074 A 
ATOM     80  C   UNL     1       5.236  26.866   7.779  1.00  0.00     0.031 C 
ATOM     81  C   UNL     1       3.494  26.827   5.867  1.00  0.00     0.031 A 
BRANCH  68  82
ATOM     82  C   UNL     1       1.958  27.268  10.993  1.00  0.00    -0.014 A 
ATOM     83  C   UNL     1       1.853  28.674  10.918  1.00  0.00     0.010 A 
ATOM     84  C   UNL     1       2.823  26.752  11.979  1.00  0.00     0.010 A 
ATOM     85  C   UNL     1       2.650  29.511  11.712  1.00  0.00     0.020 A 
ATOM     86  C   UNL     1       3.586  27.576  12.809  1.00  0.00     0.020 A 
ATOM     87  C   UNL     1       3.528  28.952  12.639  1.00  0.00     0.054 A 
BRANCH  87  88
ATOM     88  S   UNL     1       4.653  30.027  13.562  1.00  0.00     0.124 S 
ATOM     89  O   UNL     1       5.524  30.526  12.502  1.00  0.00    -0.237 OA
ATOM     90  O   UNL     1       3.738  31.003  14.146  1.00  0.00    -0.237 OA
ATOM     91  O   UNL     1       5.283  29.119  14.518  1.00  0.00    -0.744 OA
ENDBRANCH  87  88
ENDBRANCH  68  82
BRANCH  69  92
ATOM     92  C   UNL     1       8.476  23.821   6.943  1.00  0.00    -0.014 A 
ATOM     93  C   UNL     1       9.463  24.759   6.593  1.00  0.00     0.010 A 
ATOM     94  C   UNL     1       8.858  22.741   7.767  1.00  0.00     0.010 A 
ATOM     95  C   UNL     1      10.768  24.660   7.106  1.00  0.00     0.020 A 
ATOM     96  C   UNL     1      10.157  22.632   8.277  1.00  0.00     0.020 A 
ATOM     97  C   UNL     1      11.100  23.609   7.965  1.00  0.00     0.054 A 
BRANCH  97  98
ATOM     98  S   UNL     1      12.728  23.597   8.773  1.00  0.00     0.124 S 
ATOM     99  O   UNL     1      13.623  23.283   7.663  1.00  0.00    -0.237 OA
ATOM    100  O   UNL     1      12.830  24.953   9.303  1.00  0.00    -0.237 OA
ATOM    101  O   UNL     1      12.603  22.548   9.783  1.00  0.00    -0.744 OA
ENDBRANCH  97  98
ENDBRANCH  69  92
BRANCH  81 102
ATOM    102  C   UNL     1       3.299  26.452   4.413  1.00  0.00    -0.014 A 
ATOM    103  C   UNL     1       3.494  25.154   3.901  1.00  0.00     0.010 A 
ATOM    104  C   UNL     1       2.750  27.428   3.564  1.00  0.00     0.010 A 
ATOM    105  C   UNL     1       3.172  24.852   2.567  1.00  0.00     0.020 A 
ATOM    106  C   UNL     1       2.410  27.131   2.242  1.00  0.00     0.020 A 
ATOM    107  C   UNL     1       2.631  25.846   1.746  1.00  0.00     0.054 A 
BRANCH 107 108
ATOM    108  S   UNL     1       2.174  25.444   0.035  1.00  0.00     0.124 S 
ATOM    109  O   UNL     1       3.472  25.231  -0.599  1.00  0.00    -0.237 OA
ATOM    110  O   UNL     1       1.346  24.251   0.191  1.00  0.00    -0.237 OA
ATOM    111  O   UNL     1       1.452  26.632  -0.421  1.00  0.00    -0.744 OA
ENDBRANCH 107 108
ENDBRANCH  81 102
ENDBRANCH  55  56
ENDBRANCH  47  50
ENDBRANCH  45  46
ENDBRANCH  44  45
ENDBRANCH  43  44
ENDBRANCH  42  43
ENDBRANCH  40  42
ENDBRANCH  37  38
ENDBRANCH  36  37
ENDBRANCH   1  36
TORSDOF 29
