REMARK SMILES CC(C)n1cncc1[C@@H](NC(=O)OC(C)(C)C)C(=O)NCCCCNC(=O)c1ccc(-c2c3nc(c(-c4ccc(S(=O)(=O)[O-])cc4)c4ccc([nH]4)c(-c4ccc(S(=O)(=O)[O-])cc4)c4nc(c(-c5ccc(S(=O)(=O)[O-])cc5)c5ccc2[nH]5)C=C4)C=C3)cc1
REMARK SMILES IDX 22 1 21 2 20 3 18 4 19 5 9 7 8 8 4 9 5 10 6 11 7 12 2 13
REMARK SMILES IDX 1 14 3 15 10 16 11 17 12 19 13 20 14 21 15 22 16 23 17 24
REMARK SMILES IDX 23 25 24 26 25 27 26 28 27 30 28 31 29 32 87 33 30 34 86 35
REMARK SMILES IDX 31 36 32 37 33 38 80 39 34 40 85 41 79 42 81 43 35 44 84 45
REMARK SMILES IDX 78 46 77 47 36 49 66 50 47 51 65 52 48 53 51 54 64 55 82 56
REMARK SMILES IDX 49 57 50 58 63 60 83 61 52 62 37 63 38 64 46 65 39 66 45 67
REMARK SMILES IDX 40 68 41 69 42 70 43 71 44 72 67 73 68 74 76 75 69 76 75 77
REMARK SMILES IDX 70 78 71 79 72 80 73 81 74 82 53 83 54 84 62 85 55 86 61 87
REMARK SMILES IDX 56 88 57 89 58 90 59 91 60 92
REMARK H PARENT 20 6 10 18 25 29 81 48 51 59
REMARK Flexibility Score: inf
ROOT
ATOM      1  C   UNL     1      -5.152  -0.184   1.090  1.00  0.00     0.023 C 
ENDROOT
BRANCH   1   2
ATOM      2  C   UNL     1      -4.399   1.052   0.601  1.00  0.00     0.116 C 
BRANCH   2   3
ATOM      3  N   UNL     1      -3.180   1.272   1.346  1.00  0.00    -0.354 N 
ATOM      4  C   UNL     1      -1.879   1.248   0.939  1.00  0.00     0.248 C 
ATOM      5  O   UNL     1      -1.028   1.335   1.836  1.00  0.00    -0.272 OA
ATOM      6  H   UNL     1      -3.311   1.471   2.301  1.00  0.00     0.163 HD
BRANCH   4   7
ATOM      7  C   UNL     1      -1.429   0.949  -0.532  1.00  0.00     0.223 C 
BRANCH   7   8
ATOM      8  C   UNL     1      -1.554  -0.543  -0.753  1.00  0.00     0.070 A 
ATOM      9  N   UNL     1      -0.639  -1.549  -0.493  1.00  0.00    -0.330 N 
ATOM     10  C   UNL     1      -1.319  -2.738  -0.685  1.00  0.00     0.199 A 
ATOM     11  N   UNL     1      -2.527  -2.568  -1.151  1.00  0.00    -0.245 NA
ATOM     12  C   UNL     1      -2.668  -1.222  -1.234  1.00  0.00     0.137 A 
BRANCH   9  13
ATOM     13  C   UNL     1       0.808  -1.545  -0.270  1.00  0.00     0.082 C 
ATOM     14  C   UNL     1       1.500  -0.205  -0.032  1.00  0.00     0.031 C 
ATOM     15  C   UNL     1       1.234  -2.515   0.845  1.00  0.00     0.031 C 
ENDBRANCH   9  13
ENDBRANCH   7   8
BRANCH   7  16
ATOM     16  N   UNL     1      -2.101   1.565  -1.661  1.00  0.00    -0.304 N 
ATOM     17  C   UNL     1      -2.487   2.857  -1.767  1.00  0.00     0.408 C 
ATOM     18  H   UNL     1      -2.297   0.982  -2.429  1.00  0.00     0.168 HD
ATOM     19  O   UNL     1      -2.766   3.325  -2.867  1.00  0.00    -0.225 OA
BRANCH  17  20
ATOM     20  O   UNL     1      -2.670   3.449  -0.571  1.00  0.00    -0.444 OA
BRANCH  20  21
ATOM     21  C   UNL     1      -3.516   4.616  -0.490  1.00  0.00     0.106 C 
ATOM     22  C   UNL     1      -2.811   5.827  -1.081  1.00  0.00     0.056 C 
ATOM     23  C   UNL     1      -4.851   4.354  -1.194  1.00  0.00     0.056 C 
ATOM     24  C   UNL     1      -3.766   4.856   1.011  1.00  0.00     0.056 C 
ENDBRANCH  20  21
ENDBRANCH  17  20
ENDBRANCH   7  16
ENDBRANCH   4   7
ENDBRANCH   2   3
ENDBRANCH   1   2
BRANCH   1  25
ATOM     25  C   UNL     1      -5.980   0.028   2.365  1.00  0.00     0.023 C 
BRANCH  25  26
ATOM     26  C   UNL     1      -7.138   1.015   2.231  1.00  0.00     0.116 C 
BRANCH  26  27
ATOM     27  N   UNL     1      -8.125   0.630   1.216  1.00  0.00    -0.352 N 
ATOM     28  C   UNL     1      -9.186   1.375   0.721  1.00  0.00     0.251 C 
ATOM     29  H   UNL     1      -8.021  -0.273   0.838  1.00  0.00     0.163 HD
ATOM     30  O   UNL     1     -10.155   0.826   0.210  1.00  0.00    -0.269 OA
BRANCH  28  31
ATOM     31  C   UNL     1      -9.105   2.847   0.783  1.00  0.00     0.039 A 
ATOM     32  C   UNL     1     -10.193   3.679   1.069  1.00  0.00     0.014 A 
ATOM     33  C   UNL     1      -7.853   3.394   0.557  1.00  0.00     0.014 A 
ATOM     34  C   UNL     1      -9.982   5.059   1.188  1.00  0.00     0.010 A 
ATOM     35  C   UNL     1      -7.619   4.700   0.879  1.00  0.00     0.010 A 
ATOM     36  C   UNL     1      -8.680   5.564   1.088  1.00  0.00    -0.014 A 
BRANCH  36  37
ATOM     37  C   UNL     1      -8.315   6.957   1.329  1.00  0.00     0.031 A 
ATOM     38  C   UNL     1      -8.614   7.442   2.696  1.00  0.00     0.074 A 
ATOM     39  C   UNL     1      -7.487   7.641   0.503  1.00  0.00     0.049 A 
ATOM     40  N   UNL     1      -9.482   8.339   3.019  1.00  0.00    -0.248 NA
ATOM     41  C   UNL     1      -7.994   6.767   3.848  1.00  0.00     0.031 C 
ATOM     42  C   UNL     1      -6.896   7.197  -0.763  1.00  0.00     0.029 A 
ATOM     43  N   UNL     1      -6.876   8.842   0.693  1.00  0.00    -0.354 N 
ATOM     44  C   UNL     1      -9.345   8.523   4.388  1.00  0.00     0.074 A 
ATOM     45  C   UNL     1      -8.591   7.392   4.866  1.00  0.00     0.031 C 
ATOM     46  C   UNL     1      -5.833   7.975  -1.076  1.00  0.00     0.029 A 
ATOM     47  C   UNL     1      -5.787   9.085  -0.146  1.00  0.00     0.049 A 
ATOM     48  H   UNL     1      -7.178   9.489   1.370  1.00  0.00     0.167 HD
ATOM     49  C   UNL     1      -9.617   9.727   4.966  1.00  0.00     0.031 A 
ATOM     50  C   UNL     1      -4.927  10.138  -0.097  1.00  0.00     0.031 A 
ATOM     51  C   UNL     1     -10.311  10.605   4.053  1.00  0.00     0.049 A 
ATOM     52  C   UNL     1      -5.655  11.230   0.586  1.00  0.00     0.074 A 
ATOM     53  C   UNL     1     -11.497  10.538   3.348  1.00  0.00     0.029 A 
ATOM     54  N   UNL     1      -9.558  11.573   3.426  1.00  0.00    -0.354 N 
ATOM     55  N   UNL     1      -6.733  11.773   0.092  1.00  0.00    -0.248 NA
ATOM     56  C   UNL     1      -5.481  11.369   2.021  1.00  0.00     0.031 C 
ATOM     57  C   UNL     1     -11.197  11.098   2.069  1.00  0.00     0.029 A 
ATOM     58  C   UNL     1      -9.877  11.552   2.092  1.00  0.00     0.049 A 
ATOM     59  H   UNL     1      -8.907  12.172   3.858  1.00  0.00     0.167 HD
ATOM     60  C   UNL     1      -7.583  11.907   1.179  1.00  0.00     0.074 A 
ATOM     61  C   UNL     1      -6.721  11.743   2.352  1.00  0.00     0.031 C 
ATOM     62  C   UNL     1      -8.940  11.849   1.026  1.00  0.00     0.031 A 
BRANCH  49  63
ATOM     63  C   UNL     1      -8.892  10.258   6.180  1.00  0.00    -0.014 A 
ATOM     64  C   UNL     1      -9.279  11.508   6.703  1.00  0.00     0.010 A 
ATOM     65  C   UNL     1      -7.678   9.717   6.654  1.00  0.00     0.010 A 
ATOM     66  C   UNL     1      -8.451  12.216   7.584  1.00  0.00     0.020 A 
ATOM     67  C   UNL     1      -6.868  10.393   7.566  1.00  0.00     0.020 A 
ATOM     68  C   UNL     1      -7.240  11.658   7.994  1.00  0.00     0.054 A 
BRANCH  68  69
ATOM     69  S   UNL     1      -6.118  12.632   9.025  1.00  0.00     0.124 S 
ATOM     70  O   UNL     1      -5.745  13.713   8.118  1.00  0.00    -0.237 OA
ATOM     71  O   UNL     1      -6.976  13.007  10.145  1.00  0.00    -0.237 OA
ATOM     72  O   UNL     1      -5.051  11.689   9.351  1.00  0.00    -0.744 OA
ENDBRANCH  68  69
ENDBRANCH  49  63
BRANCH  50  73
ATOM     73  C   UNL     1      -3.448  10.142  -0.255  1.00  0.00    -0.014 A 
ATOM     74  C   UNL     1      -2.721  11.304  -0.572  1.00  0.00     0.010 A 
ATOM     75  C   UNL     1      -2.713   9.033   0.207  1.00  0.00     0.010 A 
ATOM     76  C   UNL     1      -1.317  11.351  -0.423  1.00  0.00     0.020 A 
ATOM     77  C   UNL     1      -1.317   9.058   0.330  1.00  0.00     0.020 A 
ATOM     78  C   UNL     1      -0.624  10.227   0.034  1.00  0.00     0.054 A 
BRANCH  78  79
ATOM     79  S   UNL     1       1.167  10.328   0.349  1.00  0.00     0.124 S 
ATOM     80  O   UNL     1       1.709  10.582  -0.982  1.00  0.00    -0.237 OA
ATOM     81  O   UNL     1       1.259  11.439   1.291  1.00  0.00    -0.237 OA
ATOM     82  O   UNL     1       1.494   9.017   0.908  1.00  0.00    -0.744 OA
ENDBRANCH  78  79
ENDBRANCH  50  73
BRANCH  62  83
ATOM     83  C   UNL     1      -9.510  11.874  -0.379  1.00  0.00    -0.014 A 
ATOM     84  C   UNL     1      -9.299  10.858  -1.335  1.00  0.00     0.010 A 
ATOM     85  C   UNL     1     -10.431  12.890  -0.684  1.00  0.00     0.010 A 
ATOM     86  C   UNL     1      -9.981  10.870  -2.565  1.00  0.00     0.020 A 
ATOM     87  C   UNL     1     -11.123  12.900  -1.898  1.00  0.00     0.020 A 
ATOM     88  C   UNL     1     -10.892  11.895  -2.837  1.00  0.00     0.054 A 
BRANCH  88  89
ATOM     89  S   UNL     1     -11.813  11.887  -4.403  1.00  0.00     0.124 S 
ATOM     90  O   UNL     1     -10.771  12.161  -5.387  1.00  0.00    -0.237 OA
ATOM     91  O   UNL     1     -12.378  10.540  -4.442  1.00  0.00    -0.237 OA
ATOM     92  O   UNL     1     -12.798  12.955  -4.233  1.00  0.00    -0.744 OA
ENDBRANCH  88  89
ENDBRANCH  62  83
ENDBRANCH  36  37
ENDBRANCH  28  31
ENDBRANCH  26  27
ENDBRANCH  25  26
ENDBRANCH   1  25
TORSDOF 19
