REMARK SMILES O=C(NCCCCNC(=O)c1ccc(F)c(S(=O)(=O)N2CCOc3ccccc32)c1)c1ccc(-c2c3nc(c(-c4ccc(S(=O)(=O)[O-])cc4)c4ccc([nH]4)c(-c4ccc(S(=O)(=O)[O-])cc4)c4nc(c(-c5ccc(S(=O)(=O)[O-])cc5)c5ccc2[nH]5)C=C4)C=C3)cc1
REMARK SMILES IDX 5 1 4 2 3 3 1 4 2 5 31 7 32 8 90 9 33 10 89 11 34 12 35 13
REMARK SMILES IDX 36 14 83 15 37 16 88 17 82 18 84 19 38 20 87 21 81 22 80 23
REMARK SMILES IDX 39 25 69 26 50 27 68 28 51 29 54 30 67 31 85 32 52 33 53 34
REMARK SMILES IDX 66 36 86 37 55 38 40 39 41 40 49 41 42 42 48 43 43 44 44 45
REMARK SMILES IDX 45 46 46 47 47 48 70 49 71 50 79 51 72 52 78 53 73 54 74 55
REMARK SMILES IDX 75 56 76 57 77 58 56 59 57 60 65 61 58 62 64 63 59 64 60 65
REMARK SMILES IDX 61 66 62 67 63 68 6 69 7 70 8 71 9 72 10 74 11 75 12 76
REMARK SMILES IDX 30 77 13 78 16 79 14 80 15 81 17 82 18 83 19 84 20 85 21 86
REMARK SMILES IDX 29 87 22 88 24 89 28 90 23 91 25 92 27 93 26 94
REMARK H PARENT 3 6 84 24 54 35 8 73
REMARK Flexibility Score: inf
ROOT
ATOM      1  C   UNL     1       4.950  -0.633   2.433  1.00  0.00     0.023 C 
ENDROOT
BRANCH   1   2
ATOM      2  C   UNL     1       4.593  -0.799   0.959  1.00  0.00     0.116 C 
BRANCH   2   3
ATOM      3  N   UNL     1       3.158  -0.871   0.731  1.00  0.00    -0.352 N 
ATOM      4  O   UNL     1       1.123  -0.186   0.059  1.00  0.00    -0.269 OA
ATOM      5  C   UNL     1       2.341  -0.039   0.004  1.00  0.00     0.251 C 
ATOM      6  H   UNL     1       2.704  -1.631   1.162  1.00  0.00     0.163 HD
BRANCH   5   7
ATOM      7  C   UNL     1       2.922   1.045  -0.818  1.00  0.00     0.039 A 
ATOM      8  C   UNL     1       4.013   0.808  -1.659  1.00  0.00     0.014 A 
ATOM      9  C   UNL     1       2.350   2.318  -0.754  1.00  0.00     0.014 A 
ATOM     10  C   UNL     1       4.617   1.869  -2.329  1.00  0.00     0.010 A 
ATOM     11  C   UNL     1       2.914   3.368  -1.483  1.00  0.00     0.010 A 
ATOM     12  C   UNL     1       4.071   3.159  -2.251  1.00  0.00    -0.014 A 
BRANCH  12  13
ATOM     13  C   UNL     1       4.687   4.283  -3.000  1.00  0.00     0.031 A 
ATOM     14  C   UNL     1       5.302   5.445  -2.270  1.00  0.00     0.074 A 
ATOM     15  C   UNL     1       4.663   4.268  -4.346  1.00  0.00     0.049 A 
ATOM     16  N   UNL     1       5.809   6.549  -2.758  1.00  0.00    -0.248 NA
ATOM     17  C   UNL     1       5.345   5.360  -0.802  1.00  0.00     0.031 C 
ATOM     18  C   UNL     1       4.101   3.194  -5.167  1.00  0.00     0.029 A 
ATOM     19  N   UNL     1       5.111   5.188  -5.260  1.00  0.00    -0.354 N 
ATOM     20  C   UNL     1       6.205   7.303  -1.659  1.00  0.00     0.074 A 
ATOM     21  C   UNL     1       5.863   6.537  -0.479  1.00  0.00     0.031 C 
ATOM     22  C   UNL     1       4.245   3.512  -6.462  1.00  0.00     0.029 A 
ATOM     23  C   UNL     1       4.851   4.835  -6.562  1.00  0.00     0.049 A 
ATOM     24  H   UNL     1       5.573   6.020  -5.007  1.00  0.00     0.167 HD
ATOM     25  C   UNL     1       6.797   8.522  -1.637  1.00  0.00     0.031 A 
ATOM     26  C   UNL     1       5.045   5.511  -7.711  1.00  0.00     0.031 A 
ATOM     27  C   UNL     1       7.125   9.281  -2.816  1.00  0.00     0.049 A 
ATOM     28  C   UNL     1       5.666   6.875  -7.665  1.00  0.00     0.074 A 
ATOM     29  C   UNL     1       7.752  10.513  -2.900  1.00  0.00     0.029 A 
ATOM     30  N   UNL     1       6.843   8.887  -4.116  1.00  0.00    -0.354 N 
ATOM     31  N   UNL     1       6.061   7.561  -6.619  1.00  0.00    -0.248 NA
ATOM     32  C   UNL     1       5.875   7.556  -8.950  1.00  0.00     0.031 C 
ATOM     33  C   UNL     1       7.801  10.887  -4.247  1.00  0.00     0.029 A 
ATOM     34  C   UNL     1       7.261   9.861  -5.008  1.00  0.00     0.049 A 
ATOM     35  H   UNL     1       6.410   8.040  -4.368  1.00  0.00     0.167 HD
ATOM     36  C   UNL     1       6.590   8.744  -7.120  1.00  0.00     0.074 A 
ATOM     37  C   UNL     1       6.465   8.680  -8.563  1.00  0.00     0.031 C 
ATOM     38  C   UNL     1       7.136   9.784  -6.443  1.00  0.00     0.031 A 
BRANCH  25  39
ATOM     39  C   UNL     1       7.082   9.129  -0.288  1.00  0.00    -0.014 A 
ATOM     40  C   UNL     1       8.082   8.610   0.554  1.00  0.00     0.010 A 
ATOM     41  C   UNL     1       6.338  10.243   0.143  1.00  0.00     0.010 A 
ATOM     42  C   UNL     1       8.288   9.153   1.826  1.00  0.00     0.020 A 
ATOM     43  C   UNL     1       6.560  10.806   1.403  1.00  0.00     0.020 A 
ATOM     44  C   UNL     1       7.516  10.239   2.247  1.00  0.00     0.054 A 
BRANCH  44  45
ATOM     45  S   UNL     1       7.781  10.907   3.913  1.00  0.00     0.124 S 
ATOM     46  O   UNL     1       7.137   9.894   4.746  1.00  0.00    -0.237 OA
ATOM     47  O   UNL     1       9.237  10.965   4.010  1.00  0.00    -0.237 OA
ATOM     48  O   UNL     1       7.109  12.203   3.879  1.00  0.00    -0.744 OA
ENDBRANCH  44  45
ENDBRANCH  25  39
BRANCH  26  49
ATOM     49  C   UNL     1       4.623   4.886  -8.992  1.00  0.00    -0.014 A 
ATOM     50  C   UNL     1       5.576   4.362  -9.881  1.00  0.00     0.010 A 
ATOM     51  C   UNL     1       3.254   4.732  -9.284  1.00  0.00     0.010 A 
ATOM     52  C   UNL     1       5.169   3.685 -11.034  1.00  0.00     0.020 A 
ATOM     53  C   UNL     1       2.843   4.033 -10.422  1.00  0.00     0.020 A 
ATOM     54  C   UNL     1       3.805   3.515 -11.291  1.00  0.00     0.054 A 
BRANCH  54  55
ATOM     55  S   UNL     1       3.302   2.540 -12.736  1.00  0.00     0.124 S 
ATOM     56  O   UNL     1       3.580   3.459 -13.835  1.00  0.00    -0.237 OA
ATOM     57  O   UNL     1       4.177   1.373 -12.650  1.00  0.00    -0.237 OA
ATOM     58  O   UNL     1       1.888   2.266 -12.489  1.00  0.00    -0.744 OA
ENDBRANCH  54  55
ENDBRANCH  26  49
BRANCH  38  59
ATOM     59  C   UNL     1       7.687  10.930  -7.247  1.00  0.00    -0.014 A 
ATOM     60  C   UNL     1       6.839  11.875  -7.850  1.00  0.00     0.010 A 
ATOM     61  C   UNL     1       9.080  11.111  -7.319  1.00  0.00     0.010 A 
ATOM     62  C   UNL     1       7.377  12.979  -8.517  1.00  0.00     0.020 A 
ATOM     63  C   UNL     1       9.621  12.225  -7.965  1.00  0.00     0.020 A 
ATOM     64  C   UNL     1       8.765  13.151  -8.565  1.00  0.00     0.054 A 
BRANCH  64  65
ATOM     65  S   UNL     1       9.437  14.635  -9.362  1.00  0.00     0.124 S 
ATOM     66  O   UNL     1       9.243  14.334 -10.778  1.00  0.00    -0.237 OA
ATOM     67  O   UNL     1       8.592  15.699  -8.824  1.00  0.00    -0.237 OA
ATOM     68  O   UNL     1      10.828  14.668  -8.917  1.00  0.00    -0.744 OA
ENDBRANCH  64  65
ENDBRANCH  38  59
ENDBRANCH  12  13
ENDBRANCH   5   7
ENDBRANCH   2   3
ENDBRANCH   1   2
BRANCH   1  69
ATOM     69  C   UNL     1       4.475  -1.756   3.353  1.00  0.00     0.023 C 
BRANCH  69  70
ATOM     70  C   UNL     1       4.879  -3.164   2.933  1.00  0.00     0.116 C 
BRANCH  70  71
ATOM     71  N   UNL     1       6.319  -3.373   2.917  1.00  0.00    -0.352 N 
ATOM     72  C   UNL     1       7.046  -4.419   3.434  1.00  0.00     0.251 C 
ATOM     73  H   UNL     1       6.846  -2.668   2.475  1.00  0.00     0.163 HD
ATOM     74  O   UNL     1       8.271  -4.405   3.426  1.00  0.00    -0.269 OA
BRANCH  72  75
ATOM     75  C   UNL     1       6.337  -5.566   4.038  1.00  0.00     0.041 A 
ATOM     76  C   UNL     1       5.308  -6.209   3.343  1.00  0.00     0.017 A 
ATOM     77  C   UNL     1       6.691  -5.984   5.325  1.00  0.00     0.039 A 
ATOM     78  C   UNL     1       4.539  -7.170   3.990  1.00  0.00     0.041 A 
ATOM     79  C   UNL     1       5.938  -6.984   5.955  1.00  0.00     0.124 A 
ATOM     80  C   UNL     1       4.836  -7.528   5.303  1.00  0.00     0.143 A 
ATOM     81  F   UNL     1       4.003  -8.395   5.886  1.00  0.00    -0.205 F 
BRANCH  79  82
ATOM     82  S   UNL     1       6.436  -7.481   7.583  1.00  0.00     0.267 S 
ATOM     83  O   UNL     1       7.740  -8.094   7.427  1.00  0.00    -0.201 OA
ATOM     84  O   UNL     1       6.274  -6.300   8.406  1.00  0.00    -0.201 OA
BRANCH  82  85
ATOM     85  N   UNL     1       5.361  -8.704   8.036  1.00  0.00    -0.259 N 
ATOM     86  C   UNL     1       5.568 -10.045   7.430  1.00  0.00     0.177 C 
ATOM     87  C   UNL     1       4.663  -8.706   9.300  1.00  0.00     0.094 A 
ATOM     88  C   UNL     1       5.928 -11.030   8.528  1.00  0.00     0.252 C 
ATOM     89  C   UNL     1       4.402  -9.940   9.932  1.00  0.00     0.143 A 
ATOM     90  C   UNL     1       4.091  -7.552   9.844  1.00  0.00     0.031 A 
ATOM     91  O   UNL     1       4.862 -11.156   9.477  1.00  0.00    -0.489 OA
ATOM     92  C   UNL     1       3.600 -10.004  11.074  1.00  0.00     0.049 A 
ATOM     93  C   UNL     1       3.319  -7.615  11.009  1.00  0.00     0.002 A 
ATOM     94  C   UNL     1       3.068  -8.840  11.620  1.00  0.00     0.004 A 
ENDBRANCH  82  85
ENDBRANCH  79  82
ENDBRANCH  72  75
ENDBRANCH  70  71
ENDBRANCH  69  70
ENDBRANCH   1  69
TORSDOF 16
