REMARK SMILES CCc1c(C)nn(CC(=O)N[C@H](C(=O)NCCCCNC(=O)c2ccc(-c3c4nc(c(-c5ccc(S(=O)(=O)[O-])cc5)c5ccc([nH]5)c(-c5ccc(S(=O)(=O)[O-])cc5)c5nc(c(-c6ccc(S(=O)(=O)[O-])cc6)c6ccc3[nH]6)C=C5)C=C4)cc2)c2c(C)n[nH]c2C)c1C
REMARK SMILES IDX 17 1 16 2 15 3 13 4 14 5 12 7 11 8 9 9 10 10 8 12 7 13 3 14
REMARK SMILES IDX 4 15 90 16 5 17 6 18 91 19 2 20 1 21 83 22 84 23 88 24 85 25
REMARK SMILES IDX 86 26 87 27 89 28 18 30 19 31 20 32 21 33 22 35 23 36 24 37
REMARK SMILES IDX 82 38 25 39 81 40 26 41 27 42 28 43 75 44 29 45 80 46 74 47
REMARK SMILES IDX 76 48 30 49 79 50 73 51 72 52 31 54 61 55 42 56 60 57 43 58
REMARK SMILES IDX 46 59 59 60 77 61 44 62 45 63 58 65 78 66 47 67 32 68 33 69
REMARK SMILES IDX 41 70 34 71 40 72 35 73 36 74 37 75 38 76 39 77 62 78 63 79
REMARK SMILES IDX 71 80 64 81 70 82 65 83 66 84 67 85 68 86 69 87 48 88 49 89
REMARK SMILES IDX 57 90 50 91 56 92 51 93 52 94 53 95 54 96 55 97
REMARK H PARENT 15 6 11 11 87 29 20 34 76 53 46 64
REMARK Flexibility Score: inf
ROOT
ATOM      1  C   UNL     1       1.796   6.171   1.150  1.00  0.00     0.023 C 
ENDROOT
BRANCH   1   2
ATOM      2  C   UNL     1       2.041   6.069  -0.358  1.00  0.00     0.116 C 
BRANCH   2   3
ATOM      3  N   UNL     1       3.459   5.966  -0.641  1.00  0.00    -0.354 N 
ATOM      4  C   UNL     1       4.303   4.895  -0.628  1.00  0.00     0.247 C 
ATOM      5  O   UNL     1       5.450   5.152  -0.240  1.00  0.00    -0.272 OA
ATOM      6  H   UNL     1       3.888   6.817  -0.885  1.00  0.00     0.163 HD
BRANCH   4   7
ATOM      7  C   UNL     1       3.898   3.437  -1.010  1.00  0.00     0.206 C 
BRANCH   7   8
ATOM      8  N   UNL     1       2.589   3.212  -1.617  1.00  0.00    -0.339 N 
ATOM      9  C   UNL     1       1.453   2.640  -1.122  1.00  0.00     0.242 C 
ATOM     10  O   UNL     1       0.550   2.426  -1.941  1.00  0.00    -0.273 OA
ATOM     11  H   UNL     1       2.513   3.529  -2.546  1.00  0.00     0.164 HD
BRANCH   9  12
ATOM     12  C   UNL     1       1.191   2.454   0.361  1.00  0.00     0.244 C 
BRANCH  12  13
ATOM     13  N   UNL     1       2.045   1.503   1.046  1.00  0.00    -0.260 N 
ATOM     14  C   UNL     1       3.629   0.568   2.249  1.00  0.00    -0.004 A 
ATOM     15  C   UNL     1       2.911  -0.385   1.480  1.00  0.00     0.063 A 
ATOM     16  C   UNL     1       2.926   1.748   2.073  1.00  0.00     0.039 A 
ATOM     17  C   UNL     1       3.119  -1.850   1.370  1.00  0.00     0.069 C 
ATOM     18  N   UNL     1       1.944   0.193   0.757  1.00  0.00    -0.177 NA
ATOM     19  C   UNL     1       3.096   3.055   2.754  1.00  0.00     0.066 C 
BRANCH  14  20
ATOM     20  C   UNL     1       4.854   0.383   3.082  1.00  0.00     0.036 C 
ATOM     21  C   UNL     1       6.062   1.077   2.458  1.00  0.00     0.009 C 
ENDBRANCH  14  20
ENDBRANCH  12  13
ENDBRANCH   9  12
ENDBRANCH   7   8
BRANCH   7  22
ATOM     22  C   UNL     1       4.910   2.765  -1.944  1.00  0.00     0.027 A 
ATOM     23  C   UNL     1       5.966   3.316  -2.751  1.00  0.00     0.065 A 
ATOM     24  C   UNL     1       4.995   1.400  -2.212  1.00  0.00     0.038 A 
ATOM     25  C   UNL     1       6.412   4.721  -2.951  1.00  0.00     0.069 C 
ATOM     26  N   UNL     1       6.639   2.365  -3.413  1.00  0.00    -0.180 NA
ATOM     27  N   UNL     1       6.052   1.228  -3.053  1.00  0.00    -0.282 N 
ATOM     28  C   UNL     1       4.209   0.233  -1.752  1.00  0.00     0.066 C 
ATOM     29  H   UNL     1       6.354   0.345  -3.364  1.00  0.00     0.190 HD
ENDBRANCH   7  22
ENDBRANCH   4   7
ENDBRANCH   2   3
ENDBRANCH   1   2
BRANCH   1  30
ATOM     30  C   UNL     1       2.386   7.407   1.832  1.00  0.00     0.023 C 
BRANCH  30  31
ATOM     31  C   UNL     1       1.768   8.727   1.397  1.00  0.00     0.116 C 
BRANCH  31  32
ATOM     32  N   UNL     1       0.358   8.821   1.740  1.00  0.00    -0.352 N 
ATOM     33  C   UNL     1      -0.334   9.891   2.256  1.00  0.00     0.251 C 
ATOM     34  H   UNL     1      -0.174   8.008   1.581  1.00  0.00     0.163 HD
ATOM     35  O   UNL     1      -1.497   9.745   2.623  1.00  0.00    -0.269 OA
BRANCH  33  36
ATOM     36  C   UNL     1       0.336  11.202   2.396  1.00  0.00     0.039 A 
ATOM     37  C   UNL     1       0.174  11.921   3.583  1.00  0.00     0.014 A 
ATOM     38  C   UNL     1       1.135  11.712   1.369  1.00  0.00     0.014 A 
ATOM     39  C   UNL     1       0.866  13.121   3.766  1.00  0.00     0.010 A 
ATOM     40  C   UNL     1       1.882  12.865   1.583  1.00  0.00     0.010 A 
ATOM     41  C   UNL     1       1.751  13.584   2.780  1.00  0.00    -0.014 A 
BRANCH  41  42
ATOM     42  C   UNL     1       2.552  14.818   2.975  1.00  0.00     0.031 A 
ATOM     43  C   UNL     1       2.351  15.999   2.065  1.00  0.00     0.074 A 
ATOM     44  C   UNL     1       3.527  14.840   3.904  1.00  0.00     0.049 A 
ATOM     45  N   UNL     1       3.010  17.128   2.022  1.00  0.00    -0.248 NA
ATOM     46  C   UNL     1       1.295  15.878   1.048  1.00  0.00     0.031 C 
ATOM     47  C   UNL     1       3.869  13.734   4.800  1.00  0.00     0.029 A 
ATOM     48  N   UNL     1       4.425  15.824   4.232  1.00  0.00    -0.354 N 
ATOM     49  C   UNL     1       2.475  17.836   0.952  1.00  0.00     0.074 A 
ATOM     50  C   UNL     1       1.466  16.991   0.350  1.00  0.00     0.031 C 
ATOM     51  C   UNL     1       4.894  14.105   5.584  1.00  0.00     0.029 A 
ATOM     52  C   UNL     1       5.302  15.460   5.226  1.00  0.00     0.049 A 
ATOM     53  H   UNL     1       4.440  16.707   3.797  1.00  0.00     0.167 HD
ATOM     54  C   UNL     1       2.783  19.081   0.518  1.00  0.00     0.031 A 
ATOM     55  C   UNL     1       6.324  16.136   5.784  1.00  0.00     0.031 A 
ATOM     56  C   UNL     1       3.768  19.928   1.135  1.00  0.00     0.049 A 
ATOM     57  C   UNL     1       6.616  17.537   5.328  1.00  0.00     0.074 A 
ATOM     58  C   UNL     1       4.091  21.238   0.829  1.00  0.00     0.029 A 
ATOM     59  N   UNL     1       4.594  19.544   2.181  1.00  0.00    -0.354 N 
ATOM     60  N   UNL     1       6.036  18.226   4.375  1.00  0.00    -0.248 NA
ATOM     61  C   UNL     1       7.685  18.256   6.032  1.00  0.00     0.031 C 
ATOM     62  C   UNL     1       5.142  21.634   1.666  1.00  0.00     0.029 A 
ATOM     63  C   UNL     1       5.442  20.584   2.521  1.00  0.00     0.049 A 
ATOM     64  H   UNL     1       4.579  18.662   2.618  1.00  0.00     0.167 HD
ATOM     65  C   UNL     1       6.660  19.468   4.373  1.00  0.00     0.074 A 
ATOM     66  C   UNL     1       7.652  19.438   5.431  1.00  0.00     0.031 C 
ATOM     67  C   UNL     1       6.431  20.536   3.569  1.00  0.00     0.031 A 
BRANCH  54  68
ATOM     68  C   UNL     1       2.048  19.585  -0.696  1.00  0.00    -0.014 A 
ATOM     69  C   UNL     1       0.676  19.895  -0.641  1.00  0.00     0.010 A 
ATOM     70  C   UNL     1       2.734  19.732  -1.914  1.00  0.00     0.010 A 
ATOM     71  C   UNL     1      -0.010  20.273  -1.798  1.00  0.00     0.020 A 
ATOM     72  C   UNL     1       2.057  20.138  -3.068  1.00  0.00     0.020 A 
ATOM     73  C   UNL     1       0.682  20.378  -3.008  1.00  0.00     0.054 A 
BRANCH  73  74
ATOM     74  S   UNL     1      -0.234  20.840  -4.503  1.00  0.00     0.124 S 
ATOM     75  O   UNL     1      -0.894  19.584  -4.849  1.00  0.00    -0.237 OA
ATOM     76  O   UNL     1      -1.117  21.902  -4.027  1.00  0.00    -0.237 OA
ATOM     77  O   UNL     1       0.810  21.271  -5.428  1.00  0.00    -0.744 OA
ENDBRANCH  73  74
ENDBRANCH  54  68
BRANCH  55  78
ATOM     78  C   UNL     1       7.122  15.487   6.858  1.00  0.00    -0.014 A 
ATOM     79  C   UNL     1       6.918  15.834   8.204  1.00  0.00     0.010 A 
ATOM     80  C   UNL     1       8.032  14.461   6.543  1.00  0.00     0.010 A 
ATOM     81  C   UNL     1       7.604  15.160   9.219  1.00  0.00     0.020 A 
ATOM     82  C   UNL     1       8.704  13.772   7.556  1.00  0.00     0.020 A 
ATOM     83  C   UNL     1       8.486  14.127   8.889  1.00  0.00     0.054 A 
BRANCH  83  84
ATOM     84  S   UNL     1       9.281  13.194  10.227  1.00  0.00     0.124 S 
ATOM     85  O   UNL     1      10.321  14.118  10.667  1.00  0.00    -0.237 OA
ATOM     86  O   UNL     1       8.181  12.985  11.165  1.00  0.00    -0.237 OA
ATOM     87  O   UNL     1       9.757  11.983   9.561  1.00  0.00    -0.744 OA
ENDBRANCH  83  84
ENDBRANCH  55  78
BRANCH  67  88
ATOM     88  C   UNL     1       7.257  21.769   3.807  1.00  0.00    -0.014 A 
ATOM     89  C   UNL     1       8.604  21.827   3.408  1.00  0.00     0.010 A 
ATOM     90  C   UNL     1       6.661  22.905   4.383  1.00  0.00     0.010 A 
ATOM     91  C   UNL     1       9.347  22.994   3.602  1.00  0.00     0.020 A 
ATOM     92  C   UNL     1       7.394  24.081   4.559  1.00  0.00     0.020 A 
ATOM     93  C   UNL     1       8.738  24.114   4.178  1.00  0.00     0.054 A 
BRANCH  93  94
ATOM     94  S   UNL     1       9.707  25.634   4.375  1.00  0.00     0.124 S 
ATOM     95  O   UNL     1      10.534  25.318   5.537  1.00  0.00    -0.237 OA
ATOM     96  O   UNL     1      10.420  25.730   3.104  1.00  0.00    -0.237 OA
ATOM     97  O   UNL     1       8.694  26.664   4.593  1.00  0.00    -0.744 OA
ENDBRANCH  93  94
ENDBRANCH  67  88
ENDBRANCH  41  42
ENDBRANCH  33  36
ENDBRANCH  31  32
ENDBRANCH  30  31
ENDBRANCH   1  30
TORSDOF 19
