REMARK SMILES CC[C@H](C(=O)NCCCCNC(=O)c1ccc(-c2c3nc(c(-c4ccc(S(=O)(=O)[O-])cc4)c4ccc([nH]4)c(-c4ccc(S(=O)(=O)[O-])cc4)c4nc(c(-c5ccc(S(=O)(=O)[O-])cc5)c5ccc2[nH]5)C=C4)C=C3)cc1)N1C(=O)/C(=C\c2cc(OC)ccc2OC)SC1=S
REMARK SMILES IDX 8 1 7 2 6 3 4 4 5 5 3 7 2 8 1 9 74 10 75 11 90 12 76 13
REMARK SMILES IDX 77 14 89 15 91 16 78 17 79 18 80 19 86 20 81 21 85 22 84 23
REMARK SMILES IDX 87 24 88 25 82 26 83 27 9 28 10 29 11 30 12 31 13 33 14 34
REMARK SMILES IDX 15 35 73 36 16 37 72 38 17 39 18 40 19 41 66 42 20 43 71 44
REMARK SMILES IDX 65 45 67 46 21 47 70 48 64 49 63 50 22 52 52 53 33 54 51 55
REMARK SMILES IDX 34 56 37 57 50 58 68 59 35 60 36 61 49 63 69 64 38 65 23 66
REMARK SMILES IDX 24 67 32 68 25 69 31 70 26 71 27 72 28 73 29 74 30 75 53 76
REMARK SMILES IDX 54 77 62 78 55 79 61 80 56 81 57 82 58 83 59 84 60 85 39 86
REMARK SMILES IDX 40 87 48 88 41 89 47 90 42 91 43 92 44 93 45 94 46 95
REMARK H PARENT 6 6 11 32 67 51 37 62
REMARK Flexibility Score: inf
ROOT
ATOM      1  C   UNL     1       2.579  -1.972  -0.035  1.00  0.00     0.023 C 
ENDROOT
BRANCH   1   2
ATOM      2  C   UNL     1       1.750  -0.987  -0.850  1.00  0.00     0.116 C 
BRANCH   2   3
ATOM      3  N   UNL     1       1.062   0.037  -0.085  1.00  0.00    -0.354 N 
ATOM      4  C   UNL     1       0.595   1.252  -0.530  1.00  0.00     0.243 C 
ATOM      5  O   UNL     1      -0.060   1.947   0.250  1.00  0.00    -0.273 OA
ATOM      6  H   UNL     1       0.912  -0.163   0.868  1.00  0.00     0.163 HD
BRANCH   4   7
ATOM      7  C   UNL     1       0.938   1.730  -1.968  1.00  0.00     0.181 C 
BRANCH   7   8
ATOM      8  C   UNL     1       0.399   0.791  -3.072  1.00  0.00     0.032 C 
ATOM      9  C   UNL     1      -0.965   0.154  -2.795  1.00  0.00     0.006 C 
ENDBRANCH   7   8
BRANCH   7  10
ATOM     10  N   UNL     1       0.562   3.168  -2.122  1.00  0.00    -0.280 N 
ATOM     11  C   UNL     1      -0.620   3.545  -2.732  1.00  0.00     0.266 C 
ATOM     12  C   UNL     1       1.337   4.216  -1.656  1.00  0.00     0.149 C 
ATOM     13  O   UNL     1      -1.325   2.863  -3.457  1.00  0.00    -0.268 OA
ATOM     14  C   UNL     1      -0.882   4.993  -2.531  1.00  0.00     0.081 C 
ATOM     15  S   UNL     1       0.554   5.766  -2.006  1.00  0.00    -0.054 SA
ATOM     16  S   UNL     1       2.821   4.157  -0.889  1.00  0.00    -0.052 S 
ATOM     17  C   UNL     1      -2.085   5.578  -2.621  1.00  0.00     0.033 C 
BRANCH  17  18
ATOM     18  C   UNL     1      -3.326   4.812  -2.831  1.00  0.00     0.021 A 
ATOM     19  C   UNL     1      -3.902   4.879  -4.118  1.00  0.00     0.058 A 
ATOM     20  C   UNL     1      -3.897   3.949  -1.877  1.00  0.00     0.126 A 
ATOM     21  C   UNL     1      -5.002   4.088  -4.471  1.00  0.00     0.119 A 
ATOM     22  C   UNL     1      -4.979   3.141  -2.256  1.00  0.00     0.051 A 
ATOM     23  C   UNL     1      -5.525   3.200  -3.538  1.00  0.00     0.050 A 
BRANCH  20  24
ATOM     24  O   UNL     1      -3.526   3.703  -0.585  1.00  0.00    -0.496 OA
ATOM     25  C   UNL     1      -2.697   4.603   0.127  1.00  0.00     0.278 C 
ENDBRANCH  20  24
BRANCH  21  26
ATOM     26  O   UNL     1      -5.458   4.251  -5.752  1.00  0.00    -0.497 OA
ATOM     27  C   UNL     1      -6.687   3.605  -6.070  1.00  0.00     0.278 C 
ENDBRANCH  21  26
ENDBRANCH  17  18
ENDBRANCH   7  10
ENDBRANCH   4   7
ENDBRANCH   2   3
ENDBRANCH   1   2
BRANCH   1  28
ATOM     28  C   UNL     1       1.821  -2.803   0.998  1.00  0.00     0.023 C 
BRANCH  28  29
ATOM     29  C   UNL     1       0.556  -3.499   0.506  1.00  0.00     0.116 C 
BRANCH  29  30
ATOM     30  N   UNL     1       0.801  -4.497  -0.527  1.00  0.00    -0.352 N 
ATOM     31  C   UNL     1       0.622  -5.864  -0.488  1.00  0.00     0.251 C 
ATOM     32  H   UNL     1       1.145  -4.144  -1.379  1.00  0.00     0.163 HD
ATOM     33  O   UNL     1       0.987  -6.562  -1.428  1.00  0.00    -0.269 OA
BRANCH  31  34
ATOM     34  C   UNL     1       0.026  -6.485   0.714  1.00  0.00     0.039 A 
ATOM     35  C   UNL     1       0.698  -7.534   1.346  1.00  0.00     0.014 A 
ATOM     36  C   UNL     1      -1.162  -5.985   1.249  1.00  0.00     0.014 A 
ATOM     37  C   UNL     1       0.238  -8.005   2.580  1.00  0.00     0.010 A 
ATOM     38  C   UNL     1      -1.568  -6.394   2.514  1.00  0.00     0.010 A 
ATOM     39  C   UNL     1      -0.865  -7.397   3.202  1.00  0.00    -0.014 A 
BRANCH  39  40
ATOM     40  C   UNL     1      -1.304  -7.766   4.574  1.00  0.00     0.031 A 
ATOM     41  C   UNL     1      -2.694  -8.299   4.794  1.00  0.00     0.074 A 
ATOM     42  C   UNL     1      -0.503  -7.518   5.631  1.00  0.00     0.049 A 
ATOM     43  N   UNL     1      -3.327  -8.518   5.917  1.00  0.00    -0.248 NA
ATOM     44  C   UNL     1      -3.488  -8.592   3.589  1.00  0.00     0.031 C 
ATOM     45  C   UNL     1       0.859  -6.981   5.560  1.00  0.00     0.029 A 
ATOM     46  N   UNL     1      -0.727  -7.665   6.979  1.00  0.00    -0.354 N 
ATOM     47  C   UNL     1      -4.598  -8.947   5.555  1.00  0.00     0.074 A 
ATOM     48  C   UNL     1      -4.662  -8.912   4.111  1.00  0.00     0.031 C 
ATOM     49  C   UNL     1       1.351  -6.858   6.804  1.00  0.00     0.029 A 
ATOM     50  C   UNL     1       0.325  -7.252   7.765  1.00  0.00     0.049 A 
ATOM     51  H   UNL     1      -1.563  -8.031   7.349  1.00  0.00     0.167 HD
ATOM     52  C   UNL     1      -5.617  -9.349   6.353  1.00  0.00     0.031 A 
ATOM     53  C   UNL     1       0.445  -7.174   9.106  1.00  0.00     0.031 A 
ATOM     54  C   UNL     1      -5.545  -9.393   7.788  1.00  0.00     0.049 A 
ATOM     55  C   UNL     1      -0.712  -7.594   9.973  1.00  0.00     0.074 A 
ATOM     56  C   UNL     1      -6.505  -9.834   8.682  1.00  0.00     0.029 A 
ATOM     57  N   UNL     1      -4.455  -8.982   8.541  1.00  0.00    -0.354 N 
ATOM     58  N   UNL     1      -1.889  -8.047   9.612  1.00  0.00    -0.248 NA
ATOM     59  C   UNL     1      -0.525  -7.498  11.428  1.00  0.00     0.031 C 
ATOM     60  C   UNL     1      -6.019  -9.633   9.977  1.00  0.00     0.029 A 
ATOM     61  C   UNL     1      -4.729  -9.135   9.889  1.00  0.00     0.049 A 
ATOM     62  H   UNL     1      -3.612  -8.633   8.171  1.00  0.00     0.167 HD
ATOM     63  C   UNL     1      -2.567  -8.326  10.794  1.00  0.00     0.074 A 
ATOM     64  C   UNL     1      -1.669  -7.995  11.881  1.00  0.00     0.031 C 
ATOM     65  C   UNL     1      -3.819  -8.818  10.961  1.00  0.00     0.031 A 
BRANCH  52  66
ATOM     66  C   UNL     1      -6.904  -9.762   5.687  1.00  0.00    -0.014 A 
ATOM     67  C   UNL     1      -6.981 -10.935   4.914  1.00  0.00     0.010 A 
ATOM     68  C   UNL     1      -8.064  -8.988   5.872  1.00  0.00     0.010 A 
ATOM     69  C   UNL     1      -8.181 -11.301   4.301  1.00  0.00     0.020 A 
ATOM     70  C   UNL     1      -9.275  -9.368   5.288  1.00  0.00     0.020 A 
ATOM     71  C   UNL     1      -9.321 -10.514   4.491  1.00  0.00     0.054 A 
BRANCH  71  72
ATOM     72  S   UNL     1     -10.870 -11.027   3.700  1.00  0.00     0.124 S 
ATOM     73  O   UNL     1     -10.596 -10.747   2.292  1.00  0.00    -0.237 OA
ATOM     74  O   UNL     1     -10.956 -12.441   4.053  1.00  0.00    -0.237 OA
ATOM     75  O   UNL     1     -11.878 -10.170   4.319  1.00  0.00    -0.744 OA
ENDBRANCH  71  72
ENDBRANCH  52  66
BRANCH  53  76
ATOM     76  C   UNL     1       1.712  -6.677   9.715  1.00  0.00    -0.014 A 
ATOM     77  C   UNL     1       2.551  -7.552  10.428  1.00  0.00     0.010 A 
ATOM     78  C   UNL     1       2.089  -5.328   9.582  1.00  0.00     0.010 A 
ATOM     79  C   UNL     1       3.732  -7.084  11.012  1.00  0.00     0.020 A 
ATOM     80  C   UNL     1       3.285  -4.863  10.138  1.00  0.00     0.020 A 
ATOM     81  C   UNL     1       4.093  -5.742  10.861  1.00  0.00     0.054 A 
BRANCH  81  82
ATOM     82  S   UNL     1       5.655  -5.171  11.587  1.00  0.00     0.124 S 
ATOM     83  O   UNL     1       5.349  -5.181  13.014  1.00  0.00    -0.237 OA
ATOM     84  O   UNL     1       6.602  -6.187  11.134  1.00  0.00    -0.237 OA
ATOM     85  O   UNL     1       5.843  -3.848  10.996  1.00  0.00    -0.744 OA
ENDBRANCH  81  82
ENDBRANCH  53  76
BRANCH  65  86
ATOM     86  C   UNL     1      -4.290  -9.090  12.366  1.00  0.00    -0.014 A 
ATOM     87  C   UNL     1      -4.639  -8.046  13.239  1.00  0.00     0.010 A 
ATOM     88  C   UNL     1      -4.485 -10.422  12.777  1.00  0.00     0.010 A 
ATOM     89  C   UNL     1      -5.170  -8.330  14.501  1.00  0.00     0.020 A 
ATOM     90  C   UNL     1      -5.041 -10.710  14.026  1.00  0.00     0.020 A 
ATOM     91  C   UNL     1      -5.376  -9.660  14.882  1.00  0.00     0.054 A 
BRANCH  91  92
ATOM     92  S   UNL     1      -6.148  -9.997  16.489  1.00  0.00     0.124 S 
ATOM     93  O   UNL     1      -5.083  -9.640  17.421  1.00  0.00    -0.237 OA
ATOM     94  O   UNL     1      -7.303  -9.103  16.481  1.00  0.00    -0.237 OA
ATOM     95  O   UNL     1      -6.470 -11.421  16.428  1.00  0.00    -0.744 OA
ENDBRANCH  91  92
ENDBRANCH  65  86
ENDBRANCH  39  40
ENDBRANCH  31  34
ENDBRANCH  29  30
ENDBRANCH  28  29
ENDBRANCH   1  28
TORSDOF 19
