REMARK SMILES CC[C@@](O)(C(=O)NCCCCNC(=O)c1ccc(-c2c3nc(c(-c4ccc(S(=O)(=O)[O-])cc4)c4ccc([nH]4)c(-c4ccc(S(=O)(=O)[O-])cc4)c4nc(c(-c5ccc(S(=O)(=O)[O-])cc5)c5ccc2[nH]5)C=C4)C=C3)cc1)[C@H]1CCc2ccc(OC)cc21
REMARK SMILES IDX 10 1 9 2 8 3 7 4 5 5 6 6 3 8 2 9 1 10 4 11 75 13 76 14 85 15
REMARK SMILES IDX 77 16 78 17 84 18 79 19 81 20 80 21 82 22 83 23 11 24 12 25
REMARK SMILES IDX 13 26 14 28 15 29 16 30 74 31 17 32 73 33 18 34 19 35 20 36
REMARK SMILES IDX 67 37 21 38 72 39 66 40 68 41 22 42 71 43 65 44 64 45 23 47
REMARK SMILES IDX 53 48 34 49 52 50 35 51 38 52 51 53 69 54 36 55 37 56 50 58
REMARK SMILES IDX 70 59 39 60 24 61 25 62 33 63 26 64 32 65 27 66 28 67 29 68
REMARK SMILES IDX 30 69 31 70 54 71 55 72 63 73 56 74 62 75 57 76 58 77 59 78
REMARK SMILES IDX 60 79 61 80 40 81 41 82 49 83 42 84 48 85 43 86 44 87 45 88
REMARK SMILES IDX 46 89 47 90
REMARK H PARENT 7 7 4 12 12 27 68 46 38 57
REMARK Flexibility Score: inf
ROOT
ATOM      1  C   UNL     1       5.836   3.047  -7.157  1.00  0.00     0.023 C 
ENDROOT
BRANCH   1   2
ATOM      2  C   UNL     1       5.146   3.889  -6.079  1.00  0.00     0.023 C 
BRANCH   2   3
ATOM      3  C   UNL     1       3.682   3.524  -5.830  1.00  0.00     0.116 C 
BRANCH   3   4
ATOM      4  N   UNL     1       3.572   2.150  -5.395  1.00  0.00    -0.354 N 
ATOM      5  C   UNL     1       3.225   1.607  -4.198  1.00  0.00     0.252 C 
ATOM      6  O   UNL     1       3.293   0.375  -4.157  1.00  0.00    -0.272 OA
ATOM      7  H   UNL     1       3.788   1.488  -6.091  1.00  0.00     0.163 HD
BRANCH   5   8
ATOM      8  C   UNL     1       2.775   2.489  -2.980  1.00  0.00     0.149 C 
BRANCH   8   9
ATOM      9  C   UNL     1       3.940   3.389  -2.494  1.00  0.00     0.043 C 
ATOM     10  C   UNL     1       3.569   4.405  -1.418  1.00  0.00     0.007 C 
ENDBRANCH   8   9
BRANCH   8  11
ATOM     11  O   UNL     1       1.738   3.383  -3.448  1.00  0.00    -0.379 OA
ATOM     12  H   UNL     1       2.091   3.947  -4.154  1.00  0.00     0.212 HD
ENDBRANCH   8  11
BRANCH   8  13
ATOM     13  C   UNL     1       2.167   1.593  -1.840  1.00  0.00     0.061 C 
ATOM     14  C   UNL     1       0.831   0.922  -2.288  1.00  0.00     0.017 C 
ATOM     15  C   UNL     1       2.934   0.389  -1.339  1.00  0.00    -0.035 A 
ATOM     16  C   UNL     1       0.658  -0.340  -1.441  1.00  0.00     0.036 C 
ATOM     17  C   UNL     1       2.082  -0.713  -1.190  1.00  0.00    -0.044 A 
ATOM     18  C   UNL     1       4.291   0.255  -1.074  1.00  0.00     0.050 A 
ATOM     19  C   UNL     1       2.573  -1.964  -0.852  1.00  0.00     0.008 A 
ATOM     20  C   UNL     1       4.810  -1.007  -0.773  1.00  0.00     0.119 A 
ATOM     21  C   UNL     1       3.949  -2.108  -0.666  1.00  0.00     0.047 A 
BRANCH  20  22
ATOM     22  O   UNL     1       6.137  -1.286  -0.570  1.00  0.00    -0.497 OA
ATOM     23  C   UNL     1       7.061  -0.265  -0.934  1.00  0.00     0.278 C 
ENDBRANCH  20  22
ENDBRANCH   8  13
ENDBRANCH   5   8
ENDBRANCH   3   4
ENDBRANCH   2   3
ENDBRANCH   1   2
BRANCH   1  24
ATOM     24  C   UNL     1       5.094   2.967  -8.485  1.00  0.00     0.116 C 
BRANCH  24  25
ATOM     25  N   UNL     1       4.837   4.278  -9.060  1.00  0.00    -0.352 N 
ATOM     26  C   UNL     1       4.950   4.675 -10.369  1.00  0.00     0.251 C 
ATOM     27  H   UNL     1       4.542   4.972  -8.427  1.00  0.00     0.163 HD
ATOM     28  O   UNL     1       4.832   5.860 -10.668  1.00  0.00    -0.269 OA
BRANCH  26  29
ATOM     29  C   UNL     1       5.248   3.666 -11.405  1.00  0.00     0.039 A 
ATOM     30  C   UNL     1       6.287   3.911 -12.305  1.00  0.00     0.014 A 
ATOM     31  C   UNL     1       4.529   2.469 -11.460  1.00  0.00     0.014 A 
ATOM     32  C   UNL     1       6.646   2.925 -13.225  1.00  0.00     0.010 A 
ATOM     33  C   UNL     1       4.934   1.461 -12.330  1.00  0.00     0.010 A 
ATOM     34  C   UNL     1       5.997   1.679 -13.221  1.00  0.00    -0.014 A 
BRANCH  34  35
ATOM     35  C   UNL     1       6.423   0.589 -14.134  1.00  0.00     0.031 A 
ATOM     36  C   UNL     1       5.481   0.076 -15.190  1.00  0.00     0.074 A 
ATOM     37  C   UNL     1       7.635   0.021 -13.972  1.00  0.00     0.049 A 
ATOM     38  N   UNL     1       5.655  -0.900 -16.043  1.00  0.00    -0.248 NA
ATOM     39  C   UNL     1       4.165   0.729 -15.284  1.00  0.00     0.031 C 
ATOM     40  C   UNL     1       8.620   0.400 -12.956  1.00  0.00     0.029 A 
ATOM     41  N   UNL     1       8.242  -1.003 -14.655  1.00  0.00    -0.354 N 
ATOM     42  C   UNL     1       4.469  -0.989 -16.763  1.00  0.00     0.074 A 
ATOM     43  C   UNL     1       3.566  -0.001 -16.215  1.00  0.00     0.031 C 
ATOM     44  C   UNL     1       9.717  -0.361 -13.100  1.00  0.00     0.029 A 
ATOM     45  C   UNL     1       9.499  -1.309 -14.188  1.00  0.00     0.049 A 
ATOM     46  H   UNL     1       7.819  -1.474 -15.409  1.00  0.00     0.167 HD
ATOM     47  C   UNL     1       4.165  -1.806 -17.799  1.00  0.00     0.031 A 
ATOM     48  C   UNL     1      10.376  -2.253 -14.584  1.00  0.00     0.031 A 
ATOM     49  C   UNL     1       5.071  -2.780 -18.349  1.00  0.00     0.049 A 
ATOM     50  C   UNL     1      10.011  -3.154 -15.733  1.00  0.00     0.074 A 
ATOM     51  C   UNL     1       4.878  -3.616 -19.434  1.00  0.00     0.029 A 
ATOM     52  N   UNL     1       6.339  -3.050 -17.856  1.00  0.00    -0.354 N 
ATOM     53  N   UNL     1       8.910  -3.174 -16.446  1.00  0.00    -0.248 NA
ATOM     54  C   UNL     1      11.012  -4.150 -16.138  1.00  0.00     0.031 C 
ATOM     55  C   UNL     1       6.008  -4.429 -19.566  1.00  0.00     0.029 A 
ATOM     56  C   UNL     1       6.930  -4.056 -18.601  1.00  0.00     0.049 A 
ATOM     57  H   UNL     1       6.756  -2.594 -17.089  1.00  0.00     0.167 HD
ATOM     58  C   UNL     1       9.099  -4.165 -17.404  1.00  0.00     0.074 A 
ATOM     59  C   UNL     1      10.424  -4.709 -17.188  1.00  0.00     0.031 C 
ATOM     60  C   UNL     1       8.252  -4.585 -18.376  1.00  0.00     0.031 A 
BRANCH  47  61
ATOM     61  C   UNL     1       2.793  -1.684 -18.408  1.00  0.00    -0.014 A 
ATOM     62  C   UNL     1       2.431  -0.553 -19.162  1.00  0.00     0.010 A 
ATOM     63  C   UNL     1       1.871  -2.738 -18.271  1.00  0.00     0.010 A 
ATOM     64  C   UNL     1       1.161  -0.462 -19.737  1.00  0.00     0.020 A 
ATOM     65  C   UNL     1       0.610  -2.663 -18.869  1.00  0.00     0.020 A 
ATOM     66  C   UNL     1       0.258  -1.518 -19.587  1.00  0.00     0.054 A 
BRANCH  66  67
ATOM     67  S   UNL     1      -1.370  -1.387 -20.376  1.00  0.00     0.124 S 
ATOM     68  O   UNL     1      -2.032  -0.391 -19.537  1.00  0.00    -0.237 OA
ATOM     69  O   UNL     1      -1.035  -0.947 -21.728  1.00  0.00    -0.237 OA
ATOM     70  O   UNL     1      -1.912  -2.740 -20.281  1.00  0.00    -0.744 OA
ENDBRANCH  66  67
ENDBRANCH  47  61
BRANCH  48  71
ATOM     71  C   UNL     1      11.690  -2.387 -13.897  1.00  0.00    -0.014 A 
ATOM     72  C   UNL     1      12.882  -2.038 -14.557  1.00  0.00     0.010 A 
ATOM     73  C   UNL     1      11.757  -2.866 -12.575  1.00  0.00     0.010 A 
ATOM     74  C   UNL     1      14.116  -2.188 -13.918  1.00  0.00     0.020 A 
ATOM     75  C   UNL     1      12.987  -2.989 -11.923  1.00  0.00     0.020 A 
ATOM     76  C   UNL     1      14.161  -2.663 -12.605  1.00  0.00     0.054 A 
BRANCH  76  77
ATOM     77  S   UNL     1      15.771  -2.814 -11.783  1.00  0.00     0.124 S 
ATOM     78  O   UNL     1      16.339  -3.987 -12.439  1.00  0.00    -0.237 OA
ATOM     79  O   UNL     1      16.409  -1.538 -12.101  1.00  0.00    -0.237 OA
ATOM     80  O   UNL     1      15.421  -2.991 -10.375  1.00  0.00    -0.744 OA
ENDBRANCH  76  77
ENDBRANCH  48  71
BRANCH  60  81
ATOM     81  C   UNL     1       8.744  -5.658 -19.309  1.00  0.00    -0.014 A 
ATOM     82  C   UNL     1       8.890  -6.989 -18.881  1.00  0.00     0.010 A 
ATOM     83  C   UNL     1       9.008  -5.337 -20.654  1.00  0.00     0.010 A 
ATOM     84  C   UNL     1       9.323  -7.974 -19.774  1.00  0.00     0.020 A 
ATOM     85  C   UNL     1       9.412  -6.324 -21.556  1.00  0.00     0.020 A 
ATOM     86  C   UNL     1       9.580  -7.634 -21.106  1.00  0.00     0.054 A 
BRANCH  86  87
ATOM     87  S   UNL     1      10.096  -8.939 -22.256  1.00  0.00     0.124 S 
ATOM     88  O   UNL     1      11.473  -9.185 -21.838  1.00  0.00    -0.237 OA
ATOM     89  O   UNL     1       9.150 -10.014 -21.967  1.00  0.00    -0.237 OA
ATOM     90  O   UNL     1       9.945  -8.322 -23.572  1.00  0.00    -0.744 OA
ENDBRANCH  86  87
ENDBRANCH  60  81
ENDBRANCH  34  35
ENDBRANCH  26  29
ENDBRANCH  24  25
ENDBRANCH   1  24
TORSDOF 18
