REMARK SMILES Cc1ccc(Nc2c(C)cccc2Cl)c(CC(=O)NCCCCNC(=O)c2ccc(-c3c4nc(c(-c5ccc(S(=O)(=O)[O-])cc5)c5ccc([nH]5)c(-c5ccc(S(=O)(=O)[O-])cc5)c5nc(c(-c6ccc(S(=O)(=O)[O-])cc6)c6ccc3[nH]6)C=C5)C=C4)cc2)c1
REMARK SMILES IDX 21 1 20 2 19 3 17 4 18 5 16 7 15 8 1 9 2 10 3 11 87 12 4 13
REMARK SMILES IDX 5 14 6 15 7 17 8 18 13 19 9 20 10 21 12 22 14 23 11 24 22 25
REMARK SMILES IDX 23 26 24 27 25 28 26 30 27 31 28 32 86 33 29 34 85 35 30 36
REMARK SMILES IDX 31 37 32 38 79 39 33 40 84 41 78 42 80 43 34 44 83 45 77 46
REMARK SMILES IDX 76 47 35 49 65 50 46 51 64 52 47 53 50 54 63 55 81 56 48 57
REMARK SMILES IDX 49 58 62 60 82 61 51 62 36 63 37 64 45 65 38 66 44 67 39 68
REMARK SMILES IDX 40 69 41 70 42 71 43 72 66 73 67 74 75 75 68 76 74 77 69 78
REMARK SMILES IDX 70 79 71 80 72 81 73 82 52 83 53 84 61 85 54 86 60 87 55 88
REMARK SMILES IDX 56 89 57 90 58 91 59 92
REMARK H PARENT 19 6 6 16 24 29 80 48 50 59
REMARK Flexibility Score: inf
ROOT
ATOM      1  C   UNL     1      -0.106   1.176  -3.249  1.00  0.00     0.023 C 
ENDROOT
BRANCH   1   2
ATOM      2  C   UNL     1      -0.540   2.585  -2.812  1.00  0.00     0.116 C 
BRANCH   2   3
ATOM      3  N   UNL     1      -1.948   2.673  -2.448  1.00  0.00    -0.356 N 
ATOM      4  C   UNL     1      -2.543   2.581  -1.227  1.00  0.00     0.224 C 
ATOM      5  O   UNL     1      -3.776   2.595  -1.164  1.00  0.00    -0.275 OA
ATOM      6  H   UNL     1      -2.564   2.821  -3.202  1.00  0.00     0.163 HD
BRANCH   4   7
ATOM      7  C   UNL     1      -1.722   2.430   0.040  1.00  0.00     0.137 C 
BRANCH   7   8
ATOM      8  C   UNL     1      -1.025   1.093   0.147  1.00  0.00    -0.015 A 
ATOM      9  C   UNL     1       2.624  -0.044   0.202  1.00  0.00     0.044 C 
ATOM     10  C   UNL     1       1.125  -0.077   0.205  1.00  0.00    -0.051 A 
ATOM     11  C   UNL     1       0.448  -1.288   0.082  1.00  0.00     0.005 A 
ATOM     12  C   UNL     1       0.382   1.103   0.265  1.00  0.00     0.009 A 
ATOM     13  C   UNL     1      -0.949  -1.314   0.022  1.00  0.00     0.026 A 
ATOM     14  C   UNL     1      -1.714  -0.137   0.052  1.00  0.00     0.042 A 
BRANCH  14  15
ATOM     15  N   UNL     1      -3.128  -0.186   0.028  1.00  0.00    -0.354 N 
ATOM     16  H   UNL     1      -3.580   0.688  -0.023  1.00  0.00     0.167 HD
BRANCH  15  17
ATOM     17  C   UNL     1      -3.987  -1.312   0.069  1.00  0.00     0.060 A 
ATOM     18  C   UNL     1      -3.973  -2.228   1.145  1.00  0.00    -0.026 A 
ATOM     19  C   UNL     1      -4.830  -1.585  -1.032  1.00  0.00     0.064 A 
ATOM     20  C   UNL     1      -3.162  -2.002   2.393  1.00  0.00     0.046 C 
ATOM     21  C   UNL     1      -4.743  -3.404   1.066  1.00  0.00     0.005 A 
ATOM     22  C   UNL     1      -5.606  -2.745  -1.083  1.00  0.00     0.023 A 
ATOM     23  Cl  UNL     1      -4.915  -0.504  -2.382  1.00  0.00    -0.082 Cl
ATOM     24  C   UNL     1      -5.552  -3.662  -0.039  1.00  0.00     0.002 A 
ENDBRANCH  15  17
ENDBRANCH  14  15
ENDBRANCH   7   8
ENDBRANCH   4   7
ENDBRANCH   2   3
ENDBRANCH   1   2
BRANCH   1  25
ATOM     25  C   UNL     1      -0.897   0.565  -4.406  1.00  0.00     0.023 C 
BRANCH  25  26
ATOM     26  C   UNL     1      -0.704   1.305  -5.719  1.00  0.00     0.116 C 
BRANCH  26  27
ATOM     27  N   UNL     1       0.065   0.573  -6.714  1.00  0.00    -0.352 N 
ATOM     28  C   UNL     1       0.282   0.938  -8.033  1.00  0.00     0.251 C 
ATOM     29  H   UNL     1       0.474  -0.273  -6.418  1.00  0.00     0.163 HD
ATOM     30  O   UNL     1       0.700   0.162  -8.874  1.00  0.00    -0.269 OA
BRANCH  28  31
ATOM     31  C   UNL     1       0.120   2.374  -8.348  1.00  0.00     0.039 A 
ATOM     32  C   UNL     1       1.293   3.103  -8.573  1.00  0.00     0.014 A 
ATOM     33  C   UNL     1      -1.091   3.014  -8.098  1.00  0.00     0.014 A 
ATOM     34  C   UNL     1       1.295   4.477  -8.354  1.00  0.00     0.010 A 
ATOM     35  C   UNL     1      -1.065   4.360  -7.789  1.00  0.00     0.010 A 
ATOM     36  C   UNL     1       0.139   5.077  -7.862  1.00  0.00    -0.014 A 
BRANCH  36  37
ATOM     37  C   UNL     1       0.091   6.439  -7.346  1.00  0.00     0.031 A 
ATOM     38  C   UNL     1      -0.559   7.496  -8.153  1.00  0.00     0.074 A 
ATOM     39  C   UNL     1       0.547   6.725  -6.104  1.00  0.00     0.049 A 
ATOM     40  N   UNL     1      -0.435   8.761  -7.928  1.00  0.00    -0.248 NA
ATOM     41  C   UNL     1      -1.346   7.206  -9.353  1.00  0.00     0.031 C 
ATOM     42  C   UNL     1       0.262   7.927  -5.322  1.00  0.00     0.029 A 
ATOM     43  N   UNL     1       1.564   6.095  -5.381  1.00  0.00    -0.354 N 
ATOM     44  C   UNL     1      -1.381   9.401  -8.691  1.00  0.00     0.074 A 
ATOM     45  C   UNL     1      -1.795   8.425  -9.667  1.00  0.00     0.031 C 
ATOM     46  C   UNL     1       1.255   8.109  -4.439  1.00  0.00     0.029 A 
ATOM     47  C   UNL     1       2.281   7.132  -4.752  1.00  0.00     0.049 A 
ATOM     48  H   UNL     1       1.742   5.128  -5.323  1.00  0.00     0.167 HD
ATOM     49  C   UNL     1      -1.823  10.630  -8.303  1.00  0.00     0.031 A 
ATOM     50  C   UNL     1       3.586   7.429  -5.030  1.00  0.00     0.031 A 
ATOM     51  C   UNL     1      -0.943  11.233  -7.298  1.00  0.00     0.049 A 
ATOM     52  C   UNL     1       3.807   8.855  -5.516  1.00  0.00     0.074 A 
ATOM     53  C   UNL     1      -1.061  11.576  -5.963  1.00  0.00     0.029 A 
ATOM     54  N   UNL     1       0.407  11.354  -7.602  1.00  0.00    -0.354 N 
ATOM     55  N   UNL     1       2.859   9.733  -5.705  1.00  0.00    -0.248 NA
ATOM     56  C   UNL     1       5.115   9.370  -5.922  1.00  0.00     0.031 C 
ATOM     57  C   UNL     1       0.246  11.866  -5.461  1.00  0.00     0.029 A 
ATOM     58  C   UNL     1       1.148  11.735  -6.501  1.00  0.00     0.049 A 
ATOM     59  H   UNL     1       0.790  11.188  -8.494  1.00  0.00     0.167 HD
ATOM     60  C   UNL     1       3.375  10.866  -6.282  1.00  0.00     0.074 A 
ATOM     61  C   UNL     1       4.797  10.590  -6.393  1.00  0.00     0.031 C 
ATOM     62  C   UNL     1       2.587  11.917  -6.665  1.00  0.00     0.031 A 
BRANCH  49  63
ATOM     63  C   UNL     1      -3.175  11.198  -8.700  1.00  0.00    -0.014 A 
ATOM     64  C   UNL     1      -3.602  12.439  -8.182  1.00  0.00     0.010 A 
ATOM     65  C   UNL     1      -4.127  10.505  -9.479  1.00  0.00     0.010 A 
ATOM     66  C   UNL     1      -4.903  12.932  -8.400  1.00  0.00     0.020 A 
ATOM     67  C   UNL     1      -5.414  10.996  -9.732  1.00  0.00     0.020 A 
ATOM     68  C   UNL     1      -5.806  12.200  -9.171  1.00  0.00     0.054 A 
BRANCH  68  69
ATOM     69  S   UNL     1      -7.500  12.800  -9.405  1.00  0.00     0.124 S 
ATOM     70  O   UNL     1      -8.050  12.711  -8.055  1.00  0.00    -0.237 OA
ATOM     71  O   UNL     1      -7.293  14.151  -9.918  1.00  0.00    -0.237 OA
ATOM     72  O   UNL     1      -8.071  11.857 -10.367  1.00  0.00    -0.744 OA
ENDBRANCH  68  69
ENDBRANCH  49  63
BRANCH  50  73
ATOM     73  C   UNL     1       4.401   6.247  -5.437  1.00  0.00    -0.014 A 
ATOM     74  C   UNL     1       4.645   5.262  -4.456  1.00  0.00     0.010 A 
ATOM     75  C   UNL     1       4.531   5.903  -6.794  1.00  0.00     0.010 A 
ATOM     76  C   UNL     1       4.821   3.926  -4.820  1.00  0.00     0.020 A 
ATOM     77  C   UNL     1       4.722   4.563  -7.161  1.00  0.00     0.020 A 
ATOM     78  C   UNL     1       4.787   3.579  -6.170  1.00  0.00     0.054 A 
BRANCH  78  79
ATOM     79  S   UNL     1       4.602   1.819  -6.590  1.00  0.00     0.124 S 
ATOM     80  O   UNL     1       5.774   1.222  -5.959  1.00  0.00    -0.237 OA
ATOM     81  O   UNL     1       3.318   1.501  -5.964  1.00  0.00    -0.237 OA
ATOM     82  O   UNL     1       4.602   1.822  -8.049  1.00  0.00    -0.744 OA
ENDBRANCH  78  79
ENDBRANCH  50  73
BRANCH  62  83
ATOM     83  C   UNL     1       3.076  13.200  -7.307  1.00  0.00    -0.014 A 
ATOM     84  C   UNL     1       4.344  13.760  -7.088  1.00  0.00     0.010 A 
ATOM     85  C   UNL     1       2.185  13.955  -8.111  1.00  0.00     0.010 A 
ATOM     86  C   UNL     1       4.732  14.958  -7.712  1.00  0.00     0.020 A 
ATOM     87  C   UNL     1       2.550  15.159  -8.720  1.00  0.00     0.020 A 
ATOM     88  C   UNL     1       3.836  15.643  -8.535  1.00  0.00     0.054 A 
BRANCH  88  89
ATOM     89  S   UNL     1       4.356  17.189  -9.321  1.00  0.00     0.124 S 
ATOM     90  O   UNL     1       4.864  17.962  -8.189  1.00  0.00    -0.237 OA
ATOM     91  O   UNL     1       5.368  16.724 -10.266  1.00  0.00    -0.237 OA
ATOM     92  O   UNL     1       3.132  17.707  -9.925  1.00  0.00    -0.744 OA
ENDBRANCH  88  89
ENDBRANCH  62  83
ENDBRANCH  36  37
ENDBRANCH  28  31
ENDBRANCH  26  27
ENDBRANCH  25  26
ENDBRANCH   1  25
TORSDOF 17
