REMARK SMILES CC(C)C[C@H](NC(=O)[C@H](Cc1ccccc1)NC(=O)CNC(=O)C[NH3+])C(=O)NCCCCNC(=O)c1ccc(-c2c3nc(c(-c4ccc(S(=O)(=O)[O-])cc4)c4ccc([nH]4)c(-c4ccc(S(=O)(=O)[O-])cc4)c4nc(c(-c5ccc(S(=O)(=O)[O-])cc5)c5ccc2[nH]5)C=C4)C=C3)cc1
REMARK SMILES IDX 26 1 27 2 28 3 5 5 4 6 2 7 1 8 3 9 6 10 7 11 8 13 9 14 17 15
REMARK SMILES IDX 18 16 19 18 20 19 21 20 22 21 23 23 24 24 25 25 10 29 11 30
REMARK SMILES IDX 12 31 16 32 13 33 15 34 14 35 29 36 30 37 31 38 32 39 33 40
REMARK SMILES IDX 34 41 35 43 36 44 37 45 95 46 38 47 94 48 39 49 40 50 41 51
REMARK SMILES IDX 88 52 42 53 93 54 87 55 89 56 43 57 92 58 86 59 85 60 44 62
REMARK SMILES IDX 74 63 55 64 73 65 56 66 59 67 72 68 90 69 57 70 58 71 71 73
REMARK SMILES IDX 91 74 60 75 45 76 46 77 54 78 47 79 53 80 48 81 49 82 50 83
REMARK SMILES IDX 51 84 52 85 75 86 76 87 84 88 77 89 83 90 78 91 79 92 80 93
REMARK SMILES IDX 81 94 82 95 61 96 62 97 70 98 63 99 69 100 64 101 65 102
REMARK SMILES IDX 66 103 67 104 68 105
REMARK H PARENT 28 4 6 12 17 17 21 22 25 26 25 27 25 28 33 42 89 61 59 72
REMARK Flexibility Score: inf
ROOT
ATOM      1  C   UNL     1      -5.336   6.316  -2.374  1.00  0.00     0.242 C 
ATOM      2  O   UNL     1      -6.201   7.201  -2.474  1.00  0.00    -0.273 OA
ATOM      3  N   UNL     1      -4.969   6.040  -1.097  1.00  0.00    -0.354 N 
ATOM      4  H   UNL     1      -5.306   6.718  -0.467  1.00  0.00     0.163 HD
ENDROOT
BRANCH   1   5
ATOM      5  C   UNL     1      -4.683   5.766  -3.682  1.00  0.00     0.171 C 
BRANCH   5   6
ATOM      6  C   UNL     1      -4.573   4.235  -3.891  1.00  0.00     0.038 C 
BRANCH   6   7
ATOM      7  C   UNL     1      -3.448   3.504  -4.679  1.00  0.00    -0.015 C 
ATOM      8  C   UNL     1      -2.239   4.302  -5.129  1.00  0.00     0.007 C 
ATOM      9  C   UNL     1      -3.002   2.258  -3.898  1.00  0.00     0.007 C 
ENDBRANCH   6   7
ENDBRANCH   5   6
BRANCH   5  10
ATOM     10  N   UNL     1      -3.736   6.666  -4.351  1.00  0.00    -0.343 N 
ATOM     11  C   UNL     1      -2.545   7.231  -4.010  1.00  0.00     0.243 C 
ATOM     12  H   UNL     1      -4.030   6.920  -5.256  1.00  0.00     0.164 HD
ATOM     13  O   UNL     1      -1.899   7.780  -4.907  1.00  0.00    -0.273 OA
BRANCH  11  14
ATOM     14  C   UNL     1      -2.024   7.206  -2.566  1.00  0.00     0.175 C 
BRANCH  14  15
ATOM     15  N   UNL     1      -0.668   6.449  -2.571  1.00  0.00    -0.342 N 
ATOM     16  C   UNL     1      -0.115   5.173  -2.575  1.00  0.00     0.240 C 
ATOM     17  H   UNL     1       0.062   7.109  -2.571  1.00  0.00     0.164 HD
ATOM     18  O   UNL     1       0.791   5.095  -3.428  1.00  0.00    -0.273 OA
BRANCH  16  19
ATOM     19  C   UNL     1      -0.404   3.766  -1.746  1.00  0.00     0.216 C 
BRANCH  19  20
ATOM     20  N   UNL     1      -0.312   3.551  -0.274  1.00  0.00    -0.342 N 
ATOM     21  C   UNL     1      -0.917   2.781   0.686  1.00  0.00     0.275 C 
ATOM     22  H   UNL     1       0.382   4.126   0.122  1.00  0.00     0.164 HD
ATOM     23  O   UNL     1      -0.784   3.149   1.863  1.00  0.00    -0.268 OA
BRANCH  21  24
ATOM     24  C   UNL     1      -1.842   1.595   0.380  1.00  0.00     0.360 C 
BRANCH  24  25
ATOM     25  N   UNL     1      -3.277   1.877   0.603  1.00  0.00    -0.350 N 
ATOM     26  H   UNL     1      -3.432   2.092   1.587  1.00  0.00     0.344 HD
ATOM     27  H   UNL     1      -3.828   1.058   0.343  1.00  0.00     0.344 HD
ATOM     28  H   UNL     1      -3.560   2.673   0.031  1.00  0.00     0.344 HD
ENDBRANCH  24  25
ENDBRANCH  21  24
ENDBRANCH  19  20
ENDBRANCH  16  19
ENDBRANCH  14  15
BRANCH  14  29
ATOM     29  C   UNL     1      -1.969   8.762  -2.160  1.00  0.00     0.070 C 
BRANCH  29  30
ATOM     30  C   UNL     1      -2.412   9.181  -0.755  1.00  0.00    -0.045 A 
ATOM     31  C   UNL     1      -1.518   9.799   0.130  1.00  0.00     0.004 A 
ATOM     32  C   UNL     1      -3.696   8.875  -0.268  1.00  0.00     0.004 A 
ATOM     33  C   UNL     1      -1.831   9.931   1.491  1.00  0.00     0.000 A 
ATOM     34  C   UNL     1      -3.987   8.945   1.103  1.00  0.00     0.000 A 
ATOM     35  C   UNL     1      -3.039   9.448   1.988  1.00  0.00     0.000 A 
ENDBRANCH  29  30
ENDBRANCH  14  29
ENDBRANCH  11  14
ENDBRANCH   5  10
ENDBRANCH   1   5
BRANCH   3  36
ATOM     36  C   UNL     1      -4.213   5.012  -0.420  1.00  0.00     0.116 C 
BRANCH  36  37
ATOM     37  C   UNL     1      -2.685   5.105  -0.304  1.00  0.00     0.023 C 
BRANCH  37  38
ATOM     38  C   UNL     1      -1.966   6.192   0.529  1.00  0.00     0.023 C 
BRANCH  38  39
ATOM     39  C   UNL     1      -0.450   6.314   0.966  1.00  0.00     0.116 C 
BRANCH  39  40
ATOM     40  N   UNL     1       0.661   6.036   0.042  1.00  0.00    -0.352 N 
ATOM     41  C   UNL     1       2.009   5.676   0.204  1.00  0.00     0.251 C 
ATOM     42  H   UNL     1       0.401   6.122  -0.903  1.00  0.00     0.163 HD
ATOM     43  O   UNL     1       2.673   5.411  -0.761  1.00  0.00    -0.269 OA
BRANCH  41  44
ATOM     44  C   UNL     1       2.655   5.710   1.540  1.00  0.00     0.039 A 
ATOM     45  C   UNL     1       3.947   6.256   1.609  1.00  0.00     0.014 A 
ATOM     46  C   UNL     1       1.991   5.358   2.702  1.00  0.00     0.014 A 
ATOM     47  C   UNL     1       4.460   6.658   2.841  1.00  0.00     0.010 A 
ATOM     48  C   UNL     1       2.443   5.857   3.912  1.00  0.00     0.010 A 
ATOM     49  C   UNL     1       3.651   6.564   3.979  1.00  0.00    -0.014 A 
BRANCH  49  50
ATOM     50  C   UNL     1       3.989   7.274   5.232  1.00  0.00     0.031 A 
ATOM     51  C   UNL     1       4.191   6.496   6.495  1.00  0.00     0.074 A 
ATOM     52  C   UNL     1       3.966   8.623   5.235  1.00  0.00     0.049 A 
ATOM     53  N   UNL     1       4.341   6.935   7.716  1.00  0.00    -0.248 NA
ATOM     54  C   UNL     1       4.180   5.028   6.376  1.00  0.00     0.031 C 
ATOM     55  C   UNL     1       3.712   9.474   4.066  1.00  0.00     0.029 A 
ATOM     56  N   UNL     1       4.143   9.521   6.256  1.00  0.00    -0.354 N 
ATOM     57  C   UNL     1       4.409   5.800   8.514  1.00  0.00     0.074 A 
ATOM     58  C   UNL     1       4.239   4.656   7.645  1.00  0.00     0.031 C 
ATOM     59  C   UNL     1       3.784  10.764   4.430  1.00  0.00     0.029 A 
ATOM     60  C   UNL     1       4.042  10.835   5.862  1.00  0.00     0.049 A 
ATOM     61  H   UNL     1       4.326   9.250   7.185  1.00  0.00     0.167 HD
ATOM     62  C   UNL     1       4.611   5.723   9.850  1.00  0.00     0.031 A 
ATOM     63  C   UNL     1       4.143  11.970   6.579  1.00  0.00     0.031 A 
ATOM     64  C   UNL     1       4.796   6.875  10.690  1.00  0.00     0.049 A 
ATOM     65  C   UNL     1       4.409  11.858   8.054  1.00  0.00     0.074 A 
ATOM     66  C   UNL     1       5.063   6.921  12.045  1.00  0.00     0.029 A 
ATOM     67  N   UNL     1       4.741   8.189  10.244  1.00  0.00    -0.354 N 
ATOM     68  N   UNL     1       4.529  10.774   8.786  1.00  0.00    -0.248 NA
ATOM     69  C   UNL     1       4.565  13.113   8.799  1.00  0.00     0.031 C 
ATOM     70  C   UNL     1       5.137   8.266  12.426  1.00  0.00     0.029 A 
ATOM     71  C   UNL     1       4.961   9.056  11.300  1.00  0.00     0.049 A 
ATOM     72  H   UNL     1       4.569   8.464   9.315  1.00  0.00     0.167 HD
ATOM     73  C   UNL     1       4.800  11.216  10.074  1.00  0.00     0.074 A 
ATOM     74  C   UNL     1       4.840  12.665  10.017  1.00  0.00     0.031 C 
ATOM     75  C   UNL     1       4.997  10.493  11.204  1.00  0.00     0.031 A 
BRANCH  62  76
ATOM     76  C   UNL     1       4.635   4.350  10.465  1.00  0.00    -0.014 A 
ATOM     77  C   UNL     1       5.688   3.454  10.200  1.00  0.00     0.010 A 
ATOM     78  C   UNL     1       3.592   3.945  11.317  1.00  0.00     0.010 A 
ATOM     79  C   UNL     1       5.668   2.161  10.728  1.00  0.00     0.020 A 
ATOM     80  C   UNL     1       3.584   2.661  11.871  1.00  0.00     0.020 A 
ATOM     81  C   UNL     1       4.612   1.770  11.555  1.00  0.00     0.054 A 
BRANCH  81  82
ATOM     82  S   UNL     1       4.612   0.086  12.229  1.00  0.00     0.124 S 
ATOM     83  O   UNL     1       4.230  -0.705  11.062  1.00  0.00    -0.237 OA
ATOM     84  O   UNL     1       5.993  -0.082  12.675  1.00  0.00    -0.237 OA
ATOM     85  O   UNL     1       3.618   0.140  13.297  1.00  0.00    -0.744 OA
ENDBRANCH  81  82
ENDBRANCH  62  76
BRANCH  63  86
ATOM     86  C   UNL     1       4.031  13.296   5.909  1.00  0.00    -0.014 A 
ATOM     87  C   UNL     1       5.171  14.100   5.737  1.00  0.00     0.010 A 
ATOM     88  C   UNL     1       2.795  13.752   5.415  1.00  0.00     0.010 A 
ATOM     89  C   UNL     1       5.077  15.342   5.102  1.00  0.00     0.020 A 
ATOM     90  C   UNL     1       2.701  14.983   4.756  1.00  0.00     0.020 A 
ATOM     91  C   UNL     1       3.842  15.776   4.614  1.00  0.00     0.054 A 
BRANCH  91  92
ATOM     92  S   UNL     1       3.753  17.368   3.745  1.00  0.00     0.124 S 
ATOM     93  O   UNL     1       3.846  18.320   4.847  1.00  0.00    -0.237 OA
ATOM     94  O   UNL     1       4.912  17.310   2.858  1.00  0.00    -0.237 OA
ATOM     95  O   UNL     1       2.458  17.315   3.070  1.00  0.00    -0.744 OA
ENDBRANCH  91  92
ENDBRANCH  63  86
BRANCH  75  96
ATOM     96  C   UNL     1       5.304  11.260  12.459  1.00  0.00    -0.014 A 
ATOM     97  C   UNL     1       4.298  11.962  13.143  1.00  0.00     0.010 A 
ATOM     98  C   UNL     1       6.606  11.221  12.990  1.00  0.00     0.010 A 
ATOM     99  C   UNL     1       4.595  12.635  14.330  1.00  0.00     0.020 A 
ATOM    100  C   UNL     1       6.900  11.873  14.189  1.00  0.00     0.020 A 
ATOM    101  C   UNL     1       5.895  12.586  14.845  1.00  0.00     0.054 A 
BRANCH 101 102
ATOM    102  S   UNL     1       6.243  13.421  16.416  1.00  0.00     0.124 S 
ATOM    103  O   UNL     1       6.295  14.822  16.008  1.00  0.00    -0.237 OA
ATOM    104  O   UNL     1       5.096  13.049  17.240  1.00  0.00    -0.237 OA
ATOM    105  O   UNL     1       7.518  12.846  16.837  1.00  0.00    -0.744 OA
ENDBRANCH 101 102
ENDBRANCH  75  96
ENDBRANCH  49  50
ENDBRANCH  41  44
ENDBRANCH  39  40
ENDBRANCH  38  39
ENDBRANCH  37  38
ENDBRANCH  36  37
ENDBRANCH   3  36
TORSDOF 25
