REMARK SMILES CC(C)(C)OC(=O)N1C[C@H](c2ccc(C(F)(F)F)cc2)[C@H](C(=O)NCCCCNC(=O)c2ccc(-c3c4nc(c(-c5ccc(S(=O)(=O)[O-])cc5)c5ccc([nH]5)c(-c5ccc(S(=O)(=O)[O-])cc5)c5nc(c(-c6ccc(S(=O)(=O)[O-])cc6)c6ccc3[nH]6)C=C5)C=C4)cc2)C1
REMARK SMILES IDX 26 1 25 2 24 3 22 4 23 5 21 7 8 8 9 9 92 10 10 11 6 12 7 13
REMARK SMILES IDX 5 14 2 15 1 16 3 17 4 18 11 19 12 20 20 21 13 22 19 23 14 24
REMARK SMILES IDX 15 25 16 26 17 27 18 28 27 29 28 30 29 31 30 32 31 34 32 35
REMARK SMILES IDX 33 36 91 37 34 38 90 39 35 40 36 41 37 42 84 43 38 44 89 45
REMARK SMILES IDX 83 46 85 47 39 48 88 49 82 50 81 51 40 53 70 54 51 55 69 56
REMARK SMILES IDX 52 57 55 58 68 59 86 60 53 61 54 62 67 64 87 65 56 66 41 67
REMARK SMILES IDX 42 68 50 69 43 70 49 71 44 72 45 73 46 74 47 75 48 76 71 77
REMARK SMILES IDX 72 78 80 79 73 80 79 81 74 82 75 83 76 84 77 85 78 86 57 87
REMARK SMILES IDX 58 88 66 89 59 90 65 91 60 92 61 93 62 94 63 95 64 96
REMARK H PARENT 24 6 29 33 85 52 55 63
REMARK Flexibility Score: inf
ROOT
ATOM      1  C   UNL     1      -0.756   4.006  -3.900  1.00  0.00     0.023 C 
ENDROOT
BRANCH   1   2
ATOM      2  C   UNL     1      -1.218   2.897  -4.831  1.00  0.00     0.116 C 
BRANCH   2   3
ATOM      3  N   UNL     1      -0.961   3.192  -6.228  1.00  0.00    -0.356 N 
ATOM      4  C   UNL     1       0.017   2.812  -7.084  1.00  0.00     0.225 C 
ATOM      5  O   UNL     1      -0.045   3.278  -8.229  1.00  0.00    -0.275 OA
ATOM      6  H   UNL     1      -1.631   3.788  -6.635  1.00  0.00     0.163 HD
BRANCH   4   7
ATOM      7  C   UNL     1       1.155   1.864  -6.740  1.00  0.00     0.107 C 
ATOM      8  N   UNL     1       1.179   0.415  -4.886  1.00  0.00    -0.307 N 
ATOM      9  C   UNL     1       2.410   1.159  -4.771  1.00  0.00     0.132 C 
ATOM     10  C   UNL     1       0.628   0.529  -6.211  1.00  0.00     0.137 C 
ATOM     11  C   UNL     1       2.350   2.301  -5.825  1.00  0.00     0.053 C 
BRANCH   8  12
ATOM     12  C   UNL     1       0.577  -0.343  -3.907  1.00  0.00     0.410 C 
ATOM     13  O   UNL     1      -0.345  -1.108  -4.138  1.00  0.00    -0.224 OA
BRANCH  12  14
ATOM     14  O   UNL     1       1.086  -0.087  -2.671  1.00  0.00    -0.444 OA
BRANCH  14  15
ATOM     15  C   UNL     1       0.551  -0.750  -1.492  1.00  0.00     0.106 C 
ATOM     16  C   UNL     1       1.186  -0.027  -0.292  1.00  0.00     0.056 C 
ATOM     17  C   UNL     1       0.999  -2.214  -1.483  1.00  0.00     0.056 C 
ATOM     18  C   UNL     1      -0.973  -0.619  -1.356  1.00  0.00     0.056 C 
ENDBRANCH  14  15
ENDBRANCH  12  14
ENDBRANCH   8  12
BRANCH  11  19
ATOM     19  C   UNL     1       2.449   3.716  -5.255  1.00  0.00    -0.042 A 
ATOM     20  C   UNL     1       2.000   4.844  -5.962  1.00  0.00     0.005 A 
ATOM     21  C   UNL     1       3.012   3.955  -3.987  1.00  0.00     0.005 A 
ATOM     22  C   UNL     1       1.864   6.090  -5.326  1.00  0.00     0.013 A 
ATOM     23  C   UNL     1       2.880   5.191  -3.348  1.00  0.00     0.013 A 
ATOM     24  C   UNL     1       2.233   6.252  -3.985  1.00  0.00     0.056 A 
BRANCH  24  25
ATOM     25  C   UNL     1       1.851   7.477  -3.189  1.00  0.00     0.416 C 
ATOM     26  F   UNL     1       1.363   8.495  -3.945  1.00  0.00    -0.166 F 
ATOM     27  F   UNL     1       0.879   7.194  -2.274  1.00  0.00    -0.166 F 
ATOM     28  F   UNL     1       2.889   7.988  -2.473  1.00  0.00    -0.166 F 
ENDBRANCH  24  25
ENDBRANCH  11  19
ENDBRANCH   4   7
ENDBRANCH   2   3
ENDBRANCH   1   2
BRANCH   1  29
ATOM     29  C   UNL     1      -1.406   5.361  -4.159  1.00  0.00     0.023 C 
BRANCH  29  30
ATOM     30  C   UNL     1      -2.843   5.421  -3.680  1.00  0.00     0.116 C 
BRANCH  30  31
ATOM     31  N   UNL     1      -2.935   5.198  -2.241  1.00  0.00    -0.352 N 
ATOM     32  C   UNL     1      -3.434   6.013  -1.258  1.00  0.00     0.251 C 
ATOM     33  H   UNL     1      -2.586   4.332  -1.930  1.00  0.00     0.163 HD
ATOM     34  O   UNL     1      -3.194   5.770  -0.080  1.00  0.00    -0.269 OA
BRANCH  32  35
ATOM     35  C   UNL     1      -4.254   7.178  -1.635  1.00  0.00     0.039 A 
ATOM     36  C   UNL     1      -4.106   8.377  -0.936  1.00  0.00     0.014 A 
ATOM     37  C   UNL     1      -5.159   7.084  -2.695  1.00  0.00     0.014 A 
ATOM     38  C   UNL     1      -4.824   9.499  -1.347  1.00  0.00     0.010 A 
ATOM     39  C   UNL     1      -5.773   8.227  -3.178  1.00  0.00     0.010 A 
ATOM     40  C   UNL     1      -5.628   9.442  -2.498  1.00  0.00    -0.014 A 
BRANCH  40  41
ATOM     41  C   UNL     1      -6.338  10.637  -3.009  1.00  0.00     0.031 A 
ATOM     42  C   UNL     1      -7.838  10.624  -3.122  1.00  0.00     0.074 A 
ATOM     43  C   UNL     1      -5.623  11.695  -3.438  1.00  0.00     0.049 A 
ATOM     44  N   UNL     1      -8.635  11.542  -3.604  1.00  0.00    -0.248 NA
ATOM     45  C   UNL     1      -8.535   9.407  -2.667  1.00  0.00     0.031 C 
ATOM     46  C   UNL     1      -4.160  11.791  -3.430  1.00  0.00     0.029 A 
ATOM     47  N   UNL     1      -6.028  12.892  -3.969  1.00  0.00    -0.354 N 
ATOM     48  C   UNL     1      -9.915  11.006  -3.530  1.00  0.00     0.074 A 
ATOM     49  C   UNL     1      -9.786   9.661  -3.019  1.00  0.00     0.031 C 
ATOM     50  C   UNL     1      -3.795  12.998  -3.890  1.00  0.00     0.029 A 
ATOM     51  C   UNL     1      -4.989  13.739  -4.276  1.00  0.00     0.049 A 
ATOM     52  H   UNL     1      -6.974  13.124  -4.117  1.00  0.00     0.167 HD
ATOM     53  C   UNL     1     -11.096  11.592  -3.835  1.00  0.00     0.031 A 
ATOM     54  C   UNL     1      -5.000  14.973  -4.816  1.00  0.00     0.031 A 
ATOM     55  C   UNL     1     -11.210  12.938  -4.328  1.00  0.00     0.049 A 
ATOM     56  C   UNL     1      -6.324  15.600  -5.155  1.00  0.00     0.074 A 
ATOM     57  C   UNL     1     -12.358  13.657  -4.607  1.00  0.00     0.029 A 
ATOM     58  N   UNL     1     -10.136  13.767  -4.620  1.00  0.00    -0.354 N 
ATOM     59  N   UNL     1      -7.531  15.110  -4.998  1.00  0.00    -0.248 NA
ATOM     60  C   UNL     1      -6.288  16.947  -5.736  1.00  0.00     0.031 C 
ATOM     61  C   UNL     1     -11.977  14.897  -5.129  1.00  0.00     0.029 A 
ATOM     62  C   UNL     1     -10.593  14.977  -5.110  1.00  0.00     0.049 A 
ATOM     63  H   UNL     1      -9.189  13.528  -4.496  1.00  0.00     0.167 HD
ATOM     64  C   UNL     1      -8.401  16.097  -5.445  1.00  0.00     0.074 A 
ATOM     65  C   UNL     1      -7.580  17.221  -5.852  1.00  0.00     0.031 C 
ATOM     66  C   UNL     1      -9.755  16.077  -5.518  1.00  0.00     0.031 A 
BRANCH  53  67
ATOM     67  C   UNL     1     -12.351  10.780  -3.646  1.00  0.00    -0.014 A 
ATOM     68  C   UNL     1     -12.794  10.409  -2.362  1.00  0.00     0.010 A 
ATOM     69  C   UNL     1     -13.122  10.414  -4.765  1.00  0.00     0.010 A 
ATOM     70  C   UNL     1     -13.958   9.652  -2.205  1.00  0.00     0.020 A 
ATOM     71  C   UNL     1     -14.305   9.685  -4.609  1.00  0.00     0.020 A 
ATOM     72  C   UNL     1     -14.707   9.296  -3.330  1.00  0.00     0.054 A 
BRANCH  72  73
ATOM     73  S   UNL     1     -16.231   8.342  -3.090  1.00  0.00     0.124 S 
ATOM     74  O   UNL     1     -15.710   7.037  -2.690  1.00  0.00    -0.237 OA
ATOM     75  O   UNL     1     -16.915   9.093  -2.041  1.00  0.00    -0.237 OA
ATOM     76  O   UNL     1     -16.875   8.379  -4.401  1.00  0.00    -0.744 OA
ENDBRANCH  72  73
ENDBRANCH  53  67
BRANCH  54  77
ATOM     77  C   UNL     1      -3.718  15.691  -5.057  1.00  0.00    -0.014 A 
ATOM     78  C   UNL     1      -3.383  16.830  -4.304  1.00  0.00     0.010 A 
ATOM     79  C   UNL     1      -2.813  15.228  -6.031  1.00  0.00     0.010 A 
ATOM     80  C   UNL     1      -2.179  17.503  -4.532  1.00  0.00     0.020 A 
ATOM     81  C   UNL     1      -1.594  15.879  -6.240  1.00  0.00     0.020 A 
ATOM     82  C   UNL     1      -1.290  17.020  -5.497  1.00  0.00     0.054 A 
BRANCH  82  83
ATOM     83  S   UNL     1       0.286  17.884  -5.743  1.00  0.00     0.124 S 
ATOM     84  O   UNL     1      -0.142  19.120  -6.391  1.00  0.00    -0.237 OA
ATOM     85  O   UNL     1       0.784  18.025  -4.377  1.00  0.00    -0.237 OA
ATOM     86  O   UNL     1       1.052  16.968  -6.585  1.00  0.00    -0.744 OA
ENDBRANCH  82  83
ENDBRANCH  54  77
BRANCH  66  87
ATOM     87  C   UNL     1     -10.434  17.312  -6.044  1.00  0.00    -0.014 A 
ATOM     88  C   UNL     1     -10.351  17.663  -7.403  1.00  0.00     0.010 A 
ATOM     89  C   UNL     1     -11.214  18.100  -5.178  1.00  0.00     0.010 A 
ATOM     90  C   UNL     1     -11.011  18.798  -7.880  1.00  0.00     0.020 A 
ATOM     91  C   UNL     1     -11.903  19.216  -5.658  1.00  0.00     0.020 A 
ATOM     92  C   UNL     1     -11.785  19.565  -7.004  1.00  0.00     0.054 A 
BRANCH  92  93
ATOM     93  S   UNL     1     -12.670  21.005  -7.661  1.00  0.00     0.124 S 
ATOM     94  O   UNL     1     -11.579  21.942  -7.916  1.00  0.00    -0.237 OA
ATOM     95  O   UNL     1     -13.324  20.462  -8.849  1.00  0.00    -0.237 OA
ATOM     96  O   UNL     1     -13.573  21.381  -6.576  1.00  0.00    -0.744 OA
ENDBRANCH  92  93
ENDBRANCH  66  87
ENDBRANCH  40  41
ENDBRANCH  32  35
ENDBRANCH  30  31
ENDBRANCH  29  30
ENDBRANCH   1  29
TORSDOF 19
