REMARK SMILES O=C(CCCN1C(=O)C(=O)/C(=C(\[O-])c2ccccc2)[C@H]1c1ccc([N+](=O)[O-])cc1)NCCCCNC(=O)c1ccc(-c2c3nc(c(-c4ccc(S(=O)(=O)[O-])cc4)c4ccc([nH]4)c(-c4ccc(S(=O)(=O)[O-])cc4)c4nc(c(-c5ccc(S(=O)(=O)[O-])cc5)c5ccc2[nH]5)C=C4)C=C3)cc1
REMARK SMILES IDX 31 1 30 2 1 3 2 4 3 6 4 7 5 8 6 9 7 10 20 11 8 12 9 13 11 14
REMARK SMILES IDX 10 15 12 16 13 17 21 18 22 19 29 20 23 21 28 22 24 23 25 24
REMARK SMILES IDX 26 25 27 26 14 27 15 28 19 29 16 30 18 31 17 32 32 33 33 34
REMARK SMILES IDX 34 35 35 36 36 37 37 39 38 40 39 41 97 42 40 43 96 44 41 45
REMARK SMILES IDX 42 46 43 47 90 48 44 49 95 50 89 51 91 52 45 53 94 54 88 55
REMARK SMILES IDX 87 56 46 58 76 59 57 60 75 61 58 62 61 63 74 64 92 65 59 66
REMARK SMILES IDX 60 67 73 69 93 70 62 71 47 72 48 73 56 74 49 75 55 76 50 77
REMARK SMILES IDX 51 78 52 79 53 80 54 81 77 82 78 83 86 84 79 85 85 86 80 87
REMARK SMILES IDX 81 88 82 89 83 90 84 91 63 92 64 93 72 94 65 95 71 96 66 97
REMARK SMILES IDX 67 98 68 99 69 100 70 101
REMARK H PARENT 30 5 35 38 91 57 61 68
REMARK Flexibility Score: inf
ROOT
ATOM      1  C   UNL     1       1.941   2.305   1.099  1.00  0.00     0.116 C 
ENDROOT
BRANCH   1   2
ATOM      2  N   UNL     1       2.560   1.275   0.282  1.00  0.00    -0.356 N 
ATOM      3  O   UNL     1       0.764   1.026  -1.096  1.00  0.00    -0.275 OA
ATOM      4  C   UNL     1       1.921   0.727  -0.802  1.00  0.00     0.220 C 
ATOM      5  H   UNL     1       3.464   0.961   0.513  1.00  0.00     0.163 HD
BRANCH   4   6
ATOM      6  C   UNL     1       2.622  -0.399  -1.556  1.00  0.00     0.102 C 
BRANCH   6   7
ATOM      7  C   UNL     1       4.109  -0.371  -1.891  1.00  0.00     0.031 C 
BRANCH   7   8
ATOM      8  C   UNL     1       5.175   0.243  -0.989  1.00  0.00     0.121 C 
BRANCH   8   9
ATOM      9  N   UNL     1       5.546  -0.298   0.325  1.00  0.00    -0.325 N 
ATOM     10  C   UNL     1       6.713   0.287   0.840  1.00  0.00     0.295 C 
ATOM     11  C   UNL     1       5.429  -1.698   0.782  1.00  0.00     0.150 C 
ATOM     12  O   UNL     1       7.066   1.446   0.725  1.00  0.00    -0.265 OA
ATOM     13  C   UNL     1       7.600  -0.849   1.344  1.00  0.00     0.248 C 
ATOM     14  C   UNL     1       6.838  -2.096   1.165  1.00  0.00     0.025 C 
ATOM     15  O   UNL     1       8.747  -0.768   1.737  1.00  0.00    -0.283 OA
ATOM     16  C   UNL     1       7.385  -3.307   1.383  1.00  0.00    -0.092 C 
ATOM     17  O   UNL     1       8.689  -3.506   1.783  1.00  0.00    -0.872 OA
BRANCH  11  18
ATOM     18  C   UNL     1       4.425  -1.844   1.947  1.00  0.00    -0.020 A 
ATOM     19  C   UNL     1       4.746  -2.286   3.244  1.00  0.00     0.013 A 
ATOM     20  C   UNL     1       3.068  -1.619   1.699  1.00  0.00     0.013 A 
ATOM     21  C   UNL     1       3.748  -2.593   4.187  1.00  0.00     0.086 A 
ATOM     22  C   UNL     1       2.060  -1.872   2.628  1.00  0.00     0.086 A 
ATOM     23  C   UNL     1       2.402  -2.401   3.864  1.00  0.00     0.269 A 
BRANCH  23  24
ATOM     24  N   UNL     1       1.341  -2.792   4.796  1.00  0.00     0.062 N 
ATOM     25  O   UNL     1       1.673  -3.352   5.849  1.00  0.00    -0.258 OA
ATOM     26  O   UNL     1       0.168  -2.560   4.462  1.00  0.00    -0.258 OA
ENDBRANCH  23  24
ENDBRANCH  11  18
BRANCH  16  27
ATOM     27  C   UNL     1       6.570  -4.532   1.381  1.00  0.00    -0.033 A 
ATOM     28  C   UNL     1       6.339  -5.195   2.597  1.00  0.00     0.007 A 
ATOM     29  C   UNL     1       5.940  -4.999   0.223  1.00  0.00     0.007 A 
ATOM     30  C   UNL     1       5.433  -6.254   2.668  1.00  0.00     0.001 A 
ATOM     31  C   UNL     1       5.042  -6.067   0.294  1.00  0.00     0.001 A 
ATOM     32  C   UNL     1       4.775  -6.681   1.518  1.00  0.00     0.000 A 
ENDBRANCH  16  27
ENDBRANCH   8   9
ENDBRANCH   7   8
ENDBRANCH   6   7
ENDBRANCH   4   6
ENDBRANCH   1   2
BRANCH   1  33
ATOM     33  C   UNL     1       2.364   2.241   2.567  1.00  0.00     0.023 C 
BRANCH  33  34
ATOM     34  C   UNL     1       3.856   2.440   2.845  1.00  0.00     0.023 C 
BRANCH  34  35
ATOM     35  C   UNL     1       4.478   3.716   2.284  1.00  0.00     0.116 C 
BRANCH  35  36
ATOM     36  N   UNL     1       3.887   4.926   2.833  1.00  0.00    -0.352 N 
ATOM     37  C   UNL     1       4.493   6.047   3.353  1.00  0.00     0.251 C 
ATOM     38  H   UNL     1       2.902   4.947   2.833  1.00  0.00     0.163 HD
ATOM     39  O   UNL     1       3.798   6.914   3.878  1.00  0.00    -0.269 OA
BRANCH  37  40
ATOM     40  C   UNL     1       5.968   6.204   3.319  1.00  0.00     0.039 A 
ATOM     41  C   UNL     1       6.612   6.725   4.446  1.00  0.00     0.014 A 
ATOM     42  C   UNL     1       6.719   5.859   2.193  1.00  0.00     0.014 A 
ATOM     43  C   UNL     1       8.007   6.829   4.470  1.00  0.00     0.010 A 
ATOM     44  C   UNL     1       8.113   5.892   2.246  1.00  0.00     0.010 A 
ATOM     45  C   UNL     1       8.774   6.373   3.386  1.00  0.00    -0.014 A 
BRANCH  45  46
ATOM     46  C   UNL     1      10.262   6.371   3.436  1.00  0.00     0.031 A 
ATOM     47  C   UNL     1      11.064   7.204   2.471  1.00  0.00     0.074 A 
ATOM     48  C   UNL     1      10.898   5.565   4.312  1.00  0.00     0.049 A 
ATOM     49  N   UNL     1      12.363   7.284   2.331  1.00  0.00    -0.248 NA
ATOM     50  C   UNL     1      10.308   8.043   1.527  1.00  0.00     0.031 C 
ATOM     51  C   UNL     1      10.243   4.681   5.280  1.00  0.00     0.029 A 
ATOM     52  N   UNL     1      12.238   5.352   4.526  1.00  0.00    -0.354 N 
ATOM     53  C   UNL     1      12.580   8.163   1.275  1.00  0.00     0.074 A 
ATOM     54  C   UNL     1      11.277   8.557   0.783  1.00  0.00     0.031 C 
ATOM     55  C   UNL     1      11.181   4.044   6.000  1.00  0.00     0.029 A 
ATOM     56  C   UNL     1      12.501   4.433   5.516  1.00  0.00     0.049 A 
ATOM     57  H   UNL     1      12.945   5.813   4.018  1.00  0.00     0.167 HD
ATOM     58  C   UNL     1      13.754   8.611   0.769  1.00  0.00     0.031 A 
ATOM     59  C   UNL     1      13.671   3.947   5.978  1.00  0.00     0.031 A 
ATOM     60  C   UNL     1      15.050   8.221   1.262  1.00  0.00     0.049 A 
ATOM     61  C   UNL     1      14.961   4.441   5.381  1.00  0.00     0.074 A 
ATOM     62  C   UNL     1      16.295   8.668   0.853  1.00  0.00     0.029 A 
ATOM     63  N   UNL     1      15.271   7.287   2.264  1.00  0.00    -0.354 N 
ATOM     64  N   UNL     1      15.144   5.327   4.431  1.00  0.00    -0.248 NA
ATOM     65  C   UNL     1      16.203   3.876   5.926  1.00  0.00     0.031 C 
ATOM     66  C   UNL     1      17.269   7.959   1.562  1.00  0.00     0.029 A 
ATOM     67  C   UNL     1      16.632   7.122   2.464  1.00  0.00     0.049 A 
ATOM     68  H   UNL     1      14.565   6.813   2.760  1.00  0.00     0.167 HD
ATOM     69  C   UNL     1      16.522   5.449   4.288  1.00  0.00     0.074 A 
ATOM     70  C   UNL     1      17.124   4.558   5.258  1.00  0.00     0.031 C 
ATOM     71  C   UNL     1      17.224   6.233   3.432  1.00  0.00     0.031 A 
BRANCH  58  72
ATOM     72  C   UNL     1      13.697   9.570  -0.393  1.00  0.00    -0.014 A 
ATOM     73  C   UNL     1      13.225  10.886  -0.233  1.00  0.00     0.010 A 
ATOM     74  C   UNL     1      14.174   9.167  -1.654  1.00  0.00     0.010 A 
ATOM     75  C   UNL     1      13.193  11.765  -1.319  1.00  0.00     0.020 A 
ATOM     76  C   UNL     1      14.173  10.053  -2.736  1.00  0.00     0.020 A 
ATOM     77  C   UNL     1      13.667  11.342  -2.564  1.00  0.00     0.054 A 
BRANCH  77  78
ATOM     78  S   UNL     1      13.638  12.514  -3.949  1.00  0.00     0.124 S 
ATOM     79  O   UNL     1      12.208  12.605  -4.236  1.00  0.00    -0.237 OA
ATOM     80  O   UNL     1      14.238  13.712  -3.366  1.00  0.00    -0.237 OA
ATOM     81  O   UNL     1      14.438  11.857  -4.979  1.00  0.00    -0.744 OA
ENDBRANCH  77  78
ENDBRANCH  58  72
BRANCH  59  82
ATOM     82  C   UNL     1      13.678   2.938   7.075  1.00  0.00    -0.014 A 
ATOM     83  C   UNL     1      14.163   3.276   8.351  1.00  0.00     0.010 A 
ATOM     84  C   UNL     1      13.200   1.634   6.850  1.00  0.00     0.010 A 
ATOM     85  C   UNL     1      14.190   2.324   9.375  1.00  0.00     0.020 A 
ATOM     86  C   UNL     1      13.196   0.689   7.880  1.00  0.00     0.020 A 
ATOM     87  C   UNL     1      13.703   1.036   9.133  1.00  0.00     0.054 A 
BRANCH  87  88
ATOM     88  S   UNL     1      13.706  -0.168  10.490  1.00  0.00     0.124 S 
ATOM     89  O   UNL     1      15.126  -0.478  10.619  1.00  0.00    -0.237 OA
ATOM     90  O   UNL     1      13.121   0.595  11.590  1.00  0.00    -0.237 OA
ATOM     91  O   UNL     1      12.871  -1.255   9.984  1.00  0.00    -0.744 OA
ENDBRANCH  87  88
ENDBRANCH  59  82
BRANCH  71  92
ATOM     92  C   UNL     1      18.728   6.198   3.529  1.00  0.00    -0.014 A 
ATOM     93  C   UNL     1      19.465   5.075   3.113  1.00  0.00     0.010 A 
ATOM     94  C   UNL     1      19.416   7.333   3.996  1.00  0.00     0.010 A 
ATOM     95  C   UNL     1      20.861   5.077   3.192  1.00  0.00     0.020 A 
ATOM     96  C   UNL     1      20.813   7.351   4.046  1.00  0.00     0.020 A 
ATOM     97  C   UNL     1      21.526   6.216   3.657  1.00  0.00     0.054 A 
BRANCH  97  98
ATOM     98  S   UNL     1      23.339   6.208   3.707  1.00  0.00     0.124 S 
ATOM     99  O   UNL     1      23.609   5.310   4.826  1.00  0.00    -0.237 OA
ATOM    100  O   UNL     1      23.693   5.692   2.387  1.00  0.00    -0.237 OA
ATOM    101  O   UNL     1      23.686   7.609   3.935  1.00  0.00    -0.744 OA
ENDBRANCH  97  98
ENDBRANCH  71  92
ENDBRANCH  45  46
ENDBRANCH  37  40
ENDBRANCH  35  36
ENDBRANCH  34  35
ENDBRANCH  33  34
ENDBRANCH   1  33
TORSDOF 20
