REMARK SMILES CC[C@](C)(NC(=O)NC[C@@H](C)[NH+](C)C)C(=O)NCCCCNC(=O)c1ccc(-c2c3nc(c(-c4ccc(S(=O)(=O)[O-])cc4)c4ccc([nH]4)c(-c4ccc(S(=O)(=O)[O-])cc4)c4nc(c(-c5ccc(S(=O)(=O)[O-])cc5)c5ccc2[nH]5)C=C4)C=C3)cc1
REMARK SMILES IDX 19 1 18 2 17 3 15 4 16 5 3 7 4 8 2 9 1 10 5 11 6 12 7 14
REMARK SMILES IDX 8 15 9 17 10 18 11 19 12 20 13 21 14 22 20 24 21 25 22 26
REMARK SMILES IDX 23 27 24 29 25 30 26 31 84 32 27 33 83 34 28 35 29 36 30 37
REMARK SMILES IDX 77 38 31 39 82 40 76 41 78 42 32 43 81 44 75 45 74 46 33 48
REMARK SMILES IDX 63 49 44 50 62 51 45 52 48 53 61 54 79 55 46 56 47 57 60 59
REMARK SMILES IDX 80 60 49 61 34 62 35 63 43 64 36 65 42 66 37 67 38 68 39 69
REMARK SMILES IDX 40 70 41 71 64 72 65 73 73 74 66 75 72 76 67 77 68 78 69 79
REMARK SMILES IDX 70 80 71 81 50 82 51 83 59 84 52 85 58 86 53 87 54 88 55 89
REMARK SMILES IDX 56 90 57 91
REMARK H PARENT 17 6 5 13 8 16 12 23 22 28 78 47 48 58
REMARK Flexibility Score: inf
ROOT
ATOM      1  C   UNL     1       2.176  -5.960   1.923  1.00  0.00     0.023 C 
ENDROOT
BRANCH   1   2
ATOM      2  C   UNL     1       1.906  -4.630   2.637  1.00  0.00     0.116 C 
BRANCH   2   3
ATOM      3  N   UNL     1       2.617  -3.433   2.218  1.00  0.00    -0.354 N 
ATOM      4  C   UNL     1       2.249  -2.350   1.464  1.00  0.00     0.245 C 
ATOM      5  O   UNL     1       2.825  -1.282   1.707  1.00  0.00    -0.272 OA
ATOM      6  H   UNL     1       3.546  -3.393   2.541  1.00  0.00     0.163 HD
BRANCH   4   7
ATOM      7  C   UNL     1       1.054  -2.374   0.483  1.00  0.00     0.117 C 
ATOM      8  C   UNL     1       1.066  -1.228  -0.552  1.00  0.00     0.045 C 
BRANCH   7   9
ATOM      9  C   UNL     1      -0.239  -2.183   1.348  1.00  0.00     0.035 C 
ATOM     10  C   UNL     1      -0.196  -0.996   2.316  1.00  0.00     0.007 C 
ENDBRANCH   7   9
BRANCH   7  11
ATOM     11  N   UNL     1       1.000  -3.655  -0.238  1.00  0.00    -0.324 N 
ATOM     12  C   UNL     1       1.828  -4.320  -1.052  1.00  0.00     0.315 C 
ATOM     13  H   UNL     1       0.155  -4.136  -0.087  1.00  0.00     0.166 HD
ATOM     14  O   UNL     1       1.352  -5.304  -1.628  1.00  0.00    -0.249 OA
ATOM     15  N   UNL     1       3.123  -4.063  -1.262  1.00  0.00    -0.332 N 
ATOM     16  H   UNL     1       3.543  -4.779  -1.792  1.00  0.00     0.165 HD
BRANCH  15  17
ATOM     17  C   UNL     1       4.096  -3.017  -0.925  1.00  0.00     0.182 C 
BRANCH  17  18
ATOM     18  C   UNL     1       5.135  -3.407   0.175  1.00  0.00     0.200 C 
ATOM     19  C   UNL     1       6.296  -4.224  -0.400  1.00  0.00     0.077 C 
BRANCH  18  20
ATOM     20  N   UNL     1       5.562  -2.245   0.978  1.00  0.00    -0.336 N 
ATOM     21  C   UNL     1       6.268  -2.582   2.210  1.00  0.00     0.332 C 
ATOM     22  C   UNL     1       6.256  -1.194   0.248  1.00  0.00     0.332 C 
ATOM     23  H   UNL     1       4.663  -1.847   1.250  1.00  0.00     0.347 HD
ENDBRANCH  18  20
ENDBRANCH  17  18
ENDBRANCH  15  17
ENDBRANCH   7  11
ENDBRANCH   4   7
ENDBRANCH   2   3
ENDBRANCH   1   2
BRANCH   1  24
ATOM     24  C   UNL     1       3.610  -6.472   1.779  1.00  0.00     0.023 C 
BRANCH  24  25
ATOM     25  C   UNL     1       4.510  -6.315   2.996  1.00  0.00     0.116 C 
BRANCH  25  26
ATOM     26  N   UNL     1       4.092  -7.178   4.087  1.00  0.00    -0.352 N 
ATOM     27  C   UNL     1       4.844  -8.038   4.843  1.00  0.00     0.251 C 
ATOM     28  H   UNL     1       3.135  -7.139   4.315  1.00  0.00     0.163 HD
ATOM     29  O   UNL     1       4.271  -8.843   5.587  1.00  0.00    -0.269 OA
BRANCH  27  30
ATOM     30  C   UNL     1       6.322  -8.027   4.774  1.00  0.00     0.039 A 
ATOM     31  C   UNL     1       7.005  -9.248   4.769  1.00  0.00     0.014 A 
ATOM     32  C   UNL     1       7.044  -6.828   4.772  1.00  0.00     0.014 A 
ATOM     33  C   UNL     1       8.402  -9.269   4.730  1.00  0.00     0.010 A 
ATOM     34  C   UNL     1       8.437  -6.851   4.681  1.00  0.00     0.010 A 
ATOM     35  C   UNL     1       9.131  -8.071   4.672  1.00  0.00    -0.014 A 
BRANCH  35  36
ATOM     36  C   UNL     1      10.617  -8.082   4.624  1.00  0.00     0.031 A 
ATOM     37  C   UNL     1      11.419  -7.546   5.780  1.00  0.00     0.074 A 
ATOM     38  C   UNL     1      11.249  -8.537   3.524  1.00  0.00     0.049 A 
ATOM     39  N   UNL     1      12.718  -7.439   5.904  1.00  0.00    -0.248 NA
ATOM     40  C   UNL     1      10.662  -7.050   6.941  1.00  0.00     0.031 C 
ATOM     41  C   UNL     1      10.591  -9.056   2.323  1.00  0.00     0.029 A 
ATOM     42  N   UNL     1      12.588  -8.632   3.236  1.00  0.00    -0.354 N 
ATOM     43  C   UNL     1      12.934  -6.853   7.147  1.00  0.00     0.074 A 
ATOM     44  C   UNL     1      11.631  -6.588   7.718  1.00  0.00     0.031 C 
ATOM     45  C   UNL     1      11.528  -9.429   1.436  1.00  0.00     0.029 A 
ATOM     46  C   UNL     1      12.850  -9.147   1.989  1.00  0.00     0.049 A 
ATOM     47  H   UNL     1      13.295  -8.356   3.864  1.00  0.00     0.167 HD
ATOM     48  C   UNL     1      14.108  -6.577   7.765  1.00  0.00     0.031 A 
ATOM     49  C   UNL     1      14.020  -9.365   1.356  1.00  0.00     0.031 A 
ATOM     50  C   UNL     1      15.404  -6.846   7.202  1.00  0.00     0.049 A 
ATOM     51  C   UNL     1      15.310  -9.044   2.058  1.00  0.00     0.074 A 
ATOM     52  C   UNL     1      16.650  -6.641   7.770  1.00  0.00     0.029 A 
ATOM     53  N   UNL     1      15.624  -7.379   5.940  1.00  0.00    -0.354 N 
ATOM     54  N   UNL     1      15.493  -8.540   3.255  1.00  0.00    -0.248 NA
ATOM     55  C   UNL     1      16.553  -9.335   1.330  1.00  0.00     0.031 C 
ATOM     56  C   UNL     1      17.624  -7.010   6.835  1.00  0.00     0.029 A 
ATOM     57  C   UNL     1      16.984  -7.492   5.705  1.00  0.00     0.049 A 
ATOM     58  H   UNL     1      14.918  -7.639   5.306  1.00  0.00     0.167 HD
ATOM     59  C   UNL     1      16.870  -8.473   3.432  1.00  0.00     0.074 A 
ATOM     60  C   UNL     1      17.473  -9.003   2.225  1.00  0.00     0.031 C 
ATOM     61  C   UNL     1      17.572  -8.017   4.498  1.00  0.00     0.031 A 
BRANCH  48  62
ATOM     62  C   UNL     1      14.039  -5.939   9.129  1.00  0.00    -0.014 A 
ATOM     63  C   UNL     1      13.601  -6.670  10.249  1.00  0.00     0.010 A 
ATOM     64  C   UNL     1      14.444  -4.603   9.299  1.00  0.00     0.010 A 
ATOM     65  C   UNL     1      13.524  -6.062  11.504  1.00  0.00     0.020 A 
ATOM     66  C   UNL     1      14.394  -3.999  10.559  1.00  0.00     0.020 A 
ATOM     67  C   UNL     1      13.915  -4.728  11.650  1.00  0.00     0.054 A 
BRANCH  67  68
ATOM     68  S   UNL     1      13.812  -3.964  13.293  1.00  0.00     0.124 S 
ATOM     69  O   UNL     1      12.373  -3.752  13.434  1.00  0.00    -0.237 OA
ATOM     70  O   UNL     1      14.383  -4.991  14.162  1.00  0.00    -0.237 OA
ATOM     71  O   UNL     1      14.611  -2.749  13.161  1.00  0.00    -0.744 OA
ENDBRANCH  67  68
ENDBRANCH  48  62
BRANCH  49  72
ATOM     72  C   UNL     1      14.019  -9.930  -0.020  1.00  0.00    -0.014 A 
ATOM     73  C   UNL     1      14.421 -11.258  -0.248  1.00  0.00     0.010 A 
ATOM     74  C   UNL     1      13.593  -9.147  -1.108  1.00  0.00     0.010 A 
ATOM     75  C   UNL     1      14.409 -11.789  -1.541  1.00  0.00     0.020 A 
ATOM     76  C   UNL     1      13.555  -9.682  -2.398  1.00  0.00     0.020 A 
ATOM     77  C   UNL     1      13.973 -10.998  -2.608  1.00  0.00     0.054 A 
BRANCH  77  78
ATOM     78  S   UNL     1      13.903 -11.727  -4.268  1.00  0.00     0.124 S 
ATOM     79  O   UNL     1      15.310 -11.741  -4.653  1.00  0.00    -0.237 OA
ATOM     80  O   UNL     1      13.302 -13.034  -4.016  1.00  0.00    -0.237 OA
ATOM     81  O   UNL     1      13.058 -10.796  -5.013  1.00  0.00    -0.744 OA
ENDBRANCH  77  78
ENDBRANCH  49  72
BRANCH  61  82
ATOM     82  C   UNL     1      19.074  -8.092   4.424  1.00  0.00    -0.014 A 
ATOM     83  C   UNL     1      19.807  -7.211   3.611  1.00  0.00     0.010 A 
ATOM     84  C   UNL     1      19.762  -9.025   5.221  1.00  0.00     0.010 A 
ATOM     85  C   UNL     1      21.203  -7.280   3.575  1.00  0.00     0.020 A 
ATOM     86  C   UNL     1      21.158  -9.080   5.206  1.00  0.00     0.020 A 
ATOM     87  C   UNL     1      21.869  -8.215   4.372  1.00  0.00     0.054 A 
BRANCH  87  88
ATOM     88  S   UNL     1      23.683  -8.256   4.342  1.00  0.00     0.124 S 
ATOM     89  O   UNL     1      23.951  -8.912   3.065  1.00  0.00    -0.237 OA
ATOM     90  O   UNL     1      24.038  -6.840   4.408  1.00  0.00    -0.237 OA
ATOM     91  O   UNL     1      24.031  -9.035   5.528  1.00  0.00    -0.744 OA
ENDBRANCH  87  88
ENDBRANCH  61  82
ENDBRANCH  35  36
ENDBRANCH  27  30
ENDBRANCH  25  26
ENDBRANCH  24  25
ENDBRANCH   1  24
TORSDOF 19
