REMARK SMILES C[C@@H]1[C@H](C(=O)NCCCCNC(=O)c2ccc(-c3c4nc(c(-c5ccc(S(=O)(=O)[O-])cc5)c5ccc([nH]5)c(-c5ccc(S(=O)(=O)[O-])cc5)c5nc(c(-c6ccc(S(=O)(=O)[O-])cc6)c6ccc3[nH]6)C=C5)C=C4)cc2)CCN1C(=O)/C=C/c1cccc(Br)c1
REMARK SMILES IDX 8 1 7 2 6 3 4 4 5 5 3 7 1 8 2 9 76 10 74 11 75 12 77 13
REMARK SMILES IDX 78 14 79 15 80 16 81 17 82 18 87 19 83 20 85 21 84 22 86 23
REMARK SMILES IDX 9 24 10 25 11 26 12 27 13 29 14 30 15 31 73 32 16 33 72 34
REMARK SMILES IDX 17 35 18 36 19 37 66 38 20 39 71 40 65 41 67 42 21 43 70 44
REMARK SMILES IDX 64 45 63 46 22 48 52 49 33 50 51 51 34 52 37 53 50 54 68 55
REMARK SMILES IDX 35 56 36 57 49 59 69 60 38 61 23 62 24 63 32 64 25 65 31 66
REMARK SMILES IDX 26 67 27 68 28 69 29 70 30 71 53 72 54 73 62 74 55 75 61 76
REMARK SMILES IDX 56 77 57 78 58 79 59 80 60 81 39 82 40 83 48 84 41 85 47 86
REMARK SMILES IDX 42 87 43 88 44 89 45 90 46 91
REMARK H PARENT 6 6 11 28 67 47 37 58
REMARK Flexibility Score: inf
ROOT
ATOM      1  C   UNL     1       2.713   1.373   2.571  1.00  0.00     0.023 C 
ENDROOT
BRANCH   1   2
ATOM      2  C   UNL     1       1.277   1.838   2.302  1.00  0.00     0.116 C 
BRANCH   2   3
ATOM      3  N   UNL     1       1.147   2.579   1.060  1.00  0.00    -0.356 N 
ATOM      4  C   UNL     1       0.569   2.314  -0.139  1.00  0.00     0.225 C 
ATOM      5  O   UNL     1       0.676   3.203  -0.994  1.00  0.00    -0.275 OA
ATOM      6  H   UNL     1       1.572   3.467   1.095  1.00  0.00     0.163 HD
BRANCH   4   7
ATOM      7  C   UNL     1      -0.147   1.021  -0.525  1.00  0.00     0.102 C 
ATOM      8  C   UNL     1       1.939  -0.363   0.050  1.00  0.00     0.032 C 
ATOM      9  C   UNL     1       0.728  -0.207  -0.837  1.00  0.00     0.094 C 
ATOM     10  N   UNL     1      -0.180  -1.352  -0.694  1.00  0.00    -0.336 N 
ATOM     11  C   UNL     1      -1.273   0.493   0.353  1.00  0.00     0.037 C 
ATOM     12  C   UNL     1      -1.467  -0.933  -0.154  1.00  0.00     0.121 C 
BRANCH  10  13
ATOM     13  C   UNL     1       0.039  -2.683  -0.993  1.00  0.00     0.246 C 
ATOM     14  O   UNL     1      -0.829  -3.543  -0.845  1.00  0.00    -0.270 OA
BRANCH  13  15
ATOM     15  C   UNL     1       1.412  -3.138  -1.357  1.00  0.00     0.072 C 
ATOM     16  C   UNL     1       2.183  -2.607  -2.318  1.00  0.00     0.014 C 
BRANCH  16  17
ATOM     17  C   UNL     1       3.581  -3.006  -2.522  1.00  0.00    -0.024 A 
ATOM     18  C   UNL     1       4.619  -2.366  -1.823  1.00  0.00     0.008 A 
ATOM     19  C   UNL     1       3.899  -3.994  -3.455  1.00  0.00     0.023 A 
ATOM     20  C   UNL     1       5.954  -2.697  -2.065  1.00  0.00     0.002 A 
ATOM     21  C   UNL     1       5.237  -4.314  -3.698  1.00  0.00     0.018 A 
ATOM     22  C   UNL     1       6.266  -3.669  -3.011  1.00  0.00     0.016 A 
ATOM     23  Br  UNL     1       5.661  -5.623  -4.995  1.00  0.00    -0.051 Br
ENDBRANCH  16  17
ENDBRANCH  13  15
ENDBRANCH  10  13
ENDBRANCH   4   7
ENDBRANCH   2   3
ENDBRANCH   1   2
BRANCH   1  24
ATOM     24  C   UNL     1       3.661   2.421   3.119  1.00  0.00     0.023 C 
BRANCH  24  25
ATOM     25  C   UNL     1       3.272   2.953   4.481  1.00  0.00     0.116 C 
BRANCH  25  26
ATOM     26  N   UNL     1       3.088   1.909   5.481  1.00  0.00    -0.352 N 
ATOM     27  C   UNL     1       3.517   1.900   6.790  1.00  0.00     0.251 C 
ATOM     28  H   UNL     1       2.594   1.110   5.184  1.00  0.00     0.163 HD
ATOM     29  O   UNL     1       3.385   0.907   7.487  1.00  0.00    -0.269 OA
BRANCH  27  30
ATOM     30  C   UNL     1       4.177   3.115   7.305  1.00  0.00     0.039 A 
ATOM     31  C   UNL     1       5.423   3.004   7.923  1.00  0.00     0.014 A 
ATOM     32  C   UNL     1       3.603   4.365   7.063  1.00  0.00     0.014 A 
ATOM     33  C   UNL     1       6.130   4.165   8.234  1.00  0.00     0.010 A 
ATOM     34  C   UNL     1       4.357   5.508   7.265  1.00  0.00     0.010 A 
ATOM     35  C   UNL     1       5.618   5.422   7.872  1.00  0.00    -0.014 A 
BRANCH  35  36
ATOM     36  C   UNL     1       6.349   6.677   8.163  1.00  0.00     0.031 A 
ATOM     37  C   UNL     1       5.712   7.701   9.063  1.00  0.00     0.074 A 
ATOM     38  C   UNL     1       7.528   6.929   7.561  1.00  0.00     0.049 A 
ATOM     39  N   UNL     1       6.120   8.905   9.362  1.00  0.00    -0.248 NA
ATOM     40  C   UNL     1       4.418   7.338   9.670  1.00  0.00     0.031 C 
ATOM     41  C   UNL     1       8.217   6.037   6.624  1.00  0.00     0.029 A 
ATOM     42  N   UNL     1       8.354   8.020   7.647  1.00  0.00    -0.354 N 
ATOM     43  C   UNL     1       5.119   9.453  10.156  1.00  0.00     0.074 A 
ATOM     44  C   UNL     1       4.058   8.476  10.240  1.00  0.00     0.031 C 
ATOM     45  C   UNL     1       9.378   6.602   6.252  1.00  0.00     0.029 A 
ATOM     46  C   UNL     1       9.498   7.907   6.893  1.00  0.00     0.049 A 
ATOM     47  H   UNL     1       8.148   8.810   8.197  1.00  0.00     0.167 HD
ATOM     48  C   UNL     1       5.097  10.649  10.788  1.00  0.00     0.031 A 
ATOM     49  C   UNL     1      10.529   8.761   6.743  1.00  0.00     0.031 A 
ATOM     50  C   UNL     1       6.177  11.594  10.738  1.00  0.00     0.049 A 
ATOM     51  C   UNL     1      10.508  10.064   7.493  1.00  0.00     0.074 A 
ATOM     52  C   UNL     1       6.291  12.808  11.390  1.00  0.00     0.029 A 
ATOM     53  N   UNL     1       7.341  11.419  10.004  1.00  0.00    -0.354 N 
ATOM     54  N   UNL     1       9.576  10.544   8.283  1.00  0.00    -0.248 NA
ATOM     55  C   UNL     1      11.684  10.932   7.347  1.00  0.00     0.031 C 
ATOM     56  C   UNL     1       7.514  13.382  11.027  1.00  0.00     0.029 A 
ATOM     57  C   UNL     1       8.179  12.504  10.184  1.00  0.00     0.049 A 
ATOM     58  H   UNL     1       7.540  10.638   9.439  1.00  0.00     0.167 HD
ATOM     59  C   UNL     1      10.066  11.758   8.752  1.00  0.00     0.074 A 
ATOM     60  C   UNL     1      11.380  11.932   8.164  1.00  0.00     0.031 C 
ATOM     61  C   UNL     1       9.485  12.647   9.594  1.00  0.00     0.031 A 
BRANCH  48  62
ATOM     62  C   UNL     1       3.867  10.983  11.587  1.00  0.00    -0.014 A 
ATOM     63  C   UNL     1       3.563  10.289  12.774  1.00  0.00     0.010 A 
ATOM     64  C   UNL     1       2.998  11.996  11.145  1.00  0.00     0.010 A 
ATOM     65  C   UNL     1       2.384  10.563  13.472  1.00  0.00     0.020 A 
ATOM     66  C   UNL     1       1.833  12.294  11.858  1.00  0.00     0.020 A 
ATOM     67  C   UNL     1       1.523  11.559  13.004  1.00  0.00     0.054 A 
BRANCH  67  68
ATOM     68  S   UNL     1      -0.001  11.896  13.929  1.00  0.00     0.124 S 
ATOM     69  O   UNL     1      -0.843  10.768  13.539  1.00  0.00    -0.237 OA
ATOM     70  O   UNL     1       0.456  11.888  15.316  1.00  0.00    -0.237 OA
ATOM     71  O   UNL     1      -0.430  13.198  13.425  1.00  0.00    -0.744 OA
ENDBRANCH  67  68
ENDBRANCH  48  62
BRANCH  49  72
ATOM     72  C   UNL     1      11.686   8.386   5.886  1.00  0.00    -0.014 A 
ATOM     73  C   UNL     1      12.913   8.025   6.471  1.00  0.00     0.010 A 
ATOM     74  C   UNL     1      11.563   8.362   4.485  1.00  0.00     0.010 A 
ATOM     75  C   UNL     1      14.001   7.664   5.672  1.00  0.00     0.020 A 
ATOM     76  C   UNL     1      12.643   7.978   3.683  1.00  0.00     0.020 A 
ATOM     77  C   UNL     1      13.859   7.641   4.282  1.00  0.00     0.054 A 
BRANCH  77  78
ATOM     78  S   UNL     1      15.266   7.111   3.266  1.00  0.00     0.124 S 
ATOM     79  O   UNL     1      16.135   8.283   3.316  1.00  0.00    -0.237 OA
ATOM     80  O   UNL     1      15.749   5.934   3.983  1.00  0.00    -0.237 OA
ATOM     81  O   UNL     1      14.661   6.832   1.966  1.00  0.00    -0.744 OA
ENDBRANCH  77  78
ENDBRANCH  49  72
BRANCH  61  82
ATOM     82  C   UNL     1      10.282  13.865   9.967  1.00  0.00    -0.014 A 
ATOM     83  C   UNL     1      10.462  14.923   9.060  1.00  0.00     0.010 A 
ATOM     84  C   UNL     1      10.806  13.974  11.268  1.00  0.00     0.010 A 
ATOM     85  C   UNL     1      11.178  16.060   9.440  1.00  0.00     0.020 A 
ATOM     86  C   UNL     1      11.501  15.120  11.659  1.00  0.00     0.020 A 
ATOM     87  C   UNL     1      11.695  16.150  10.737  1.00  0.00     0.054 A 
BRANCH  87  88
ATOM     88  S   UNL     1      12.581  17.656  11.223  1.00  0.00     0.124 S 
ATOM     89  O   UNL     1      13.873  17.471  10.569  1.00  0.00    -0.237 OA
ATOM     90  O   UNL     1      11.742  18.716  10.670  1.00  0.00    -0.237 OA
ATOM     91  O   UNL     1      12.605  17.587  12.682  1.00  0.00    -0.744 OA
ENDBRANCH  87  88
ENDBRANCH  61  82
ENDBRANCH  35  36
ENDBRANCH  27  30
ENDBRANCH  25  26
ENDBRANCH  24  25
ENDBRANCH   1  24
TORSDOF 17
