REMARK SMILES Cc1ccnc(C(=O)c2[nH]c3cc(Cl)c(F)cc3c2CC(=O)NCCCCNC(=O)c2ccc(-c3c4nc(c(-c5ccc(S(=O)(=O)[O-])cc5)c5ccc([nH]5)c(-c5ccc(S(=O)(=O)[O-])cc5)c5nc(c(-c6ccc(S(=O)(=O)[O-])cc6)c6ccc3[nH]6)C=C5)C=C4)cc2)c1
REMARK SMILES IDX 25 1 24 2 23 3 21 4 22 5 20 7 19 8 9 9 10 10 11 11 18 13
REMARK SMILES IDX 12 14 17 15 13 16 15 17 14 18 16 19 7 20 8 21 6 22 1 23 2 24
REMARK SMILES IDX 3 25 91 26 4 27 5 28 26 29 27 30 28 31 29 32 30 34 31 35
REMARK SMILES IDX 32 36 90 37 33 38 89 39 34 40 35 41 36 42 83 43 37 44 88 45
REMARK SMILES IDX 82 46 84 47 38 48 87 49 81 50 80 51 39 53 69 54 50 55 68 56
REMARK SMILES IDX 51 57 54 58 67 59 85 60 52 61 53 62 66 64 86 65 55 66 40 67
REMARK SMILES IDX 41 68 49 69 42 70 48 71 43 72 44 73 45 74 46 75 47 76 70 77
REMARK SMILES IDX 71 78 79 79 72 80 78 81 73 82 74 83 75 84 76 85 77 86 56 87
REMARK SMILES IDX 57 88 65 89 58 90 64 91 59 92 60 93 61 94 62 95 63 96
REMARK H PARENT 23 6 10 12 28 33 84 52 54 63
REMARK Flexibility Score: inf
ROOT
ATOM      1  C   UNL     1      -2.931  -3.728   0.756  1.00  0.00     0.023 C 
ENDROOT
BRANCH   1   2
ATOM      2  C   UNL     1      -3.056  -3.654  -0.770  1.00  0.00     0.116 C 
BRANCH   2   3
ATOM      3  N   UNL     1      -2.433  -2.501  -1.388  1.00  0.00    -0.356 N 
ATOM      4  C   UNL     1      -1.267  -2.382  -2.086  1.00  0.00     0.224 C 
ATOM      5  O   UNL     1      -1.096  -1.328  -2.707  1.00  0.00    -0.275 OA
ATOM      6  H   UNL     1      -2.936  -1.661  -1.288  1.00  0.00     0.163 HD
BRANCH   4   7
ATOM      7  C   UNL     1      -0.242  -3.497  -2.182  1.00  0.00     0.138 C 
BRANCH   7   8
ATOM      8  C   UNL     1       0.188  -4.128  -0.889  1.00  0.00    -0.002 A 
ATOM      9  C   UNL     1       1.039  -3.626   0.099  1.00  0.00     0.093 A 
ATOM     10  N   UNL     1       1.193  -4.626   1.041  1.00  0.00    -0.351 N 
ATOM     11  C   UNL     1       0.441  -5.731   0.729  1.00  0.00     0.048 A 
ATOM     12  H   UNL     1       1.769  -4.555   1.835  1.00  0.00     0.167 HD
ATOM     13  C   UNL     1      -0.143  -5.481  -0.508  1.00  0.00     0.007 A 
ATOM     14  C   UNL     1       0.254  -6.928   1.436  1.00  0.00     0.050 A 
ATOM     15  C   UNL     1      -0.909  -6.509  -1.102  1.00  0.00     0.051 A 
ATOM     16  C   UNL     1      -0.558  -7.904   0.851  1.00  0.00     0.078 A 
ATOM     17  C   UNL     1      -1.121  -7.698  -0.403  1.00  0.00     0.142 A 
ATOM     18  Cl  UNL     1      -0.851  -9.375   1.700  1.00  0.00    -0.081 Cl
ATOM     19  F   UNL     1      -1.897  -8.635  -0.970  1.00  0.00    -0.205 F 
BRANCH   9  20
ATOM     20  C   UNL     1       1.824  -2.401   0.234  1.00  0.00     0.227 C 
ATOM     21  O   UNL     1       3.023  -2.485   0.499  1.00  0.00    -0.285 OA
BRANCH  20  22
ATOM     22  C   UNL     1       1.195  -1.036   0.145  1.00  0.00     0.113 A 
ATOM     23  C   UNL     1      -2.154   0.746   0.342  1.00  0.00     0.044 C 
ATOM     24  C   UNL     1      -0.687   0.466   0.231  1.00  0.00    -0.047 A 
ATOM     25  C   UNL     1       0.194   1.516  -0.018  1.00  0.00     0.023 A 
ATOM     26  C   UNL     1      -0.161  -0.825   0.377  1.00  0.00     0.036 A 
ATOM     27  C   UNL     1       1.539   1.230  -0.168  1.00  0.00     0.112 A 
ATOM     28  N   UNL     1       2.054  -0.015  -0.117  1.00  0.00    -0.253 NA
ENDBRANCH  20  22
ENDBRANCH   9  20
ENDBRANCH   7   8
ENDBRANCH   4   7
ENDBRANCH   2   3
ENDBRANCH   1   2
BRANCH   1  29
ATOM     29  C   UNL     1      -3.599  -2.618   1.583  1.00  0.00     0.023 C 
BRANCH  29  30
ATOM     30  C   UNL     1      -4.943  -2.124   1.062  1.00  0.00     0.116 C 
BRANCH  30  31
ATOM     31  N   UNL     1      -5.952  -3.159   1.025  1.00  0.00    -0.352 N 
ATOM     32  C   UNL     1      -6.812  -3.699   1.939  1.00  0.00     0.251 C 
ATOM     33  H   UNL     1      -6.040  -3.569   0.135  1.00  0.00     0.163 HD
ATOM     34  O   UNL     1      -7.565  -4.576   1.503  1.00  0.00    -0.269 OA
BRANCH  32  35
ATOM     35  C   UNL     1      -6.884  -3.341   3.384  1.00  0.00     0.039 A 
ATOM     36  C   UNL     1      -6.243  -2.264   3.996  1.00  0.00     0.014 A 
ATOM     37  C   UNL     1      -7.682  -4.182   4.184  1.00  0.00     0.014 A 
ATOM     38  C   UNL     1      -6.347  -2.065   5.372  1.00  0.00     0.010 A 
ATOM     39  C   UNL     1      -7.803  -3.978   5.557  1.00  0.00     0.010 A 
ATOM     40  C   UNL     1      -7.107  -2.934   6.158  1.00  0.00    -0.014 A 
BRANCH  40  41
ATOM     41  C   UNL     1      -7.192  -2.659   7.592  1.00  0.00     0.031 A 
ATOM     42  C   UNL     1      -7.813  -1.360   7.976  1.00  0.00     0.074 A 
ATOM     43  C   UNL     1      -6.836  -3.539   8.549  1.00  0.00     0.049 A 
ATOM     44  N   UNL     1      -7.275  -0.374   8.618  1.00  0.00    -0.248 NA
ATOM     45  C   UNL     1      -9.186  -1.100   7.520  1.00  0.00     0.031 C 
ATOM     46  C   UNL     1      -6.496  -4.954   8.383  1.00  0.00     0.029 A 
ATOM     47  N   UNL     1      -6.806  -3.366   9.903  1.00  0.00    -0.354 N 
ATOM     48  C   UNL     1      -8.285   0.572   8.796  1.00  0.00     0.074 A 
ATOM     49  C   UNL     1      -9.402   0.125   8.002  1.00  0.00     0.031 C 
ATOM     50  C   UNL     1      -6.524  -5.562   9.590  1.00  0.00     0.029 A 
ATOM     51  C   UNL     1      -6.716  -4.552  10.617  1.00  0.00     0.049 A 
ATOM     52  H   UNL     1      -6.844  -2.482  10.334  1.00  0.00     0.167 HD
ATOM     53  C   UNL     1      -8.197   1.571   9.718  1.00  0.00     0.031 A 
ATOM     54  C   UNL     1      -6.838  -4.705  11.955  1.00  0.00     0.031 A 
ATOM     55  C   UNL     1      -6.862   1.720  10.227  1.00  0.00     0.049 A 
ATOM     56  C   UNL     1      -6.542  -3.408  12.600  1.00  0.00     0.074 A 
ATOM     57  C   UNL     1      -5.666   2.197   9.741  1.00  0.00     0.029 A 
ATOM     58  N   UNL     1      -6.586   1.026  11.377  1.00  0.00    -0.354 N 
ATOM     59  N   UNL     1      -5.367  -2.846  12.583  1.00  0.00    -0.248 NA
ATOM     60  C   UNL     1      -7.634  -2.555  13.051  1.00  0.00     0.031 C 
ATOM     61  C   UNL     1      -4.655   1.493  10.454  1.00  0.00     0.029 A 
ATOM     62  C   UNL     1      -5.274   0.628  11.359  1.00  0.00     0.049 A 
ATOM     63  H   UNL     1      -7.229   0.842  12.100  1.00  0.00     0.167 HD
ATOM     64  C   UNL     1      -5.628  -1.489  12.612  1.00  0.00     0.074 A 
ATOM     65  C   UNL     1      -7.004  -1.378  13.076  1.00  0.00     0.031 C 
ATOM     66  C   UNL     1      -4.811  -0.603  11.976  1.00  0.00     0.031 A 
BRANCH  53  67
ATOM     67  C   UNL     1      -9.376   2.201  10.424  1.00  0.00    -0.014 A 
ATOM     68  C   UNL     1     -10.657   1.616  10.447  1.00  0.00     0.010 A 
ATOM     69  C   UNL     1      -9.152   3.273  11.317  1.00  0.00     0.010 A 
ATOM     70  C   UNL     1     -11.665   2.071  11.302  1.00  0.00     0.020 A 
ATOM     71  C   UNL     1     -10.143   3.711  12.209  1.00  0.00     0.020 A 
ATOM     72  C   UNL     1     -11.397   3.104  12.192  1.00  0.00     0.054 A 
BRANCH  72  73
ATOM     73  S   UNL     1     -12.679   3.564  13.386  1.00  0.00     0.124 S 
ATOM     74  O   UNL     1     -13.673   4.205  12.524  1.00  0.00    -0.237 OA
ATOM     75  O   UNL     1     -13.073   2.264  13.933  1.00  0.00    -0.237 OA
ATOM     76  O   UNL     1     -11.991   4.446  14.313  1.00  0.00    -0.744 OA
ENDBRANCH  72  73
ENDBRANCH  53  67
BRANCH  54  77
ATOM     77  C   UNL     1      -7.493  -5.814  12.685  1.00  0.00    -0.014 A 
ATOM     78  C   UNL     1      -8.573  -6.494  12.089  1.00  0.00     0.010 A 
ATOM     79  C   UNL     1      -7.280  -5.983  14.066  1.00  0.00     0.010 A 
ATOM     80  C   UNL     1      -9.470  -7.239  12.859  1.00  0.00     0.020 A 
ATOM     81  C   UNL     1      -8.179  -6.728  14.845  1.00  0.00     0.020 A 
ATOM     82  C   UNL     1      -9.291  -7.314  14.240  1.00  0.00     0.054 A 
BRANCH  82  83
ATOM     83  S   UNL     1     -10.595  -8.096  15.231  1.00  0.00     0.124 S 
ATOM     84  O   UNL     1     -11.708  -7.166  15.052  1.00  0.00    -0.237 OA
ATOM     85  O   UNL     1     -10.752  -9.393  14.579  1.00  0.00    -0.237 OA
ATOM     86  O   UNL     1     -10.029  -8.142  16.576  1.00  0.00    -0.744 OA
ENDBRANCH  82  83
ENDBRANCH  54  77
BRANCH  66  87
ATOM     87  C   UNL     1      -3.401  -1.036  11.648  1.00  0.00    -0.014 A 
ATOM     88  C   UNL     1      -2.348  -0.223  12.106  1.00  0.00     0.010 A 
ATOM     89  C   UNL     1      -3.096  -2.112  10.792  1.00  0.00     0.010 A 
ATOM     90  C   UNL     1      -1.034  -0.449  11.694  1.00  0.00     0.020 A 
ATOM     91  C   UNL     1      -1.774  -2.362  10.397  1.00  0.00     0.020 A 
ATOM     92  C   UNL     1      -0.755  -1.510  10.830  1.00  0.00     0.054 A 
BRANCH  92  93
ATOM     93  S   UNL     1       0.953  -1.733  10.266  1.00  0.00     0.124 S 
ATOM     94  O   UNL     1       1.117  -0.619   9.335  1.00  0.00    -0.237 OA
ATOM     95  O   UNL     1       1.720  -1.627  11.506  1.00  0.00    -0.237 OA
ATOM     96  O   UNL     1       0.953  -3.059   9.651  1.00  0.00    -0.744 OA
ENDBRANCH  92  93
ENDBRANCH  66  87
ENDBRANCH  40  41
ENDBRANCH  32  35
ENDBRANCH  30  31
ENDBRANCH  29  30
ENDBRANCH   1  29
TORSDOF 17
