REMARK SMILES O=C(NCCCCNC(=O)c1ccc(-n2cc(CSc3nc4ccccc4c(=O)n3-c3ccc(Br)cc3)nn2)cc1)c1ccc(-c2c3nc(c(-c4ccc(S(=O)(=O)[O-])cc4)c4ccc([nH]4)c(-c4ccc(S(=O)(=O)[O-])cc4)c4nc(c(-c5ccc(S(=O)(=O)[O-])cc5)c5ccc2[nH]5)C=C4)C=C3)cc1
REMARK SMILES IDX 6 1 5 2 4 3 3 4 1 5 2 6 42 8 43 9 101 10 44 11 100 12 45 13
REMARK SMILES IDX 46 14 47 15 94 16 48 17 99 18 93 19 95 20 49 21 98 22 92 23
REMARK SMILES IDX 91 24 50 26 80 27 61 28 79 29 62 30 65 31 78 32 96 33 63 34
REMARK SMILES IDX 64 35 77 37 97 38 66 39 51 40 52 41 60 42 53 43 59 44 54 45
REMARK SMILES IDX 55 46 56 47 57 48 58 49 81 50 82 51 90 52 83 53 89 54 84 55
REMARK SMILES IDX 85 56 86 57 87 58 88 59 67 60 68 61 76 62 69 63 75 64 70 65
REMARK SMILES IDX 71 66 72 67 73 68 74 69 7 70 8 71 9 72 10 74 11 75 12 76
REMARK SMILES IDX 41 77 13 78 40 79 14 80 15 81 16 82 39 83 17 84 38 85 18 86
REMARK SMILES IDX 19 87 20 88 21 89 30 90 22 91 28 92 23 93 27 94 29 95 24 96
REMARK SMILES IDX 26 97 25 98 31 99 32 100 37 101 33 102 36 103 34 104 35 105
REMARK H PARENT 3 7 95 25 65 36 8 73
REMARK Flexibility Score: inf
ROOT
ATOM      1  C   UNL     1       4.506   2.929  -1.705  1.00  0.00     0.023 C 
ENDROOT
BRANCH   1   2
ATOM      2  C   UNL     1       5.006   1.496  -1.484  1.00  0.00     0.023 C 
BRANCH   2   3
ATOM      3  C   UNL     1       4.668   0.869  -0.131  1.00  0.00     0.116 C 
BRANCH   3   4
ATOM      4  N   UNL     1       3.262   0.912   0.216  1.00  0.00    -0.352 N 
ATOM      5  O   UNL     1       1.159   0.423   0.625  1.00  0.00    -0.269 OA
ATOM      6  C   UNL     1       2.182   0.097   0.014  1.00  0.00     0.251 C 
ATOM      7  H   UNL     1       3.026   1.726   0.718  1.00  0.00     0.163 HD
BRANCH   6   8
ATOM      8  C   UNL     1       2.133  -1.097  -0.880  1.00  0.00     0.039 A 
ATOM      9  C   UNL     1       3.204  -1.644  -1.585  1.00  0.00     0.014 A 
ATOM     10  C   UNL     1       0.865  -1.696  -1.032  1.00  0.00     0.014 A 
ATOM     11  C   UNL     1       3.008  -2.728  -2.447  1.00  0.00     0.010 A 
ATOM     12  C   UNL     1       0.665  -2.780  -1.887  1.00  0.00     0.010 A 
ATOM     13  C   UNL     1       1.735  -3.286  -2.617  1.00  0.00    -0.014 A 
BRANCH  13  14
ATOM     14  C   UNL     1       1.591  -4.446  -3.501  1.00  0.00     0.031 A 
ATOM     15  C   UNL     1       2.293  -5.694  -3.075  1.00  0.00     0.074 A 
ATOM     16  C   UNL     1       0.768  -4.500  -4.568  1.00  0.00     0.049 A 
ATOM     17  N   UNL     1       3.240  -6.333  -3.684  1.00  0.00    -0.248 NA
ATOM     18  C   UNL     1       1.917  -6.278  -1.779  1.00  0.00     0.031 C 
ATOM     19  C   UNL     1      -0.254  -3.532  -4.974  1.00  0.00     0.029 A 
ATOM     20  N   UNL     1       0.610  -5.514  -5.469  1.00  0.00    -0.354 N 
ATOM     21  C   UNL     1       3.482  -7.486  -2.936  1.00  0.00     0.074 A 
ATOM     22  C   UNL     1       2.709  -7.350  -1.725  1.00  0.00     0.031 C 
ATOM     23  C   UNL     1      -1.066  -4.103  -5.893  1.00  0.00     0.029 A 
ATOM     24  C   UNL     1      -0.534  -5.410  -6.247  1.00  0.00     0.049 A 
ATOM     25  H   UNL     1       1.252  -6.255  -5.559  1.00  0.00     0.167 HD
ATOM     26  C   UNL     1       4.181  -8.551  -3.422  1.00  0.00     0.031 A 
ATOM     27  C   UNL     1      -1.042  -6.352  -7.080  1.00  0.00     0.031 A 
ATOM     28  C   UNL     1       4.890  -8.235  -4.630  1.00  0.00     0.049 A 
ATOM     29  C   UNL     1       0.050  -7.293  -7.420  1.00  0.00     0.074 A 
ATOM     30  C   UNL     1       5.902  -7.364  -4.974  1.00  0.00     0.029 A 
ATOM     31  N   UNL     1       4.344  -8.669  -5.814  1.00  0.00    -0.354 N 
ATOM     32  N   UNL     1       1.093  -6.973  -8.134  1.00  0.00    -0.248 NA
ATOM     33  C   UNL     1       0.174  -8.523  -6.653  1.00  0.00     0.031 C 
ATOM     34  C   UNL     1       5.603  -6.959  -6.306  1.00  0.00     0.029 A 
ATOM     35  C   UNL     1       4.444  -7.631  -6.702  1.00  0.00     0.049 A 
ATOM     36  H   UNL     1       3.955  -9.556  -5.990  1.00  0.00     0.167 HD
ATOM     37  C   UNL     1       2.133  -7.722  -7.605  1.00  0.00     0.074 A 
ATOM     38  C   UNL     1       1.486  -8.734  -6.776  1.00  0.00     0.031 C 
ATOM     39  C   UNL     1       3.425  -7.289  -7.674  1.00  0.00     0.031 A 
BRANCH  26  40
ATOM     40  C   UNL     1       3.980  -9.983  -2.990  1.00  0.00    -0.014 A 
ATOM     41  C   UNL     1       4.861 -10.975  -3.477  1.00  0.00     0.010 A 
ATOM     42  C   UNL     1       2.800 -10.428  -2.362  1.00  0.00     0.010 A 
ATOM     43  C   UNL     1       4.538 -12.337  -3.408  1.00  0.00     0.020 A 
ATOM     44  C   UNL     1       2.490 -11.787  -2.248  1.00  0.00     0.020 A 
ATOM     45  C   UNL     1       3.342 -12.731  -2.810  1.00  0.00     0.054 A 
BRANCH  45  46
ATOM     46  S   UNL     1       2.867 -14.478  -2.852  1.00  0.00     0.124 S 
ATOM     47  O   UNL     1       2.624 -14.689  -4.276  1.00  0.00    -0.237 OA
ATOM     48  O   UNL     1       4.050 -15.137  -2.307  1.00  0.00    -0.237 OA
ATOM     49  O   UNL     1       1.682 -14.531  -1.999  1.00  0.00    -0.744 OA
ENDBRANCH  45  46
ENDBRANCH  26  40
BRANCH  27  50
ATOM     50  C   UNL     1      -2.469  -6.655  -7.350  1.00  0.00    -0.014 A 
ATOM     51  C   UNL     1      -2.850  -7.465  -8.436  1.00  0.00     0.010 A 
ATOM     52  C   UNL     1      -3.442  -6.376  -6.368  1.00  0.00     0.010 A 
ATOM     53  C   UNL     1      -4.139  -8.023  -8.505  1.00  0.00     0.020 A 
ATOM     54  C   UNL     1      -4.729  -6.921  -6.434  1.00  0.00     0.020 A 
ATOM     55  C   UNL     1      -5.065  -7.762  -7.491  1.00  0.00     0.054 A 
BRANCH  55  56
ATOM     56  S   UNL     1      -6.662  -8.629  -7.492  1.00  0.00     0.124 S 
ATOM     57  O   UNL     1      -7.364  -7.987  -8.599  1.00  0.00    -0.237 OA
ATOM     58  O   UNL     1      -6.271 -10.018  -7.711  1.00  0.00    -0.237 OA
ATOM     59  O   UNL     1      -7.208  -8.345  -6.165  1.00  0.00    -0.744 OA
ENDBRANCH  55  56
ENDBRANCH  27  50
BRANCH  39  60
ATOM     60  C   UNL     1       3.770  -6.164  -8.619  1.00  0.00    -0.014 A 
ATOM     61  C   UNL     1       3.247  -4.863  -8.494  1.00  0.00     0.010 A 
ATOM     62  C   UNL     1       4.812  -6.386  -9.538  1.00  0.00     0.010 A 
ATOM     63  C   UNL     1       3.757  -3.811  -9.270  1.00  0.00     0.020 A 
ATOM     64  C   UNL     1       5.336  -5.339 -10.300  1.00  0.00     0.020 A 
ATOM     65  C   UNL     1       4.807  -4.056 -10.161  1.00  0.00     0.054 A 
BRANCH  65  66
ATOM     66  S   UNL     1       5.540  -2.669 -11.075  1.00  0.00     0.124 S 
ATOM     67  O   UNL     1       4.499  -2.345 -12.047  1.00  0.00    -0.237 OA
ATOM     68  O   UNL     1       5.759  -1.671 -10.031  1.00  0.00    -0.237 OA
ATOM     69  O   UNL     1       6.763  -3.235 -11.643  1.00  0.00    -0.744 OA
ENDBRANCH  65  66
ENDBRANCH  39  60
ENDBRANCH  13  14
ENDBRANCH   6   8
ENDBRANCH   3   4
ENDBRANCH   2   3
ENDBRANCH   1   2
BRANCH   1  70
ATOM     70  C   UNL     1       4.862   3.948  -0.625  1.00  0.00     0.116 C 
BRANCH  70  71
ATOM     71  N   UNL     1       6.290   4.182  -0.497  1.00  0.00    -0.352 N 
ATOM     72  C   UNL     1       7.022   5.332  -0.702  1.00  0.00     0.251 C 
ATOM     73  H   UNL     1       6.816   3.398  -0.220  1.00  0.00     0.163 HD
ATOM     74  O   UNL     1       8.231   5.327  -0.581  1.00  0.00    -0.269 OA
BRANCH  72  75
ATOM     75  C   UNL     1       6.336   6.583  -1.098  1.00  0.00     0.039 A 
ATOM     76  C   UNL     1       6.739   7.213  -2.284  1.00  0.00     0.016 A 
ATOM     77  C   UNL     1       5.346   7.154  -0.293  1.00  0.00     0.016 A 
ATOM     78  C   UNL     1       6.087   8.368  -2.724  1.00  0.00     0.029 A 
ATOM     79  C   UNL     1       4.724   8.333  -0.703  1.00  0.00     0.029 A 
ATOM     80  C   UNL     1       5.084   8.922  -1.929  1.00  0.00     0.066 A 
BRANCH  80  81
ATOM     81  N   UNL     1       4.503  10.147  -2.299  1.00  0.00    -0.220 N 
ATOM     82  C   UNL     1       4.327  11.217  -1.468  1.00  0.00     0.141 A 
ATOM     83  N   UNL     1       3.977  10.423  -3.508  1.00  0.00    -0.062 NA
ATOM     84  C   UNL     1       3.595  12.136  -2.172  1.00  0.00     0.093 A 
ATOM     85  N   UNL     1       3.356  11.601  -3.419  1.00  0.00    -0.134 NA
BRANCH  84  86
ATOM     86  C   UNL     1       2.872  13.339  -1.692  1.00  0.00     0.138 C 
BRANCH  86  87
ATOM     87  S   UNL     1       3.648  14.903  -1.287  1.00  0.00    -0.081 SA
BRANCH  87  88
ATOM     88  C   UNL     1       5.352  14.774  -0.944  1.00  0.00     0.176 A 
ATOM     89  N   UNL     1       6.018  15.760  -1.474  1.00  0.00    -0.223 NA
ATOM     90  N   UNL     1       5.977  13.789  -0.189  1.00  0.00    -0.255 N 
ATOM     91  C   UNL     1       7.412  15.759  -1.381  1.00  0.00     0.079 A 
ATOM     92  C   UNL     1       7.260  13.458  -0.653  1.00  0.00     0.266 A 
ATOM     93  C   UNL     1       8.153  16.909  -1.655  1.00  0.00     0.029 A 
ATOM     94  C   UNL     1       8.086  14.579  -1.119  1.00  0.00     0.066 A 
ATOM     95  O   UNL     1       7.734  12.327  -0.733  1.00  0.00    -0.268 OA
ATOM     96  C   UNL     1       9.551  16.848  -1.720  1.00  0.00     0.002 A 
ATOM     97  C   UNL     1       9.477  14.486  -1.232  1.00  0.00     0.016 A 
ATOM     98  C   UNL     1      10.210  15.630  -1.542  1.00  0.00     0.001 A 
BRANCH  90  99
ATOM     99  C   UNL     1       5.425  13.028   0.922  1.00  0.00     0.051 A 
ATOM    100  C   UNL     1       6.219  12.069   1.591  1.00  0.00     0.028 A 
ATOM    101  C   UNL     1       4.105  13.137   1.376  1.00  0.00     0.028 A 
ATOM    102  C   UNL     1       5.670  11.107   2.447  1.00  0.00     0.018 A 
ATOM    103  C   UNL     1       3.531  12.153   2.199  1.00  0.00     0.018 A 
ATOM    104  C   UNL     1       4.309  11.115   2.693  1.00  0.00     0.018 A 
ATOM    105  Br  UNL     1       3.519   9.713   3.677  1.00  0.00    -0.051 Br
ENDBRANCH  90  99
ENDBRANCH  87  88
ENDBRANCH  86  87
ENDBRANCH  84  86
ENDBRANCH  80  81
ENDBRANCH  72  75
ENDBRANCH  70  71
ENDBRANCH   1  70
TORSDOF 19
