REMARK SMILES C[C@H]1OCC[C@@H]1C(=O)Nc1ccc(Cl)c(C(=O)NCCCCNC(=O)c2ccc(-c3c4nc(c(-c5ccc(S(=O)(=O)[O-])cc5)c5ccc([nH]5)c(-c5ccc(S(=O)(=O)[O-])cc5)c5nc(c(-c6ccc(S(=O)(=O)[O-])cc6)c6ccc3[nH]6)C=C5)C=C4)cc2)c1
REMARK SMILES IDX 21 1 20 2 19 3 18 4 16 5 17 6 15 8 10 9 11 10 86 11 12 12
REMARK SMILES IDX 13 13 14 14 9 15 7 16 8 17 6 19 1 20 2 21 3 22 4 23 5 24
REMARK SMILES IDX 22 25 23 26 24 27 25 29 26 30 27 31 85 32 28 33 84 34 29 35
REMARK SMILES IDX 30 36 31 37 78 38 32 39 83 40 77 41 79 42 33 43 82 44 76 45
REMARK SMILES IDX 75 46 34 48 64 49 45 50 63 51 46 52 49 53 62 54 80 55 47 56
REMARK SMILES IDX 48 57 61 59 81 60 50 61 35 62 36 63 44 64 37 65 43 66 38 67
REMARK SMILES IDX 39 68 40 69 41 70 42 71 65 72 66 73 74 74 67 75 73 76 68 77
REMARK SMILES IDX 69 78 70 79 71 80 72 81 51 82 52 83 60 84 53 85 59 86 54 87
REMARK SMILES IDX 55 88 56 89 57 90 58 91
REMARK H PARENT 18 7 9 18 23 28 79 47 49 58
REMARK Flexibility Score: inf
ROOT
ATOM      1  C   UNL     1      -2.613   4.695   7.895  1.00  0.00     0.023 C 
ENDROOT
BRANCH   1   2
ATOM      2  C   UNL     1      -3.180   3.692   6.898  1.00  0.00     0.023 C 
BRANCH   2   3
ATOM      3  C   UNL     1      -2.308   3.366   5.698  1.00  0.00     0.116 C 
BRANCH   3   4
ATOM      4  N   UNL     1      -1.019   2.761   5.983  1.00  0.00    -0.352 N 
ATOM      5  C   UNL     1      -0.287   1.867   5.226  1.00  0.00     0.252 C 
ATOM      6  O   UNL     1       0.831   1.528   5.608  1.00  0.00    -0.269 OA
ATOM      7  H   UNL     1      -0.608   3.025   6.838  1.00  0.00     0.163 HD
BRANCH   5   8
ATOM      8  C   UNL     1      -0.869   1.202   4.033  1.00  0.00     0.060 A 
ATOM      9  C   UNL     1      -1.181  -0.865   2.816  1.00  0.00     0.042 A 
ATOM     10  C   UNL     1      -2.204  -0.273   2.092  1.00  0.00     0.028 A 
ATOM     11  C   UNL     1      -0.620  -0.177   3.890  1.00  0.00     0.041 A 
ATOM     12  C   UNL     1      -2.398   1.099   2.174  1.00  0.00     0.023 A 
ATOM     13  C   UNL     1      -1.613   1.850   3.044  1.00  0.00     0.053 A 
ATOM     14  Cl  UNL     1      -1.486   3.537   2.693  1.00  0.00    -0.083 Cl
BRANCH   9  15
ATOM     15  N   UNL     1      -0.685  -2.118   2.451  1.00  0.00    -0.326 N 
ATOM     16  C   UNL     1      -0.262  -2.544   1.217  1.00  0.00     0.230 C 
ATOM     17  O   UNL     1      -0.037  -3.755   1.087  1.00  0.00    -0.274 OA
ATOM     18  H   UNL     1      -0.632  -2.784   3.174  1.00  0.00     0.169 HD
BRANCH  16  19
ATOM     19  C   UNL     1       0.047  -1.609   0.029  1.00  0.00     0.110 C 
ATOM     20  C   UNL     1       2.081  -0.163  -0.467  1.00  0.00     0.039 C 
ATOM     21  C   UNL     1       0.827  -0.345   0.385  1.00  0.00     0.127 C 
ATOM     22  O   UNL     1      -0.043   0.763   0.116  1.00  0.00    -0.378 OA
ATOM     23  C   UNL     1      -0.978   0.370  -0.888  1.00  0.00     0.161 C 
ATOM     24  C   UNL     1      -1.127  -1.138  -0.806  1.00  0.00     0.044 C 
ENDBRANCH  16  19
ENDBRANCH   9  15
ENDBRANCH   5   8
ENDBRANCH   3   4
ENDBRANCH   2   3
ENDBRANCH   1   2
BRANCH   1  25
ATOM     25  C   UNL     1      -1.946   5.941   7.317  1.00  0.00     0.116 C 
BRANCH  25  26
ATOM     26  N   UNL     1      -2.809   6.746   6.462  1.00  0.00    -0.352 N 
ATOM     27  C   UNL     1      -3.216   8.055   6.592  1.00  0.00     0.251 C 
ATOM     28  H   UNL     1      -3.156   6.281   5.666  1.00  0.00     0.163 HD
ATOM     29  O   UNL     1      -3.998   8.539   5.776  1.00  0.00    -0.269 OA
BRANCH  27  30
ATOM     30  C   UNL     1      -2.761   8.861   7.744  1.00  0.00     0.039 A 
ATOM     31  C   UNL     1      -3.716   9.532   8.514  1.00  0.00     0.014 A 
ATOM     32  C   UNL     1      -1.413   8.906   8.104  1.00  0.00     0.014 A 
ATOM     33  C   UNL     1      -3.336  10.136   9.714  1.00  0.00     0.010 A 
ATOM     34  C   UNL     1      -1.050   9.435   9.340  1.00  0.00     0.010 A 
ATOM     35  C   UNL     1      -2.012  10.030  10.171  1.00  0.00    -0.014 A 
BRANCH  35  36
ATOM     36  C   UNL     1      -1.623  10.468  11.537  1.00  0.00     0.031 A 
ATOM     37  C   UNL     1      -0.590  11.544  11.727  1.00  0.00     0.074 A 
ATOM     38  C   UNL     1      -2.125   9.820  12.609  1.00  0.00     0.049 A 
ATOM     39  N   UNL     1      -0.041  11.972  12.835  1.00  0.00    -0.248 NA
ATOM     40  C   UNL     1      -0.089  12.206  10.512  1.00  0.00     0.031 C 
ATOM     41  C   UNL     1      -3.098   8.725  12.562  1.00  0.00     0.029 A 
ATOM     42  N   UNL     1      -1.873   9.977  13.950  1.00  0.00    -0.354 N 
ATOM     43  C   UNL     1       0.884  12.934  12.451  1.00  0.00     0.074 A 
ATOM     44  C   UNL     1       0.851  12.999  11.005  1.00  0.00     0.031 C 
ATOM     45  C   UNL     1      -3.375   8.325  13.813  1.00  0.00     0.029 A 
ATOM     46  C   UNL     1      -2.568   9.099  14.750  1.00  0.00     0.049 A 
ATOM     47  H   UNL     1      -1.253  10.654  14.306  1.00  0.00     0.167 HD
ATOM     48  C   UNL     1       1.680  13.705  13.231  1.00  0.00     0.031 A 
ATOM     49  C   UNL     1      -2.548   8.921  16.086  1.00  0.00     0.031 A 
ATOM     50  C   UNL     1       1.701  13.651  14.668  1.00  0.00     0.049 A 
ATOM     51  C   UNL     1      -1.650   9.782  16.929  1.00  0.00     0.074 A 
ATOM     52  C   UNL     1       2.423  14.440  15.547  1.00  0.00     0.029 A 
ATOM     53  N   UNL     1       0.972  12.758  15.438  1.00  0.00    -0.354 N 
ATOM     54  N   UNL     1      -0.830  10.732  16.550  1.00  0.00    -0.248 NA
ATOM     55  C   UNL     1      -1.674   9.547  18.380  1.00  0.00     0.031 C 
ATOM     56  C   UNL     1       2.165  13.994  16.847  1.00  0.00     0.029 A 
ATOM     57  C   UNL     1       1.246  12.959  16.780  1.00  0.00     0.049 A 
ATOM     58  H   UNL     1       0.351  12.082  15.083  1.00  0.00     0.167 HD
ATOM     59  C   UNL     1      -0.254  11.222  17.717  1.00  0.00     0.074 A 
ATOM     60  C   UNL     1      -0.830  10.473  18.815  1.00  0.00     0.031 C 
ATOM     61  C   UNL     1       0.669  12.203  17.863  1.00  0.00     0.031 A 
BRANCH  48  62
ATOM     62  C   UNL     1       2.599  14.675  12.538  1.00  0.00    -0.014 A 
ATOM     63  C   UNL     1       2.093  15.823  11.902  1.00  0.00     0.010 A 
ATOM     64  C   UNL     1       3.988  14.455  12.551  1.00  0.00     0.010 A 
ATOM     65  C   UNL     1       2.955  16.710  11.253  1.00  0.00     0.020 A 
ATOM     66  C   UNL     1       4.856  15.354  11.925  1.00  0.00     0.020 A 
ATOM     67  C   UNL     1       4.332  16.466  11.264  1.00  0.00     0.054 A 
BRANCH  67  68
ATOM     68  S   UNL     1       5.430  17.642  10.426  1.00  0.00     0.124 S 
ATOM     69  O   UNL     1       5.201  17.317   9.021  1.00  0.00    -0.237 OA
ATOM     70  O   UNL     1       4.911  18.936  10.864  1.00  0.00    -0.237 OA
ATOM     71  O   UNL     1       6.756  17.302  10.936  1.00  0.00    -0.744 OA
ENDBRANCH  67  68
ENDBRANCH  48  62
BRANCH  49  72
ATOM     72  C   UNL     1      -3.414   7.883  16.709  1.00  0.00    -0.014 A 
ATOM     73  C   UNL     1      -4.550   8.257  17.448  1.00  0.00     0.010 A 
ATOM     74  C   UNL     1      -3.119   6.517  16.549  1.00  0.00     0.010 A 
ATOM     75  C   UNL     1      -5.369   7.283  18.027  1.00  0.00     0.020 A 
ATOM     76  C   UNL     1      -3.949   5.540  17.106  1.00  0.00     0.020 A 
ATOM     77  C   UNL     1      -5.065   5.930  17.850  1.00  0.00     0.054 A 
BRANCH  77  78
ATOM     78  S   UNL     1      -6.176   4.682  18.558  1.00  0.00     0.124 S 
ATOM     79  O   UNL     1      -5.823   4.728  19.973  1.00  0.00    -0.237 OA
ATOM     80  O   UNL     1      -7.497   5.204  18.217  1.00  0.00    -0.237 OA
ATOM     81  O   UNL     1      -5.801   3.456  17.856  1.00  0.00    -0.744 OA
ENDBRANCH  77  78
ENDBRANCH  49  72
BRANCH  61  82
ATOM     82  C   UNL     1       1.106  12.541  19.262  1.00  0.00    -0.014 A 
ATOM     83  C   UNL     1       1.979  11.698  19.970  1.00  0.00     0.010 A 
ATOM     84  C   UNL     1       0.692  13.752  19.847  1.00  0.00     0.010 A 
ATOM     85  C   UNL     1       2.419  12.053  21.248  1.00  0.00     0.020 A 
ATOM     86  C   UNL     1       1.148  14.120  21.115  1.00  0.00     0.020 A 
ATOM     87  C   UNL     1       2.002  13.263  21.812  1.00  0.00     0.054 A 
BRANCH  87  88
ATOM     88  S   UNL     1       2.637  13.731  23.446  1.00  0.00     0.124 S 
ATOM     89  O   UNL     1       1.866  12.863  24.331  1.00  0.00    -0.237 OA
ATOM     90  O   UNL     1       4.060  13.417  23.340  1.00  0.00    -0.237 OA
ATOM     91  O   UNL     1       2.326  15.155  23.543  1.00  0.00    -0.744 OA
ENDBRANCH  87  88
ENDBRANCH  61  82
ENDBRANCH  35  36
ENDBRANCH  27  30
ENDBRANCH  25  26
ENDBRANCH   1  25
TORSDOF 16
