REMARK SMILES CC(=O)Nc1cccc(-c2cc(F)ccc2C(=O)NCCCCNC(=O)c2ccc(-c3c4nc(c(-c5ccc(S(=O)(=O)[O-])cc5)c5ccc([nH]5)c(-c5ccc(S(=O)(=O)[O-])cc5)c5nc(c(-c6ccc(S(=O)(=O)[O-])cc6)c6ccc3[nH]6)C=C5)C=C4)cc2)c1
REMARK SMILES IDX 22 1 21 2 20 3 19 4 17 5 18 6 16 8 10 9 11 10 12 11 15 12
REMARK SMILES IDX 13 13 14 14 9 15 5 16 6 17 87 18 7 19 8 20 4 21 1 22 2 23
REMARK SMILES IDX 3 24 23 26 24 27 25 28 26 30 27 31 28 32 86 33 29 34 85 35
REMARK SMILES IDX 30 36 31 37 32 38 79 39 33 40 84 41 78 42 80 43 34 44 83 45
REMARK SMILES IDX 77 46 76 47 35 49 65 50 46 51 64 52 47 53 50 54 63 55 81 56
REMARK SMILES IDX 48 57 49 58 62 60 82 61 51 62 36 63 37 64 45 65 38 66 44 67
REMARK SMILES IDX 39 68 40 69 41 70 42 71 43 72 66 73 67 74 75 75 68 76 74 77
REMARK SMILES IDX 69 78 70 79 71 80 72 81 73 82 52 83 53 84 61 85 54 86 60 87
REMARK SMILES IDX 55 88 56 89 57 90 58 91 59 92
REMARK H PARENT 19 7 4 25 24 29 80 48 50 59
REMARK Flexibility Score: inf
ROOT
ATOM      1  C   UNL     1       2.664   0.623   5.950  1.00  0.00     0.023 C 
ENDROOT
BRANCH   1   2
ATOM      2  C   UNL     1       3.562  -0.532   5.504  1.00  0.00     0.023 C 
BRANCH   2   3
ATOM      3  C   UNL     1       3.776  -0.740   4.013  1.00  0.00     0.116 C 
BRANCH   3   4
ATOM      4  N   UNL     1       4.660   0.169   3.333  1.00  0.00    -0.352 N 
ATOM      5  C   UNL     1       5.434  -0.001   2.208  1.00  0.00     0.251 C 
ATOM      6  O   UNL     1       5.959   1.025   1.760  1.00  0.00    -0.269 OA
ATOM      7  H   UNL     1       4.723   1.062   3.742  1.00  0.00     0.163 HD
BRANCH   5   8
ATOM      8  C   UNL     1       5.780  -1.302   1.521  1.00  0.00     0.047 A 
ATOM      9  C   UNL     1       4.972  -2.435   1.234  1.00  0.00    -0.003 A 
ATOM     10  C   UNL     1       5.550  -3.501   0.491  1.00  0.00     0.048 A 
ATOM     11  C   UNL     1       6.862  -3.462   0.043  1.00  0.00     0.123 A 
ATOM     12  C   UNL     1       7.119  -1.304   1.036  1.00  0.00     0.017 A 
ATOM     13  F   UNL     1       7.355  -4.493  -0.656  1.00  0.00    -0.207 F 
ATOM     14  C   UNL     1       7.657  -2.368   0.308  1.00  0.00     0.040 A 
BRANCH   9  15
ATOM     15  C   UNL     1       3.568  -2.641   1.628  1.00  0.00    -0.015 A 
ATOM     16  C   UNL     1       1.248  -1.907   1.744  1.00  0.00     0.041 A 
ATOM     17  C   UNL     1       0.966  -2.970   2.613  1.00  0.00     0.026 A 
ATOM     18  C   UNL     1       2.543  -1.770   1.227  1.00  0.00     0.034 A 
ATOM     19  C   UNL     1       1.952  -3.885   2.966  1.00  0.00     0.003 A 
ATOM     20  C   UNL     1       3.243  -3.722   2.474  1.00  0.00     0.009 A 
BRANCH  16  21
ATOM     21  N   UNL     1       0.237  -0.942   1.602  1.00  0.00    -0.326 N 
ATOM     22  C   UNL     1       0.846   0.174  -0.537  1.00  0.00     0.114 C 
ATOM     23  C   UNL     1       0.102   0.128   0.769  1.00  0.00     0.221 C 
ATOM     24  O   UNL     1      -0.676   1.031   1.082  1.00  0.00    -0.275 OA
ATOM     25  H   UNL     1      -0.518  -1.061   2.223  1.00  0.00     0.169 HD
ENDBRANCH  16  21
ENDBRANCH   9  15
ENDBRANCH   5   8
ENDBRANCH   3   4
ENDBRANCH   2   3
ENDBRANCH   1   2
BRANCH   1  26
ATOM     26  C   UNL     1       1.330   0.845   5.234  1.00  0.00     0.116 C 
BRANCH  26  27
ATOM     27  N   UNL     1       0.499  -0.335   5.059  1.00  0.00    -0.352 N 
ATOM     28  C   UNL     1      -0.881  -0.439   5.042  1.00  0.00     0.251 C 
ATOM     29  H   UNL     1       0.987  -1.181   4.934  1.00  0.00     0.163 HD
ATOM     30  O   UNL     1      -1.403  -1.497   4.731  1.00  0.00    -0.269 OA
BRANCH  28  31
ATOM     31  C   UNL     1      -1.716   0.716   5.457  1.00  0.00     0.039 A 
ATOM     32  C   UNL     1      -2.672   0.518   6.459  1.00  0.00     0.014 A 
ATOM     33  C   UNL     1      -1.516   1.991   4.926  1.00  0.00     0.014 A 
ATOM     34  C   UNL     1      -3.329   1.620   7.017  1.00  0.00     0.010 A 
ATOM     35  C   UNL     1      -2.112   3.095   5.538  1.00  0.00     0.010 A 
ATOM     36  C   UNL     1      -3.000   2.925   6.612  1.00  0.00    -0.014 A 
BRANCH  36  37
ATOM     37  C   UNL     1      -3.511   4.107   7.359  1.00  0.00     0.031 A 
ATOM     38  C   UNL     1      -4.390   5.129   6.689  1.00  0.00     0.074 A 
ATOM     39  C   UNL     1      -3.122   4.293   8.639  1.00  0.00     0.049 A 
ATOM     40  N   UNL     1      -4.910   6.222   7.190  1.00  0.00    -0.248 NA
ATOM     41  C   UNL     1      -4.708   4.909   5.270  1.00  0.00     0.031 C 
ATOM     42  C   UNL     1      -2.214   3.416   9.386  1.00  0.00     0.029 A 
ATOM     43  N   UNL     1      -3.437   5.279   9.542  1.00  0.00    -0.354 N 
ATOM     44  C   UNL     1      -5.608   6.823   6.149  1.00  0.00     0.074 A 
ATOM     45  C   UNL     1      -5.404   6.000   4.976  1.00  0.00     0.031 C 
ATOM     46  C   UNL     1      -2.079   3.880  10.638  1.00  0.00     0.029 A 
ATOM     47  C   UNL     1      -2.859   5.104  10.779  1.00  0.00     0.049 A 
ATOM     48  H   UNL     1      -4.022   6.040   9.325  1.00  0.00     0.167 HD
ATOM     49  C   UNL     1      -6.367   7.945   6.169  1.00  0.00     0.031 A 
ATOM     50  C   UNL     1      -2.950   5.839  11.904  1.00  0.00     0.031 A 
ATOM     51  C   UNL     1      -6.574   8.763   7.337  1.00  0.00     0.049 A 
ATOM     52  C   UNL     1      -3.817   7.068  11.905  1.00  0.00     0.074 A 
ATOM     53  C   UNL     1      -7.362   9.893   7.470  1.00  0.00     0.029 A 
ATOM     54  N   UNL     1      -5.991   8.537   8.575  1.00  0.00    -0.354 N 
ATOM     55  N   UNL     1      -4.524   7.578  10.925  1.00  0.00    -0.248 NA
ATOM     56  C   UNL     1      -3.912   7.809  13.171  1.00  0.00     0.031 C 
ATOM     57  C   UNL     1      -7.226  10.373   8.778  1.00  0.00     0.029 A 
ATOM     58  C   UNL     1      -6.392   9.513   9.473  1.00  0.00     0.049 A 
ATOM     59  H   UNL     1      -5.381   7.793   8.784  1.00  0.00     0.167 HD
ATOM     60  C   UNL     1      -5.165   8.689  11.463  1.00  0.00     0.074 A 
ATOM     61  C   UNL     1      -4.782   8.758  12.858  1.00  0.00     0.031 C 
ATOM     62  C   UNL     1      -5.994   9.574  10.856  1.00  0.00     0.031 A 
BRANCH  49  63
ATOM     63  C   UNL     1      -7.045   8.350   4.885  1.00  0.00    -0.014 A 
ATOM     64  C   UNL     1      -8.123   7.604   4.374  1.00  0.00     0.010 A 
ATOM     65  C   UNL     1      -6.635   9.511   4.206  1.00  0.00     0.010 A 
ATOM     66  C   UNL     1      -8.755   7.992   3.190  1.00  0.00     0.020 A 
ATOM     67  C   UNL     1      -7.282   9.917   3.034  1.00  0.00     0.020 A 
ATOM     68  C   UNL     1      -8.329   9.145   2.526  1.00  0.00     0.054 A 
BRANCH  68  69
ATOM     69  S   UNL     1      -9.191   9.643   1.008  1.00  0.00     0.124 S 
ATOM     70  O   UNL     1      -8.700   8.659   0.046  1.00  0.00    -0.237 OA
ATOM     71  O   UNL     1     -10.598   9.509   1.380  1.00  0.00    -0.237 OA
ATOM     72  O   UNL     1      -8.737  11.013   0.785  1.00  0.00    -0.744 OA
ENDBRANCH  68  69
ENDBRANCH  49  63
BRANCH  50  73
ATOM     73  C   UNL     1      -2.223   5.423  13.136  1.00  0.00    -0.014 A 
ATOM     74  C   UNL     1      -2.930   4.930  14.248  1.00  0.00     0.010 A 
ATOM     75  C   UNL     1      -0.822   5.527  13.209  1.00  0.00     0.010 A 
ATOM     76  C   UNL     1      -2.253   4.577  15.420  1.00  0.00     0.020 A 
ATOM     77  C   UNL     1      -0.140   5.149  14.370  1.00  0.00     0.020 A 
ATOM     78  C   UNL     1      -0.862   4.692  15.474  1.00  0.00     0.054 A 
BRANCH  78  79
ATOM     79  S   UNL     1       0.002   4.195  16.991  1.00  0.00     0.124 S 
ATOM     80  O   UNL     1      -0.265   5.325  17.875  1.00  0.00    -0.237 OA
ATOM     81  O   UNL     1      -0.666   2.944  17.343  1.00  0.00    -0.237 OA
ATOM     82  O   UNL     1       1.390   4.050  16.560  1.00  0.00    -0.744 OA
ENDBRANCH  78  79
ENDBRANCH  50  73
BRANCH  62  83
ATOM     83  C   UNL     1      -6.558  10.675  11.712  1.00  0.00    -0.014 A 
ATOM     84  C   UNL     1      -5.748  11.730  12.169  1.00  0.00     0.010 A 
ATOM     85  C   UNL     1      -7.920  10.654  12.064  1.00  0.00     0.010 A 
ATOM     86  C   UNL     1      -6.277  12.715  13.007  1.00  0.00     0.020 A 
ATOM     87  C   UNL     1      -8.459  11.653  12.879  1.00  0.00     0.020 A 
ATOM     88  C   UNL     1      -7.628  12.664  13.364  1.00  0.00     0.054 A 
BRANCH  88  89
ATOM     89  S   UNL     1      -8.295  13.951  14.454  1.00  0.00     0.124 S 
ATOM     90  O   UNL     1      -7.799  13.528  15.761  1.00  0.00    -0.237 OA
ATOM     91  O   UNL     1      -7.695  15.171  13.919  1.00  0.00    -0.237 OA
ATOM     92  O   UNL     1      -9.741  13.844  14.270  1.00  0.00    -0.744 OA
ENDBRANCH  88  89
ENDBRANCH  62  83
ENDBRANCH  36  37
ENDBRANCH  28  31
ENDBRANCH  26  27
ENDBRANCH   1  26
TORSDOF 16
