REMARK SMILES O=C(CCNC(=O)N[C@@H]1CCOC1)NCCCCNC(=O)c1ccc(-c2c3nc(c(-c4ccc(S(=O)(=O)[O-])cc4)c4ccc([nH]4)c(-c4ccc(S(=O)(=O)[O-])cc4)c4nc(c(-c5ccc(S(=O)(=O)[O-])cc5)c5ccc2[nH]5)C=C4)C=C3)cc1
REMARK SMILES IDX 16 1 15 2 14 3 1 4 2 5 3 7 4 8 5 9 6 10 7 12 8 13 9 15 10 16
REMARK SMILES IDX 13 17 11 18 12 19 17 20 18 21 19 22 20 23 21 25 22 26 23 27
REMARK SMILES IDX 81 28 24 29 80 30 25 31 26 32 27 33 74 34 28 35 79 36 73 37
REMARK SMILES IDX 75 38 29 39 78 40 72 41 71 42 30 44 60 45 41 46 59 47 42 48
REMARK SMILES IDX 45 49 58 50 76 51 43 52 44 53 57 55 77 56 46 57 31 58 32 59
REMARK SMILES IDX 40 60 33 61 39 62 34 63 35 64 36 65 37 66 38 67 61 68 62 69
REMARK SMILES IDX 70 70 63 71 69 72 64 73 65 74 66 75 67 76 68 77 47 78 48 79
REMARK SMILES IDX 56 80 49 81 55 82 50 83 51 84 52 85 53 86 54 87
REMARK H PARENT 14 6 5 11 8 14 19 24 75 43 45 54
REMARK Flexibility Score: inf
ROOT
ATOM      1  C   UNL     1       2.369   0.809  -3.675  1.00  0.00     0.023 C 
ENDROOT
BRANCH   1   2
ATOM      2  C   UNL     1       1.968  -0.239  -2.640  1.00  0.00     0.116 C 
BRANCH   2   3
ATOM      3  N   UNL     1       2.624  -0.002  -1.372  1.00  0.00    -0.356 N 
ATOM      4  O   UNL     1       0.717   0.037  -0.086  1.00  0.00    -0.275 OA
ATOM      5  C   UNL     1       1.935   0.127  -0.191  1.00  0.00     0.221 C 
ATOM      6  H   UNL     1       3.605   0.070  -1.355  1.00  0.00     0.163 HD
BRANCH   5   7
ATOM      7  C   UNL     1       2.825   0.365   1.004  1.00  0.00     0.121 C 
BRANCH   7   8
ATOM      8  C   UNL     1       3.480  -0.935   1.448  1.00  0.00     0.127 C 
BRANCH   8   9
ATOM      9  N   UNL     1       4.704  -1.228   0.711  1.00  0.00    -0.338 N 
ATOM     10  C   UNL     1       6.017  -1.196   0.968  1.00  0.00     0.315 C 
ATOM     11  H   UNL     1       4.516  -1.524  -0.209  1.00  0.00     0.165 HD
ATOM     12  O   UNL     1       6.779  -1.352   0.013  1.00  0.00    -0.249 OA
ATOM     13  N   UNL     1       6.542  -1.020   2.186  1.00  0.00    -0.333 N 
ATOM     14  H   UNL     1       7.524  -0.947   2.188  1.00  0.00     0.165 HD
BRANCH  13  15
ATOM     15  C   UNL     1       5.945  -0.915   3.509  1.00  0.00     0.112 C 
ATOM     16  C   UNL     1       5.670   0.532   3.853  1.00  0.00     0.056 C 
ATOM     17  C   UNL     1       6.878  -1.349   4.636  1.00  0.00     0.185 C 
ATOM     18  C   UNL     1       6.953   0.973   4.527  1.00  0.00     0.162 C 
ATOM     19  O   UNL     1       7.525  -0.179   5.153  1.00  0.00    -0.379 OA
ENDBRANCH  13  15
ENDBRANCH   8   9
ENDBRANCH   7   8
ENDBRANCH   5   7
ENDBRANCH   2   3
ENDBRANCH   1   2
BRANCH   1  20
ATOM     20  C   UNL     1       3.867   0.850  -3.995  1.00  0.00     0.023 C 
BRANCH  20  21
ATOM     21  C   UNL     1       4.463  -0.467  -4.480  1.00  0.00     0.116 C 
BRANCH  21  22
ATOM     22  N   UNL     1       3.862  -0.923  -5.723  1.00  0.00    -0.352 N 
ATOM     23  C   UNL     1       4.465  -1.252  -6.914  1.00  0.00     0.251 C 
ATOM     24  H   UNL     1       2.882  -1.009  -5.709  1.00  0.00     0.163 HD
ATOM     25  O   UNL     1       3.778  -1.440  -7.911  1.00  0.00    -0.269 OA
BRANCH  23  26
ATOM     26  C   UNL     1       5.940  -1.352  -6.996  1.00  0.00     0.039 A 
ATOM     27  C   UNL     1       6.595  -0.773  -8.087  1.00  0.00     0.014 A 
ATOM     28  C   UNL     1       6.675  -2.012  -6.008  1.00  0.00     0.014 A 
ATOM     29  C   UNL     1       7.991  -0.801  -8.151  1.00  0.00     0.010 A 
ATOM     30  C   UNL     1       8.068  -1.970  -6.035  1.00  0.00     0.010 A 
ATOM     31  C   UNL     1       8.742  -1.366  -7.107  1.00  0.00    -0.014 A 
BRANCH  31  32
ATOM     32  C   UNL     1      10.228  -1.322  -7.114  1.00  0.00     0.031 A 
ATOM     33  C   UNL     1      11.028  -2.596  -7.159  1.00  0.00     0.074 A 
ATOM     34  C   UNL     1      10.859  -0.134  -7.021  1.00  0.00     0.049 A 
ATOM     35  N   UNL     1      12.327  -2.755  -7.128  1.00  0.00    -0.248 NA
ATOM     36  C   UNL     1      10.272  -3.857  -7.227  1.00  0.00     0.031 C 
ATOM     37  C   UNL     1      10.200   1.172  -6.936  1.00  0.00     0.029 A 
ATOM     38  N   UNL     1      12.198   0.170  -6.978  1.00  0.00    -0.354 N 
ATOM     39  C   UNL     1      12.542  -4.129  -7.154  1.00  0.00     0.074 A 
ATOM     40  C   UNL     1      11.240  -4.759  -7.157  1.00  0.00     0.031 C 
ATOM     41  C   UNL     1      11.134   2.135  -6.885  1.00  0.00     0.029 A 
ATOM     42  C   UNL     1      12.457   1.518  -6.883  1.00  0.00     0.049 A 
ATOM     43  H   UNL     1      12.906  -0.513  -7.011  1.00  0.00     0.167 HD
ATOM     44  C   UNL     1      13.716  -4.804  -7.189  1.00  0.00     0.031 A 
ATOM     45  C   UNL     1      13.625   2.184  -6.796  1.00  0.00     0.031 A 
ATOM     46  C   UNL     1      15.010  -4.173  -7.191  1.00  0.00     0.049 A 
ATOM     47  C   UNL     1      14.915   1.410  -6.811  1.00  0.00     0.074 A 
ATOM     48  C   UNL     1      16.256  -4.769  -7.283  1.00  0.00     0.029 A 
ATOM     49  N   UNL     1      15.228  -2.807  -7.087  1.00  0.00    -0.354 N 
ATOM     50  N   UNL     1      15.097   0.115  -6.907  1.00  0.00    -0.248 NA
ATOM     51  C   UNL     1      16.157   2.189  -6.715  1.00  0.00     0.031 C 
ATOM     52  C   UNL     1      17.228  -3.770  -7.169  1.00  0.00     0.029 A 
ATOM     53  C   UNL     1      16.588  -2.544  -7.080  1.00  0.00     0.049 A 
ATOM     54  H   UNL     1      14.521  -2.125  -7.027  1.00  0.00     0.167 HD
ATOM     55  C   UNL     1      16.475  -0.074  -6.916  1.00  0.00     0.074 A 
ATOM     56  C   UNL     1      17.077   1.241  -6.830  1.00  0.00     0.031 C 
ATOM     57  C   UNL     1      17.177  -1.231  -6.992  1.00  0.00     0.031 A 
BRANCH  44  58
ATOM     58  C   UNL     1      13.658  -6.311  -7.214  1.00  0.00    -0.014 A 
ATOM     59  C   UNL     1      13.177  -7.005  -8.339  1.00  0.00     0.010 A 
ATOM     60  C   UNL     1      14.139  -7.045  -6.114  1.00  0.00     0.010 A 
ATOM     61  C   UNL     1      13.141  -8.402  -8.348  1.00  0.00     0.020 A 
ATOM     62  C   UNL     1      14.134  -8.443  -6.131  1.00  0.00     0.020 A 
ATOM     63  C   UNL     1      13.620  -9.113  -7.243  1.00  0.00     0.054 A 
BRANCH  63  64
ATOM     64  S   UNL     1      13.586 -10.925  -7.295  1.00  0.00     0.124 S 
ATOM     65  O   UNL     1      12.156 -11.204  -7.186  1.00  0.00    -0.237 OA
ATOM     66  O   UNL     1      14.185 -11.219  -8.594  1.00  0.00    -0.237 OA
ATOM     67  O   UNL     1      14.387 -11.322  -6.139  1.00  0.00    -0.744 OA
ENDBRANCH  63  64
ENDBRANCH  44  58
BRANCH  45  68
ATOM     68  C   UNL     1      13.628   3.671  -6.704  1.00  0.00    -0.014 A 
ATOM     69  C   UNL     1      14.104   4.452  -7.772  1.00  0.00     0.010 A 
ATOM     70  C   UNL     1      13.146   4.316  -5.550  1.00  0.00     0.010 A 
ATOM     71  C   UNL     1      14.115   5.847  -7.682  1.00  0.00     0.020 A 
ATOM     72  C   UNL     1      13.125   5.712  -5.469  1.00  0.00     0.020 A 
ATOM     73  C   UNL     1      13.621   6.468  -6.532  1.00  0.00     0.054 A 
BRANCH  73  74
ATOM     74  S   UNL     1      13.596   8.281  -6.460  1.00  0.00     0.124 S 
ATOM     75  O   UNL     1      15.013   8.600  -6.322  1.00  0.00    -0.237 OA
ATOM     76  O   UNL     1      12.988   8.638  -7.740  1.00  0.00    -0.237 OA
ATOM     77  O   UNL     1      12.772   8.566  -5.287  1.00  0.00    -0.744 OA
ENDBRANCH  73  74
ENDBRANCH  45  68
BRANCH  57  78
ATOM     78  C   UNL     1      18.681  -1.133  -7.027  1.00  0.00    -0.014 A 
ATOM     79  C   UNL     1      19.419  -0.752  -5.892  1.00  0.00     0.010 A 
ATOM     80  C   UNL     1      19.369  -1.484  -8.204  1.00  0.00     0.010 A 
ATOM     81  C   UNL     1      20.814  -0.692  -5.944  1.00  0.00     0.020 A 
ATOM     82  C   UNL     1      20.765  -1.458  -8.249  1.00  0.00     0.020 A 
ATOM     83  C   UNL     1      21.479  -1.047  -7.122  1.00  0.00     0.054 A 
BRANCH  83  84
ATOM     84  S   UNL     1      23.292  -1.005  -7.148  1.00  0.00     0.124 S 
ATOM     85  O   UNL     1      23.562   0.430  -7.145  1.00  0.00    -0.237 OA
ATOM     86  O   UNL     1      23.646  -1.714  -5.921  1.00  0.00    -0.237 OA
ATOM     87  O   UNL     1      23.638  -1.700  -8.386  1.00  0.00    -0.744 OA
ENDBRANCH  83  84
ENDBRANCH  57  78
ENDBRANCH  31  32
ENDBRANCH  23  26
ENDBRANCH  21  22
ENDBRANCH  20  21
ENDBRANCH   1  20
TORSDOF 17
