REMARK SMILES CC[C@@H](C)[C@H](NC(=O)[C@H](C)N1C(=O)N2CCC3=c4cc(OC)ccc4=N[C@H]3[C@@]2(C)C1=O)C(=O)NCCCCNC(=O)c1ccc(-c2c3nc(c(-c4ccc(S(=O)(=O)[O-])cc4)c4ccc([nH]4)c(-c4ccc(S(=O)(=O)[O-])cc4)c4nc(c(-c5ccc(S(=O)(=O)[O-])cc5)c5ccc2[nH]5)C=C4)C=C3)cc1
REMARK SMILES IDX 36 1 35 2 34 3 32 4 33 5 5 7 3 8 4 9 2 10 1 11 6 12 7 13
REMARK SMILES IDX 8 15 9 16 10 17 11 18 12 19 30 20 14 21 13 22 28 23 31 24
REMARK SMILES IDX 15 25 27 26 29 27 16 28 17 29 26 30 18 31 25 32 19 33 24 34
REMARK SMILES IDX 20 35 23 36 21 37 22 38 37 39 38 40 39 41 40 42 41 44 42 45
REMARK SMILES IDX 43 46 101 47 44 48 100 49 45 50 46 51 47 52 94 53 48 54
REMARK SMILES IDX 99 55 93 56 95 57 49 58 98 59 92 60 91 61 50 63 80 64 61 65
REMARK SMILES IDX 79 66 62 67 65 68 78 69 96 70 63 71 64 72 77 74 97 75 66 76
REMARK SMILES IDX 51 77 52 78 60 79 53 80 59 81 54 82 55 83 56 84 57 85 58 86
REMARK SMILES IDX 81 87 82 88 90 89 83 90 89 91 84 92 85 93 86 94 87 95 88 96
REMARK SMILES IDX 67 97 68 98 76 99 69 100 75 101 70 102 71 103 72 104 73 105
REMARK SMILES IDX 74 106
REMARK H PARENT 34 6 6 14 39 43 95 62 65 73
REMARK Flexibility Score: inf
ROOT
ATOM      1  C   UNL     1      -2.056  -0.415  -0.975  1.00  0.00     0.023 C 
ENDROOT
BRANCH   1   2
ATOM      2  C   UNL     1      -1.548  -0.980  -2.292  1.00  0.00     0.116 C 
BRANCH   2   3
ATOM      3  N   UNL     1      -0.108  -1.009  -2.399  1.00  0.00    -0.354 N 
ATOM      4  C   UNL     1       0.739  -2.002  -2.751  1.00  0.00     0.242 C 
ATOM      5  O   UNL     1       1.901  -1.684  -3.019  1.00  0.00    -0.273 OA
ATOM      6  H   UNL     1       0.334  -0.158  -2.178  1.00  0.00     0.163 HD
BRANCH   4   7
ATOM      7  C   UNL     1       0.300  -3.472  -2.824  1.00  0.00     0.174 C 
BRANCH   7   8
ATOM      8  C   UNL     1      -0.608  -3.849  -4.065  1.00  0.00     0.018 C 
ATOM      9  C   UNL     1      -0.682  -2.740  -5.133  1.00  0.00     0.010 C 
BRANCH   8  10
ATOM     10  C   UNL     1      -2.026  -4.410  -3.770  1.00  0.00     0.002 C 
ATOM     11  C   UNL     1      -2.805  -4.812  -5.028  1.00  0.00     0.004 C 
ENDBRANCH   8  10
ENDBRANCH   7   8
BRANCH   7  12
ATOM     12  N   UNL     1      -0.196  -3.857  -1.486  1.00  0.00    -0.342 N 
ATOM     13  C   UNL     1       0.530  -3.776  -0.306  1.00  0.00     0.243 C 
ATOM     14  H   UNL     1      -1.117  -4.199  -1.426  1.00  0.00     0.164 HD
ATOM     15  O   UNL     1       0.067  -2.973   0.518  1.00  0.00    -0.273 OA
BRANCH  13  16
ATOM     16  C   UNL     1       1.928  -4.496  -0.029  1.00  0.00     0.181 C 
ATOM     17  C   UNL     1       3.047  -3.539  -0.388  1.00  0.00     0.042 C 
BRANCH  16  18
ATOM     18  N   UNL     1       2.084  -5.884  -0.549  1.00  0.00    -0.250 N 
ATOM     19  C   UNL     1       2.206  -7.104   0.129  1.00  0.00     0.328 C 
ATOM     20  C   UNL     1       1.456  -6.193  -1.689  1.00  0.00     0.259 C 
ATOM     21  N   UNL     1       1.322  -8.076  -0.632  1.00  0.00    -0.307 N 
ATOM     22  O   UNL     1       2.701  -7.334   1.191  1.00  0.00    -0.248 OA
ATOM     23  C   UNL     1       0.391  -7.171  -1.286  1.00  0.00     0.147 C 
ATOM     24  O   UNL     1       1.885  -6.001  -2.820  1.00  0.00    -0.271 OA
ATOM     25  C   UNL     1       0.661  -9.283  -0.010  1.00  0.00     0.127 C 
ATOM     26  C   UNL     1      -0.544  -6.838  -0.053  1.00  0.00     0.168 C 
ATOM     27  C   UNL     1      -0.240  -7.742  -2.553  1.00  0.00     0.048 C 
ATOM     28  C   UNL     1      -1.005  -9.179   0.204  1.00  0.00     0.055 C 
ATOM     29  C   UNL     1      -1.680  -7.745   0.238  1.00  0.00    -0.032 C 
ATOM     30  N   UNL     1      -0.446  -5.784   0.988  1.00  0.00    -0.274 NA
ATOM     31  C   UNL     1      -2.395  -7.163   1.241  1.00  0.00     0.005 A 
ATOM     32  C   UNL     1      -1.296  -6.290   1.842  1.00  0.00     0.066 A 
ATOM     33  C   UNL     1      -3.482  -6.138   1.090  1.00  0.00     0.056 A 
ATOM     34  C   UNL     1      -1.575  -5.865   3.219  1.00  0.00     0.032 A 
ATOM     35  C   UNL     1      -3.575  -5.191   2.068  1.00  0.00     0.119 A 
ATOM     36  C   UNL     1      -2.812  -5.360   3.307  1.00  0.00     0.048 A 
BRANCH  35  37
ATOM     37  O   UNL     1      -4.080  -3.922   1.827  1.00  0.00    -0.497 OA
ATOM     38  C   UNL     1      -3.179  -2.870   2.253  1.00  0.00     0.278 C 
ENDBRANCH  35  37
ENDBRANCH  16  18
ENDBRANCH  13  16
ENDBRANCH   7  12
ENDBRANCH   4   7
ENDBRANCH   2   3
ENDBRANCH   1   2
BRANCH   1  39
ATOM     39  C   UNL     1      -1.416   0.897  -0.537  1.00  0.00     0.023 C 
BRANCH  39  40
ATOM     40  C   UNL     1      -1.240   1.952  -1.619  1.00  0.00     0.116 C 
BRANCH  40  41
ATOM     41  N   UNL     1      -2.473   2.370  -2.264  1.00  0.00    -0.352 N 
ATOM     42  C   UNL     1      -2.795   3.638  -2.699  1.00  0.00     0.251 C 
ATOM     43  H   UNL     1      -3.152   1.672  -2.406  1.00  0.00     0.163 HD
ATOM     44  O   UNL     1      -3.885   3.871  -3.207  1.00  0.00    -0.269 OA
BRANCH  42  45
ATOM     45  C   UNL     1      -1.814   4.722  -2.473  1.00  0.00     0.039 A 
ATOM     46  C   UNL     1      -0.490   4.569  -2.889  1.00  0.00     0.014 A 
ATOM     47  C   UNL     1      -2.197   5.828  -1.711  1.00  0.00     0.014 A 
ATOM     48  C   UNL     1       0.482   5.424  -2.384  1.00  0.00     0.010 A 
ATOM     49  C   UNL     1      -1.228   6.739  -1.284  1.00  0.00     0.010 A 
ATOM     50  C   UNL     1       0.128   6.513  -1.567  1.00  0.00    -0.014 A 
BRANCH  50  51
ATOM     51  C   UNL     1       1.200   7.389  -1.026  1.00  0.00     0.031 A 
ATOM     52  C   UNL     1       1.477   7.465   0.452  1.00  0.00     0.074 A 
ATOM     53  C   UNL     1       1.988   8.056  -1.893  1.00  0.00     0.049 A 
ATOM     54  N   UNL     1       2.430   8.114   1.074  1.00  0.00    -0.248 NA
ATOM     55  C   UNL     1       0.576   6.725   1.351  1.00  0.00     0.031 C 
ATOM     56  C   UNL     1       1.826   8.044  -3.349  1.00  0.00     0.029 A 
ATOM     57  N   UNL     1       3.107   8.822  -1.688  1.00  0.00    -0.354 N 
ATOM     58  C   UNL     1       2.236   7.875   2.430  1.00  0.00     0.074 A 
ATOM     59  C   UNL     1       1.058   7.044   2.546  1.00  0.00     0.031 C 
ATOM     60  C   UNL     1       2.859   8.687  -3.908  1.00  0.00     0.029 A 
ATOM     61  C   UNL     1       3.717   9.219  -2.854  1.00  0.00     0.049 A 
ATOM     62  H   UNL     1       3.440   9.064  -0.793  1.00  0.00     0.167 HD
ATOM     63  C   UNL     1       2.978   8.301   3.480  1.00  0.00     0.031 A 
ATOM     64  C   UNL     1       4.845   9.925  -3.063  1.00  0.00     0.031 A 
ATOM     65  C   UNL     1       4.159   9.117   3.359  1.00  0.00     0.049 A 
ATOM     66  C   UNL     1       5.634  10.411  -1.885  1.00  0.00     0.074 A 
ATOM     67  C   UNL     1       4.982   9.588   4.367  1.00  0.00     0.029 A 
ATOM     68  N   UNL     1       4.690   9.575   2.163  1.00  0.00    -0.354 N 
ATOM     69  N   UNL     1       5.421  10.189  -0.611  1.00  0.00    -0.248 NA
ATOM     70  C   UNL     1       6.803  11.254  -2.168  1.00  0.00     0.031 C 
ATOM     71  C   UNL     1       5.980  10.374   3.785  1.00  0.00     0.029 A 
ATOM     72  C   UNL     1       5.813  10.347   2.409  1.00  0.00     0.049 A 
ATOM     73  H   UNL     1       4.323   9.382   1.270  1.00  0.00     0.167 HD
ATOM     74  C   UNL     1       6.422  10.875   0.064  1.00  0.00     0.074 A 
ATOM     75  C   UNL     1       7.259  11.495  -0.945  1.00  0.00     0.031 C 
ATOM     76  C   UNL     1       6.620  10.986   1.400  1.00  0.00     0.031 A 
BRANCH  63  77
ATOM     77  C   UNL     1       2.540   7.905   4.866  1.00  0.00    -0.014 A 
ATOM     78  C   UNL     1       2.021   8.880   5.739  1.00  0.00     0.010 A 
ATOM     79  C   UNL     1       2.724   6.594   5.339  1.00  0.00     0.010 A 
ATOM     80  C   UNL     1       1.705   8.555   7.061  1.00  0.00     0.020 A 
ATOM     81  C   UNL     1       2.388   6.259   6.655  1.00  0.00     0.020 A 
ATOM     82  C   UNL     1       1.897   7.247   7.513  1.00  0.00     0.054 A 
BRANCH  82  83
ATOM     83  S   UNL     1       1.470   6.834   9.228  1.00  0.00     0.124 S 
ATOM     84  O   UNL     1       2.636   7.314   9.961  1.00  0.00    -0.237 OA
ATOM     85  O   UNL     1       0.235   7.585   9.444  1.00  0.00    -0.237 OA
ATOM     86  O   UNL     1       1.302   5.382   9.195  1.00  0.00    -0.744 OA
ENDBRANCH  82  83
ENDBRANCH  63  77
BRANCH  64  87
ATOM     87  C   UNL     1       5.279  10.177  -4.463  1.00  0.00    -0.014 A 
ATOM     88  C   UNL     1       4.534  11.035  -5.293  1.00  0.00     0.010 A 
ATOM     89  C   UNL     1       6.353   9.454  -5.010  1.00  0.00     0.010 A 
ATOM     90  C   UNL     1       4.807  11.111  -6.660  1.00  0.00     0.020 A 
ATOM     91  C   UNL     1       6.646   9.548  -6.374  1.00  0.00     0.020 A 
ATOM     92  C   UNL     1       5.847  10.348  -7.195  1.00  0.00     0.054 A 
BRANCH  92  93
ATOM     93  S   UNL     1       6.130  10.389  -8.986  1.00  0.00     0.124 S 
ATOM     94  O   UNL     1       5.102   9.471  -9.471  1.00  0.00    -0.237 OA
ATOM     95  O   UNL     1       5.921  11.796  -9.315  1.00  0.00    -0.237 OA
ATOM     96  O   UNL     1       7.505   9.918  -9.124  1.00  0.00    -0.744 OA
ENDBRANCH  92  93
ENDBRANCH  64  87
BRANCH  76  97
ATOM     97  C   UNL     1       7.765  11.840   1.869  1.00  0.00    -0.014 A 
ATOM     98  C   UNL     1       8.897  11.243   2.452  1.00  0.00     0.010 A 
ATOM     99  C   UNL     1       7.667  13.243   1.835  1.00  0.00     0.010 A 
ATOM    100  C   UNL     1       9.901  12.033   3.018  1.00  0.00     0.020 A 
ATOM    101  C   UNL     1       8.680  14.036   2.380  1.00  0.00     0.020 A 
ATOM    102  C   UNL     1       9.780  13.425   2.988  1.00  0.00     0.054 A 
BRANCH 102 103
ATOM    103  S   UNL     1      11.080  14.438   3.745  1.00  0.00     0.124 S 
ATOM    104  O   UNL     1      10.739  14.367   5.163  1.00  0.00    -0.237 OA
ATOM    105  O   UNL     1      12.303  13.739   3.356  1.00  0.00    -0.237 OA
ATOM    106  O   UNL     1      10.898  15.748   3.122  1.00  0.00    -0.744 OA
ENDBRANCH 102 103
ENDBRANCH  76  97
ENDBRANCH  50  51
ENDBRANCH  42  45
ENDBRANCH  40  41
ENDBRANCH  39  40
ENDBRANCH   1  39
TORSDOF 20
