REMARK SMILES CC1=Nc2c(c(C)nn2-c2ccc(F)cc2)[C@H](c2ccc(C(=O)NCCCCNC(=O)c3ccc(-c4c5nc(c(-c6ccc(S(=O)(=O)[O-])cc6)c6ccc([nH]6)c(-c6ccc(S(=O)(=O)[O-])cc6)c6nc(c(-c7ccc(S(=O)(=O)[O-])cc7)c7ccc4[nH]7)C=C6)C=C5)cc3)cc2)S1
REMARK SMILES IDX 27 1 26 2 25 3 24 4 22 5 23 6 21 8 18 9 19 10 93 11 20 12
REMARK SMILES IDX 92 13 17 14 1 15 2 16 3 17 94 18 4 19 5 20 9 21 6 22 8 23
REMARK SMILES IDX 7 24 10 25 11 26 16 27 12 28 15 29 13 30 14 31 28 32 29 33
REMARK SMILES IDX 30 34 31 36 32 37 33 38 91 39 34 40 90 41 35 42 36 43 37 44
REMARK SMILES IDX 84 45 38 46 89 47 83 48 85 49 39 50 88 51 82 52 81 53 40 55
REMARK SMILES IDX 70 56 51 57 69 58 52 59 55 60 68 61 86 62 53 63 54 64 67 66
REMARK SMILES IDX 87 67 56 68 41 69 42 70 50 71 43 72 49 73 44 74 45 75 46 76
REMARK SMILES IDX 47 77 48 78 71 79 72 80 80 81 73 82 79 83 74 84 75 85 76 86
REMARK SMILES IDX 77 87 78 88 57 89 58 90 66 91 59 92 65 93 60 94 61 95 62 96
REMARK SMILES IDX 63 97 64 98
REMARK H PARENT 24 7 29 35 85 54 55 65
REMARK Flexibility Score: inf
ROOT
ATOM      1  C   UNL     1       6.794  -2.332   6.468  1.00  0.00     0.023 C 
ENDROOT
BRANCH   1   2
ATOM      2  C   UNL     1       5.463  -2.165   5.720  1.00  0.00     0.023 C 
BRANCH   2   3
ATOM      3  C   UNL     1       4.210  -2.634   6.471  1.00  0.00     0.116 C 
BRANCH   3   4
ATOM      4  N   UNL     1       3.886  -1.747   7.570  1.00  0.00    -0.352 N 
ATOM      5  C   UNL     1       2.970  -0.734   7.696  1.00  0.00     0.251 C 
ATOM      6  O   UNL     1       2.902  -0.150   8.778  1.00  0.00    -0.269 OA
ATOM      7  H   UNL     1       4.425  -1.901   8.379  1.00  0.00     0.163 HD
BRANCH   5   8
ATOM      8  C   UNL     1       2.043  -0.328   6.606  1.00  0.00     0.039 A 
ATOM      9  C   UNL     1       0.195   0.585   4.655  1.00  0.00    -0.030 A 
ATOM     10  C   UNL     1      -0.127   0.608   6.022  1.00  0.00     0.006 A 
ATOM     11  C   UNL     1       1.460   0.098   4.289  1.00  0.00     0.006 A 
ATOM     12  C   UNL     1       0.789   0.170   6.984  1.00  0.00     0.014 A 
ATOM     13  C   UNL     1       2.374  -0.340   5.253  1.00  0.00     0.014 A 
BRANCH   9  14
ATOM     14  C   UNL     1      -0.789   1.159   3.646  1.00  0.00     0.119 C 
ATOM     15  C   UNL     1       0.679  -0.142  -0.003  1.00  0.00     0.075 C 
ATOM     16  C   UNL     1       0.183   0.789   1.073  1.00  0.00     0.074 C 
ATOM     17  N   UNL     1       0.664   1.992   1.085  1.00  0.00    -0.227 NA
ATOM     18  S   UNL     1      -1.021   0.120   2.164  1.00  0.00    -0.098 SA
ATOM     19  C   UNL     1       0.325   2.808   2.111  1.00  0.00     0.161 A 
ATOM     20  C   UNL     1      -0.275   2.509   3.311  1.00  0.00     0.038 A 
ATOM     21  N   UNL     1       0.684   4.143   2.178  1.00  0.00    -0.215 N 
ATOM     22  C   UNL     1      -0.204   3.712   4.064  1.00  0.00     0.067 A 
ATOM     23  N   UNL     1       0.461   4.673   3.406  1.00  0.00    -0.171 NA
ATOM     24  C   UNL     1      -0.708   3.972   5.438  1.00  0.00     0.069 C 
BRANCH  21  25
ATOM     25  C   UNL     1       1.224   4.912   1.124  1.00  0.00     0.067 A 
ATOM     26  C   UNL     1       0.661   4.806  -0.157  1.00  0.00     0.031 A 
ATOM     27  C   UNL     1       2.343   5.720   1.353  1.00  0.00     0.031 A 
ATOM     28  C   UNL     1       1.230   5.500  -1.220  1.00  0.00     0.041 A 
ATOM     29  C   UNL     1       2.939   6.369   0.269  1.00  0.00     0.041 A 
ATOM     30  C   UNL     1       2.376   6.256  -1.002  1.00  0.00     0.123 A 
ATOM     31  F   UNL     1       2.953   6.881  -2.036  1.00  0.00    -0.207 F 
ENDBRANCH  21  25
ENDBRANCH   9  14
ENDBRANCH   5   8
ENDBRANCH   3   4
ENDBRANCH   2   3
ENDBRANCH   1   2
BRANCH   1  32
ATOM     32  C   UNL     1       7.260  -3.772   6.651  1.00  0.00     0.116 C 
BRANCH  32  33
ATOM     33  N   UNL     1       7.487  -4.472   5.382  1.00  0.00    -0.352 N 
ATOM     34  C   UNL     1       7.582  -5.840   5.156  1.00  0.00     0.251 C 
ATOM     35  H   UNL     1       7.585  -3.899   4.588  1.00  0.00     0.163 HD
ATOM     36  O   UNL     1       8.140  -6.281   4.169  1.00  0.00    -0.269 OA
BRANCH  34  37
ATOM     37  C   UNL     1       6.956  -6.740   6.142  1.00  0.00     0.039 A 
ATOM     38  C   UNL     1       7.573  -7.899   6.619  1.00  0.00     0.014 A 
ATOM     39  C   UNL     1       5.731  -6.326   6.644  1.00  0.00     0.014 A 
ATOM     40  C   UNL     1       6.978  -8.583   7.682  1.00  0.00     0.010 A 
ATOM     41  C   UNL     1       5.277  -6.860   7.815  1.00  0.00     0.010 A 
ATOM     42  C   UNL     1       5.836  -8.040   8.288  1.00  0.00    -0.014 A 
BRANCH  42  43
ATOM     43  C   UNL     1       5.190  -8.646   9.442  1.00  0.00     0.031 A 
ATOM     44  C   UNL     1       6.034  -8.860  10.643  1.00  0.00     0.074 A 
ATOM     45  C   UNL     1       3.848  -8.785   9.511  1.00  0.00     0.049 A 
ATOM     46  N   UNL     1       6.460  -9.988  11.103  1.00  0.00    -0.248 NA
ATOM     47  C   UNL     1       6.546  -7.689  11.369  1.00  0.00     0.031 C 
ATOM     48  C   UNL     1       2.823  -8.361   8.542  1.00  0.00     0.029 A 
ATOM     49  N   UNL     1       3.101  -9.237  10.548  1.00  0.00    -0.354 N 
ATOM     50  C   UNL     1       7.120  -9.701  12.293  1.00  0.00     0.074 A 
ATOM     51  C   UNL     1       7.291  -8.268  12.315  1.00  0.00     0.031 C 
ATOM     52  C   UNL     1       1.610  -8.355   9.135  1.00  0.00     0.029 A 
ATOM     53  C   UNL     1       1.744  -8.968  10.441  1.00  0.00     0.049 A 
ATOM     54  H   UNL     1       3.490  -9.717  11.314  1.00  0.00     0.167 HD
ATOM     55  C   UNL     1       7.279 -10.641  13.268  1.00  0.00     0.031 A 
ATOM     56  C   UNL     1       0.791  -9.243  11.361  1.00  0.00     0.031 A 
ATOM     57  C   UNL     1       6.894 -11.953  12.809  1.00  0.00     0.049 A 
ATOM     58  C   UNL     1       1.321 -10.350  12.194  1.00  0.00     0.074 A 
ATOM     59  C   UNL     1       7.326 -12.802  11.810  1.00  0.00     0.029 A 
ATOM     60  N   UNL     1       5.630 -12.385  13.148  1.00  0.00    -0.354 N 
ATOM     61  N   UNL     1       1.574 -11.536  11.712  1.00  0.00    -0.248 NA
ATOM     62  C   UNL     1       2.017 -10.022  13.428  1.00  0.00     0.031 C 
ATOM     63  C   UNL     1       6.132 -13.366  11.268  1.00  0.00     0.029 A 
ATOM     64  C   UNL     1       5.049 -12.886  12.009  1.00  0.00     0.049 A 
ATOM     65  H   UNL     1       5.219 -12.342  14.042  1.00  0.00     0.167 HD
ATOM     66  C   UNL     1       2.764 -11.923  12.315  1.00  0.00     0.074 A 
ATOM     67  C   UNL     1       2.925 -11.004  13.442  1.00  0.00     0.031 C 
ATOM     68  C   UNL     1       3.639 -12.766  11.687  1.00  0.00     0.031 A 
BRANCH  55  69
ATOM     69  C   UNL     1       7.427 -10.339  14.737  1.00  0.00    -0.014 A 
ATOM     70  C   UNL     1       7.721 -11.397  15.623  1.00  0.00     0.010 A 
ATOM     71  C   UNL     1       7.031  -9.115  15.311  1.00  0.00     0.010 A 
ATOM     72  C   UNL     1       7.554 -11.256  17.007  1.00  0.00     0.020 A 
ATOM     73  C   UNL     1       6.903  -8.950  16.692  1.00  0.00     0.020 A 
ATOM     74  C   UNL     1       7.128 -10.036  17.529  1.00  0.00     0.054 A 
BRANCH  74  75
ATOM     75  S   UNL     1       6.787  -9.903  19.302  1.00  0.00     0.124 S 
ATOM     76  O   UNL     1       5.638 -10.791  19.453  1.00  0.00    -0.237 OA
ATOM     77  O   UNL     1       8.035 -10.374  19.895  1.00  0.00    -0.237 OA
ATOM     78  O   UNL     1       6.509  -8.481  19.492  1.00  0.00    -0.744 OA
ENDBRANCH  74  75
ENDBRANCH  55  69
BRANCH  56  79
ATOM     79  C   UNL     1      -0.375  -8.406  11.724  1.00  0.00    -0.014 A 
ATOM     80  C   UNL     1      -1.431  -8.921  12.495  1.00  0.00     0.010 A 
ATOM     81  C   UNL     1      -0.316  -7.007  11.540  1.00  0.00     0.010 A 
ATOM     82  C   UNL     1      -2.357  -8.064  13.114  1.00  0.00     0.020 A 
ATOM     83  C   UNL     1      -1.236  -6.147  12.152  1.00  0.00     0.020 A 
ATOM     84  C   UNL     1      -2.239  -6.680  12.957  1.00  0.00     0.054 A 
BRANCH  84  85
ATOM     85  S   UNL     1      -3.326  -5.576  13.908  1.00  0.00     0.124 S 
ATOM     86  O   UNL     1      -4.620  -5.783  13.264  1.00  0.00    -0.237 OA
ATOM     87  O   UNL     1      -3.204  -6.103  15.265  1.00  0.00    -0.237 OA
ATOM     88  O   UNL     1      -2.737  -4.253  13.705  1.00  0.00    -0.744 OA
ENDBRANCH  84  85
ENDBRANCH  56  79
BRANCH  68  89
ATOM     89  C   UNL     1       3.187 -13.438  10.405  1.00  0.00    -0.014 A 
ATOM     90  C   UNL     1       2.886 -12.727   9.225  1.00  0.00     0.010 A 
ATOM     91  C   UNL     1       3.230 -14.841  10.340  1.00  0.00     0.010 A 
ATOM     92  C   UNL     1       2.618 -13.399   8.022  1.00  0.00     0.020 A 
ATOM     93  C   UNL     1       2.978 -15.518   9.141  1.00  0.00     0.020 A 
ATOM     94  C   UNL     1       2.667 -14.794   7.989  1.00  0.00     0.054 A 
BRANCH  94  95
ATOM     95  S   UNL     1       2.376 -15.658   6.418  1.00  0.00     0.124 S 
ATOM     96  O   UNL     1       0.950 -15.437   6.192  1.00  0.00    -0.237 OA
ATOM     97  O   UNL     1       3.272 -14.967   5.494  1.00  0.00    -0.237 OA
ATOM     98  O   UNL     1       2.748 -17.043   6.707  1.00  0.00    -0.744 OA
ENDBRANCH  94  95
ENDBRANCH  68  89
ENDBRANCH  42  43
ENDBRANCH  34  37
ENDBRANCH  32  33
ENDBRANCH   1  32
TORSDOF 16
