REMARK SMILES CC(C)[C@H](C(=O)NCCCCNC(=O)c1ccc(-c2c3nc(c(-c4ccc(S(=O)(=O)[O-])cc4)c4ccc([nH]4)c(-c4ccc(S(=O)(=O)[O-])cc4)c4nc(c(-c5ccc(S(=O)(=O)[O-])cc5)c5ccc2[nH]5)C=C4)C=C3)cc1)n1cc(Cl)c(=O)[nH]c1=O
REMARK SMILES IDX 10 1 9 2 8 3 7 4 5 5 6 6 4 8 2 9 1 10 3 11 75 12 76 13 82 14
REMARK SMILES IDX 77 15 81 16 83 17 78 18 79 19 80 21 11 22 12 23 13 24 14 26
REMARK SMILES IDX 15 27 16 28 74 29 17 30 73 31 18 32 19 33 20 34 67 35 21 36
REMARK SMILES IDX 72 37 66 38 68 39 22 40 71 41 65 42 64 43 23 45 53 46 34 47
REMARK SMILES IDX 52 48 35 49 38 50 51 51 69 52 36 53 37 54 50 56 70 57 39 58
REMARK SMILES IDX 24 59 25 60 33 61 26 62 32 63 27 64 28 65 29 66 30 67 31 68
REMARK SMILES IDX 54 69 55 70 63 71 56 72 62 73 57 74 58 75 59 76 60 77 61 78
REMARK SMILES IDX 40 79 41 80 49 81 42 82 48 83 43 84 44 85 45 86 46 87 47 88
REMARK H PARENT 7 7 81 20 12 25 68 44 38 55
REMARK Flexibility Score: inf
ROOT
ATOM      1  C   UNL     1       2.836   2.925   2.781  1.00  0.00     0.023 C 
ENDROOT
BRANCH   1   2
ATOM      2  C   UNL     1       1.368   2.692   2.449  1.00  0.00     0.023 C 
BRANCH   2   3
ATOM      3  C   UNL     1       0.966   3.034   1.016  1.00  0.00     0.116 C 
BRANCH   3   4
ATOM      4  N   UNL     1       1.123   1.906   0.129  1.00  0.00    -0.354 N 
ATOM      5  C   UNL     1       0.225   1.226  -0.623  1.00  0.00     0.243 C 
ATOM      6  O   UNL     1       0.701   0.357  -1.370  1.00  0.00    -0.273 OA
ATOM      7  H   UNL     1       2.046   1.572   0.059  1.00  0.00     0.163 HD
BRANCH   5   8
ATOM      8  C   UNL     1      -1.299   1.523  -0.702  1.00  0.00     0.183 C 
BRANCH   8   9
ATOM      9  C   UNL     1      -2.223   1.201   0.514  1.00  0.00     0.015 C 
ATOM     10  C   UNL     1      -2.004   1.885   1.856  1.00  0.00     0.010 C 
ATOM     11  C   UNL     1      -3.704   1.313   0.130  1.00  0.00     0.010 C 
ENDBRANCH   8   9
BRANCH   8  12
ATOM     12  N   UNL     1      -1.623   2.659  -1.619  1.00  0.00    -0.286 N 
ATOM     13  C   UNL     1      -1.734   2.367  -2.980  1.00  0.00     0.118 A 
ATOM     14  C   UNL     1      -1.758   3.968  -1.177  1.00  0.00     0.329 A 
ATOM     15  C   UNL     1      -1.988   3.291  -3.912  1.00  0.00     0.122 A 
ATOM     16  N   UNL     1      -1.966   4.915  -2.147  1.00  0.00    -0.273 N 
ATOM     17  O   UNL     1      -1.727   4.334  -0.008  1.00  0.00    -0.248 OA
ATOM     18  Cl  UNL     1      -2.164   2.892  -5.571  1.00  0.00    -0.077 Cl
ATOM     19  C   UNL     1      -2.123   4.700  -3.488  1.00  0.00     0.272 A 
ATOM     20  H   UNL     1      -2.009   5.851  -1.844  1.00  0.00     0.175 HD
ATOM     21  O   UNL     1      -2.366   5.619  -4.263  1.00  0.00    -0.268 OA
ENDBRANCH   8  12
ENDBRANCH   5   8
ENDBRANCH   3   4
ENDBRANCH   2   3
ENDBRANCH   1   2
BRANCH   1  22
ATOM     22  C   UNL     1       3.333   4.350   2.575  1.00  0.00     0.116 C 
BRANCH  22  23
ATOM     23  N   UNL     1       2.525   5.366   3.235  1.00  0.00    -0.352 N 
ATOM     24  C   UNL     1       2.955   6.506   3.881  1.00  0.00     0.251 C 
ATOM     25  H   UNL     1       1.552   5.221   3.217  1.00  0.00     0.163 HD
ATOM     26  O   UNL     1       2.158   7.243   4.453  1.00  0.00    -0.269 OA
BRANCH  24  27
ATOM     27  C   UNL     1       4.402   6.793   3.910  1.00  0.00     0.039 A 
ATOM     28  C   UNL     1       5.030   6.975   5.143  1.00  0.00     0.014 A 
ATOM     29  C   UNL     1       5.143   6.766   2.727  1.00  0.00     0.014 A 
ATOM     30  C   UNL     1       6.424   7.035   5.197  1.00  0.00     0.010 A 
ATOM     31  C   UNL     1       6.530   6.741   2.792  1.00  0.00     0.010 A 
ATOM     32  C   UNL     1       7.185   6.866   4.028  1.00  0.00    -0.014 A 
BRANCH  32  33
ATOM     33  C   UNL     1       8.667   6.803   4.069  1.00  0.00     0.031 A 
ATOM     34  C   UNL     1       9.480   7.834   3.335  1.00  0.00     0.074 A 
ATOM     35  C   UNL     1       9.278   5.771   4.686  1.00  0.00     0.049 A 
ATOM     36  N   UNL     1      10.775   7.895   3.167  1.00  0.00    -0.248 NA
ATOM     37  C   UNL     1       8.736   8.917   2.670  1.00  0.00     0.031 C 
ATOM     38  C   UNL     1       8.601   4.671   5.379  1.00  0.00     0.029 A 
ATOM     39  N   UNL     1      10.611   5.473   4.819  1.00  0.00    -0.354 N 
ATOM     40  C   UNL     1      10.997   8.998   2.352  1.00  0.00     0.074 A 
ATOM     41  C   UNL     1       9.701   9.550   2.022  1.00  0.00     0.031 C 
ATOM     42  C   UNL     1       9.523   3.837   5.887  1.00  0.00     0.029 A 
ATOM     43  C   UNL     1      10.852   4.319   5.528  1.00  0.00     0.049 A 
ATOM     44  H   UNL     1      11.328   6.032   4.442  1.00  0.00     0.167 HD
ATOM     45  C   UNL     1      12.174   9.520   1.931  1.00  0.00     0.031 A 
ATOM     46  C   UNL     1      12.013   3.718   5.852  1.00  0.00     0.031 A 
ATOM     47  C   UNL     1      13.461   8.995   2.293  1.00  0.00     0.049 A 
ATOM     48  C   UNL     1      13.309   4.344   5.418  1.00  0.00     0.074 A 
ATOM     49  C   UNL     1      14.713   9.494   1.980  1.00  0.00     0.029 A 
ATOM     50  N   UNL     1      13.662   7.856   3.057  1.00  0.00    -0.354 N 
ATOM     51  N   UNL     1      13.499   5.426   4.701  1.00  0.00    -0.248 NA
ATOM     52  C   UNL     1      14.546   3.676   5.846  1.00  0.00     0.031 C 
ATOM     53  C   UNL     1      15.673   8.639   2.533  1.00  0.00     0.029 A 
ATOM     54  C   UNL     1      15.017   7.630   3.221  1.00  0.00     0.049 A 
ATOM     55  H   UNL     1      12.946   7.291   3.428  1.00  0.00     0.167 HD
ATOM     56  C   UNL     1      14.878   5.582   4.613  1.00  0.00     0.074 A 
ATOM     57  C   UNL     1      15.472   4.491   5.359  1.00  0.00     0.031 C 
ATOM     58  C   UNL     1      15.588   6.542   3.971  1.00  0.00     0.031 A 
BRANCH  45  59
ATOM     59  C   UNL     1      12.111  10.728   1.037  1.00  0.00    -0.014 A 
ATOM     60  C   UNL     1      11.713  11.981   1.539  1.00  0.00     0.010 A 
ATOM     61  C   UNL     1      12.467  10.614  -0.319  1.00  0.00     0.010 A 
ATOM     62  C   UNL     1      11.624  13.086   0.691  1.00  0.00     0.020 A 
ATOM     63  C   UNL     1      12.404  11.725  -1.165  1.00  0.00     0.020 A 
ATOM     64  C   UNL     1      11.963  12.950  -0.658  1.00  0.00     0.054 A 
BRANCH  64  65
ATOM     65  S   UNL     1      11.846  14.402  -1.738  1.00  0.00     0.124 S 
ATOM     66  O   UNL     1      10.406  14.491  -1.966  1.00  0.00    -0.237 OA
ATOM     67  O   UNL     1      12.417  15.464  -0.913  1.00  0.00    -0.237 OA
ATOM     68  O   UNL     1      12.641  14.030  -2.905  1.00  0.00    -0.744 OA
ENDBRANCH  64  65
ENDBRANCH  45  59
BRANCH  46  69
ATOM     69  C   UNL     1      12.003   2.467   6.658  1.00  0.00    -0.014 A 
ATOM     70  C   UNL     1      12.380   2.494   8.013  1.00  0.00     0.010 A 
ATOM     71  C   UNL     1      11.602   1.248   6.083  1.00  0.00     0.010 A 
ATOM     72  C   UNL     1      12.373   1.322   8.774  1.00  0.00     0.020 A 
ATOM     73  C   UNL     1      11.572   0.078   6.847  1.00  0.00     0.020 A 
ATOM     74  C   UNL     1      11.969   0.120   8.186  1.00  0.00     0.054 A 
BRANCH  74  75
ATOM     75  S   UNL     1      11.912  -1.380   9.205  1.00  0.00     0.124 S 
ATOM     76  O   UNL     1      13.321  -1.752   9.275  1.00  0.00    -0.237 OA
ATOM     77  O   UNL     1      11.322  -0.897  10.451  1.00  0.00    -0.237 OA
ATOM     78  O   UNL     1      11.061  -2.283   8.433  1.00  0.00    -0.744 OA
ENDBRANCH  74  75
ENDBRANCH  46  69
BRANCH  58  79
ATOM     79  C   UNL     1      17.086   6.476   4.073  1.00  0.00    -0.014 A 
ATOM     80  C   UNL     1      17.822   5.533   3.335  1.00  0.00     0.010 A 
ATOM     81  C   UNL     1      17.768   7.411   4.872  1.00  0.00     0.010 A 
ATOM     82  C   UNL     1      19.216   5.511   3.413  1.00  0.00     0.020 A 
ATOM     83  C   UNL     1      19.163   7.406   4.936  1.00  0.00     0.020 A 
ATOM     84  C   UNL     1      19.878   6.447   4.215  1.00  0.00     0.054 A 
BRANCH  84  85
ATOM     85  S   UNL     1      21.691   6.433   4.263  1.00  0.00     0.124 S 
ATOM     86  O   UNL     1      21.963   5.305   5.149  1.00  0.00    -0.237 OA
ATOM     87  O   UNL     1      22.050   6.232   2.861  1.00  0.00    -0.237 OA
ATOM     88  O   UNL     1      22.032   7.748   4.803  1.00  0.00    -0.744 OA
ENDBRANCH  84  85
ENDBRANCH  58  79
ENDBRANCH  32  33
ENDBRANCH  24  27
ENDBRANCH  22  23
ENDBRANCH   1  22
TORSDOF 16
