REMARK SMILES CCOc1ccc(-c2cc(Cl)cc3c2O[C@H](C(F)(F)F)C(C(=O)NCCCCNC(=O)c2ccc(-c4c5nc(c(-c6ccc(S(=O)(=O)[O-])cc6)c6ccc([nH]6)c(-c6ccc(S(=O)(=O)[O-])cc6)c6nc(c(-c7ccc(S(=O)(=O)[O-])cc7)c7ccc4[nH]7)C=C6)C=C5)cc2)=C3)cc1
REMARK SMILES IDX 26 1 25 2 24 3 22 4 23 5 21 7 8 8 9 9 14 10 10 11 13 12
REMARK SMILES IDX 15 13 11 14 12 15 92 16 16 17 7 18 4 19 5 20 94 21 6 22
REMARK SMILES IDX 93 23 3 24 2 25 1 26 17 27 18 28 19 29 20 30 27 31 28 32
REMARK SMILES IDX 29 33 30 34 31 36 32 37 33 38 91 39 34 40 90 41 35 42 36 43
REMARK SMILES IDX 37 44 84 45 38 46 89 47 83 48 85 49 39 50 88 51 82 52 81 53
REMARK SMILES IDX 40 55 70 56 51 57 69 58 52 59 55 60 68 61 86 62 53 63 54 64
REMARK SMILES IDX 67 66 87 67 56 68 41 69 42 70 50 71 43 72 49 73 44 74 45 75
REMARK SMILES IDX 46 76 47 77 48 78 71 79 72 80 80 81 73 82 79 83 74 84 75 85
REMARK SMILES IDX 76 86 77 87 78 88 57 89 58 90 66 91 59 92 65 93 60 94 61 95
REMARK SMILES IDX 62 96 63 97 64 98
REMARK H PARENT 24 6 29 35 85 54 55 65
REMARK Flexibility Score: inf
ROOT
ATOM      1  C   UNL     1      13.712  -6.977   2.875  1.00  0.00     0.023 C 
ENDROOT
BRANCH   1   2
ATOM      2  C   UNL     1      13.107  -5.579   2.683  1.00  0.00     0.116 C 
BRANCH   2   3
ATOM      3  N   UNL     1      12.492  -5.491   1.376  1.00  0.00    -0.352 N 
ATOM      4  C   UNL     1      11.265  -5.040   1.033  1.00  0.00     0.251 C 
ATOM      5  O   UNL     1      10.708  -5.547   0.065  1.00  0.00    -0.270 OA
ATOM      6  H   UNL     1      13.049  -5.805   0.627  1.00  0.00     0.163 HD
BRANCH   4   7
ATOM      7  C   UNL     1      10.692  -3.876   1.777  1.00  0.00     0.067 C 
ATOM      8  C   UNL     1       7.052  -3.707  -0.056  1.00  0.00     0.026 A 
ATOM      9  C   UNL     1       7.293  -3.856  -1.446  1.00  0.00     0.033 A 
ATOM     10  C   UNL     1       8.180  -3.448   0.747  1.00  0.00     0.135 A 
ATOM     11  C   UNL     1       8.526  -3.567  -2.026  1.00  0.00     0.042 A 
ATOM     12  C   UNL     1       9.388  -3.041   0.130  1.00  0.00     0.019 A 
ATOM     13  O   UNL     1       8.194  -3.628   2.124  1.00  0.00    -0.475 OA
ATOM     14  Cl  UNL     1       8.743  -3.785  -3.716  1.00  0.00    -0.084 Cl
ATOM     15  C   UNL     1       9.559  -3.076  -1.251  1.00  0.00     0.032 A 
ATOM     16  C   UNL     1      10.556  -2.781   1.001  1.00  0.00     0.025 C 
ATOM     17  C   UNL     1       9.477  -4.205   2.639  1.00  0.00     0.314 C 
BRANCH   8  18
ATOM     18  C   UNL     1       5.616  -3.588   0.317  1.00  0.00    -0.014 A 
ATOM     19  C   UNL     1       2.884  -2.834   0.096  1.00  0.00     0.119 A 
ATOM     20  C   UNL     1       3.300  -4.091  -0.332  1.00  0.00     0.047 A 
ATOM     21  C   UNL     1       3.794  -2.001   0.739  1.00  0.00     0.047 A 
ATOM     22  C   UNL     1       4.648  -4.469  -0.213  1.00  0.00     0.013 A 
ATOM     23  C   UNL     1       5.144  -2.376   0.852  1.00  0.00     0.013 A 
BRANCH  19  24
ATOM     24  O   UNL     1       1.560  -2.518  -0.044  1.00  0.00    -0.494 OA
BRANCH  24  25
ATOM     25  C   UNL     1       1.288  -1.360  -0.847  1.00  0.00     0.226 C 
ATOM     26  C   UNL     1       1.088  -0.119   0.010  1.00  0.00     0.049 C 
ENDBRANCH  24  25
ENDBRANCH  19  24
ENDBRANCH   8  18
BRANCH  17  27
ATOM     27  C   UNL     1       9.770  -3.744   4.085  1.00  0.00     0.429 C 
ATOM     28  F   UNL     1       9.032  -2.671   4.451  1.00  0.00    -0.167 F 
ATOM     29  F   UNL     1       9.522  -4.734   4.976  1.00  0.00    -0.167 F 
ATOM     30  F   UNL     1      11.071  -3.393   4.266  1.00  0.00    -0.167 F 
ENDBRANCH  17  27
ENDBRANCH   4   7
ENDBRANCH   2   3
ENDBRANCH   1   2
BRANCH   1  31
ATOM     31  C   UNL     1      14.789  -7.372   1.853  1.00  0.00     0.023 C 
BRANCH  31  32
ATOM     32  C   UNL     1      15.956  -6.399   1.742  1.00  0.00     0.116 C 
BRANCH  32  33
ATOM     33  N   UNL     1      16.729  -6.338   2.972  1.00  0.00    -0.352 N 
ATOM     34  C   UNL     1      18.065  -6.591   3.167  1.00  0.00     0.251 C 
ATOM     35  H   UNL     1      16.225  -6.080   3.777  1.00  0.00     0.163 HD
ATOM     36  O   UNL     1      18.508  -6.691   4.310  1.00  0.00    -0.269 OA
BRANCH  34  37
ATOM     37  C   UNL     1      18.960  -6.766   2.003  1.00  0.00     0.039 A 
ATOM     38  C   UNL     1      19.859  -7.835   1.993  1.00  0.00     0.014 A 
ATOM     39  C   UNL     1      18.906  -5.884   0.920  1.00  0.00     0.014 A 
ATOM     40  C   UNL     1      20.654  -8.060   0.866  1.00  0.00     0.010 A 
ATOM     41  C   UNL     1      19.644  -6.153  -0.230  1.00  0.00     0.010 A 
ATOM     42  C   UNL     1      20.525  -7.244  -0.271  1.00  0.00    -0.014 A 
BRANCH  42  43
ATOM     43  C   UNL     1      21.290  -7.524  -1.515  1.00  0.00     0.031 A 
ATOM     44  C   UNL     1      22.286  -6.523  -2.036  1.00  0.00     0.074 A 
ATOM     45  C   UNL     1      21.038  -8.650  -2.213  1.00  0.00     0.049 A 
ATOM     46  N   UNL     1      22.997  -6.563  -3.133  1.00  0.00    -0.248 NA
ATOM     47  C   UNL     1      22.492  -5.308  -1.231  1.00  0.00     0.031 C 
ATOM     48  C   UNL     1      20.070  -9.683  -1.837  1.00  0.00     0.029 A 
ATOM     49  N   UNL     1      21.571  -9.112  -3.392  1.00  0.00    -0.354 N 
ATOM     50  C   UNL     1      23.721  -5.376  -3.159  1.00  0.00     0.074 A 
ATOM     51  C   UNL     1      23.325  -4.615  -1.994  1.00  0.00     0.031 C 
ATOM     52  C   UNL     1      20.097 -10.667  -2.750  1.00  0.00     0.029 A 
ATOM     53  C   UNL     1      21.048 -10.317  -3.801  1.00  0.00     0.049 A 
ATOM     54  H   UNL     1      22.263  -8.627  -3.897  1.00  0.00     0.167 HD
ATOM     55  C   UNL     1      24.645  -4.964  -4.060  1.00  0.00     0.031 A 
ATOM     56  C   UNL     1      21.295 -11.054  -4.901  1.00  0.00     0.031 A 
ATOM     57  C   UNL     1      25.041  -5.726  -5.215  1.00  0.00     0.049 A 
ATOM     58  C   UNL     1      22.310 -10.565  -5.899  1.00  0.00     0.074 A 
ATOM     59  C   UNL     1      26.008  -5.419  -6.157  1.00  0.00     0.029 A 
ATOM     60  N   UNL     1      24.490  -6.942  -5.590  1.00  0.00    -0.354 N 
ATOM     61  N   UNL     1      23.034  -9.472  -5.869  1.00  0.00    -0.248 NA
ATOM     62  C   UNL     1      22.548 -11.415  -7.074  1.00  0.00     0.031 C 
ATOM     63  C   UNL     1      26.000  -6.420  -7.133  1.00  0.00     0.029 A 
ATOM     64  C   UNL     1      25.076  -7.384  -6.765  1.00  0.00     0.049 A 
ATOM     65  H   UNL     1      23.786  -7.420  -5.095  1.00  0.00     0.167 HD
ATOM     66  C   UNL     1      23.834  -9.516  -7.006  1.00  0.00     0.074 A 
ATOM     67  C   UNL     1      23.516 -10.751  -7.693  1.00  0.00     0.031 C 
ATOM     68  C   UNL     1      24.751  -8.616  -7.439  1.00  0.00     0.031 A 
BRANCH  55  69
ATOM     69  C   UNL     1      25.287  -3.618  -3.836  1.00  0.00    -0.014 A 
ATOM     70  C   UNL     1      26.173  -3.404  -2.764  1.00  0.00     0.010 A 
ATOM     71  C   UNL     1      25.037  -2.565  -4.735  1.00  0.00     0.010 A 
ATOM     72  C   UNL     1      26.760  -2.151  -2.570  1.00  0.00     0.020 A 
ATOM     73  C   UNL     1      25.647  -1.319  -4.563  1.00  0.00     0.020 A 
ATOM     74  C   UNL     1      26.491  -1.115  -3.470  1.00  0.00     0.054 A 
BRANCH  74  75
ATOM     75  S   UNL     1      27.285   0.494  -3.204  1.00  0.00     0.124 S 
ATOM     76  O   UNL     1      26.570   0.991  -2.031  1.00  0.00    -0.237 OA
ATOM     77  O   UNL     1      28.681   0.128  -2.979  1.00  0.00    -0.237 OA
ATOM     78  O   UNL     1      27.025   1.219  -4.445  1.00  0.00    -0.744 OA
ENDBRANCH  74  75
ENDBRANCH  55  69
BRANCH  56  79
ATOM     79  C   UNL     1      20.575 -12.341  -5.113  1.00  0.00    -0.014 A 
ATOM     80  C   UNL     1      21.259 -13.566  -5.027  1.00  0.00     0.010 A 
ATOM     81  C   UNL     1      19.195 -12.348  -5.393  1.00  0.00     0.010 A 
ATOM     82  C   UNL     1      20.582 -14.772  -5.234  1.00  0.00     0.020 A 
ATOM     83  C   UNL     1      18.510 -13.553  -5.571  1.00  0.00     0.020 A 
ATOM     84  C   UNL     1      19.211 -14.758  -5.502  1.00  0.00     0.054 A 
BRANCH  84  85
ATOM     85  S   UNL     1      18.345 -16.338  -5.718  1.00  0.00     0.124 S 
ATOM     86  O   UNL     1      18.828 -16.773  -7.025  1.00  0.00    -0.237 OA
ATOM     87  O   UNL     1      18.820 -17.115  -4.576  1.00  0.00    -0.237 OA
ATOM     88  O   UNL     1      16.934 -15.964  -5.663  1.00  0.00    -0.744 OA
ENDBRANCH  84  85
ENDBRANCH  56  79
BRANCH  68  89
ATOM     89  C   UNL     1      25.508  -8.945  -8.700  1.00  0.00    -0.014 A 
ATOM     90  C   UNL     1      24.884  -8.906  -9.959  1.00  0.00     0.010 A 
ATOM     91  C   UNL     1      26.882  -9.236  -8.625  1.00  0.00     0.010 A 
ATOM     92  C   UNL     1      25.616  -9.180 -11.118  1.00  0.00     0.020 A 
ATOM     93  C   UNL     1      27.624  -9.480  -9.784  1.00  0.00     0.020 A 
ATOM     94  C   UNL     1      26.982  -9.463 -11.023  1.00  0.00     0.054 A 
BRANCH  94  95
ATOM     95  S   UNL     1      27.919  -9.763 -12.547  1.00  0.00     0.124 S 
ATOM     96  O   UNL     1      27.440 -11.084 -12.944  1.00  0.00    -0.237 OA
ATOM     97  O   UNL     1      27.497  -8.658 -13.404  1.00  0.00    -0.237 OA
ATOM     98  O   UNL     1      29.313  -9.710 -12.113  1.00  0.00    -0.744 OA
ENDBRANCH  94  95
ENDBRANCH  68  89
ENDBRANCH  42  43
ENDBRANCH  34  37
ENDBRANCH  32  33
ENDBRANCH  31  32
ENDBRANCH   1  31
TORSDOF 18
