REMARK SMILES C=CCN(CC(=O)NCCCCNC(=O)c1ccc(-c2c3nc(c(-c4ccc(S(=O)(=O)[O-])cc4)c4ccc([nH]4)c(-c4ccc(S(=O)(=O)[O-])cc4)c4nc(c(-c5ccc(S(=O)(=O)[O-])cc5)c5ccc2[nH]5)C=C4)C=C3)cc1)C(=O)NC1CC[NH+](CCC)CC1
REMARK SMILES IDX 9 1 8 2 6 3 7 4 5 6 4 7 3 8 2 9 1 10 76 11 77 12 78 13 79 15
REMARK SMILES IDX 80 16 87 17 81 18 86 19 82 20 83 22 84 23 85 24 10 25 11 26
REMARK SMILES IDX 12 27 13 28 14 29 15 31 16 32 17 33 75 34 18 35 74 36 19 37
REMARK SMILES IDX 20 38 21 39 68 40 22 41 73 42 67 43 69 44 23 45 72 46 66 47
REMARK SMILES IDX 65 48 24 50 54 51 35 52 53 53 36 54 39 55 52 56 70 57 37 58
REMARK SMILES IDX 38 59 51 61 71 62 40 63 25 64 26 65 34 66 27 67 33 68 28 69
REMARK SMILES IDX 29 70 30 71 31 72 32 73 55 74 56 75 64 76 57 77 63 78 58 79
REMARK SMILES IDX 59 80 60 81 61 82 62 83 41 84 42 85 50 86 43 87 49 88 44 89
REMARK SMILES IDX 45 90 46 91 47 92 48 93
REMARK H PARENT 8 5 78 14 82 21 13 30 69 49 39 60
REMARK Flexibility Score: inf
ROOT
ATOM      1  C   UNL     1      -4.356  -0.762   0.354  1.00  0.00     0.116 C 
ENDROOT
BRANCH   1   2
ATOM      2  N   UNL     1      -4.706  -2.041  -0.212  1.00  0.00    -0.355 N 
ATOM      3  C   UNL     1      -3.977  -3.189  -0.233  1.00  0.00     0.239 C 
ATOM      4  O   UNL     1      -4.619  -4.247  -0.225  1.00  0.00    -0.273 OA
ATOM      5  H   UNL     1      -5.591  -2.090  -0.640  1.00  0.00     0.163 HD
BRANCH   3   6
ATOM      6  C   UNL     1      -2.435  -3.223  -0.132  1.00  0.00     0.221 C 
BRANCH   6   7
ATOM      7  N   UNL     1      -1.652  -2.211  -0.851  1.00  0.00    -0.312 N 
BRANCH   7   8
ATOM      8  C   UNL     1      -1.063  -1.143  -0.041  1.00  0.00     0.149 C 
BRANCH   8   9
ATOM      9  C   UNL     1       0.418  -1.310   0.135  1.00  0.00    -0.013 C 
ATOM     10  C   UNL     1       1.282  -0.293  -0.007  1.00  0.00     0.006 C 
ENDBRANCH   8   9
ENDBRANCH   7   8
BRANCH   7  11
ATOM     11  C   UNL     1      -1.285  -2.256  -2.171  1.00  0.00     0.318 C 
ATOM     12  O   UNL     1      -0.497  -1.443  -2.666  1.00  0.00    -0.249 OA
ATOM     13  N   UNL     1      -1.704  -3.219  -3.019  1.00  0.00    -0.335 N 
ATOM     14  H   UNL     1      -0.998  -3.559  -3.615  1.00  0.00     0.165 HD
BRANCH  13  15
ATOM     15  C   UNL     1      -3.007  -3.857  -3.224  1.00  0.00     0.095 C 
ATOM     16  C   UNL     1      -2.906  -5.128  -4.070  1.00  0.00     0.086 C 
ATOM     17  C   UNL     1      -3.991  -2.873  -3.858  1.00  0.00     0.086 C 
ATOM     18  C   UNL     1      -2.647  -4.829  -5.543  1.00  0.00     0.264 C 
ATOM     19  C   UNL     1      -3.653  -2.614  -5.328  1.00  0.00     0.264 C 
ATOM     20  N   UNL     1      -3.606  -3.869  -6.081  1.00  0.00    -0.335 N 
ATOM     21  H   UNL     1      -4.515  -4.311  -5.943  1.00  0.00     0.348 HD
BRANCH  20  22
ATOM     22  C   UNL     1      -3.505  -3.667  -7.532  1.00  0.00     0.261 C 
BRANCH  22  23
ATOM     23  C   UNL     1      -2.287  -2.932  -8.117  1.00  0.00     0.058 C 
ATOM     24  C   UNL     1      -0.971  -3.693  -8.058  1.00  0.00     0.010 C 
ENDBRANCH  22  23
ENDBRANCH  20  22
ENDBRANCH  13  15
ENDBRANCH   7  11
ENDBRANCH   6   7
ENDBRANCH   3   6
ENDBRANCH   1   2
BRANCH   1  25
ATOM     25  C   UNL     1      -4.157   0.338  -0.682  1.00  0.00     0.023 C 
BRANCH  25  26
ATOM     26  C   UNL     1      -5.425   0.801  -1.402  1.00  0.00     0.023 C 
BRANCH  26  27
ATOM     27  C   UNL     1      -6.628   1.099  -0.513  1.00  0.00     0.116 C 
BRANCH  27  28
ATOM     28  N   UNL     1      -6.337   2.019   0.576  1.00  0.00    -0.352 N 
ATOM     29  C   UNL     1      -7.138   2.997   1.120  1.00  0.00     0.251 C 
ATOM     30  H   UNL     1      -5.444   1.930   0.980  1.00  0.00     0.163 HD
ATOM     31  O   UNL     1      -6.700   3.728   1.998  1.00  0.00    -0.269 OA
BRANCH  29  32
ATOM     32  C   UNL     1      -8.512   3.187   0.604  1.00  0.00     0.039 A 
ATOM     33  C   UNL     1      -8.926   4.478   0.267  1.00  0.00     0.014 A 
ATOM     34  C   UNL     1      -9.370   2.100   0.419  1.00  0.00     0.014 A 
ATOM     35  C   UNL     1     -10.176   4.669  -0.325  1.00  0.00     0.010 A 
ATOM     36  C   UNL     1     -10.585   2.284  -0.235  1.00  0.00     0.010 A 
ATOM     37  C   UNL     1     -10.999   3.569  -0.618  1.00  0.00    -0.014 A 
BRANCH  37  38
ATOM     38  C   UNL     1     -12.285   3.740  -1.339  1.00  0.00     0.031 A 
ATOM     39  C   UNL     1     -13.584   3.391  -0.668  1.00  0.00     0.074 A 
ATOM     40  C   UNL     1     -12.278   4.140  -2.627  1.00  0.00     0.049 A 
ATOM     41  N   UNL     1     -14.798   3.419  -1.155  1.00  0.00    -0.248 NA
ATOM     42  C   UNL     1     -13.507   2.922   0.725  1.00  0.00     0.031 C 
ATOM     43  C   UNL     1     -11.080   4.462  -3.407  1.00  0.00     0.029 A 
ATOM     44  N   UNL     1     -13.310   4.333  -3.510  1.00  0.00    -0.354 N 
ATOM     45  C   UNL     1     -15.624   2.953  -0.140  1.00  0.00     0.074 A 
ATOM     46  C   UNL     1     -14.769   2.605   0.974  1.00  0.00     0.031 C 
ATOM     47  C   UNL     1     -11.448   4.834  -4.643  1.00  0.00     0.029 A 
ATOM     48  C   UNL     1     -12.900   4.740  -4.758  1.00  0.00     0.049 A 
ATOM     49  H   UNL     1     -14.255   4.194  -3.272  1.00  0.00     0.167 HD
ATOM     50  C   UNL     1     -16.975   2.841  -0.128  1.00  0.00     0.031 A 
ATOM     51  C   UNL     1     -13.610   5.003  -5.872  1.00  0.00     0.031 A 
ATOM     52  C   UNL     1     -17.823   3.195  -1.235  1.00  0.00     0.049 A 
ATOM     53  C   UNL     1     -15.107   4.877  -5.837  1.00  0.00     0.074 A 
ATOM     54  C   UNL     1     -19.205   3.179  -1.299  1.00  0.00     0.029 A 
ATOM     55  N   UNL     1     -17.370   3.622  -2.474  1.00  0.00    -0.354 N 
ATOM     56  N   UNL     1     -15.878   4.507  -4.841  1.00  0.00    -0.248 NA
ATOM     57  C   UNL     1     -15.832   5.215  -7.069  1.00  0.00     0.031 C 
ATOM     58  C   UNL     1     -19.586   3.547  -2.594  1.00  0.00     0.029 A 
ATOM     59  C   UNL     1     -18.444   3.848  -3.319  1.00  0.00     0.049 A 
ATOM     60  H   UNL     1     -16.424   3.746  -2.718  1.00  0.00     0.167 HD
ATOM     61  C   UNL     1     -17.180   4.590  -5.321  1.00  0.00     0.074 A 
ATOM     62  C   UNL     1     -17.093   5.058  -6.689  1.00  0.00     0.031 C 
ATOM     63  C   UNL     1     -18.343   4.306  -4.682  1.00  0.00     0.031 A 
BRANCH  50  64
ATOM     64  C   UNL     1     -17.612   2.296   1.124  1.00  0.00    -0.014 A 
ATOM     65  C   UNL     1     -17.614   3.034   2.322  1.00  0.00     0.010 A 
ATOM     66  C   UNL     1     -18.229   1.032   1.100  1.00  0.00     0.010 A 
ATOM     67  C   UNL     1     -18.170   2.496   3.485  1.00  0.00     0.020 A 
ATOM     68  C   UNL     1     -18.814   0.503   2.254  1.00  0.00     0.020 A 
ATOM     69  C   UNL     1     -18.760   1.229   3.446  1.00  0.00     0.054 A 
BRANCH  69  70
ATOM     70  S   UNL     1     -19.471   0.553   4.971  1.00  0.00     0.124 S 
ATOM     71  O   UNL     1     -18.273   0.192   5.725  1.00  0.00    -0.237 OA
ATOM     72  O   UNL     1     -20.230   1.683   5.501  1.00  0.00    -0.237 OA
ATOM     73  O   UNL     1     -20.278  -0.574   4.508  1.00  0.00    -0.744 OA
ENDBRANCH  69  70
ENDBRANCH  50  64
BRANCH  51  74
ATOM     74  C   UNL     1     -12.902   5.434  -7.109  1.00  0.00    -0.014 A 
ATOM     75  C   UNL     1     -12.975   6.768  -7.543  1.00  0.00     0.010 A 
ATOM     76  C   UNL     1     -12.116   4.519  -7.834  1.00  0.00     0.010 A 
ATOM     77  C   UNL     1     -12.276   7.181  -8.682  1.00  0.00     0.020 A 
ATOM     78  C   UNL     1     -11.396   4.934  -8.958  1.00  0.00     0.020 A 
ATOM     79  C   UNL     1     -11.486   6.263  -9.378  1.00  0.00     0.054 A 
BRANCH  79  80
ATOM     80  S   UNL     1     -10.525   6.840 -10.806  1.00  0.00     0.124 S 
ATOM     81  O   UNL     1     -11.560   7.013 -11.819  1.00  0.00    -0.237 OA
ATOM     82  O   UNL     1      -9.920   8.071 -10.301  1.00  0.00    -0.237 OA
ATOM     83  O   UNL     1      -9.585   5.748 -11.048  1.00  0.00    -0.744 OA
ENDBRANCH  79  80
ENDBRANCH  51  74
BRANCH  63  84
ATOM     84  C   UNL     1     -19.623   4.518  -5.447  1.00  0.00    -0.014 A 
ATOM     85  C   UNL     1     -20.006   3.648  -6.483  1.00  0.00     0.010 A 
ATOM     86  C   UNL     1     -20.482   5.570  -5.082  1.00  0.00     0.010 A 
ATOM     87  C   UNL     1     -21.213   3.844  -7.160  1.00  0.00     0.020 A 
ATOM     88  C   UNL     1     -21.702   5.753  -5.738  1.00  0.00     0.020 A 
ATOM     89  C   UNL     1     -22.053   4.896  -6.782  1.00  0.00     0.054 A 
BRANCH  89  90
ATOM     90  S   UNL     1     -23.636   5.102  -7.644  1.00  0.00     0.124 S 
ATOM     91  O   UNL     1     -23.213   5.649  -8.930  1.00  0.00    -0.237 OA
ATOM     92  O   UNL     1     -24.160   3.739  -7.684  1.00  0.00    -0.237 OA
ATOM     93  O   UNL     1     -24.380   6.024  -6.788  1.00  0.00    -0.744 OA
ENDBRANCH  89  90
ENDBRANCH  63  84
ENDBRANCH  37  38
ENDBRANCH  29  32
ENDBRANCH  27  28
ENDBRANCH  26  27
ENDBRANCH  25  26
ENDBRANCH   1  25
TORSDOF 21
