REMARK SMILES O=C(NCCCCNC(=O)[C@@H]1CCC[N@@H+]1CC(=O)N1CCSc2ccccc21)c1ccc(-c2c3nc(c(-c4ccc(S(=O)(=O)[O-])cc4)c4ccc([nH]4)c(-c4ccc(S(=O)(=O)[O-])cc4)c4nc(c(-c5ccc(S(=O)(=O)[O-])cc5)c5ccc2[nH]5)C=C4)C=C3)cc1
REMARK SMILES IDX 5 1 4 2 3 3 1 4 2 5 29 7 30 8 88 9 31 10 87 11 32 12 33 13
REMARK SMILES IDX 34 14 81 15 35 16 86 17 80 18 82 19 36 20 85 21 79 22 78 23
REMARK SMILES IDX 37 25 67 26 48 27 66 28 49 29 52 30 65 31 83 32 50 33 51 34
REMARK SMILES IDX 64 36 84 37 53 38 38 39 39 40 47 41 40 42 46 43 41 44 42 45
REMARK SMILES IDX 43 46 44 47 45 48 68 49 69 50 77 51 70 52 76 53 71 54 72 55
REMARK SMILES IDX 73 56 74 57 75 58 54 59 55 60 63 61 56 62 62 63 57 64 58 65
REMARK SMILES IDX 59 66 60 67 61 68 6 69 7 70 8 71 9 72 10 74 11 75 12 76
REMARK SMILES IDX 15 77 13 78 14 79 16 81 17 82 18 83 19 84 20 85 28 86 21 87
REMARK SMILES IDX 23 88 27 89 22 90 24 91 26 92 25 93
REMARK H PARENT 3 6 82 24 52 35 8 73 15 80
REMARK Flexibility Score: inf
ROOT
ATOM      1  C   UNL     1       4.627   2.626  -0.964  1.00  0.00     0.023 C 
ENDROOT
BRANCH   1   2
ATOM      2  C   UNL     1       4.384   1.437  -0.036  1.00  0.00     0.116 C 
BRANCH   2   3
ATOM      3  N   UNL     1       2.972   1.167   0.148  1.00  0.00    -0.352 N 
ATOM      4  O   UNL     1       1.027   0.070  -0.025  1.00  0.00    -0.269 OA
ATOM      5  C   UNL     1       2.258   0.018  -0.067  1.00  0.00     0.251 C 
ATOM      6  H   UNL     1       2.444   1.928   0.481  1.00  0.00     0.163 HD
BRANCH   5   7
ATOM      7  C   UNL     1       2.930  -1.270  -0.350  1.00  0.00     0.039 A 
ATOM      8  C   UNL     1       2.348  -2.133  -1.284  1.00  0.00     0.014 A 
ATOM      9  C   UNL     1       4.070  -1.673   0.352  1.00  0.00     0.014 A 
ATOM     10  C   UNL     1       2.910  -3.389  -1.522  1.00  0.00     0.010 A 
ATOM     11  C   UNL     1       4.669  -2.901   0.066  1.00  0.00     0.010 A 
ATOM     12  C   UNL     1       4.078  -3.784  -0.850  1.00  0.00    -0.014 A 
BRANCH  12  13
ATOM     13  C   UNL     1       4.646  -5.144  -1.038  1.00  0.00     0.031 A 
ATOM     14  C   UNL     1       4.638  -6.122   0.108  1.00  0.00     0.074 A 
ATOM     15  C   UNL     1       5.181  -5.499  -2.222  1.00  0.00     0.049 A 
ATOM     16  N   UNL     1       5.118  -7.338   0.157  1.00  0.00    -0.248 NA
ATOM     17  C   UNL     1       4.027  -5.668   1.369  1.00  0.00     0.031 C 
ATOM     18  C   UNL     1       5.249  -4.642  -3.406  1.00  0.00     0.029 A 
ATOM     19  N   UNL     1       5.762  -6.676  -2.629  1.00  0.00    -0.354 N 
ATOM     20  C   UNL     1       4.879  -7.787   1.450  1.00  0.00     0.074 A 
ATOM     21  C   UNL     1       4.263  -6.696   2.171  1.00  0.00     0.031 C 
ATOM     22  C   UNL     1       5.804  -5.332  -4.415  1.00  0.00     0.029 A 
ATOM     23  C   UNL     1       6.172  -6.665  -3.941  1.00  0.00     0.049 A 
ATOM     24  H   UNL     1       5.873  -7.454  -2.036  1.00  0.00     0.167 HD
ATOM     25  C   UNL     1       5.124  -9.007   1.982  1.00  0.00     0.031 A 
ATOM     26  C   UNL     1       6.774  -7.617  -4.684  1.00  0.00     0.031 A 
ATOM     27  C   UNL     1       5.712 -10.097   1.250  1.00  0.00     0.049 A 
ATOM     28  C   UNL     1       7.063  -8.958  -4.068  1.00  0.00     0.074 A 
ATOM     29  C   UNL     1       5.960 -11.386   1.690  1.00  0.00     0.029 A 
ATOM     30  N   UNL     1       6.136 -10.034  -0.068  1.00  0.00    -0.354 N 
ATOM     31  N   UNL     1       6.799  -9.376  -2.853  1.00  0.00    -0.248 NA
ATOM     32  C   UNL     1       7.719  -9.960  -4.920  1.00  0.00     0.031 C 
ATOM     33  C   UNL     1       6.591 -12.083   0.658  1.00  0.00     0.029 A 
ATOM     34  C   UNL     1       6.670 -11.253  -0.450  1.00  0.00     0.049 A 
ATOM     35  H   UNL     1       6.068  -9.241  -0.647  1.00  0.00     0.167 HD
ATOM     36  C   UNL     1       7.240 -10.693  -2.799  1.00  0.00     0.074 A 
ATOM     37  C   UNL     1       7.775 -11.009  -4.107  1.00  0.00     0.031 C 
ATOM     38  C   UNL     1       7.203 -11.559  -1.756  1.00  0.00     0.031 A 
BRANCH  25  39
ATOM     39  C   UNL     1       4.745  -9.245   3.422  1.00  0.00    -0.014 A 
ATOM     40  C   UNL     1       5.746  -9.496   4.378  1.00  0.00     0.010 A 
ATOM     41  C   UNL     1       3.395  -9.312   3.813  1.00  0.00     0.010 A 
ATOM     42  C   UNL     1       5.407  -9.831   5.691  1.00  0.00     0.020 A 
ATOM     43  C   UNL     1       3.052  -9.615   5.134  1.00  0.00     0.020 A 
ATOM     44  C   UNL     1       4.060  -9.894   6.059  1.00  0.00     0.054 A 
BRANCH  44  45
ATOM     45  S   UNL     1       3.637 -10.335   7.767  1.00  0.00     0.124 S 
ATOM     46  O   UNL     1       3.857 -11.778   7.776  1.00  0.00    -0.237 OA
ATOM     47  O   UNL     1       4.586  -9.545   8.547  1.00  0.00    -0.237 OA
ATOM     48  O   UNL     1       2.242  -9.914   7.892  1.00  0.00    -0.744 OA
ENDBRANCH  44  45
ENDBRANCH  25  39
BRANCH  26  49
ATOM     49  C   UNL     1       7.082  -7.326  -6.112  1.00  0.00    -0.014 A 
ATOM     50  C   UNL     1       8.062  -6.375  -6.454  1.00  0.00     0.010 A 
ATOM     51  C   UNL     1       6.315  -7.913  -7.134  1.00  0.00     0.010 A 
ATOM     52  C   UNL     1       8.220  -5.963  -7.780  1.00  0.00     0.020 A 
ATOM     53  C   UNL     1       6.490  -7.524  -8.466  1.00  0.00     0.020 A 
ATOM     54  C   UNL     1       7.416  -6.526  -8.775  1.00  0.00     0.054 A 
BRANCH  54  55
ATOM     55  S   UNL     1       7.571  -5.904 -10.473  1.00  0.00     0.124 S 
ATOM     56  O   UNL     1       6.908  -4.606 -10.377  1.00  0.00    -0.237 OA
ATOM     57  O   UNL     1       9.016  -5.861 -10.667  1.00  0.00    -0.237 OA
ATOM     58  O   UNL     1       6.866  -6.907 -11.270  1.00  0.00    -0.744 OA
ENDBRANCH  54  55
ENDBRANCH  26  49
BRANCH  38  59
ATOM     59  C   UNL     1       7.754 -12.947  -1.955  1.00  0.00    -0.014 A 
ATOM     60  C   UNL     1       6.884 -14.054  -1.909  1.00  0.00     0.010 A 
ATOM     61  C   UNL     1       9.140 -13.168  -2.025  1.00  0.00     0.010 A 
ATOM     62  C   UNL     1       7.392 -15.355  -1.879  1.00  0.00     0.020 A 
ATOM     63  C   UNL     1       9.651 -14.470  -2.025  1.00  0.00     0.020 A 
ATOM     64  C   UNL     1       8.774 -15.553  -1.923  1.00  0.00     0.054 A 
BRANCH  64  65
ATOM     65  S   UNL     1       9.418 -17.247  -1.825  1.00  0.00     0.124 S 
ATOM     66  O   UNL     1       9.247 -17.559  -0.409  1.00  0.00    -0.237 OA
ATOM     67  O   UNL     1       8.543 -17.976  -2.741  1.00  0.00    -0.237 OA
ATOM     68  O   UNL     1      10.803 -17.113  -2.273  1.00  0.00    -0.744 OA
ENDBRANCH  64  65
ENDBRANCH  38  59
ENDBRANCH  12  13
ENDBRANCH   5   7
ENDBRANCH   2   3
ENDBRANCH   1   2
BRANCH   1  69
ATOM     69  C   UNL     1       3.977   3.957  -0.546  1.00  0.00     0.023 C 
BRANCH  69  70
ATOM     70  C   UNL     1       4.236   4.409   0.894  1.00  0.00     0.116 C 
BRANCH  70  71
ATOM     71  N   UNL     1       5.646   4.370   1.196  1.00  0.00    -0.351 N 
ATOM     72  C   UNL     1       6.434   5.142   1.978  1.00  0.00     0.278 C 
ATOM     73  H   UNL     1       6.128   3.640   0.745  1.00  0.00     0.163 HD
ATOM     74  O   UNL     1       7.586   4.712   2.076  1.00  0.00    -0.268 OA
BRANCH  72  75
ATOM     75  C   UNL     1       5.915   6.425   2.663  1.00  0.00     0.274 C 
ATOM     76  C   UNL     1       5.646   7.680   1.834  1.00  0.00     0.081 C 
ATOM     77  N   UNL     1       6.765   6.914   3.778  1.00  0.00    -0.317 N 
ATOM     78  C   UNL     1       5.602   8.808   2.859  1.00  0.00     0.068 C 
ATOM     79  C   UNL     1       6.234   8.237   4.122  1.00  0.00     0.263 C 
ATOM     80  H   UNL     1       6.687   6.231   4.532  1.00  0.00     0.349 HD
BRANCH  77  81
ATOM     81  C   UNL     1       8.249   6.868   3.656  1.00  0.00     0.364 C 
BRANCH  81  82
ATOM     82  C   UNL     1       8.918   7.716   2.554  1.00  0.00     0.282 C 
ATOM     83  O   UNL     1       8.937   8.949   2.615  1.00  0.00    -0.268 OA
BRANCH  82  84
ATOM     84  N   UNL     1       9.530   7.017   1.500  1.00  0.00    -0.306 N 
ATOM     85  C   UNL     1       8.742   6.872   0.283  1.00  0.00     0.137 C 
ATOM     86  C   UNL     1      10.964   7.003   1.336  1.00  0.00     0.057 A 
ATOM     87  C   UNL     1       9.149   5.728  -0.619  1.00  0.00     0.097 C 
ATOM     88  C   UNL     1      11.582   6.658   0.105  1.00  0.00     0.031 A 
ATOM     89  C   UNL     1      11.800   7.321   2.418  1.00  0.00     0.027 A 
ATOM     90  S   UNL     1      10.717   6.153  -1.382  1.00  0.00    -0.122 SA
ATOM     91  C   UNL     1      12.978   6.701  -0.029  1.00  0.00     0.017 A 
ATOM     92  C   UNL     1      13.194   7.334   2.277  1.00  0.00     0.002 A 
ATOM     93  C   UNL     1      13.782   7.038   1.052  1.00  0.00     0.001 A 
ENDBRANCH  82  84
ENDBRANCH  81  82
ENDBRANCH  77  81
ENDBRANCH  72  75
ENDBRANCH  70  71
ENDBRANCH  69  70
ENDBRANCH   1  69
TORSDOF 17
