REMARK SMILES C[C@H](C(=O)NCCCCNC(=O)c1ccc(-c2c3nc(c(-c4ccc(S(=O)(=O)[O-])cc4)c4ccc([nH]4)c(-c4ccc(S(=O)(=O)[O-])cc4)c4nc(c(-c5ccc(S(=O)(=O)[O-])cc5)c5ccc2[nH]5)C=C4)C=C3)cc1)n1c(=O)ssc1=O
REMARK SMILES IDX 8 1 7 2 6 3 5 4 3 5 4 6 2 8 1 9 73 10 74 11 78 12 75 13
REMARK SMILES IDX 76 14 77 15 79 16 9 17 10 18 11 19 12 21 13 22 14 23 72 24
REMARK SMILES IDX 15 25 71 26 16 27 17 28 18 29 65 30 19 31 70 32 64 33 66 34
REMARK SMILES IDX 20 35 69 36 63 37 62 38 21 40 51 41 32 42 50 43 33 44 36 45
REMARK SMILES IDX 49 46 67 47 34 48 35 49 48 51 68 52 37 53 22 54 23 55 31 56
REMARK SMILES IDX 24 57 30 58 25 59 26 60 27 61 28 62 29 63 52 64 53 65 61 66
REMARK SMILES IDX 54 67 60 68 55 69 56 70 57 71 58 72 59 73 38 74 39 75 47 76
REMARK SMILES IDX 40 77 46 78 41 79 42 80 43 81 44 82 45 83
REMARK H PARENT 5 7 10 20 66 39 36 50
REMARK Flexibility Score: inf
ROOT
ATOM      1  C   UNL     1      -2.170   2.720   1.471  1.00  0.00     0.023 C 
ENDROOT
BRANCH   1   2
ATOM      2  C   UNL     1      -2.034   1.548   0.492  1.00  0.00     0.023 C 
BRANCH   2   3
ATOM      3  C   UNL     1      -0.768   1.595  -0.361  1.00  0.00     0.116 C 
BRANCH   3   4
ATOM      4  N   UNL     1       0.316   0.892   0.288  1.00  0.00    -0.354 N 
ATOM      5  C   UNL     1       0.760  -0.391   0.221  1.00  0.00     0.243 C 
ATOM      6  O   UNL     1       1.797  -0.608   0.860  1.00  0.00    -0.273 OA
ATOM      7  H   UNL     1       0.839   1.457   0.902  1.00  0.00     0.163 HD
BRANCH   5   8
ATOM      8  C   UNL     1       0.178  -1.468  -0.743  1.00  0.00     0.181 C 
ATOM      9  C   UNL     1       0.962  -2.776  -0.528  1.00  0.00     0.042 C 
BRANCH   8  10
ATOM     10  N   UNL     1      -1.288  -1.648  -0.731  1.00  0.00    -0.244 N 
ATOM     11  C   UNL     1      -1.911  -2.498   0.159  1.00  0.00     0.321 A 
ATOM     12  C   UNL     1      -2.033  -1.115  -1.769  1.00  0.00     0.321 A 
ATOM     13  O   UNL     1      -1.378  -3.348   0.860  1.00  0.00    -0.256 OA
ATOM     14  S   UNL     1      -3.659  -2.345   0.160  1.00  0.00    -0.014 S 
ATOM     15  S   UNL     1      -3.765  -1.319  -1.579  1.00  0.00    -0.014 S 
ATOM     16  O   UNL     1      -1.583  -0.572  -2.762  1.00  0.00    -0.256 OA
ENDBRANCH   8  10
ENDBRANCH   5   8
ENDBRANCH   3   4
ENDBRANCH   2   3
ENDBRANCH   1   2
BRANCH   1  17
ATOM     17  C   UNL     1      -2.369   4.088   0.819  1.00  0.00     0.116 C 
BRANCH  17  18
ATOM     18  N   UNL     1      -3.522   4.148  -0.066  1.00  0.00    -0.352 N 
ATOM     19  C   UNL     1      -4.315   5.228  -0.373  1.00  0.00     0.251 C 
ATOM     20  H   UNL     1      -3.768   3.301  -0.503  1.00  0.00     0.163 HD
ATOM     21  O   UNL     1      -5.311   5.076  -1.074  1.00  0.00    -0.269 OA
BRANCH  19  22
ATOM     22  C   UNL     1      -3.990   6.557   0.186  1.00  0.00     0.039 A 
ATOM     23  C   UNL     1      -5.011   7.292   0.794  1.00  0.00     0.014 A 
ATOM     24  C   UNL     1      -2.688   7.061   0.144  1.00  0.00     0.014 A 
ATOM     25  C   UNL     1      -4.708   8.499   1.425  1.00  0.00     0.010 A 
ATOM     26  C   UNL     1      -2.375   8.229   0.835  1.00  0.00     0.010 A 
ATOM     27  C   UNL     1      -3.380   8.956   1.489  1.00  0.00    -0.014 A 
BRANCH  27  28
ATOM     28  C   UNL     1      -3.037  10.176   2.263  1.00  0.00     0.031 A 
ATOM     29  C   UNL     1      -2.490  11.395   1.571  1.00  0.00     0.074 A 
ATOM     30  C   UNL     1      -3.186  10.167   3.603  1.00  0.00     0.049 A 
ATOM     31  N   UNL     1      -2.146  12.547   2.087  1.00  0.00    -0.248 NA
ATOM     32  C   UNL     1      -2.281  11.302   0.117  1.00  0.00     0.031 C 
ATOM     33  C   UNL     1      -3.645   9.024   4.398  1.00  0.00     0.029 A 
ATOM     34  N   UNL     1      -2.971  11.151   4.535  1.00  0.00    -0.354 N 
ATOM     35  C   UNL     1      -1.681  13.314   1.025  1.00  0.00     0.074 A 
ATOM     36  C   UNL     1      -1.731  12.477  -0.154  1.00  0.00     0.031 C 
ATOM     37  C   UNL     1      -3.708   9.382   5.691  1.00  0.00     0.029 A 
ATOM     38  C   UNL     1      -3.269  10.767   5.822  1.00  0.00     0.049 A 
ATOM     39  H   UNL     1      -2.635  12.047   4.305  1.00  0.00     0.167 HD
ATOM     40  C   UNL     1      -1.276  14.606   1.026  1.00  0.00     0.031 A 
ATOM     41  C   UNL     1      -3.201  11.454   6.979  1.00  0.00     0.031 A 
ATOM     42  C   UNL     1      -1.234  15.439   2.198  1.00  0.00     0.049 A 
ATOM     43  C   UNL     1      -2.761  12.892   6.948  1.00  0.00     0.074 A 
ATOM     44  C   UNL     1      -0.879  16.774   2.295  1.00  0.00     0.029 A 
ATOM     45  N   UNL     1      -1.562  15.020   3.479  1.00  0.00    -0.354 N 
ATOM     46  N   UNL     1      -2.392  13.618   5.920  1.00  0.00    -0.248 NA
ATOM     47  C   UNL     1      -2.749  13.607   8.231  1.00  0.00     0.031 C 
ATOM     48  C   UNL     1      -0.954  17.151   3.640  1.00  0.00     0.029 A 
ATOM     49  C   UNL     1      -1.405  16.066   4.373  1.00  0.00     0.049 A 
ATOM     50  H   UNL     1      -1.863  14.114   3.716  1.00  0.00     0.167 HD
ATOM     51  C   UNL     1      -2.120  14.883   6.432  1.00  0.00     0.074 A 
ATOM     52  C   UNL     1      -2.397  14.828   7.853  1.00  0.00     0.031 C 
ATOM     53  C   UNL     1      -1.675  15.989   5.786  1.00  0.00     0.031 A 
BRANCH  40  54
ATOM     54  C   UNL     1      -0.862  15.207  -0.292  1.00  0.00    -0.014 A 
ATOM     55  C   UNL     1      -1.818  15.488  -1.285  1.00  0.00     0.010 A 
ATOM     56  C   UNL     1       0.483  15.549  -0.521  1.00  0.00     0.010 A 
ATOM     57  C   UNL     1      -1.433  16.073  -2.494  1.00  0.00     0.020 A 
ATOM     58  C   UNL     1       0.869  16.159  -1.719  1.00  0.00     0.020 A 
ATOM     59  C   UNL     1      -0.091  16.406  -2.703  1.00  0.00     0.054 A 
BRANCH  59  60
ATOM     60  S   UNL     1       0.370  17.206  -4.264  1.00  0.00     0.124 S 
ATOM     61  O   UNL     1       0.265  16.100  -5.212  1.00  0.00    -0.237 OA
ATOM     62  O   UNL     1      -0.643  18.249  -4.401  1.00  0.00    -0.237 OA
ATOM     63  O   UNL     1       1.727  17.689  -4.018  1.00  0.00    -0.744 OA
ENDBRANCH  59  60
ENDBRANCH  40  54
BRANCH  41  64
ATOM     64  C   UNL     1      -3.568  10.797   8.263  1.00  0.00    -0.014 A 
ATOM     65  C   UNL     1      -4.735  11.172   8.954  1.00  0.00     0.010 A 
ATOM     66  C   UNL     1      -2.743   9.798   8.809  1.00  0.00     0.010 A 
ATOM     67  C   UNL     1      -5.050  10.585  10.183  1.00  0.00     0.020 A 
ATOM     68  C   UNL     1      -3.070   9.188  10.024  1.00  0.00     0.020 A 
ATOM     69  C   UNL     1      -4.213   9.599  10.712  1.00  0.00     0.054 A 
BRANCH  69  70
ATOM     70  S   UNL     1      -4.653   8.829  12.295  1.00  0.00     0.124 S 
ATOM     71  O   UNL     1      -4.279   9.868  13.250  1.00  0.00    -0.237 OA
ATOM     72  O   UNL     1      -6.086   8.591  12.145  1.00  0.00    -0.237 OA
ATOM     73  O   UNL     1      -3.829   7.622  12.326  1.00  0.00    -0.744 OA
ENDBRANCH  69  70
ENDBRANCH  41  64
BRANCH  53  74
ATOM     74  C   UNL     1      -1.482  17.231   6.614  1.00  0.00    -0.014 A 
ATOM     75  C   UNL     1      -0.428  17.330   7.540  1.00  0.00     0.010 A 
ATOM     76  C   UNL     1      -2.359  18.319   6.451  1.00  0.00     0.010 A 
ATOM     77  C   UNL     1      -0.286  18.476   8.326  1.00  0.00     0.020 A 
ATOM     78  C   UNL     1      -2.201  19.478   7.215  1.00  0.00     0.020 A 
ATOM     79  C   UNL     1      -1.178  19.540   8.164  1.00  0.00     0.054 A 
BRANCH  79  80
ATOM     80  S   UNL     1      -0.969  21.020   9.191  1.00  0.00     0.124 S 
ATOM     81  O   UNL     1      -1.491  20.571  10.478  1.00  0.00    -0.237 OA
ATOM     82  O   UNL     1       0.474  21.245   9.141  1.00  0.00    -0.237 OA
ATOM     83  O   UNL     1      -1.774  22.030   8.509  1.00  0.00    -0.744 OA
ENDBRANCH  79  80
ENDBRANCH  53  74
ENDBRANCH  27  28
ENDBRANCH  19  22
ENDBRANCH  17  18
ENDBRANCH   1  17
TORSDOF 15
