REMARK SMILES Cc1ccc(S(=O)(=O)n2cc(C(=O)C(=O)N[C@@H](Cc3c[nH]c4ccccc34)C(=O)NCCCCNC(=O)c3ccc(-c4c5nc(c(-c6ccc(S(=O)(=O)[O-])cc6)c6ccc([nH]6)c(-c6ccc(S(=O)(=O)[O-])cc6)c6nc(c(-c7ccc(S(=O)(=O)[O-])cc7)c7ccc4[nH]7)C=C6)C=C5)cc3)c3ccccc32)cc1
REMARK SMILES IDX 31 1 30 2 28 3 29 4 17 6 16 7 14 8 15 9 12 11 13 12 11 13
REMARK SMILES IDX 9 14 10 15 103 16 98 17 102 18 99 19 101 20 100 21 6 22 7 23
REMARK SMILES IDX 8 24 5 25 1 26 2 27 3 28 105 29 4 30 104 31 18 32 19 33
REMARK SMILES IDX 20 34 27 35 21 36 22 37 26 38 23 40 25 41 24 42 32 43 33 44
REMARK SMILES IDX 34 45 35 46 36 47 37 49 38 50 39 51 97 52 40 53 96 54 41 55
REMARK SMILES IDX 42 56 43 57 90 58 44 59 95 60 89 61 91 62 45 63 94 64 88 65
REMARK SMILES IDX 87 66 46 68 76 69 57 70 75 71 58 72 61 73 74 74 92 75 59 76
REMARK SMILES IDX 60 77 73 79 93 80 62 81 47 82 48 83 56 84 49 85 55 86 50 87
REMARK SMILES IDX 51 88 52 89 53 90 54 91 77 92 78 93 86 94 79 95 85 96 80 97
REMARK SMILES IDX 81 98 82 99 83 100 84 101 63 102 64 103 72 104 65 105 71 106
REMARK SMILES IDX 66 107 67 108 68 109 69 110 70 111
REMARK H PARENT 30 5 16 10 21 39 35 48 91 67 61 78
REMARK Flexibility Score: inf
ROOT
ATOM      1  C   UNL     1     -12.084   4.364  -1.485  1.00  0.00     0.116 C 
ENDROOT
BRANCH   1   2
ATOM      2  N   UNL     1     -11.953   3.042  -2.065  1.00  0.00    -0.354 N 
ATOM      3  C   UNL     1     -11.565   1.880  -1.448  1.00  0.00     0.242 C 
ATOM      4  O   UNL     1     -12.036   0.829  -1.901  1.00  0.00    -0.273 OA
ATOM      5  H   UNL     1     -12.171   2.969  -3.022  1.00  0.00     0.163 HD
BRANCH   3   6
ATOM      6  C   UNL     1     -10.669   1.833  -0.172  1.00  0.00     0.176 C 
BRANCH   6   7
ATOM      7  N   UNL     1      -9.507   2.753  -0.187  1.00  0.00    -0.337 N 
ATOM      8  C   UNL     1      -8.167   2.525  -0.468  1.00  0.00     0.293 C 
ATOM      9  O   UNL     1      -7.333   3.413  -0.307  1.00  0.00    -0.265 OA
ATOM     10  H   UNL     1      -9.723   3.686   0.041  1.00  0.00     0.164 HD
BRANCH   8  11
ATOM     11  C   UNL     1      -7.698   1.170  -1.006  1.00  0.00     0.252 C 
ATOM     12  O   UNL     1      -8.372   0.691  -1.917  1.00  0.00    -0.283 OA
BRANCH  11  13
ATOM     13  C   UNL     1      -6.567   0.418  -0.416  1.00  0.00     0.054 A 
ATOM     14  N   UNL     1      -4.616  -0.296   0.501  1.00  0.00    -0.240 N 
ATOM     15  C   UNL     1      -5.274   0.814  -0.036  1.00  0.00     0.117 A 
ATOM     16  C   UNL     1      -5.566  -1.323   0.636  1.00  0.00     0.065 A 
ATOM     17  C   UNL     1      -6.601  -1.000  -0.236  1.00  0.00     0.012 A 
ATOM     18  C   UNL     1      -5.462  -2.606   1.210  1.00  0.00     0.028 A 
ATOM     19  C   UNL     1      -7.433  -2.039  -0.704  1.00  0.00     0.011 A 
ATOM     20  C   UNL     1      -6.248  -3.627   0.680  1.00  0.00     0.002 A 
ATOM     21  C   UNL     1      -7.194  -3.355  -0.298  1.00  0.00     0.001 A 
BRANCH  14  22
ATOM     22  S   UNL     1      -3.065  -0.941   0.013  1.00  0.00     0.268 S 
ATOM     23  O   UNL     1      -3.311  -1.395  -1.346  1.00  0.00    -0.201 OA
ATOM     24  O   UNL     1      -2.781  -1.893   1.081  1.00  0.00    -0.201 OA
BRANCH  22  25
ATOM     25  C   UNL     1      -1.528  -0.095  -0.072  1.00  0.00     0.088 A 
ATOM     26  C   UNL     1       2.665   0.967  -0.039  1.00  0.00     0.044 C 
ATOM     27  C   UNL     1       1.199   0.645  -0.098  1.00  0.00    -0.051 A 
ATOM     28  C   UNL     1       0.848  -0.671  -0.357  1.00  0.00     0.005 A 
ATOM     29  C   UNL     1       0.175   1.588   0.153  1.00  0.00     0.005 A 
ATOM     30  C   UNL     1      -0.490  -1.023  -0.356  1.00  0.00     0.022 A 
ATOM     31  C   UNL     1      -1.199   1.226   0.173  1.00  0.00     0.022 A 
ENDBRANCH  22  25
ENDBRANCH  14  22
ENDBRANCH  11  13
ENDBRANCH   8  11
ENDBRANCH   6   7
BRANCH   6  32
ATOM     32  C   UNL     1     -11.492   1.847   1.162  1.00  0.00     0.072 C 
BRANCH  32  33
ATOM     33  C   UNL     1     -12.181   3.131   1.553  1.00  0.00    -0.020 A 
ATOM     34  C   UNL     1     -13.547   3.359   1.561  1.00  0.00     0.087 A 
ATOM     35  C   UNL     1     -11.564   4.384   1.897  1.00  0.00     0.003 A 
ATOM     36  N   UNL     1     -13.764   4.704   1.740  1.00  0.00    -0.361 N 
ATOM     37  C   UNL     1     -12.557   5.360   1.795  1.00  0.00     0.046 A 
ATOM     38  C   UNL     1     -10.232   4.804   2.095  1.00  0.00     0.010 A 
ATOM     39  H   UNL     1     -14.647   5.132   1.817  1.00  0.00     0.166 HD
ATOM     40  C   UNL     1     -12.262   6.724   1.710  1.00  0.00     0.026 A 
ATOM     41  C   UNL     1      -9.921   6.166   2.007  1.00  0.00     0.001 A 
ATOM     42  C   UNL     1     -10.921   7.107   1.783  1.00  0.00     0.002 A 
ENDBRANCH  32  33
ENDBRANCH   6  32
ENDBRANCH   3   6
ENDBRANCH   1   2
BRANCH   1  43
ATOM     43  C   UNL     1     -11.486   5.527  -2.270  1.00  0.00     0.023 C 
BRANCH  43  44
ATOM     44  C   UNL     1     -12.180   5.895  -3.574  1.00  0.00     0.023 C 
BRANCH  44  45
ATOM     45  C   UNL     1     -13.637   6.321  -3.442  1.00  0.00     0.116 C 
BRANCH  45  46
ATOM     46  N   UNL     1     -13.870   7.742  -3.257  1.00  0.00    -0.352 N 
ATOM     47  C   UNL     1     -15.058   8.411  -3.564  1.00  0.00     0.251 C 
ATOM     48  H   UNL     1     -13.132   8.277  -2.886  1.00  0.00     0.163 HD
ATOM     49  O   UNL     1     -15.087   9.535  -4.008  1.00  0.00    -0.269 OA
BRANCH  47  50
ATOM     50  C   UNL     1     -16.311   7.728  -3.148  1.00  0.00     0.039 A 
ATOM     51  C   UNL     1     -17.096   8.330  -2.155  1.00  0.00     0.014 A 
ATOM     52  C   UNL     1     -16.573   6.428  -3.565  1.00  0.00     0.014 A 
ATOM     53  C   UNL     1     -18.025   7.560  -1.455  1.00  0.00     0.010 A 
ATOM     54  C   UNL     1     -17.398   5.640  -2.799  1.00  0.00     0.010 A 
ATOM     55  C   UNL     1     -18.092   6.196  -1.721  1.00  0.00    -0.014 A 
BRANCH  55  56
ATOM     56  C   UNL     1     -18.833   5.221  -0.938  1.00  0.00     0.031 A 
ATOM     57  C   UNL     1     -20.097   4.679  -1.493  1.00  0.00     0.074 A 
ATOM     58  C   UNL     1     -18.245   4.681   0.154  1.00  0.00     0.049 A 
ATOM     59  N   UNL     1     -20.938   3.963  -0.830  1.00  0.00    -0.248 NA
ATOM     60  C   UNL     1     -20.543   4.957  -2.862  1.00  0.00     0.031 C 
ATOM     61  C   UNL     1     -18.610   3.436   0.829  1.00  0.00     0.029 A 
ATOM     62  N   UNL     1     -17.236   5.182   0.978  1.00  0.00    -0.354 N 
ATOM     63  C   UNL     1     -21.831   3.432  -1.735  1.00  0.00     0.074 A 
ATOM     64  C   UNL     1     -21.631   4.184  -2.947  1.00  0.00     0.031 C 
ATOM     65  C   UNL     1     -18.088   3.452   2.069  1.00  0.00     0.029 A 
ATOM     66  C   UNL     1     -17.567   4.792   2.283  1.00  0.00     0.049 A 
ATOM     67  H   UNL     1     -16.450   5.704   0.699  1.00  0.00     0.167 HD
ATOM     68  C   UNL     1     -22.525   2.310  -1.394  1.00  0.00     0.031 A 
ATOM     69  C   UNL     1     -18.049   5.636   3.251  1.00  0.00     0.031 A 
ATOM     70  C   UNL     1     -22.367   2.012   0.029  1.00  0.00     0.049 A 
ATOM     71  C   UNL     1     -19.442   5.258   3.743  1.00  0.00     0.074 A 
ATOM     72  C   UNL     1     -21.615   1.080   0.724  1.00  0.00     0.029 A 
ATOM     73  N   UNL     1     -22.804   2.945   0.964  1.00  0.00    -0.354 N 
ATOM     74  N   UNL     1     -20.266   4.489   3.083  1.00  0.00    -0.248 NA
ATOM     75  C   UNL     1     -20.021   5.729   5.001  1.00  0.00     0.031 C 
ATOM     76  C   UNL     1     -21.489   1.542   2.065  1.00  0.00     0.029 A 
ATOM     77  C   UNL     1     -22.209   2.719   2.191  1.00  0.00     0.049 A 
ATOM     78  H   UNL     1     -23.447   3.666   0.778  1.00  0.00     0.167 HD
ATOM     79  C   UNL     1     -21.438   4.352   3.778  1.00  0.00     0.074 A 
ATOM     80  C   UNL     1     -21.232   5.141   4.980  1.00  0.00     0.031 C 
ATOM     81  C   UNL     1     -22.486   3.611   3.310  1.00  0.00     0.031 A 
BRANCH  68  82
ATOM     82  C   UNL     1     -23.146   1.343  -2.386  1.00  0.00    -0.014 A 
ATOM     83  C   UNL     1     -23.666   0.115  -1.924  1.00  0.00     0.010 A 
ATOM     84  C   UNL     1     -23.148   1.520  -3.784  1.00  0.00     0.010 A 
ATOM     85  C   UNL     1     -24.118  -0.884  -2.805  1.00  0.00     0.020 A 
ATOM     86  C   UNL     1     -23.611   0.540  -4.675  1.00  0.00     0.020 A 
ATOM     87  C   UNL     1     -24.078  -0.667  -4.180  1.00  0.00     0.054 A 
BRANCH  87  88
ATOM     88  S   UNL     1     -24.615  -1.974  -5.314  1.00  0.00     0.124 S 
ATOM     89  O   UNL     1     -23.639  -3.029  -5.058  1.00  0.00    -0.237 OA
ATOM     90  O   UNL     1     -25.976  -2.246  -4.863  1.00  0.00    -0.237 OA
ATOM     91  O   UNL     1     -24.515  -1.350  -6.633  1.00  0.00    -0.744 OA
ENDBRANCH  87  88
ENDBRANCH  68  82
BRANCH  69  92
ATOM     92  C   UNL     1     -17.548   7.036   3.163  1.00  0.00    -0.014 A 
ATOM     93  C   UNL     1     -16.206   7.277   3.517  1.00  0.00     0.010 A 
ATOM     94  C   UNL     1     -18.218   7.973   2.357  1.00  0.00     0.010 A 
ATOM     95  C   UNL     1     -15.491   8.310   2.907  1.00  0.00     0.020 A 
ATOM     96  C   UNL     1     -17.500   9.008   1.741  1.00  0.00     0.020 A 
ATOM     97  C   UNL     1     -16.123   9.104   1.949  1.00  0.00     0.054 A 
BRANCH  97  98
ATOM     98  S   UNL     1     -15.085  10.086   0.824  1.00  0.00     0.124 S 
ATOM     99  O   UNL     1     -14.180  10.771   1.741  1.00  0.00    -0.237 OA
ATOM    100  O   UNL     1     -14.472   9.037   0.008  1.00  0.00    -0.237 OA
ATOM    101  O   UNL     1     -16.048  10.935   0.132  1.00  0.00    -0.744 OA
ENDBRANCH  97  98
ENDBRANCH  69  92
BRANCH  81 102
ATOM    102  C   UNL     1     -23.878   3.604   3.895  1.00  0.00    -0.014 A 
ATOM    103  C   UNL     1     -24.425   4.670   4.626  1.00  0.00     0.010 A 
ATOM    104  C   UNL     1     -24.745   2.531   3.574  1.00  0.00     0.010 A 
ATOM    105  C   UNL     1     -25.753   4.638   5.073  1.00  0.00     0.020 A 
ATOM    106  C   UNL     1     -26.084   2.512   3.972  1.00  0.00     0.020 A 
ATOM    107  C   UNL     1     -26.573   3.557   4.746  1.00  0.00     0.054 A 
BRANCH 107 108
ATOM    108  S   UNL     1     -28.305   3.555   5.274  1.00  0.00     0.124 S 
ATOM    109  O   UNL     1     -28.208   2.978   6.612  1.00  0.00    -0.237 OA
ATOM    110  O   UNL     1     -28.663   4.972   5.228  1.00  0.00    -0.237 OA
ATOM    111  O   UNL     1     -28.967   2.720   4.276  1.00  0.00    -0.744 OA
ENDBRANCH 107 108
ENDBRANCH  81 102
ENDBRANCH  55  56
ENDBRANCH  47  50
ENDBRANCH  45  46
ENDBRANCH  44  45
ENDBRANCH  43  44
ENDBRANCH   1  43
TORSDOF 21
