REMARK SMILES COc1ccc(-c2cc(Cl)cc3c2O[C@@H](C(F)(F)F)C(C(=O)NCCCCNC(=O)c2ccc(-c4c5nc(c(-c6ccc(S(=O)(=O)[O-])cc6)c6ccc([nH]6)c(-c6ccc(S(=O)(=O)[O-])cc6)c6nc(c(-c7ccc(S(=O)(=O)[O-])cc7)c7ccc4[nH]7)C=C6)C=C5)cc2)=C3)cc1C
REMARK SMILES IDX 26 1 25 2 24 3 23 4 21 5 22 6 20 8 7 9 8 10 13 11 9 12 12 13
REMARK SMILES IDX 14 14 10 15 11 16 91 17 15 18 6 19 3 20 4 21 93 22 5 23
REMARK SMILES IDX 92 24 94 25 2 26 1 27 16 28 17 29 18 30 19 31 27 32 28 33
REMARK SMILES IDX 29 34 30 36 31 37 32 38 90 39 33 40 89 41 34 42 35 43 36 44
REMARK SMILES IDX 83 45 37 46 88 47 82 48 84 49 38 50 87 51 81 52 80 53 39 55
REMARK SMILES IDX 69 56 50 57 68 58 51 59 54 60 67 61 85 62 52 63 53 64 66 66
REMARK SMILES IDX 86 67 55 68 40 69 41 70 49 71 42 72 48 73 43 74 44 75 45 76
REMARK SMILES IDX 46 77 47 78 70 79 71 80 79 81 72 82 78 83 73 84 74 85 75 86
REMARK SMILES IDX 76 87 77 88 56 89 57 90 65 91 58 92 64 93 59 94 60 95 61 96
REMARK SMILES IDX 62 97 63 98
REMARK H PARENT 23 7 28 35 84 54 54 65
REMARK Flexibility Score: inf
ROOT
ATOM      1  C   UNL     1      -4.153   4.010   4.662  1.00  0.00     0.023 C 
ENDROOT
BRANCH   1   2
ATOM      2  C   UNL     1      -3.571   5.322   5.139  1.00  0.00     0.023 C 
BRANCH   2   3
ATOM      3  C   UNL     1      -2.264   5.351   5.939  1.00  0.00     0.116 C 
BRANCH   3   4
ATOM      4  N   UNL     1      -0.992   4.856   5.419  1.00  0.00    -0.352 N 
ATOM      5  C   UNL     1       0.322   5.287   5.563  1.00  0.00     0.251 C 
ATOM      6  O   UNL     1       1.214   4.474   5.307  1.00  0.00    -0.270 OA
ATOM      7  H   UNL     1      -1.084   4.056   4.853  1.00  0.00     0.163 HD
BRANCH   5   8
ATOM      8  C   UNL     1       0.736   6.753   5.875  1.00  0.00     0.067 C 
ATOM      9  C   UNL     1       0.635   6.667   2.010  1.00  0.00     0.026 A 
ATOM     10  C   UNL     1       1.581   7.374   1.221  1.00  0.00     0.033 A 
ATOM     11  C   UNL     1       0.522   7.116   3.331  1.00  0.00     0.135 A 
ATOM     12  C   UNL     1       2.487   8.270   1.793  1.00  0.00     0.042 A 
ATOM     13  C   UNL     1       1.708   7.589   3.935  1.00  0.00     0.019 A 
ATOM     14  O   UNL     1      -0.690   7.235   4.107  1.00  0.00    -0.475 OA
ATOM     15  Cl  UNL     1       3.604   9.119   0.799  1.00  0.00    -0.084 Cl
ATOM     16  C   UNL     1       2.609   8.323   3.175  1.00  0.00     0.032 A 
ATOM     17  C   UNL     1       1.900   7.255   5.390  1.00  0.00     0.025 C 
ATOM     18  C   UNL     1      -0.321   7.733   5.471  1.00  0.00     0.314 C 
BRANCH   9  19
ATOM     19  C   UNL     1       0.483   5.226   1.582  1.00  0.00    -0.014 A 
ATOM     20  C   UNL     1       0.489   2.696   0.239  1.00  0.00     0.121 A 
ATOM     21  C   UNL     1      -0.688   3.443   0.406  1.00  0.00     0.047 A 
ATOM     22  C   UNL     1       1.690   3.183   0.754  1.00  0.00    -0.008 A 
ATOM     23  C   UNL     1      -0.696   4.691   1.069  1.00  0.00     0.013 A 
ATOM     24  C   UNL     1       1.655   4.412   1.460  1.00  0.00     0.016 A 
ATOM     25  C   UNL     1       3.008   2.493   0.517  1.00  0.00     0.048 C 
BRANCH  20  26
ATOM     26  O   UNL     1       0.396   1.602  -0.584  1.00  0.00    -0.496 OA
ATOM     27  C   UNL     1       0.765   0.365   0.027  1.00  0.00     0.278 C 
ENDBRANCH  20  26
ENDBRANCH   9  19
BRANCH  18  28
ATOM     28  C   UNL     1      -1.089   8.050   6.794  1.00  0.00     0.429 C 
ATOM     29  F   UNL     1      -0.413   9.028   7.468  1.00  0.00    -0.167 F 
ATOM     30  F   UNL     1      -2.339   8.512   6.601  1.00  0.00    -0.167 F 
ATOM     31  F   UNL     1      -1.145   7.016   7.673  1.00  0.00    -0.167 F 
ENDBRANCH  18  28
ENDBRANCH   5   8
ENDBRANCH   3   4
ENDBRANCH   2   3
ENDBRANCH   1   2
BRANCH   1  32
ATOM     32  C   UNL     1      -3.882   2.845   5.571  1.00  0.00     0.116 C 
BRANCH  32  33
ATOM     33  N   UNL     1      -4.323   3.135   6.903  1.00  0.00    -0.352 N 
ATOM     34  C   UNL     1      -4.855   2.352   7.880  1.00  0.00     0.251 C 
ATOM     35  H   UNL     1      -4.222   4.080   7.160  1.00  0.00     0.163 HD
ATOM     36  O   UNL     1      -5.034   2.945   8.930  1.00  0.00    -0.269 OA
BRANCH  34  37
ATOM     37  C   UNL     1      -4.957   0.847   7.744  1.00  0.00     0.039 A 
ATOM     38  C   UNL     1      -5.317   0.277   8.973  1.00  0.00     0.014 A 
ATOM     39  C   UNL     1      -3.876   0.287   7.065  1.00  0.00     0.014 A 
ATOM     40  C   UNL     1      -4.311  -0.254   9.756  1.00  0.00     0.010 A 
ATOM     41  C   UNL     1      -2.826  -0.109   7.835  1.00  0.00     0.010 A 
ATOM     42  C   UNL     1      -3.044  -0.260   9.201  1.00  0.00    -0.014 A 
BRANCH  42  43
ATOM     43  C   UNL     1      -1.824  -0.318   9.960  1.00  0.00     0.031 A 
ATOM     44  C   UNL     1      -1.224  -1.649  10.041  1.00  0.00     0.074 A 
ATOM     45  C   UNL     1      -1.322   0.899  10.267  1.00  0.00     0.049 A 
ATOM     46  N   UNL     1      -0.364  -2.030  10.908  1.00  0.00    -0.248 NA
ATOM     47  C   UNL     1      -1.661  -2.741   9.157  1.00  0.00     0.031 C 
ATOM     48  C   UNL     1       0.009   1.329  10.669  1.00  0.00     0.029 A 
ATOM     49  N   UNL     1      -2.099   2.040  10.464  1.00  0.00    -0.354 N 
ATOM     50  C   UNL     1       0.156  -3.215  10.425  1.00  0.00     0.074 A 
ATOM     51  C   UNL     1      -0.814  -3.714   9.492  1.00  0.00     0.031 C 
ATOM     52  C   UNL     1      -0.100   2.515  11.311  1.00  0.00     0.029 A 
ATOM     53  C   UNL     1      -1.530   2.794  11.483  1.00  0.00     0.049 A 
ATOM     54  H   UNL     1      -2.915   2.273   9.965  1.00  0.00     0.167 HD
ATOM     55  C   UNL     1       1.467  -3.484  10.673  1.00  0.00     0.031 A 
ATOM     56  C   UNL     1      -2.163   2.783  12.701  1.00  0.00     0.031 A 
ATOM     57  C   UNL     1       2.006  -2.461  11.575  1.00  0.00     0.049 A 
ATOM     58  C   UNL     1      -1.358   1.950  13.697  1.00  0.00     0.074 A 
ATOM     59  C   UNL     1       2.743  -1.312  11.334  1.00  0.00     0.029 A 
ATOM     60  N   UNL     1       1.403  -2.284  12.820  1.00  0.00    -0.354 N 
ATOM     61  N   UNL     1      -0.653   0.887  13.395  1.00  0.00    -0.248 NA
ATOM     62  C   UNL     1      -1.219   2.337  15.098  1.00  0.00     0.031 C 
ATOM     63  C   UNL     1       2.451  -0.387  12.381  1.00  0.00     0.029 A 
ATOM     64  C   UNL     1       1.556  -0.979  13.259  1.00  0.00     0.049 A 
ATOM     65  H   UNL     1       0.933  -2.991  13.319  1.00  0.00     0.167 HD
ATOM     66  C   UNL     1       0.056   0.483  14.497  1.00  0.00     0.074 A 
ATOM     67  C   UNL     1      -0.347   1.415  15.541  1.00  0.00     0.031 C 
ATOM     68  C   UNL     1       0.941  -0.560  14.514  1.00  0.00     0.031 A 
BRANCH  55  69
ATOM     69  C   UNL     1       2.313  -4.430   9.846  1.00  0.00    -0.014 A 
ATOM     70  C   UNL     1       3.716  -4.354   9.949  1.00  0.00     0.010 A 
ATOM     71  C   UNL     1       1.818  -5.365   8.911  1.00  0.00     0.010 A 
ATOM     72  C   UNL     1       4.568  -5.131   9.147  1.00  0.00     0.020 A 
ATOM     73  C   UNL     1       2.656  -6.140   8.094  1.00  0.00     0.020 A 
ATOM     74  C   UNL     1       4.032  -6.017   8.217  1.00  0.00     0.054 A 
BRANCH  74  75
ATOM     75  S   UNL     1       5.145  -7.017   7.197  1.00  0.00     0.124 S 
ATOM     76  O   UNL     1       5.902  -6.002   6.470  1.00  0.00    -0.237 OA
ATOM     77  O   UNL     1       5.896  -7.768   8.199  1.00  0.00    -0.237 OA
ATOM     78  O   UNL     1       4.239  -7.817   6.374  1.00  0.00    -0.744 OA
ENDBRANCH  74  75
ENDBRANCH  55  69
BRANCH  56  79
ATOM     79  C   UNL     1      -3.676   2.803  12.628  1.00  0.00    -0.014 A 
ATOM     80  C   UNL     1      -4.338   3.922  12.063  1.00  0.00     0.010 A 
ATOM     81  C   UNL     1      -4.441   1.642  12.827  1.00  0.00     0.010 A 
ATOM     82  C   UNL     1      -5.675   3.846  11.612  1.00  0.00     0.020 A 
ATOM     83  C   UNL     1      -5.777   1.560  12.371  1.00  0.00     0.020 A 
ATOM     84  C   UNL     1      -6.372   2.643  11.714  1.00  0.00     0.054 A 
BRANCH  84  85
ATOM     85  S   UNL     1      -8.034   2.479  10.949  1.00  0.00     0.124 S 
ATOM     86  O   UNL     1      -8.740   3.655  11.453  1.00  0.00    -0.237 OA
ATOM     87  O   UNL     1      -7.792   2.481   9.509  1.00  0.00    -0.237 OA
ATOM     88  O   UNL     1      -8.517   1.200  11.469  1.00  0.00    -0.744 OA
ENDBRANCH  84  85
ENDBRANCH  56  79
BRANCH  68  89
ATOM     89  C   UNL     1       1.354  -1.280  15.777  1.00  0.00    -0.014 A 
ATOM     90  C   UNL     1       0.606  -1.241  16.963  1.00  0.00     0.010 A 
ATOM     91  C   UNL     1       2.443  -2.184  15.734  1.00  0.00     0.010 A 
ATOM     92  C   UNL     1       0.977  -1.995  18.081  1.00  0.00     0.020 A 
ATOM     93  C   UNL     1       2.776  -2.997  16.817  1.00  0.00     0.020 A 
ATOM     94  C   UNL     1       2.062  -2.866  18.000  1.00  0.00     0.054 A 
BRANCH  94  95
ATOM     95  S   UNL     1       2.510  -3.848  19.447  1.00  0.00     0.124 S 
ATOM     96  O   UNL     1       3.252  -2.875  20.246  1.00  0.00    -0.237 OA
ATOM     97  O   UNL     1       1.211  -4.243  19.986  1.00  0.00    -0.237 OA
ATOM     98  O   UNL     1       3.306  -4.940  18.892  1.00  0.00    -0.744 OA
ENDBRANCH  94  95
ENDBRANCH  68  89
ENDBRANCH  42  43
ENDBRANCH  34  37
ENDBRANCH  32  33
ENDBRANCH   1  32
TORSDOF 17
