REMARK SMILES NS(=O)(=O)c1ccc(-n2nc(C(=O)NCCCC(=O)NCCCCNC(=O)c3ccc(-c4c5nc(c(-c6ccc(S(=O)(=O)[O-])cc6)c6ccc([nH]6)c(-c6ccc(S(=O)(=O)[O-])cc6)c6nc(c(-c7ccc(S(=O)(=O)[O-])cc7)c7ccc4[nH]7)C=C6)C=C5)cc3)cc2-c2ccccc2)cc1
REMARK SMILES IDX 18 1 19 2 20 3 17 5 16 6 15 7 14 8 12 9 13 10 11 12 9 13
REMARK SMILES IDX 10 14 89 15 88 16 8 17 5 18 6 19 97 20 7 21 96 22 2 23 3 24
REMARK SMILES IDX 4 25 1 26 90 29 91 30 95 31 92 32 94 33 93 34 21 35 22 36
REMARK SMILES IDX 23 37 24 38 25 39 26 40 27 42 28 43 29 44 87 45 30 46 86 47
REMARK SMILES IDX 31 48 32 49 33 50 80 51 34 52 85 53 79 54 81 55 35 56 84 57
REMARK SMILES IDX 78 58 77 59 36 61 66 62 47 63 65 64 48 65 51 66 64 67 82 68
REMARK SMILES IDX 49 69 50 70 63 72 83 73 52 74 37 75 38 76 46 77 39 78 45 79
REMARK SMILES IDX 40 80 41 81 42 82 43 83 44 84 67 85 68 86 76 87 69 88 75 89
REMARK SMILES IDX 70 90 71 91 72 92 73 93 74 94 53 95 54 96 62 97 55 98 61 99
REMARK SMILES IDX 56 100 57 101 58 102 59 103 60 104
REMARK H PARENT 20 4 14 11 1 27 1 28 25 41 81 60 51 71
REMARK Flexibility Score: inf
ROOT
ATOM      1  C   UNL     1       3.209  -5.972 -12.907  1.00  0.00     0.220 C 
ATOM      2  O   UNL     1       2.514  -6.169 -13.905  1.00  0.00    -0.275 OA
ATOM      3  N   UNL     1       3.532  -7.043 -12.130  1.00  0.00    -0.356 N 
ATOM      4  H   UNL     1       3.289  -7.916 -12.514  1.00  0.00     0.163 HD
ENDROOT
BRANCH   1   5
ATOM      5  C   UNL     1       3.691  -4.575 -12.567  1.00  0.00     0.102 C 
BRANCH   5   6
ATOM      6  C   UNL     1       2.681  -3.726 -11.793  1.00  0.00     0.031 C 
BRANCH   6   7
ATOM      7  C   UNL     1       2.625  -3.963 -10.289  1.00  0.00     0.116 C 
BRANCH   7   8
ATOM      8  N   UNL     1       3.904  -3.861  -9.615  1.00  0.00    -0.351 N 
ATOM      9  C   UNL     1       4.193  -3.877  -8.267  1.00  0.00     0.271 C 
ATOM     10  O   UNL     1       5.375  -3.767  -7.941  1.00  0.00    -0.267 OA
ATOM     11  H   UNL     1       4.684  -3.767 -10.209  1.00  0.00     0.163 HD
BRANCH   9  12
ATOM     12  C   UNL     1       3.102  -3.992  -7.283  1.00  0.00     0.151 A 
ATOM     13  N   UNL     1       2.019  -3.654  -5.466  1.00  0.00    -0.232 N 
ATOM     14  N   UNL     1       3.127  -3.278  -6.141  1.00  0.00    -0.162 NA
ATOM     15  C   UNL     1       1.151  -4.382  -6.268  1.00  0.00     0.075 A 
ATOM     16  C   UNL     1       1.909  -4.755  -7.357  1.00  0.00     0.065 A 
BRANCH  13  17
ATOM     17  C   UNL     1       1.783  -3.220  -4.137  1.00  0.00     0.065 A 
ATOM     18  C   UNL     1       0.997  -2.250  -1.658  1.00  0.00     0.082 A 
ATOM     19  C   UNL     1       0.707  -3.573  -2.000  1.00  0.00     0.024 A 
ATOM     20  C   UNL     1       1.727  -1.427  -2.524  1.00  0.00     0.024 A 
ATOM     21  C   UNL     1       1.093  -4.057  -3.246  1.00  0.00     0.030 A 
ATOM     22  C   UNL     1       2.150  -1.924  -3.759  1.00  0.00     0.030 A 
BRANCH  18  23
ATOM     23  S   UNL     1       0.417  -1.670  -0.094  1.00  0.00     0.238 S 
ATOM     24  O   UNL     1       0.983  -2.490   0.943  1.00  0.00    -0.207 OA
ATOM     25  O   UNL     1      -1.007  -1.421  -0.206  1.00  0.00    -0.207 OA
BRANCH  23  26
ATOM     26  N   UNL     1       1.122  -0.158   0.091  1.00  0.00    -0.225 NA
ATOM     27  H   UNL     1       0.832   0.246   0.982  1.00  0.00     0.137 HD
ATOM     28  H   UNL     1       0.825   0.452  -0.671  1.00  0.00     0.137 HD
ENDBRANCH  23  26
ENDBRANCH  18  23
ENDBRANCH  13  17
BRANCH  15  29
ATOM     29  C   UNL     1      -0.287  -4.538  -6.045  1.00  0.00     0.000 A 
ATOM     30  C   UNL     1      -1.067  -3.424  -5.691  1.00  0.00     0.010 A 
ATOM     31  C   UNL     1      -0.915  -5.773  -6.225  1.00  0.00     0.010 A 
ATOM     32  C   UNL     1      -2.437  -3.550  -5.473  1.00  0.00     0.001 A 
ATOM     33  C   UNL     1      -2.292  -5.896  -6.018  1.00  0.00     0.001 A 
ATOM     34  C   UNL     1      -3.049  -4.789  -5.635  1.00  0.00     0.000 A 
ENDBRANCH  15  29
ENDBRANCH   9  12
ENDBRANCH   7   8
ENDBRANCH   6   7
ENDBRANCH   5   6
ENDBRANCH   1   5
BRANCH   3  35
ATOM     35  C   UNL     1       4.176  -7.112 -10.831  1.00  0.00     0.116 C 
BRANCH  35  36
ATOM     36  C   UNL     1       3.169  -7.488  -9.734  1.00  0.00     0.023 C 
BRANCH  36  37
ATOM     37  C   UNL     1       2.768  -8.965  -9.647  1.00  0.00     0.023 C 
BRANCH  37  38
ATOM     38  C   UNL     1       3.873  -9.893  -9.170  1.00  0.00     0.116 C 
BRANCH  38  39
ATOM     39  N   UNL     1       4.300  -9.626  -7.794  1.00  0.00    -0.352 N 
ATOM     40  C   UNL     1       5.388 -10.183  -7.142  1.00  0.00     0.251 C 
ATOM     41  H   UNL     1       3.757  -8.985  -7.280  1.00  0.00     0.163 HD
ATOM     42  O   UNL     1       5.429 -10.262  -5.921  1.00  0.00    -0.269 OA
BRANCH  40  43
ATOM     43  C   UNL     1       6.505 -10.656  -7.975  1.00  0.00     0.039 A 
ATOM     44  C   UNL     1       7.110 -11.901  -7.786  1.00  0.00     0.014 A 
ATOM     45  C   UNL     1       6.859  -9.835  -9.043  1.00  0.00     0.014 A 
ATOM     46  C   UNL     1       8.014 -12.350  -8.748  1.00  0.00     0.010 A 
ATOM     47  C   UNL     1       7.596 -10.355 -10.071  1.00  0.00     0.010 A 
ATOM     48  C   UNL     1       8.229 -11.580  -9.904  1.00  0.00    -0.014 A 
BRANCH  48  49
ATOM     49  C   UNL     1       9.016 -12.079 -11.024  1.00  0.00     0.031 A 
ATOM     50  C   UNL     1       8.570 -13.398 -11.546  1.00  0.00     0.074 A 
ATOM     51  C   UNL     1       9.922 -11.321 -11.681  1.00  0.00     0.049 A 
ATOM     52  N   UNL     1       9.147 -14.537 -11.363  1.00  0.00    -0.248 NA
ATOM     53  C   UNL     1       7.254 -13.500 -12.198  1.00  0.00     0.031 C 
ATOM     54  C   UNL     1      10.251  -9.902 -11.492  1.00  0.00     0.029 A 
ATOM     55  N   UNL     1      10.681 -11.649 -12.757  1.00  0.00    -0.354 N 
ATOM     56  C   UNL     1       8.409 -15.464 -12.091  1.00  0.00     0.074 A 
ATOM     57  C   UNL     1       7.158 -14.818 -12.398  1.00  0.00     0.031 C 
ATOM     58  C   UNL     1      10.942  -9.445 -12.562  1.00  0.00     0.029 A 
ATOM     59  C   UNL     1      11.265 -10.572 -13.417  1.00  0.00     0.049 A 
ATOM     60  H   UNL     1      10.809 -12.581 -13.049  1.00  0.00     0.167 HD
ATOM     61  C   UNL     1       8.996 -16.583 -12.604  1.00  0.00     0.031 A 
ATOM     62  C   UNL     1      11.955 -10.613 -14.587  1.00  0.00     0.031 A 
ATOM     63  C   UNL     1      10.323 -16.770 -12.065  1.00  0.00     0.049 A 
ATOM     64  C   UNL     1      12.414 -12.015 -14.754  1.00  0.00     0.074 A 
ATOM     65  C   UNL     1      10.841 -16.924 -10.794  1.00  0.00     0.029 A 
ATOM     66  N   UNL     1      11.376 -16.370 -12.858  1.00  0.00    -0.354 N 
ATOM     67  N   UNL     1      13.277 -12.578 -13.954  1.00  0.00    -0.248 NA
ATOM     68  C   UNL     1      11.552 -12.930 -15.486  1.00  0.00     0.031 C 
ATOM     69  C   UNL     1      12.027 -16.130 -10.789  1.00  0.00     0.029 A 
ATOM     70  C   UNL     1      12.220 -15.624 -12.076  1.00  0.00     0.049 A 
ATOM     71  H   UNL     1      11.500 -16.582 -13.811  1.00  0.00     0.167 HD
ATOM     72  C   UNL     1      12.777 -13.854 -13.737  1.00  0.00     0.074 A 
ATOM     73  C   UNL     1      11.761 -14.043 -14.775  1.00  0.00     0.031 C 
ATOM     74  C   UNL     1      13.020 -14.524 -12.571  1.00  0.00     0.031 A 
BRANCH  61  75
ATOM     75  C   UNL     1       8.568 -17.263 -13.882  1.00  0.00    -0.014 A 
ATOM     76  C   UNL     1       9.266 -18.419 -14.292  1.00  0.00     0.010 A 
ATOM     77  C   UNL     1       7.710 -16.668 -14.827  1.00  0.00     0.010 A 
ATOM     78  C   UNL     1       9.177 -18.899 -15.604  1.00  0.00     0.020 A 
ATOM     79  C   UNL     1       7.579 -17.165 -16.127  1.00  0.00     0.020 A 
ATOM     80  C   UNL     1       8.342 -18.257 -16.517  1.00  0.00     0.054 A 
BRANCH  80  81
ATOM     81  S   UNL     1       8.309 -18.827 -18.233  1.00  0.00     0.124 S 
ATOM     82  O   UNL     1       9.663 -18.515 -18.679  1.00  0.00    -0.237 OA
ATOM     83  O   UNL     1       8.001 -20.246 -18.079  1.00  0.00    -0.237 OA
ATOM     84  O   UNL     1       7.247 -18.026 -18.837  1.00  0.00    -0.744 OA
ENDBRANCH  80  81
ENDBRANCH  61  75
BRANCH  62  85
ATOM     85  C   UNL     1      11.966  -9.631 -15.705  1.00  0.00    -0.014 A 
ATOM     86  C   UNL     1      12.870  -9.770 -16.778  1.00  0.00     0.010 A 
ATOM     87  C   UNL     1      10.884  -8.743 -15.877  1.00  0.00     0.010 A 
ATOM     88  C   UNL     1      12.649  -9.118 -18.006  1.00  0.00     0.020 A 
ATOM     89  C   UNL     1      10.661  -8.086 -17.096  1.00  0.00     0.020 A 
ATOM     90  C   UNL     1      11.527  -8.303 -18.166  1.00  0.00     0.054 A 
BRANCH  90  91
ATOM     91  S   UNL     1      11.123  -7.646 -19.816  1.00  0.00     0.124 S 
ATOM     92  O   UNL     1      12.162  -6.640 -20.015  1.00  0.00    -0.237 OA
ATOM     93  O   UNL     1      11.220  -8.831 -20.663  1.00  0.00    -0.237 OA
ATOM     94  O   UNL     1       9.770  -7.116 -19.652  1.00  0.00    -0.744 OA
ENDBRANCH  90  91
ENDBRANCH  62  85
BRANCH  74  95
ATOM     95  C   UNL     1      14.056 -13.972 -11.615  1.00  0.00    -0.014 A 
ATOM     96  C   UNL     1      13.975 -12.708 -10.995  1.00  0.00     0.010 A 
ATOM     97  C   UNL     1      15.075 -14.850 -11.205  1.00  0.00     0.010 A 
ATOM     98  C   UNL     1      14.905 -12.330 -10.011  1.00  0.00     0.020 A 
ATOM     99  C   UNL     1      15.990 -14.488 -10.216  1.00  0.00     0.020 A 
ATOM    100  C   UNL     1      15.909 -13.226  -9.630  1.00  0.00     0.054 A 
BRANCH 100 101
ATOM    101  S   UNL     1      17.094 -12.755  -8.337  1.00  0.00     0.124 S 
ATOM    102  O   UNL     1      17.867 -11.699  -8.985  1.00  0.00    -0.237 OA
ATOM    103  O   UNL     1      16.228 -12.321  -7.244  1.00  0.00    -0.237 OA
ATOM    104  O   UNL     1      17.834 -13.989  -8.076  1.00  0.00    -0.744 OA
ENDBRANCH 100 101
ENDBRANCH  74  95
ENDBRANCH  48  49
ENDBRANCH  40  43
ENDBRANCH  38  39
ENDBRANCH  37  38
ENDBRANCH  36  37
ENDBRANCH  35  36
ENDBRANCH   3  35
TORSDOF 22
