REMARK SMILES Cc1c(CC(=O)NCCCCNC(=O)c2ccc(-c3c4nc(c(-c5ccc(S(=O)(=O)[O-])cc5)c5ccc([nH]5)c(-c5ccc(S(=O)(=O)[O-])cc5)c5nc(c(-c6ccc(S(=O)(=O)[O-])cc6)c6ccc3[nH]6)C=C5)C=C4)cc2)c2ccccc2n1C(=O)c1ccc(Cl)cc1
REMARK SMILES IDX 9 1 8 2 7 3 5 4 6 5 4 7 3 8 1 9 2 10 81 11 75 12 80 13 76 14
REMARK SMILES IDX 79 15 77 16 78 17 82 18 83 19 84 20 85 21 90 22 86 23 89 24
REMARK SMILES IDX 87 25 88 26 10 27 11 28 12 29 13 30 14 32 15 33 16 34 74 35
REMARK SMILES IDX 17 36 73 37 18 38 19 39 20 40 67 41 21 42 72 43 66 44 68 45
REMARK SMILES IDX 22 46 71 47 65 48 64 49 23 51 53 52 34 53 52 54 35 55 38 56
REMARK SMILES IDX 51 57 69 58 36 59 37 60 50 62 70 63 39 64 24 65 25 66 33 67
REMARK SMILES IDX 26 68 32 69 27 70 28 71 29 72 30 73 31 74 54 75 55 76 63 77
REMARK SMILES IDX 56 78 62 79 57 80 58 81 59 82 60 83 61 84 40 85 41 86 49 87
REMARK SMILES IDX 42 88 48 89 43 90 44 91 45 92 46 93 47 94
REMARK H PARENT 7 6 12 31 68 50 38 61
REMARK Flexibility Score: inf
ROOT
ATOM      1  C   UNL     1      -2.643  -1.947  -0.122  1.00  0.00     0.023 C 
ENDROOT
BRANCH   1   2
ATOM      2  C   UNL     1      -1.432  -2.457   0.653  1.00  0.00     0.116 C 
BRANCH   2   3
ATOM      3  N   UNL     1      -0.997  -3.761   0.196  1.00  0.00    -0.356 N 
ATOM      4  C   UNL     1       0.177  -4.097  -0.415  1.00  0.00     0.224 C 
ATOM      5  O   UNL     1       0.377  -5.283  -0.691  1.00  0.00    -0.275 OA
ATOM      6  H   UNL     1      -1.629  -4.500   0.345  1.00  0.00     0.163 HD
BRANCH   4   7
ATOM      7  C   UNL     1       1.236  -3.036  -0.674  1.00  0.00     0.138 C 
BRANCH   7   8
ATOM      8  C   UNL     1       0.800  -1.977  -1.647  1.00  0.00    -0.010 A 
ATOM      9  C   UNL     1       1.239   0.167  -0.245  1.00  0.00     0.065 C 
ATOM     10  C   UNL     1       0.786  -0.600  -1.450  1.00  0.00     0.028 A 
ATOM     11  N   UNL     1       0.230   0.012  -2.587  1.00  0.00    -0.280 N 
ATOM     12  C   UNL     1       0.354  -2.217  -2.976  1.00  0.00     0.004 A 
ATOM     13  C   UNL     1       0.079  -0.980  -3.568  1.00  0.00     0.056 A 
ATOM     14  C   UNL     1       0.188  -3.400  -3.732  1.00  0.00     0.010 A 
ATOM     15  C   UNL     1      -0.277  -0.922  -4.933  1.00  0.00     0.027 A 
ATOM     16  C   UNL     1      -0.235  -3.335  -5.059  1.00  0.00     0.001 A 
ATOM     17  C   UNL     1      -0.453  -2.106  -5.654  1.00  0.00     0.002 A 
BRANCH  11  18
ATOM     18  C   UNL     1      -0.087   1.400  -2.710  1.00  0.00     0.262 C 
ATOM     19  O   UNL     1       0.246   2.166  -1.816  1.00  0.00    -0.268 OA
BRANCH  18  20
ATOM     20  C   UNL     1      -0.741   2.022  -3.878  1.00  0.00     0.040 A 
ATOM     21  C   UNL     1      -2.042   1.687  -4.269  1.00  0.00     0.015 A 
ATOM     22  C   UNL     1       0.015   2.939  -4.618  1.00  0.00     0.015 A 
ATOM     23  C   UNL     1      -2.553   2.208  -5.463  1.00  0.00     0.021 A 
ATOM     24  C   UNL     1      -0.502   3.460  -5.803  1.00  0.00     0.021 A 
ATOM     25  C   UNL     1      -1.774   3.078  -6.231  1.00  0.00     0.041 A 
ATOM     26  Cl  UNL     1      -2.364   3.671  -7.734  1.00  0.00    -0.084 Cl
ENDBRANCH  18  20
ENDBRANCH  11  18
ENDBRANCH   7   8
ENDBRANCH   4   7
ENDBRANCH   2   3
ENDBRANCH   1   2
BRANCH   1  27
ATOM     27  C   UNL     1      -3.942  -2.716   0.153  1.00  0.00     0.023 C 
BRANCH  27  28
ATOM     28  C   UNL     1      -4.264  -2.918   1.637  1.00  0.00     0.116 C 
BRANCH  28  29
ATOM     29  N   UNL     1      -4.285  -1.683   2.396  1.00  0.00    -0.352 N 
ATOM     30  C   UNL     1      -5.251  -0.770   2.717  1.00  0.00     0.251 C 
ATOM     31  H   UNL     1      -3.403  -1.449   2.765  1.00  0.00     0.163 HD
ATOM     32  O   UNL     1      -4.910   0.119   3.502  1.00  0.00    -0.269 OA
BRANCH  30  33
ATOM     33  C   UNL     1      -6.636  -0.755   2.168  1.00  0.00     0.039 A 
ATOM     34  C   UNL     1      -7.144  -1.660   1.237  1.00  0.00     0.014 A 
ATOM     35  C   UNL     1      -7.460   0.310   2.581  1.00  0.00     0.014 A 
ATOM     36  C   UNL     1      -8.399  -1.467   0.674  1.00  0.00     0.010 A 
ATOM     37  C   UNL     1      -8.724   0.502   2.028  1.00  0.00     0.010 A 
ATOM     38  C   UNL     1      -9.172  -0.363   1.035  1.00  0.00    -0.014 A 
BRANCH  38  39
ATOM     39  C   UNL     1     -10.425  -0.177   0.310  1.00  0.00     0.031 A 
ATOM     40  C   UNL     1     -11.442  -1.261   0.432  1.00  0.00     0.074 A 
ATOM     41  C   UNL     1     -10.695   0.920  -0.422  1.00  0.00     0.049 A 
ATOM     42  N   UNL     1     -11.948  -2.009  -0.496  1.00  0.00    -0.248 NA
ATOM     43  C   UNL     1     -11.910  -1.585   1.787  1.00  0.00     0.031 C 
ATOM     44  C   UNL     1      -9.991   2.205  -0.434  1.00  0.00     0.029 A 
ATOM     45  N   UNL     1     -11.749   1.133  -1.258  1.00  0.00    -0.354 N 
ATOM     46  C   UNL     1     -12.904  -2.812   0.128  1.00  0.00     0.074 A 
ATOM     47  C   UNL     1     -12.774  -2.570   1.544  1.00  0.00     0.031 C 
ATOM     48  C   UNL     1     -10.766   3.127  -1.048  1.00  0.00     0.029 A 
ATOM     49  C   UNL     1     -11.925   2.459  -1.613  1.00  0.00     0.049 A 
ATOM     50  H   UNL     1     -12.334   0.409  -1.580  1.00  0.00     0.167 HD
ATOM     51  C   UNL     1     -13.833  -3.541  -0.554  1.00  0.00     0.031 A 
ATOM     52  C   UNL     1     -12.992   2.981  -2.260  1.00  0.00     0.031 A 
ATOM     53  C   UNL     1     -13.493  -3.709  -1.938  1.00  0.00     0.049 A 
ATOM     54  C   UNL     1     -13.681   1.878  -2.969  1.00  0.00     0.074 A 
ATOM     55  C   UNL     1     -12.501  -4.378  -2.623  1.00  0.00     0.029 A 
ATOM     56  N   UNL     1     -14.082  -2.867  -2.847  1.00  0.00    -0.354 N 
ATOM     57  N   UNL     1     -13.166   1.214  -3.965  1.00  0.00    -0.248 NA
ATOM     58  C   UNL     1     -14.838   1.261  -2.341  1.00  0.00     0.031 C 
ATOM     59  C   UNL     1     -12.248  -3.587  -3.780  1.00  0.00     0.029 A 
ATOM     60  C   UNL     1     -13.115  -2.491  -3.746  1.00  0.00     0.049 A 
ATOM     61  H   UNL     1     -15.025  -2.584  -2.853  1.00  0.00     0.167 HD
ATOM     62  C   UNL     1     -13.675  -0.070  -3.845  1.00  0.00     0.074 A 
ATOM     63  C   UNL     1     -14.787   0.054  -2.909  1.00  0.00     0.031 C 
ATOM     64  C   UNL     1     -12.991  -1.158  -4.309  1.00  0.00     0.031 A 
BRANCH  51  65
ATOM     65  C   UNL     1     -15.190  -3.910  -0.008  1.00  0.00    -0.014 A 
ATOM     66  C   UNL     1     -15.777  -3.235   1.081  1.00  0.00     0.010 A 
ATOM     67  C   UNL     1     -16.020  -4.795  -0.729  1.00  0.00     0.010 A 
ATOM     68  C   UNL     1     -17.105  -3.445   1.458  1.00  0.00     0.020 A 
ATOM     69  C   UNL     1     -17.370  -4.981  -0.387  1.00  0.00     0.020 A 
ATOM     70  C   UNL     1     -17.901  -4.306   0.711  1.00  0.00     0.054 A 
BRANCH  70  71
ATOM     71  S   UNL     1     -19.655  -4.437   1.143  1.00  0.00     0.124 S 
ATOM     72  O   UNL     1     -19.601  -5.179   2.400  1.00  0.00    -0.237 OA
ATOM     73  O   UNL     1     -20.055  -3.037   1.256  1.00  0.00    -0.237 OA
ATOM     74  O   UNL     1     -20.235  -5.159   0.014  1.00  0.00    -0.744 OA
ENDBRANCH  70  71
ENDBRANCH  51  65
BRANCH  52  75
ATOM     75  C   UNL     1     -13.677   4.247  -1.905  1.00  0.00    -0.014 A 
ATOM     76  C   UNL     1     -13.681   4.680  -0.562  1.00  0.00     0.010 A 
ATOM     77  C   UNL     1     -14.567   4.860  -2.804  1.00  0.00     0.010 A 
ATOM     78  C   UNL     1     -14.586   5.644  -0.114  1.00  0.00     0.020 A 
ATOM     79  C   UNL     1     -15.480   5.829  -2.359  1.00  0.00     0.020 A 
ATOM     80  C   UNL     1     -15.505   6.189  -1.009  1.00  0.00     0.054 A 
BRANCH  80  81
ATOM     81  S   UNL     1     -16.779   7.301  -0.352  1.00  0.00     0.124 S 
ATOM     82  O   UNL     1     -17.561   6.402   0.491  1.00  0.00    -0.237 OA
ATOM     83  O   UNL     1     -15.986   8.300   0.362  1.00  0.00    -0.237 OA
ATOM     84  O   UNL     1     -17.461   7.790  -1.548  1.00  0.00    -0.744 OA
ENDBRANCH  80  81
ENDBRANCH  52  75
BRANCH  64  85
ATOM     85  C   UNL     1     -11.817  -0.941  -5.243  1.00  0.00    -0.014 A 
ATOM     86  C   UNL     1     -11.787  -1.673  -6.446  1.00  0.00     0.010 A 
ATOM     87  C   UNL     1     -10.670  -0.208  -4.880  1.00  0.00     0.010 A 
ATOM     88  C   UNL     1     -10.637  -1.708  -7.241  1.00  0.00     0.020 A 
ATOM     89  C   UNL     1      -9.521  -0.218  -5.687  1.00  0.00     0.020 A 
ATOM     90  C   UNL     1      -9.504  -0.993  -6.849  1.00  0.00     0.054 A 
BRANCH  90  91
ATOM     91  S   UNL     1      -8.004  -1.129  -7.862  1.00  0.00     0.124 S 
ATOM     92  O   UNL     1      -7.573  -2.500  -7.596  1.00  0.00    -0.237 OA
ATOM     93  O   UNL     1      -8.502  -0.884  -9.213  1.00  0.00    -0.237 OA
ATOM     94  O   UNL     1      -7.120  -0.092  -7.332  1.00  0.00    -0.744 OA
ENDBRANCH  90  91
ENDBRANCH  64  85
ENDBRANCH  38  39
ENDBRANCH  30  33
ENDBRANCH  28  29
ENDBRANCH  27  28
ENDBRANCH   1  27
TORSDOF 17
