REMARK SMILES COc1ccc(NC(=O)[C@@H]2[C@@H](C(=O)NCCCCNC(=O)c3ccc(-c4c5nc(c(-c6ccc(S(=O)(=O)[O-])cc6)c6ccc([nH]6)c(-c6ccc(S(=O)(=O)[O-])cc6)c6nc(c(-c7ccc(S(=O)(=O)[O-])cc7)c7ccc4[nH]7)C=C6)C=C5)cc3)[C@@H]3CC[C@H]2C3=C(C)C)cc1
REMARK SMILES IDX 16 1 15 2 14 3 12 4 13 5 11 7 10 8 85 9 82 10 84 11 86 12
REMARK SMILES IDX 83 13 87 14 88 15 89 16 8 17 7 18 9 20 6 21 3 22 4 23 91 24
REMARK SMILES IDX 5 25 90 26 2 27 1 28 17 29 18 30 19 31 20 32 21 34 22 35
REMARK SMILES IDX 23 36 81 37 24 38 80 39 25 40 26 41 27 42 74 43 28 44 79 45
REMARK SMILES IDX 73 46 75 47 29 48 78 49 72 50 71 51 30 53 60 54 41 55 59 56
REMARK SMILES IDX 42 57 45 58 58 59 76 60 43 61 44 62 57 64 77 65 46 66 31 67
REMARK SMILES IDX 32 68 40 69 33 70 39 71 34 72 35 73 36 74 37 75 38 76 61 77
REMARK SMILES IDX 62 78 70 79 63 80 69 81 64 82 65 83 66 84 67 85 68 86 47 87
REMARK SMILES IDX 48 88 56 89 49 90 55 91 50 92 51 93 52 94 53 95 54 96
REMARK H PARENT 14 6 7 19 19 33 75 52 45 63
REMARK Flexibility Score: inf
ROOT
ATOM      1  C   UNL     1      -0.985   9.490  -4.402  1.00  0.00     0.023 C 
ENDROOT
BRANCH   1   2
ATOM      2  C   UNL     1      -0.779   8.910  -2.997  1.00  0.00     0.116 C 
BRANCH   2   3
ATOM      3  N   UNL     1      -1.946   8.179  -2.541  1.00  0.00    -0.356 N 
ATOM      4  C   UNL     1      -2.272   6.864  -2.479  1.00  0.00     0.224 C 
ATOM      5  O   UNL     1      -3.409   6.632  -2.050  1.00  0.00    -0.275 OA
ATOM      6  H   UNL     1      -2.659   8.767  -2.201  1.00  0.00     0.163 HD
BRANCH   4   7
ATOM      7  C   UNL     1      -1.280   5.708  -2.729  1.00  0.00     0.098 C 
ATOM      8  C   UNL     1      -0.364   5.816  -3.946  1.00  0.00     0.099 C 
ATOM      9  C   UNL     1      -0.825   4.687  -4.896  1.00  0.00     0.028 C 
ATOM     10  C   UNL     1      -2.103   4.423  -3.039  1.00  0.00     0.028 C 
ATOM     11  C   UNL     1      -0.415   3.306  -4.399  1.00  0.00     0.009 C 
ATOM     12  C   UNL     1      -2.290   4.582  -4.522  1.00  0.00    -0.064 C 
ATOM     13  C   UNL     1      -1.324   3.107  -3.173  1.00  0.00     0.009 C 
ATOM     14  C   UNL     1      -3.409   4.435  -5.251  1.00  0.00    -0.077 C 
ATOM     15  C   UNL     1      -4.746   4.122  -4.629  1.00  0.00     0.039 C 
ATOM     16  C   UNL     1      -3.381   4.417  -6.750  1.00  0.00     0.039 C 
BRANCH   8  17
ATOM     17  C   UNL     1       1.151   6.003  -3.727  1.00  0.00     0.228 C 
ATOM     18  N   UNL     1       2.053   5.259  -3.037  1.00  0.00    -0.326 N 
ATOM     19  H   UNL     1       2.960   5.626  -3.143  1.00  0.00     0.169 HD
ATOM     20  O   UNL     1       1.684   6.941  -4.351  1.00  0.00    -0.274 OA
BRANCH  18  21
ATOM     21  C   UNL     1       2.072   4.121  -2.217  1.00  0.00     0.041 A 
ATOM     22  C   UNL     1       2.087   1.573  -0.986  1.00  0.00     0.119 A 
ATOM     23  C   UNL     1       1.126   2.516  -0.652  1.00  0.00     0.048 A 
ATOM     24  C   UNL     1       3.126   1.963  -1.830  1.00  0.00     0.048 A 
ATOM     25  C   UNL     1       1.143   3.794  -1.244  1.00  0.00     0.030 A 
ATOM     26  C   UNL     1       3.136   3.234  -2.415  1.00  0.00     0.030 A 
BRANCH  22  27
ATOM     27  O   UNL     1       2.108   0.260  -0.628  1.00  0.00    -0.497 OA
ATOM     28  C   UNL     1       1.345  -0.183   0.485  1.00  0.00     0.278 C 
ENDBRANCH  22  27
ENDBRANCH  18  21
ENDBRANCH   8  17
ENDBRANCH   4   7
ENDBRANCH   2   3
ENDBRANCH   1   2
BRANCH   1  29
ATOM     29  C   UNL     1      -2.162  10.464  -4.531  1.00  0.00     0.023 C 
BRANCH  29  30
ATOM     30  C   UNL     1      -2.118  11.669  -3.600  1.00  0.00     0.116 C 
BRANCH  30  31
ATOM     31  N   UNL     1      -0.956  12.512  -3.826  1.00  0.00    -0.352 N 
ATOM     32  C   UNL     1      -0.887  13.880  -3.961  1.00  0.00     0.251 C 
ATOM     33  H   UNL     1      -0.096  12.037  -3.893  1.00  0.00     0.163 HD
ATOM     34  O   UNL     1       0.163  14.409  -4.298  1.00  0.00    -0.269 OA
BRANCH  32  35
ATOM     35  C   UNL     1      -2.095  14.703  -3.725  1.00  0.00     0.039 A 
ATOM     36  C   UNL     1      -2.410  15.712  -4.639  1.00  0.00     0.014 A 
ATOM     37  C   UNL     1      -2.917  14.478  -2.618  1.00  0.00     0.014 A 
ATOM     38  C   UNL     1      -3.583  16.453  -4.474  1.00  0.00     0.010 A 
ATOM     39  C   UNL     1      -4.124  15.163  -2.499  1.00  0.00     0.010 A 
ATOM     40  C   UNL     1      -4.468  16.162  -3.423  1.00  0.00    -0.014 A 
BRANCH  40  41
ATOM     41  C   UNL     1      -5.761  16.882  -3.285  1.00  0.00     0.031 A 
ATOM     42  C   UNL     1      -6.041  17.719  -2.066  1.00  0.00     0.074 A 
ATOM     43  C   UNL     1      -6.715  16.725  -4.224  1.00  0.00     0.049 A 
ATOM     44  N   UNL     1      -7.124  18.383  -1.752  1.00  0.00    -0.248 NA
ATOM     45  C   UNL     1      -4.976  17.796  -1.054  1.00  0.00     0.031 C 
ATOM     46  C   UNL     1      -6.591  15.894  -5.424  1.00  0.00     0.029 A 
ATOM     47  N   UNL     1      -7.982  17.246  -4.312  1.00  0.00    -0.354 N 
ATOM     48  C   UNL     1      -6.880  18.936  -0.500  1.00  0.00     0.074 A 
ATOM     49  C   UNL     1      -5.567  18.488  -0.091  1.00  0.00     0.031 C 
ATOM     50  C   UNL     1      -7.726  15.976  -6.135  1.00  0.00     0.029 A 
ATOM     51  C   UNL     1      -8.675  16.828  -5.424  1.00  0.00     0.049 A 
ATOM     52  H   UNL     1      -8.359  17.861  -3.642  1.00  0.00     0.167 HD
ATOM     53  C   UNL     1      -7.671  19.754   0.237  1.00  0.00     0.031 A 
ATOM     54  C   UNL     1      -9.935  17.087  -5.824  1.00  0.00     0.031 A 
ATOM     55  C   UNL     1      -8.978  20.196  -0.176  1.00  0.00     0.049 A 
ATOM     56  C   UNL     1     -10.795  18.003  -4.999  1.00  0.00     0.074 A 
ATOM     57  C   UNL     1      -9.826  21.084   0.462  1.00  0.00     0.029 A 
ATOM     58  N   UNL     1      -9.634  19.771  -1.323  1.00  0.00    -0.354 N 
ATOM     59  N   UNL     1     -10.511  18.595  -3.863  1.00  0.00    -0.248 NA
ATOM     60  C   UNL     1     -12.137  18.299  -5.515  1.00  0.00     0.031 C 
ATOM     61  C   UNL     1     -11.021  21.143  -0.262  1.00  0.00     0.029 A 
ATOM     62  C   UNL     1     -10.891  20.350  -1.392  1.00  0.00     0.049 A 
ATOM     63  H   UNL     1      -9.261  19.150  -1.989  1.00  0.00     0.167 HD
ATOM     64  C   UNL     1     -11.632  19.350  -3.538  1.00  0.00     0.074 A 
ATOM     65  C   UNL     1     -12.590  19.154  -4.607  1.00  0.00     0.031 C 
ATOM     66  C   UNL     1     -11.845  20.137  -2.453  1.00  0.00     0.031 A 
BRANCH  53  67
ATOM     67  C   UNL     1      -7.150  20.197   1.582  1.00  0.00    -0.014 A 
ATOM     68  C   UNL     1      -6.035  21.048   1.695  1.00  0.00     0.010 A 
ATOM     69  C   UNL     1      -7.795  19.762   2.754  1.00  0.00     0.010 A 
ATOM     70  C   UNL     1      -5.537  21.401   2.952  1.00  0.00     0.020 A 
ATOM     71  C   UNL     1      -7.322  20.142   4.013  1.00  0.00     0.020 A 
ATOM     72  C   UNL     1      -6.180  20.939   4.104  1.00  0.00     0.054 A 
BRANCH  72  73
ATOM     73  S   UNL     1      -5.505  21.403   5.722  1.00  0.00     0.124 S 
ATOM     74  O   UNL     1      -4.289  20.597   5.784  1.00  0.00    -0.237 OA
ATOM     75  O   UNL     1      -5.298  22.842   5.582  1.00  0.00    -0.237 OA
ATOM     76  O   UNL     1      -6.556  21.017   6.661  1.00  0.00    -0.744 OA
ENDBRANCH  72  73
ENDBRANCH  53  67
BRANCH  54  77
ATOM     77  C   UNL     1     -10.446  16.463  -7.076  1.00  0.00    -0.014 A 
ATOM     78  C   UNL     1     -10.646  17.231  -8.236  1.00  0.00     0.010 A 
ATOM     79  C   UNL     1     -10.680  15.075  -7.127  1.00  0.00     0.010 A 
ATOM     80  C   UNL     1     -11.069  16.624  -9.423  1.00  0.00     0.020 A 
ATOM     81  C   UNL     1     -11.075  14.461  -8.318  1.00  0.00     0.020 A 
ATOM     82  C   UNL     1     -11.271  15.241  -9.459  1.00  0.00     0.054 A 
BRANCH  82  83
ATOM     83  S   UNL     1     -11.731  14.464 -11.033  1.00  0.00     0.124 S 
ATOM     84  O   UNL     1     -13.112  14.905 -11.198  1.00  0.00    -0.237 OA
ATOM     85  O   UNL     1     -10.765  15.044 -11.963  1.00  0.00    -0.237 OA
ATOM     86  O   UNL     1     -11.556  13.037 -10.775  1.00  0.00    -0.744 OA
ENDBRANCH  82  83
ENDBRANCH  54  77
BRANCH  66  87
ATOM     87  C   UNL     1     -13.159  20.870  -2.373  1.00  0.00    -0.014 A 
ATOM     88  C   UNL     1     -14.365  20.190  -2.127  1.00  0.00     0.010 A 
ATOM     89  C   UNL     1     -13.177  22.273  -2.490  1.00  0.00     0.010 A 
ATOM     90  C   UNL     1     -15.568  20.896  -2.030  1.00  0.00     0.020 A 
ATOM     91  C   UNL     1     -14.372  22.985  -2.362  1.00  0.00     0.020 A 
ATOM     92  C   UNL     1     -15.563  22.289  -2.147  1.00  0.00     0.054 A 
BRANCH  92  93
ATOM     93  S   UNL     1     -17.131  23.185  -1.976  1.00  0.00     0.124 S 
ATOM     94  O   UNL     1     -17.814  22.846  -3.221  1.00  0.00    -0.237 OA
ATOM     95  O   UNL     1     -17.703  22.599  -0.766  1.00  0.00    -0.237 OA
ATOM     96  O   UNL     1     -16.721  24.582  -1.851  1.00  0.00    -0.744 OA
ENDBRANCH  92  93
ENDBRANCH  66  87
ENDBRANCH  40  41
ENDBRANCH  32  35
ENDBRANCH  30  31
ENDBRANCH  29  30
ENDBRANCH   1  29
TORSDOF 17
