REMARK SMILES CC[C@@H](C)NC(=O)Cn1cccc1C(=O)NCCCCNC(=O)c1ccc(-c2c3nc(c(-c4ccc(S(=O)(=O)[O-])cc4)c4ccc([nH]4)c(-c4ccc(S(=O)(=O)[O-])cc4)c4nc(c(-c5ccc(S(=O)(=O)[O-])cc5)c5ccc2[nH]5)C=C4)C=C3)cc1
REMARK SMILES IDX 18 1 17 2 16 3 14 4 15 5 13 7 9 8 10 9 11 10 12 11 8 12 6 13
REMARK SMILES IDX 5 14 7 16 3 17 4 18 2 19 1 20 19 21 20 22 21 23 22 24 23 26
REMARK SMILES IDX 24 27 25 28 83 29 26 30 82 31 27 32 28 33 29 34 76 35 30 36
REMARK SMILES IDX 81 37 75 38 77 39 31 40 80 41 74 42 73 43 32 45 62 46 43 47
REMARK SMILES IDX 61 48 44 49 47 50 60 51 78 52 45 53 46 54 59 56 79 57 48 58
REMARK SMILES IDX 33 59 34 60 42 61 35 62 41 63 36 64 37 65 38 66 39 67 40 68
REMARK SMILES IDX 63 69 64 70 72 71 65 72 71 73 66 74 67 75 68 76 69 77 70 78
REMARK SMILES IDX 49 79 50 80 58 81 51 82 57 83 52 84 53 85 54 86 55 87 56 88
REMARK H PARENT 16 6 5 15 21 25 77 44 47 55
REMARK Flexibility Score: inf
ROOT
ATOM      1  C   UNL     1       1.605  -0.816   6.947  1.00  0.00     0.023 C 
ENDROOT
BRANCH   1   2
ATOM      2  C   UNL     1       2.809  -1.749   6.740  1.00  0.00     0.116 C 
BRANCH   2   3
ATOM      3  N   UNL     1       2.469  -2.922   5.960  1.00  0.00    -0.351 N 
ATOM      4  C   UNL     1       2.703  -3.378   4.687  1.00  0.00     0.267 C 
ATOM      5  O   UNL     1       2.339  -4.548   4.512  1.00  0.00    -0.268 OA
ATOM      6  H   UNL     1       1.927  -3.559   6.479  1.00  0.00     0.163 HD
BRANCH   4   7
ATOM      7  C   UNL     1       3.358  -2.650   3.598  1.00  0.00     0.107 A 
ATOM      8  N   UNL     1       3.431  -1.309   3.259  1.00  0.00    -0.334 N 
ATOM      9  C   UNL     1       4.184  -1.142   2.110  1.00  0.00     0.087 A 
ATOM     10  C   UNL     1       4.428  -2.378   1.576  1.00  0.00     0.020 A 
ATOM     11  C   UNL     1       3.917  -3.312   2.497  1.00  0.00     0.033 A 
BRANCH   8  12
ATOM     12  C   UNL     1       2.679  -0.197   3.801  1.00  0.00     0.222 C 
BRANCH  12  13
ATOM     13  C   UNL     1       1.181  -0.386   3.647  1.00  0.00     0.240 C 
ATOM     14  N   UNL     1       0.463   0.632   3.083  1.00  0.00    -0.352 N 
ATOM     15  H   UNL     1      -0.271   1.052   3.588  1.00  0.00     0.163 HD
ATOM     16  O   UNL     1       0.547  -1.377   4.004  1.00  0.00    -0.273 OA
BRANCH  14  17
ATOM     17  C   UNL     1       0.778   1.097   1.744  1.00  0.00     0.078 C 
ATOM     18  C   UNL     1       0.114   2.446   1.516  1.00  0.00     0.031 C 
BRANCH  17  19
ATOM     19  C   UNL     1       0.313   0.010   0.758  1.00  0.00     0.021 C 
ATOM     20  C   UNL     1       0.931   0.141  -0.618  1.00  0.00     0.006 C 
ENDBRANCH  17  19
ENDBRANCH  14  17
ENDBRANCH  12  13
ENDBRANCH   8  12
ENDBRANCH   4   7
ENDBRANCH   2   3
ENDBRANCH   1   2
BRANCH   1  21
ATOM     21  C   UNL     1       0.620  -1.197   8.055  1.00  0.00     0.023 C 
BRANCH  21  22
ATOM     22  C   UNL     1       1.068  -0.746   9.436  1.00  0.00     0.116 C 
BRANCH  22  23
ATOM     23  N   UNL     1       1.189   0.706   9.504  1.00  0.00    -0.352 N 
ATOM     24  C   UNL     1       1.953   1.468  10.355  1.00  0.00     0.251 C 
ATOM     25  H   UNL     1       0.650   1.208   8.851  1.00  0.00     0.163 HD
ATOM     26  O   UNL     1       1.710   2.652  10.516  1.00  0.00    -0.269 OA
BRANCH  24  27
ATOM     27  C   UNL     1       3.068   0.832  11.079  1.00  0.00     0.039 A 
ATOM     28  C   UNL     1       3.183   1.040  12.455  1.00  0.00     0.014 A 
ATOM     29  C   UNL     1       3.994   0.045  10.383  1.00  0.00     0.014 A 
ATOM     30  C   UNL     1       4.192   0.389  13.152  1.00  0.00     0.010 A 
ATOM     31  C   UNL     1       4.981  -0.632  11.080  1.00  0.00     0.010 A 
ATOM     32  C   UNL     1       5.070  -0.464  12.464  1.00  0.00    -0.014 A 
BRANCH  32  33
ATOM     33  C   UNL     1       6.009  -1.298  13.241  1.00  0.00     0.031 A 
ATOM     34  C   UNL     1       5.272  -2.487  13.901  1.00  0.00     0.074 A 
ATOM     35  C   UNL     1       7.306  -0.858  13.277  1.00  0.00     0.049 A 
ATOM     36  N   UNL     1       5.466  -3.053  15.051  1.00  0.00    -0.248 NA
ATOM     37  C   UNL     1       4.071  -3.066  13.230  1.00  0.00     0.031 C 
ATOM     38  C   UNL     1       7.839   0.294  12.502  1.00  0.00     0.029 A 
ATOM     39  N   UNL     1       8.441  -1.263  13.945  1.00  0.00    -0.354 N 
ATOM     40  C   UNL     1       4.557  -4.136  15.171  1.00  0.00     0.074 A 
ATOM     41  C   UNL     1       3.651  -4.019  14.069  1.00  0.00     0.031 C 
ATOM     42  C   UNL     1       9.136   0.534  12.804  1.00  0.00     0.029 A 
ATOM     43  C   UNL     1       9.579  -0.417  13.800  1.00  0.00     0.049 A 
ATOM     44  H   UNL     1       8.464  -2.084  14.487  1.00  0.00     0.167 HD
ATOM     45  C   UNL     1       4.702  -5.136  16.095  1.00  0.00     0.031 A 
ATOM     46  C   UNL     1      10.764  -0.451  14.489  1.00  0.00     0.031 A 
ATOM     47  C   UNL     1       5.849  -4.872  16.896  1.00  0.00     0.049 A 
ATOM     48  C   UNL     1      10.646  -1.624  15.365  1.00  0.00     0.074 A 
ATOM     49  C   UNL     1       6.117  -3.943  17.866  1.00  0.00     0.029 A 
ATOM     50  N   UNL     1       7.030  -5.390  16.421  1.00  0.00    -0.354 N 
ATOM     51  N   UNL     1      10.729  -2.859  14.980  1.00  0.00    -0.248 NA
ATOM     52  C   UNL     1      10.316  -1.401  16.779  1.00  0.00     0.031 C 
ATOM     53  C   UNL     1       7.434  -3.542  17.552  1.00  0.00     0.029 A 
ATOM     54  C   UNL     1       7.977  -4.416  16.602  1.00  0.00     0.049 A 
ATOM     55  H   UNL     1       7.169  -6.282  16.028  1.00  0.00     0.167 HD
ATOM     56  C   UNL     1      10.095  -3.520  15.999  1.00  0.00     0.074 A 
ATOM     57  C   UNL     1      10.173  -2.665  17.164  1.00  0.00     0.031 C 
ATOM     58  C   UNL     1       9.112  -4.411  15.716  1.00  0.00     0.031 A 
BRANCH  45  59
ATOM     59  C   UNL     1       4.101  -6.517  16.227  1.00  0.00    -0.014 A 
ATOM     60  C   UNL     1       4.386  -7.226  17.427  1.00  0.00     0.010 A 
ATOM     61  C   UNL     1       3.586  -7.258  15.156  1.00  0.00     0.010 A 
ATOM     62  C   UNL     1       4.310  -8.617  17.507  1.00  0.00     0.020 A 
ATOM     63  C   UNL     1       3.465  -8.660  15.243  1.00  0.00     0.020 A 
ATOM     64  C   UNL     1       3.878  -9.332  16.398  1.00  0.00     0.054 A 
BRANCH  64  65
ATOM     65  S   UNL     1       3.931 -11.144  16.478  1.00  0.00     0.124 S 
ATOM     66  O   UNL     1       5.366 -11.412  16.483  1.00  0.00    -0.237 OA
ATOM     67  O   UNL     1       3.240 -11.423  17.735  1.00  0.00    -0.237 OA
ATOM     68  O   UNL     1       3.214 -11.562  15.277  1.00  0.00    -0.744 OA
ENDBRANCH  64  65
ENDBRANCH  45  59
BRANCH  46  69
ATOM     69  C   UNL     1      12.006   0.392  14.718  1.00  0.00    -0.014 A 
ATOM     70  C   UNL     1      12.384   1.556  14.039  1.00  0.00     0.010 A 
ATOM     71  C   UNL     1      12.844   0.032  15.816  1.00  0.00     0.010 A 
ATOM     72  C   UNL     1      13.435   2.380  14.531  1.00  0.00     0.020 A 
ATOM     73  C   UNL     1      13.840   0.856  16.343  1.00  0.00     0.020 A 
ATOM     74  C   UNL     1      14.116   2.050  15.711  1.00  0.00     0.054 A 
BRANCH  74  75
ATOM     75  S   UNL     1      15.256   3.218  16.513  1.00  0.00     0.124 S 
ATOM     76  O   UNL     1      16.503   2.988  15.792  1.00  0.00    -0.237 OA
ATOM     77  O   UNL     1      14.616   4.509  16.275  1.00  0.00    -0.237 OA
ATOM     78  O   UNL     1      15.257   2.788  17.912  1.00  0.00    -0.744 OA
ENDBRANCH  74  75
ENDBRANCH  46  69
BRANCH  58  79
ATOM     79  C   UNL     1       9.154  -5.029  14.324  1.00  0.00    -0.014 A 
ATOM     80  C   UNL     1      10.269  -5.801  13.955  1.00  0.00     0.010 A 
ATOM     81  C   UNL     1       8.162  -4.819  13.342  1.00  0.00     0.010 A 
ATOM     82  C   UNL     1      10.390  -6.355  12.672  1.00  0.00     0.020 A 
ATOM     83  C   UNL     1       8.274  -5.368  12.048  1.00  0.00     0.020 A 
ATOM     84  C   UNL     1       9.388  -6.143  11.725  1.00  0.00     0.054 A 
BRANCH  84  85
ATOM     85  S   UNL     1       9.573  -6.901  10.082  1.00  0.00     0.124 S 
ATOM     86  O   UNL     1      10.843  -6.352   9.613  1.00  0.00    -0.237 OA
ATOM     87  O   UNL     1       9.588  -8.327  10.395  1.00  0.00    -0.237 OA
ATOM     88  O   UNL     1       8.396  -6.439   9.348  1.00  0.00    -0.744 OA
ENDBRANCH  84  85
ENDBRANCH  58  79
ENDBRANCH  32  33
ENDBRANCH  24  27
ENDBRANCH  22  23
ENDBRANCH  21  22
ENDBRANCH   1  21
TORSDOF 18
