REMARK SMILES Cc1c(NC(=S)NC(=O)CSc2ccc(Cl)cc2)cccc1C(=O)NCCCCNC(=O)c1ccc(-c2c3nc(c(-c4ccc(S(=O)(=O)[O-])cc4)c4ccc([nH]4)c(-c4ccc(S(=O)(=O)[O-])cc4)c4nc(c(-c5ccc(S(=O)(=O)[O-])cc5)c5ccc2[nH]5)C=C4)C=C3)cc1
REMARK SMILES IDX 26 1 25 2 23 3 24 4 22 6 1 7 2 8 3 9 19 10 21 11 20 12 4 13
REMARK SMILES IDX 5 15 6 16 7 17 8 18 9 20 10 21 11 22 12 23 13 24 18 25 14 26
REMARK SMILES IDX 17 27 15 28 16 29 27 30 28 31 29 32 30 33 31 34 32 36 33 37
REMARK SMILES IDX 34 38 92 39 35 40 91 41 36 42 37 43 38 44 85 45 39 46 90 47
REMARK SMILES IDX 84 48 86 49 40 50 89 51 83 52 82 53 41 55 71 56 52 57 70 58
REMARK SMILES IDX 53 59 56 60 69 61 87 62 54 63 55 64 68 66 88 67 57 68 42 69
REMARK SMILES IDX 43 70 51 71 44 72 50 73 45 74 46 75 47 76 48 77 49 78 72 79
REMARK SMILES IDX 73 80 81 81 74 82 80 83 75 84 76 85 77 86 78 87 79 88 58 89
REMARK SMILES IDX 59 90 67 91 60 92 66 93 61 94 62 95 63 96 64 97 65 98
REMARK H PARENT 25 5 4 14 7 19 30 35 86 54 56 65
REMARK Flexibility Score: inf
ROOT
ATOM      1  C   UNL     1       3.903   1.776  -0.078  1.00  0.00     0.116 C 
ENDROOT
BRANCH   1   2
ATOM      2  N   UNL     1       2.621   2.452  -0.085  1.00  0.00    -0.352 N 
ATOM      3  C   UNL     1       1.312   2.176  -0.352  1.00  0.00     0.251 C 
ATOM      4  O   UNL     1       0.574   3.155  -0.150  1.00  0.00    -0.269 OA
ATOM      5  H   UNL     1       2.726   3.394   0.183  1.00  0.00     0.163 HD
BRANCH   3   6
ATOM      6  C   UNL     1       0.639   0.911  -0.849  1.00  0.00     0.044 A 
ATOM      7  C   UNL     1       2.414  -0.898  -0.457  1.00  0.00     0.047 C 
ATOM      8  C   UNL     1       1.024  -0.453  -0.788  1.00  0.00    -0.015 A 
ATOM      9  C   UNL     1       0.045  -1.466  -1.043  1.00  0.00     0.044 A 
ATOM     10  C   UNL     1      -1.173  -1.139  -1.635  1.00  0.00     0.026 A 
ATOM     11  C   UNL     1      -0.656   1.184  -1.363  1.00  0.00     0.014 A 
ATOM     12  C   UNL     1      -1.527   0.189  -1.797  1.00  0.00     0.003 A 
BRANCH   9  13
ATOM     13  N   UNL     1       0.327  -2.802  -0.687  1.00  0.00    -0.332 N 
ATOM     14  H   UNL     1       1.284  -2.956  -0.514  1.00  0.00     0.169 HD
BRANCH  13  15
ATOM     15  C   UNL     1      -0.412  -3.906  -0.533  1.00  0.00     0.177 C 
ATOM     16  S   UNL     1       0.366  -5.382  -0.716  1.00  0.00    -0.040 S 
BRANCH  15  17
ATOM     17  N   UNL     1      -1.730  -3.950  -0.189  1.00  0.00    -0.302 N 
ATOM     18  C   UNL     1      -2.735  -3.211   0.412  1.00  0.00     0.236 C 
ATOM     19  H   UNL     1      -2.101  -4.818  -0.469  1.00  0.00     0.172 HD
ATOM     20  O   UNL     1      -3.878  -3.683   0.312  1.00  0.00    -0.274 OA
BRANCH  18  21
ATOM     21  C   UNL     1      -2.538  -1.898   1.139  1.00  0.00     0.175 C 
BRANCH  21  22
ATOM     22  S   UNL     1      -1.062  -1.819   2.185  1.00  0.00    -0.116 SA
BRANCH  22  23
ATOM     23  C   UNL     1      -1.847  -1.590   3.758  1.00  0.00     0.008 A 
ATOM     24  C   UNL     1      -2.146  -0.313   4.242  1.00  0.00     0.016 A 
ATOM     25  C   UNL     1      -2.184  -2.719   4.507  1.00  0.00     0.016 A 
ATOM     26  C   UNL     1      -2.799  -0.170   5.469  1.00  0.00     0.021 A 
ATOM     27  C   UNL     1      -2.836  -2.577   5.730  1.00  0.00     0.021 A 
ATOM     28  C   UNL     1      -3.145  -1.303   6.205  1.00  0.00     0.041 A 
ATOM     29  Cl  UNL     1      -3.966  -1.136   7.707  1.00  0.00    -0.084 Cl
ENDBRANCH  22  23
ENDBRANCH  21  22
ENDBRANCH  18  21
ENDBRANCH  15  17
ENDBRANCH  13  15
ENDBRANCH   9  13
ENDBRANCH   3   6
ENDBRANCH   1   2
BRANCH   1  30
ATOM     30  C   UNL     1       4.468   1.513  -1.483  1.00  0.00     0.023 C 
BRANCH  30  31
ATOM     31  C   UNL     1       5.226   2.677  -2.109  1.00  0.00     0.023 C 
BRANCH  31  32
ATOM     32  C   UNL     1       6.525   2.989  -1.388  1.00  0.00     0.116 C 
BRANCH  32  33
ATOM     33  N   UNL     1       7.708   2.290  -1.859  1.00  0.00    -0.352 N 
ATOM     34  C   UNL     1       9.010   2.551  -1.448  1.00  0.00     0.251 C 
ATOM     35  H   UNL     1       7.577   1.573  -2.522  1.00  0.00     0.163 HD
ATOM     36  O   UNL     1       9.985   2.358  -2.164  1.00  0.00    -0.269 OA
BRANCH  34  37
ATOM     37  C   UNL     1       9.182   2.908  -0.020  1.00  0.00     0.039 A 
ATOM     38  C   UNL     1       9.768   1.948   0.816  1.00  0.00     0.014 A 
ATOM     39  C   UNL     1       8.464   3.972   0.512  1.00  0.00     0.014 A 
ATOM     40  C   UNL     1       9.457   1.943   2.174  1.00  0.00     0.010 A 
ATOM     41  C   UNL     1       8.037   3.873   1.819  1.00  0.00     0.010 A 
ATOM     42  C   UNL     1       8.503   2.840   2.645  1.00  0.00    -0.014 A 
BRANCH  42  43
ATOM     43  C   UNL     1       7.886   2.780   3.966  1.00  0.00     0.031 A 
ATOM     44  C   UNL     1       8.174   3.861   4.941  1.00  0.00     0.074 A 
ATOM     45  C   UNL     1       6.949   1.845   4.245  1.00  0.00     0.049 A 
ATOM     46  N   UNL     1       7.948   3.793   6.210  1.00  0.00    -0.248 NA
ATOM     47  C   UNL     1       8.816   5.115   4.550  1.00  0.00     0.031 C 
ATOM     48  C   UNL     1       5.992   1.869   5.350  1.00  0.00     0.029 A 
ATOM     49  N   UNL     1       6.799   0.564   3.708  1.00  0.00    -0.354 N 
ATOM     50  C   UNL     1       8.082   5.066   6.721  1.00  0.00     0.074 A 
ATOM     51  C   UNL     1       8.733   5.819   5.679  1.00  0.00     0.031 C 
ATOM     52  C   UNL     1       5.599   0.612   5.606  1.00  0.00     0.029 A 
ATOM     53  C   UNL     1       6.406  -0.264   4.774  1.00  0.00     0.049 A 
ATOM     54  H   UNL     1       6.941   0.295   2.771  1.00  0.00     0.167 HD
ATOM     55  C   UNL     1       7.481   5.379   7.904  1.00  0.00     0.031 A 
ATOM     56  C   UNL     1       7.145  -1.317   5.234  1.00  0.00     0.031 A 
ATOM     57  C   UNL     1       6.972   4.180   8.571  1.00  0.00     0.049 A 
ATOM     58  C   UNL     1       7.541  -1.168   6.690  1.00  0.00     0.074 A 
ATOM     59  C   UNL     1       5.705   3.642   8.723  1.00  0.00     0.029 A 
ATOM     60  N   UNL     1       7.869   3.183   8.944  1.00  0.00    -0.354 N 
ATOM     61  N   UNL     1       7.437  -0.053   7.360  1.00  0.00    -0.248 NA
ATOM     62  C   UNL     1       8.123  -2.240   7.494  1.00  0.00     0.031 C 
ATOM     63  C   UNL     1       5.852   2.274   9.079  1.00  0.00     0.029 A 
ATOM     64  C   UNL     1       7.204   1.996   9.182  1.00  0.00     0.049 A 
ATOM     65  H   UNL     1       8.842   3.308   9.027  1.00  0.00     0.167 HD
ATOM     66  C   UNL     1       7.921  -0.224   8.629  1.00  0.00     0.074 A 
ATOM     67  C   UNL     1       8.330  -1.617   8.669  1.00  0.00     0.031 C 
ATOM     68  C   UNL     1       7.954   0.796   9.536  1.00  0.00     0.031 A 
BRANCH  55  69
ATOM     69  C   UNL     1       7.097   6.794   8.307  1.00  0.00    -0.014 A 
ATOM     70  C   UNL     1       6.093   6.992   9.279  1.00  0.00     0.010 A 
ATOM     71  C   UNL     1       7.599   7.966   7.709  1.00  0.00     0.010 A 
ATOM     72  C   UNL     1       5.562   8.263   9.562  1.00  0.00     0.020 A 
ATOM     73  C   UNL     1       7.070   9.239   7.966  1.00  0.00     0.020 A 
ATOM     74  C   UNL     1       6.038   9.380   8.881  1.00  0.00     0.054 A 
BRANCH  74  75
ATOM     75  S   UNL     1       5.296  11.003   9.187  1.00  0.00     0.124 S 
ATOM     76  O   UNL     1       3.898  10.781   8.827  1.00  0.00    -0.237 OA
ATOM     77  O   UNL     1       5.559  11.206  10.608  1.00  0.00    -0.237 OA
ATOM     78  O   UNL     1       6.028  11.895   8.288  1.00  0.00    -0.744 OA
ENDBRANCH  74  75
ENDBRANCH  55  69
BRANCH  56  79
ATOM     79  C   UNL     1       7.951  -2.000   4.184  1.00  0.00    -0.014 A 
ATOM     80  C   UNL     1       7.238  -2.739   3.215  1.00  0.00     0.010 A 
ATOM     81  C   UNL     1       9.245  -1.543   3.875  1.00  0.00     0.010 A 
ATOM     82  C   UNL     1       7.709  -2.828   1.904  1.00  0.00     0.020 A 
ATOM     83  C   UNL     1       9.723  -1.641   2.559  1.00  0.00     0.020 A 
ATOM     84  C   UNL     1       8.910  -2.204   1.571  1.00  0.00     0.054 A 
BRANCH  84  85
ATOM     85  S   UNL     1       9.272  -1.942  -0.194  1.00  0.00     0.124 S 
ATOM     86  O   UNL     1       9.163  -3.289  -0.742  1.00  0.00    -0.237 OA
ATOM     87  O   UNL     1       8.206  -1.016  -0.580  1.00  0.00    -0.237 OA
ATOM     88  O   UNL     1      10.616  -1.375  -0.176  1.00  0.00    -0.744 OA
ENDBRANCH  84  85
ENDBRANCH  56  79
BRANCH  68  89
ATOM     89  C   UNL     1       8.638   0.756  10.881  1.00  0.00    -0.014 A 
ATOM     90  C   UNL     1       9.735  -0.065  11.183  1.00  0.00     0.010 A 
ATOM     91  C   UNL     1       8.248   1.696  11.866  1.00  0.00     0.010 A 
ATOM     92  C   UNL     1      10.372   0.004  12.431  1.00  0.00     0.020 A 
ATOM     93  C   UNL     1       8.903   1.805  13.094  1.00  0.00     0.020 A 
ATOM     94  C   UNL     1       9.950   0.936  13.380  1.00  0.00     0.054 A 
BRANCH  94  95
ATOM     95  S   UNL     1      10.817   1.065  14.965  1.00  0.00     0.124 S 
ATOM     96  O   UNL     1      10.098   0.090  15.780  1.00  0.00    -0.237 OA
ATOM     97  O   UNL     1      12.190   0.702  14.620  1.00  0.00    -0.237 OA
ATOM     98  O   UNL     1      10.627   2.463  15.344  1.00  0.00    -0.744 OA
ENDBRANCH  94  95
ENDBRANCH  68  89
ENDBRANCH  42  43
ENDBRANCH  34  37
ENDBRANCH  32  33
ENDBRANCH  31  32
ENDBRANCH  30  31
ENDBRANCH   1  30
TORSDOF 20
