REMARK SMILES Cc1cccc(NC(=O)C[C@@H]2CCCCO2)c1C(=O)NCCCCNC(=O)c1ccc(-c2c3nc(c(-c4ccc(S(=O)(=O)[O-])cc4)c4ccc([nH]4)c(-c4ccc(S(=O)(=O)[O-])cc4)c4nc(c(-c5ccc(S(=O)(=O)[O-])cc5)c5ccc2[nH]5)C=C4)C=C3)cc1
REMARK SMILES IDX 22 1 21 2 20 3 18 4 19 5 17 7 1 8 2 9 3 10 4 11 6 12 5 13
REMARK SMILES IDX 7 14 8 15 9 17 10 18 11 19 12 20 16 21 13 22 15 23 14 24
REMARK SMILES IDX 23 25 24 26 25 27 26 28 27 30 28 31 29 32 87 33 30 34 86 35
REMARK SMILES IDX 31 36 32 37 33 38 80 39 34 40 85 41 79 42 81 43 35 44 84 45
REMARK SMILES IDX 78 46 77 47 36 49 66 50 47 51 65 52 48 53 51 54 64 55 82 56
REMARK SMILES IDX 49 57 50 58 63 60 83 61 52 62 37 63 38 64 46 65 39 66 45 67
REMARK SMILES IDX 40 68 41 69 42 70 43 71 44 72 67 73 68 74 76 75 69 76 75 77
REMARK SMILES IDX 70 78 71 79 72 80 73 81 74 82 53 83 54 84 62 85 55 86 61 87
REMARK SMILES IDX 56 88 57 89 58 90 59 91 60 92
REMARK H PARENT 20 6 7 16 25 29 81 48 51 59
REMARK Flexibility Score: inf
ROOT
ATOM      1  C   UNL     1       4.379   1.124  -1.172  1.00  0.00     0.023 C 
ENDROOT
BRANCH   1   2
ATOM      2  C   UNL     1       3.555   1.712  -0.011  1.00  0.00     0.116 C 
BRANCH   2   3
ATOM      3  N   UNL     1       2.374   2.402  -0.517  1.00  0.00    -0.352 N 
ATOM      4  C   UNL     1       1.024   2.163  -0.447  1.00  0.00     0.253 C 
ATOM      5  O   UNL     1       0.292   3.003  -0.975  1.00  0.00    -0.269 OA
ATOM      6  H   UNL     1       2.593   3.220  -1.021  1.00  0.00     0.163 HD
BRANCH   4   7
ATOM      7  C   UNL     1       0.415   1.032   0.327  1.00  0.00     0.066 A 
ATOM      8  C   UNL     1       1.804  -0.834  -0.749  1.00  0.00     0.045 C 
ATOM      9  C   UNL     1       0.909  -0.289   0.326  1.00  0.00    -0.036 A 
ATOM     10  C   UNL     1       0.418  -1.220   1.261  1.00  0.00     0.004 A 
ATOM     11  C   UNL     1      -0.630  -0.889   2.108  1.00  0.00     0.002 A 
ATOM     12  C   UNL     1      -0.821   1.251   0.988  1.00  0.00     0.054 A 
ATOM     13  C   UNL     1      -1.270   0.334   1.947  1.00  0.00     0.027 A 
BRANCH  12  14
ATOM     14  N   UNL     1      -1.659   2.320   0.586  1.00  0.00    -0.325 N 
ATOM     15  C   UNL     1      -2.988   2.302   0.231  1.00  0.00     0.227 C 
ATOM     16  H   UNL     1      -1.227   3.204   0.556  1.00  0.00     0.169 HD
ATOM     17  O   UNL     1      -3.532   3.355  -0.122  1.00  0.00    -0.275 OA
BRANCH  15  18
ATOM     18  C   UNL     1      -3.788   1.010   0.207  1.00  0.00     0.132 C 
BRANCH  18  19
ATOM     19  C   UNL     1      -4.155   0.532  -1.211  1.00  0.00     0.127 C 
ATOM     20  C   UNL     1      -4.932  -0.795  -1.172  1.00  0.00     0.033 C 
ATOM     21  O   UNL     1      -3.046   0.383  -2.104  1.00  0.00    -0.378 OA
ATOM     22  C   UNL     1      -4.035  -1.972  -0.786  1.00  0.00     0.005 C 
ATOM     23  C   UNL     1      -2.136  -0.661  -1.783  1.00  0.00     0.160 C 
ATOM     24  C   UNL     1      -2.803  -2.022  -1.681  1.00  0.00     0.029 C 
ENDBRANCH  18  19
ENDBRANCH  15  18
ENDBRANCH  12  14
ENDBRANCH   4   7
ENDBRANCH   2   3
ENDBRANCH   1   2
BRANCH   1  25
ATOM     25  C   UNL     1       5.128   2.165  -2.008  1.00  0.00     0.023 C 
BRANCH  25  26
ATOM     26  C   UNL     1       6.393   2.641  -1.314  1.00  0.00     0.116 C 
BRANCH  26  27
ATOM     27  N   UNL     1       7.630   2.194  -1.939  1.00  0.00    -0.352 N 
ATOM     28  C   UNL     1       8.920   2.445  -1.509  1.00  0.00     0.251 C 
ATOM     29  H   UNL     1       7.537   1.654  -2.757  1.00  0.00     0.163 HD
ATOM     30  O   UNL     1       9.898   2.249  -2.225  1.00  0.00    -0.269 OA
BRANCH  28  31
ATOM     31  C   UNL     1       9.088   2.854  -0.099  1.00  0.00     0.039 A 
ATOM     32  C   UNL     1       9.676   1.925   0.767  1.00  0.00     0.014 A 
ATOM     33  C   UNL     1       8.380   3.947   0.391  1.00  0.00     0.014 A 
ATOM     34  C   UNL     1       9.384   1.981   2.127  1.00  0.00     0.010 A 
ATOM     35  C   UNL     1       7.998   3.930   1.719  1.00  0.00     0.010 A 
ATOM     36  C   UNL     1       8.458   2.920   2.579  1.00  0.00    -0.014 A 
BRANCH  36  37
ATOM     37  C   UNL     1       7.835   2.874   3.901  1.00  0.00     0.031 A 
ATOM     38  C   UNL     1       8.126   3.939   4.893  1.00  0.00     0.074 A 
ATOM     39  C   UNL     1       6.917   1.926   4.201  1.00  0.00     0.049 A 
ATOM     40  N   UNL     1       7.929   3.836   6.167  1.00  0.00    -0.248 NA
ATOM     41  C   UNL     1       8.745   5.206   4.517  1.00  0.00     0.031 C 
ATOM     42  C   UNL     1       5.968   1.960   5.312  1.00  0.00     0.029 A 
ATOM     43  N   UNL     1       6.791   0.629   3.697  1.00  0.00    -0.354 N 
ATOM     44  C   UNL     1       8.066   5.096   6.708  1.00  0.00     0.074 A 
ATOM     45  C   UNL     1       8.692   5.876   5.669  1.00  0.00     0.031 C 
ATOM     46  C   UNL     1       5.604   0.703   5.604  1.00  0.00     0.029 A 
ATOM     47  C   UNL     1       6.412  -0.180   4.782  1.00  0.00     0.049 A 
ATOM     48  H   UNL     1       6.938   0.340   2.767  1.00  0.00     0.167 HD
ATOM     49  C   UNL     1       7.486   5.383   7.910  1.00  0.00     0.031 A 
ATOM     50  C   UNL     1       7.129  -1.247   5.242  1.00  0.00     0.031 A 
ATOM     51  C   UNL     1       6.980   4.177   8.569  1.00  0.00     0.049 A 
ATOM     52  C   UNL     1       7.512  -1.128   6.702  1.00  0.00     0.074 A 
ATOM     53  C   UNL     1       5.711   3.653   8.754  1.00  0.00     0.029 A 
ATOM     54  N   UNL     1       7.874   3.174   8.929  1.00  0.00    -0.354 N 
ATOM     55  N   UNL     1       7.377  -0.035   7.399  1.00  0.00    -0.248 NA
ATOM     56  C   UNL     1       8.136  -2.201   7.475  1.00  0.00     0.031 C 
ATOM     57  C   UNL     1       5.850   2.293   9.139  1.00  0.00     0.029 A 
ATOM     58  C   UNL     1       7.201   2.002   9.218  1.00  0.00     0.049 A 
ATOM     59  H   UNL     1       8.851   3.284   8.973  1.00  0.00     0.167 HD
ATOM     60  C   UNL     1       7.900  -0.215   8.651  1.00  0.00     0.074 A 
ATOM     61  C   UNL     1       8.342  -1.598   8.660  1.00  0.00     0.031 C 
ATOM     62  C   UNL     1       7.945   0.798   9.565  1.00  0.00     0.031 A 
BRANCH  49  63
ATOM     63  C   UNL     1       7.109   6.793   8.340  1.00  0.00    -0.014 A 
ATOM     64  C   UNL     1       6.091   6.982   9.300  1.00  0.00     0.010 A 
ATOM     65  C   UNL     1       7.634   7.971   7.775  1.00  0.00     0.010 A 
ATOM     66  C   UNL     1       5.559   8.252   9.590  1.00  0.00     0.020 A 
ATOM     67  C   UNL     1       7.101   9.242   8.034  1.00  0.00     0.020 A 
ATOM     68  C   UNL     1       6.049   9.374   8.928  1.00  0.00     0.054 A 
BRANCH  68  69
ATOM     69  S   UNL     1       5.296  10.994   9.227  1.00  0.00     0.124 S 
ATOM     70  O   UNL     1       3.900  10.763   8.867  1.00  0.00    -0.237 OA
ATOM     71  O   UNL     1       5.556  11.204  10.647  1.00  0.00    -0.237 OA
ATOM     72  O   UNL     1       6.024  11.886   8.325  1.00  0.00    -0.744 OA
ENDBRANCH  68  69
ENDBRANCH  49  63
BRANCH  50  73
ATOM     73  C   UNL     1       7.925  -1.948   4.201  1.00  0.00    -0.014 A 
ATOM     74  C   UNL     1       7.206  -2.692   3.243  1.00  0.00     0.010 A 
ATOM     75  C   UNL     1       9.231  -1.522   3.900  1.00  0.00     0.010 A 
ATOM     76  C   UNL     1       7.698  -2.834   1.945  1.00  0.00     0.020 A 
ATOM     77  C   UNL     1       9.728  -1.668   2.598  1.00  0.00     0.020 A 
ATOM     78  C   UNL     1       8.923  -2.255   1.616  1.00  0.00     0.054 A 
BRANCH  78  79
ATOM     79  S   UNL     1       9.330  -2.081  -0.147  1.00  0.00     0.124 S 
ATOM     80  O   UNL     1       9.256  -3.458  -0.624  1.00  0.00    -0.237 OA
ATOM     81  O   UNL     1       8.259  -1.196  -0.606  1.00  0.00    -0.237 OA
ATOM     82  O   UNL     1      10.664  -1.490  -0.125  1.00  0.00    -0.744 OA
ENDBRANCH  78  79
ENDBRANCH  50  73
BRANCH  62  83
ATOM     83  C   UNL     1       8.640   0.746  10.902  1.00  0.00    -0.014 A 
ATOM     84  C   UNL     1       9.761  -0.053  11.176  1.00  0.00     0.010 A 
ATOM     85  C   UNL     1       8.228   1.647  11.913  1.00  0.00     0.010 A 
ATOM     86  C   UNL     1      10.405   0.002  12.421  1.00  0.00     0.020 A 
ATOM     87  C   UNL     1       8.887   1.738  13.141  1.00  0.00     0.020 A 
ATOM     88  C   UNL     1       9.961   0.895  13.398  1.00  0.00     0.054 A 
BRANCH  88  89
ATOM     89  S   UNL     1      10.836   1.014  14.979  1.00  0.00     0.124 S 
ATOM     90  O   UNL     1      10.119   0.037  15.794  1.00  0.00    -0.237 OA
ATOM     91  O   UNL     1      12.207   0.648  14.628  1.00  0.00    -0.237 OA
ATOM     92  O   UNL     1      10.652   2.411  15.364  1.00  0.00    -0.744 OA
ENDBRANCH  88  89
ENDBRANCH  62  83
ENDBRANCH  36  37
ENDBRANCH  28  31
ENDBRANCH  26  27
ENDBRANCH  25  26
ENDBRANCH   1  25
TORSDOF 17
