REMARK SMILES Cc1cc2c(c(C)c1Br)C=C(C(=O)NCCCCNC(=O)c1ccc(-c3c4nc(c(-c5ccc(S(=O)(=O)[O-])cc5)c5ccc([nH]5)c(-c5ccc(S(=O)(=O)[O-])cc5)c5nc(c(-c6ccc(S(=O)(=O)[O-])cc6)c6ccc3[nH]6)C=C5)C=C4)cc1)[C@@H](C(F)(F)F)O2
REMARK SMILES IDX 17 1 16 2 15 3 14 4 12 5 13 6 11 8 1 9 2 10 3 11 8 12 4 13
REMARK SMILES IDX 6 14 9 15 5 16 87 17 7 18 10 19 82 20 83 21 84 22 85 23
REMARK SMILES IDX 86 24 18 25 19 26 20 27 21 29 22 30 23 31 81 32 24 33 80 34
REMARK SMILES IDX 25 35 26 36 27 37 74 38 28 39 79 40 73 41 75 42 29 43 78 44
REMARK SMILES IDX 72 45 71 46 30 48 60 49 41 50 59 51 42 52 45 53 58 54 76 55
REMARK SMILES IDX 43 56 44 57 57 59 77 60 46 61 31 62 32 63 40 64 33 65 39 66
REMARK SMILES IDX 34 67 35 68 36 69 37 70 38 71 61 72 62 73 70 74 63 75 69 76
REMARK SMILES IDX 64 77 65 78 66 79 67 80 68 81 47 82 48 83 56 84 49 85 55 86
REMARK SMILES IDX 50 87 51 88 52 89 53 90 54 91
REMARK H PARENT 14 7 19 28 75 47 45 58
REMARK Flexibility Score: inf
ROOT
ATOM      1  C   UNL     1      -1.200  -0.438  10.623  1.00  0.00     0.023 C 
ENDROOT
BRANCH   1   2
ATOM      2  C   UNL     1      -1.126  -0.682   9.113  1.00  0.00     0.023 C 
BRANCH   2   3
ATOM      3  C   UNL     1      -2.183   0.065   8.305  1.00  0.00     0.116 C 
BRANCH   3   4
ATOM      4  N   UNL     1      -1.781   1.428   8.011  1.00  0.00    -0.352 N 
ATOM      5  C   UNL     1      -1.276   2.103   6.952  1.00  0.00     0.251 C 
ATOM      6  O   UNL     1      -1.068   3.305   7.146  1.00  0.00    -0.270 OA
ATOM      7  H   UNL     1      -1.909   2.019   8.788  1.00  0.00     0.163 HD
BRANCH   5   8
ATOM      8  C   UNL     1      -0.972   1.512   5.614  1.00  0.00     0.067 C 
ATOM      9  C   UNL     1       1.052   0.119  -0.422  1.00  0.00     0.046 C 
ATOM     10  C   UNL     1       0.681   0.769   0.885  1.00  0.00    -0.033 A 
ATOM     11  C   UNL     1       0.185  -0.046   1.908  1.00  0.00     0.051 A 
ATOM     12  C   UNL     1       0.831   2.151   1.128  1.00  0.00     0.024 A 
ATOM     13  C   UNL     1      -0.160   0.494   3.141  1.00  0.00     0.128 A 
ATOM     14  C   UNL     1       0.471   2.718   2.378  1.00  0.00    -0.026 A 
ATOM     15  Br  UNL     1       1.564   3.242  -0.265  1.00  0.00    -0.050 Br
ATOM     16  C   UNL     1      -0.010   1.860   3.400  1.00  0.00     0.021 A 
ATOM     17  O   UNL     1      -0.598  -0.402   4.074  1.00  0.00    -0.475 OA
ATOM     18  C   UNL     1       0.612   4.195   2.666  1.00  0.00     0.046 C 
ATOM     19  C   UNL     1      -0.321   2.322   4.757  1.00  0.00     0.026 C 
ATOM     20  C   UNL     1      -1.375   0.136   5.178  1.00  0.00     0.314 C 
BRANCH  20  21
ATOM     21  C   UNL     1      -2.874   0.031   4.846  1.00  0.00     0.429 C 
ATOM     22  F   UNL     1      -3.246  -1.270   4.739  1.00  0.00    -0.167 F 
ATOM     23  F   UNL     1      -3.659   0.576   5.806  1.00  0.00    -0.167 F 
ATOM     24  F   UNL     1      -3.195   0.639   3.682  1.00  0.00    -0.167 F 
ENDBRANCH  20  21
ENDBRANCH   5   8
ENDBRANCH   3   4
ENDBRANCH   2   3
ENDBRANCH   1   2
BRANCH   1  25
ATOM     25  C   UNL     1      -2.554  -0.721  11.272  1.00  0.00     0.116 C 
BRANCH  25  26
ATOM     26  N   UNL     1      -3.105  -2.030  10.946  1.00  0.00    -0.352 N 
ATOM     27  C   UNL     1      -3.944  -2.803  11.715  1.00  0.00     0.251 C 
ATOM     28  H   UNL     1      -2.847  -2.405  10.074  1.00  0.00     0.163 HD
ATOM     29  O   UNL     1      -4.291  -3.918  11.342  1.00  0.00    -0.269 OA
BRANCH  27  30
ATOM     30  C   UNL     1      -4.372  -2.276  13.024  1.00  0.00     0.039 A 
ATOM     31  C   UNL     1      -4.030  -2.987  14.175  1.00  0.00     0.014 A 
ATOM     32  C   UNL     1      -5.004  -1.032  13.107  1.00  0.00     0.014 A 
ATOM     33  C   UNL     1      -4.247  -2.405  15.424  1.00  0.00     0.010 A 
ATOM     34  C   UNL     1      -5.167  -0.431  14.351  1.00  0.00     0.010 A 
ATOM     35  C   UNL     1      -4.775  -1.106  15.517  1.00  0.00    -0.014 A 
BRANCH  35  36
ATOM     36  C   UNL     1      -4.890  -0.431  16.831  1.00  0.00     0.031 A 
ATOM     37  C   UNL     1      -6.242  -0.130  17.408  1.00  0.00     0.074 A 
ATOM     38  C   UNL     1      -3.772  -0.050  17.480  1.00  0.00     0.049 A 
ATOM     39  N   UNL     1      -6.539   0.453  18.541  1.00  0.00    -0.248 NA
ATOM     40  C   UNL     1      -7.412  -0.514  16.602  1.00  0.00     0.031 C 
ATOM     41  C   UNL     1      -2.402  -0.244  16.997  1.00  0.00     0.029 A 
ATOM     42  N   UNL     1      -3.610   0.574  18.691  1.00  0.00    -0.354 N 
ATOM     43  C   UNL     1      -7.926   0.510  18.581  1.00  0.00     0.074 A 
ATOM     44  C   UNL     1      -8.411  -0.051  17.338  1.00  0.00     0.031 C 
ATOM     45  C   UNL     1      -1.541   0.213  17.920  1.00  0.00     0.029 A 
ATOM     46  C   UNL     1      -2.295   0.754  19.047  1.00  0.00     0.049 A 
ATOM     47  H   UNL     1      -4.365   0.866  19.252  1.00  0.00     0.167 HD
ATOM     48  C   UNL     1      -8.726   0.965  19.574  1.00  0.00     0.031 A 
ATOM     49  C   UNL     1      -1.755   1.283  20.163  1.00  0.00     0.031 A 
ATOM     50  C   UNL     1      -8.243   1.505  20.814  1.00  0.00     0.049 A 
ATOM     51  C   UNL     1      -2.662   1.779  21.253  1.00  0.00     0.074 A 
ATOM     52  C   UNL     1      -8.975   1.947  21.902  1.00  0.00     0.029 A 
ATOM     53  N   UNL     1      -6.905   1.674  21.133  1.00  0.00    -0.354 N 
ATOM     54  N   UNL     1      -3.972   1.772  21.296  1.00  0.00    -0.248 NA
ATOM     55  C   UNL     1      -2.019   2.347  22.446  1.00  0.00     0.031 C 
ATOM     56  C   UNL     1      -8.077   2.409  22.870  1.00  0.00     0.029 A 
ATOM     57  C   UNL     1      -6.787   2.225  22.396  1.00  0.00     0.049 A 
ATOM     58  H   UNL     1      -6.150   1.437  20.547  1.00  0.00     0.167 HD
ATOM     59  C   UNL     1      -4.312   2.319  22.527  1.00  0.00     0.074 A 
ATOM     60  C   UNL     1      -3.070   2.639  23.202  1.00  0.00     0.031 C 
ATOM     61  C   UNL     1      -5.542   2.535  23.050  1.00  0.00     0.031 A 
BRANCH  48  62
ATOM     62  C   UNL     1     -10.209   0.877  19.353  1.00  0.00    -0.014 A 
ATOM     63  C   UNL     1     -10.868  -0.364  19.413  1.00  0.00     0.010 A 
ATOM     64  C   UNL     1     -10.955   2.041  19.102  1.00  0.00     0.010 A 
ATOM     65  C   UNL     1     -12.243  -0.445  19.181  1.00  0.00     0.020 A 
ATOM     66  C   UNL     1     -12.335   1.966  18.890  1.00  0.00     0.020 A 
ATOM     67  C   UNL     1     -12.966   0.720  18.913  1.00  0.00     0.054 A 
BRANCH  67  68
ATOM     68  S   UNL     1     -14.751   0.588  18.620  1.00  0.00     0.124 S 
ATOM     69  O   UNL     1     -14.793   0.061  17.258  1.00  0.00    -0.237 OA
ATOM     70  O   UNL     1     -15.182  -0.338  19.665  1.00  0.00    -0.237 OA
ATOM     71  O   UNL     1     -15.229   1.960  18.772  1.00  0.00    -0.744 OA
ENDBRANCH  67  68
ENDBRANCH  48  62
BRANCH  49  72
ATOM     72  C   UNL     1      -0.278   1.322  20.320  1.00  0.00    -0.014 A 
ATOM     73  C   UNL     1       0.365   0.393  21.156  1.00  0.00     0.010 A 
ATOM     74  C   UNL     1       0.495   2.258  19.611  1.00  0.00     0.010 A 
ATOM     75  C   UNL     1       1.756   0.401  21.284  1.00  0.00     0.020 A 
ATOM     76  C   UNL     1       1.889   2.258  19.724  1.00  0.00     0.020 A 
ATOM     77  C   UNL     1       2.510   1.332  20.565  1.00  0.00     0.054 A 
BRANCH  77  78
ATOM     78  S   UNL     1       4.320   1.279  20.693  1.00  0.00     0.124 S 
ATOM     79  O   UNL     1       4.550   1.884  22.001  1.00  0.00    -0.237 OA
ATOM     80  O   UNL     1       4.602  -0.151  20.598  1.00  0.00    -0.237 OA
ATOM     81  O   UNL     1       4.765   2.070  19.548  1.00  0.00    -0.744 OA
ENDBRANCH  77  78
ENDBRANCH  49  72
BRANCH  61  82
ATOM     82  C   UNL     1      -5.620   3.139  24.423  1.00  0.00    -0.014 A 
ATOM     83  C   UNL     1      -5.445   4.521  24.608  1.00  0.00     0.010 A 
ATOM     84  C   UNL     1      -5.975   2.333  25.520  1.00  0.00     0.010 A 
ATOM     85  C   UNL     1      -5.627   5.088  25.872  1.00  0.00     0.020 A 
ATOM     86  C   UNL     1      -6.173   2.900  26.780  1.00  0.00     0.020 A 
ATOM     87  C   UNL     1      -5.995   4.275  26.949  1.00  0.00     0.054 A 
BRANCH  87  88
ATOM     88  S   UNL     1      -6.313   5.050  28.558  1.00  0.00     0.124 S 
ATOM     89  O   UNL     1      -4.961   5.324  29.036  1.00  0.00    -0.237 OA
ATOM     90  O   UNL     1      -7.104   6.225  28.199  1.00  0.00    -0.237 OA
ATOM     91  O   UNL     1      -7.041   4.021  29.299  1.00  0.00    -0.744 OA
ENDBRANCH  87  88
ENDBRANCH  61  82
ENDBRANCH  35  36
ENDBRANCH  27  30
ENDBRANCH  25  26
ENDBRANCH   1  25
TORSDOF 15
