REMARK SMILES COC(=O)C[C@H](c1ccc(C(=O)NCCCCNC(=O)c2ccc(-c3c4nc(c(-c5ccc(S(=O)(=O)[O-])cc5)c5ccc([nH]5)c(-c5ccc(S(=O)(=O)[O-])cc5)c5nc(c(-c6ccc(S(=O)(=O)[O-])cc6)c6ccc3[nH]6)C=C5)C=C4)cc2)cc1)c1c(O)n[nH]c1C
REMARK SMILES IDX 15 1 14 2 13 3 11 4 12 5 10 7 7 8 8 9 82 10 9 11 81 12 6 13
REMARK SMILES IDX 5 14 3 15 4 16 2 17 1 18 83 19 84 20 88 21 86 22 87 23 89 24
REMARK SMILES IDX 85 26 16 28 17 29 18 30 19 31 20 33 21 34 22 35 80 36 23 37
REMARK SMILES IDX 79 38 24 39 25 40 26 41 73 42 27 43 78 44 72 45 74 46 28 47
REMARK SMILES IDX 77 48 71 49 70 50 29 52 59 53 40 54 58 55 41 56 44 57 57 58
REMARK SMILES IDX 75 59 42 60 43 61 56 63 76 64 45 65 30 66 31 67 39 68 32 69
REMARK SMILES IDX 38 70 33 71 34 72 35 73 36 74 37 75 60 76 61 77 69 78 62 79
REMARK SMILES IDX 68 80 63 81 64 82 65 83 66 84 67 85 46 86 47 87 55 88 48 89
REMARK SMILES IDX 54 90 49 91 50 92 51 93 52 94 53 95
REMARK H PARENT 13 6 87 25 85 27 18 32 74 51 44 62
REMARK Flexibility Score: inf
ROOT
ATOM      1  C   UNL     1       1.738   0.039  -6.987  1.00  0.00     0.023 C 
ENDROOT
BRANCH   1   2
ATOM      2  C   UNL     1       0.978   0.719  -5.847  1.00  0.00     0.116 C 
BRANCH   2   3
ATOM      3  N   UNL     1      -0.435   0.402  -5.906  1.00  0.00    -0.352 N 
ATOM      4  C   UNL     1      -1.186  -0.462  -5.152  1.00  0.00     0.251 C 
ATOM      5  O   UNL     1      -2.403  -0.502  -5.330  1.00  0.00    -0.269 OA
ATOM      6  H   UNL     1      -0.938   0.885  -6.600  1.00  0.00     0.163 HD
BRANCH   4   7
ATOM      7  C   UNL     1      -0.586  -1.333  -4.108  1.00  0.00     0.039 A 
ATOM      8  C   UNL     1       0.340  -3.124  -2.128  1.00  0.00    -0.040 A 
ATOM      9  C   UNL     1      -0.883  -2.453  -1.973  1.00  0.00     0.005 A 
ATOM     10  C   UNL     1       1.105  -2.857  -3.275  1.00  0.00     0.005 A 
ATOM     11  C   UNL     1      -1.343  -1.571  -2.956  1.00  0.00     0.014 A 
ATOM     12  C   UNL     1       0.633  -1.994  -4.265  1.00  0.00     0.014 A 
BRANCH   8  13
ATOM     13  C   UNL     1       0.844  -4.167  -1.144  1.00  0.00     0.068 C 
BRANCH  13  14
ATOM     14  C   UNL     1       0.437  -3.955   0.319  1.00  0.00     0.136 C 
BRANCH  14  15
ATOM     15  C   UNL     1       0.977  -2.655   0.857  1.00  0.00     0.306 C 
ATOM     16  O   UNL     1       0.277  -1.768   1.328  1.00  0.00    -0.252 OA
BRANCH  15  17
ATOM     17  O   UNL     1       2.337  -2.627   0.790  1.00  0.00    -0.469 OA
ATOM     18  C   UNL     1       2.925  -1.415   1.263  1.00  0.00     0.282 C 
ENDBRANCH  15  17
ENDBRANCH  14  15
ENDBRANCH  13  14
BRANCH  13  19
ATOM     19  C   UNL     1       0.447  -5.533  -1.668  1.00  0.00     0.044 A 
ATOM     20  C   UNL     1       1.039  -6.734  -1.230  1.00  0.00     0.234 A 
ATOM     21  C   UNL     1      -0.458  -5.994  -2.626  1.00  0.00     0.040 A 
ATOM     22  N   UNL     1       0.594  -7.838  -1.802  1.00  0.00    -0.137 NA
ATOM     23  N   UNL     1      -0.317  -7.361  -2.663  1.00  0.00    -0.279 N 
ATOM     24  C   UNL     1      -1.427  -5.337  -3.542  1.00  0.00     0.066 C 
ATOM     25  H   UNL     1      -0.839  -7.938  -3.266  1.00  0.00     0.190 HD
BRANCH  20  26
ATOM     26  O   UNL     1       1.990  -6.923  -0.320  1.00  0.00    -0.492 OA
ATOM     27  H   UNL     1       2.358  -6.190   0.131  1.00  0.00     0.295 HD
ENDBRANCH  20  26
ENDBRANCH  13  19
ENDBRANCH   8  13
ENDBRANCH   4   7
ENDBRANCH   2   3
ENDBRANCH   1   2
BRANCH   1  28
ATOM     28  C   UNL     1       1.556   0.700  -8.355  1.00  0.00     0.023 C 
BRANCH  28  29
ATOM     29  C   UNL     1       2.026   2.146  -8.438  1.00  0.00     0.116 C 
BRANCH  29  30
ATOM     30  N   UNL     1       3.418   2.319  -8.053  1.00  0.00    -0.352 N 
ATOM     31  C   UNL     1       4.312   3.264  -8.497  1.00  0.00     0.251 C 
ATOM     32  H   UNL     1       3.764   1.678  -7.391  1.00  0.00     0.163 HD
ATOM     33  O   UNL     1       5.487   3.211  -8.158  1.00  0.00    -0.269 OA
BRANCH  31  34
ATOM     34  C   UNL     1       3.842   4.316  -9.423  1.00  0.00     0.039 A 
ATOM     35  C   UNL     1       4.555   4.538 -10.602  1.00  0.00     0.014 A 
ATOM     36  C   UNL     1       2.684   5.046  -9.144  1.00  0.00     0.014 A 
ATOM     37  C   UNL     1       4.069   5.454 -11.536  1.00  0.00     0.010 A 
ATOM     38  C   UNL     1       2.166   5.909 -10.105  1.00  0.00     0.010 A 
ATOM     39  C   UNL     1       2.854   6.122 -11.308  1.00  0.00    -0.014 A 
BRANCH  39  40
ATOM     40  C   UNL     1       2.288   7.046 -12.321  1.00  0.00     0.031 A 
ATOM     41  C   UNL     1       2.156   8.512 -12.014  1.00  0.00     0.074 A 
ATOM     42  C   UNL     1       1.837   6.553 -13.492  1.00  0.00     0.049 A 
ATOM     43  N   UNL     1       1.651   9.465 -12.754  1.00  0.00    -0.248 NA
ATOM     44  C   UNL     1       2.630   8.961 -10.695  1.00  0.00     0.031 C 
ATOM     45  C   UNL     1       1.864   5.142 -13.885  1.00  0.00     0.029 A 
ATOM     46  N   UNL     1       1.263   7.185 -14.566  1.00  0.00    -0.354 N 
ATOM     47  C   UNL     1       1.731  10.621 -11.987  1.00  0.00     0.074 A 
ATOM     48  C   UNL     1       2.288  10.241 -10.706  1.00  0.00     0.031 C 
ATOM     49  C   UNL     1       1.355   5.020 -15.122  1.00  0.00     0.029 A 
ATOM     50  C   UNL     1       0.937   6.335 -15.596  1.00  0.00     0.049 A 
ATOM     51  H   UNL     1       1.099   8.155 -14.595  1.00  0.00     0.167 HD
ATOM     52  C   UNL     1       1.391  11.888 -12.323  1.00  0.00     0.031 A 
ATOM     53  C   UNL     1       0.365   6.587 -16.790  1.00  0.00     0.031 A 
ATOM     54  C   UNL     1       0.852  12.264 -13.603  1.00  0.00     0.049 A 
ATOM     55  C   UNL     1       0.008   8.003 -17.146  1.00  0.00     0.074 A 
ATOM     56  C   UNL     1       0.530  13.528 -14.063  1.00  0.00     0.029 A 
ATOM     57  N   UNL     1       0.557  11.377 -14.627  1.00  0.00    -0.354 N 
ATOM     58  N   UNL     1       0.154   9.093 -16.432  1.00  0.00    -0.248 NA
ATOM     59  C   UNL     1      -0.579   8.224 -18.475  1.00  0.00     0.031 C 
ATOM     60  C   UNL     1       0.000  13.401 -15.352  1.00  0.00     0.029 A 
ATOM     61  C   UNL     1       0.040  12.064 -15.712  1.00  0.00     0.049 A 
ATOM     62  H   UNL     1       0.695  10.403 -14.589  1.00  0.00     0.167 HD
ATOM     63  C   UNL     1      -0.299  10.134 -17.234  1.00  0.00     0.074 A 
ATOM     64  C   UNL     1      -0.710   9.544 -18.492  1.00  0.00     0.031 C 
ATOM     65  C   UNL     1      -0.366  11.460 -16.956  1.00  0.00     0.031 A 
BRANCH  52  66
ATOM     66  C   UNL     1       1.595  12.959 -11.285  1.00  0.00    -0.014 A 
ATOM     67  C   UNL     1       2.888  13.377 -10.920  1.00  0.00     0.010 A 
ATOM     68  C   UNL     1       0.482  13.575 -10.686  1.00  0.00     0.010 A 
ATOM     69  C   UNL     1       3.064  14.360  -9.943  1.00  0.00     0.020 A 
ATOM     70  C   UNL     1       0.653  14.578  -9.728  1.00  0.00     0.020 A 
ATOM     71  C   UNL     1       1.945  14.951  -9.349  1.00  0.00     0.054 A 
BRANCH  71  72
ATOM     72  S   UNL     1       2.203  16.235  -8.094  1.00  0.00     0.124 S 
ATOM     73  O   UNL     1       2.629  15.446  -6.941  1.00  0.00    -0.237 OA
ATOM     74  O   UNL     1       3.236  17.072  -8.698  1.00  0.00    -0.237 OA
ATOM     75  O   UNL     1       0.890  16.864  -7.968  1.00  0.00    -0.744 OA
ENDBRANCH  71  72
ENDBRANCH  52  66
BRANCH  53  76
ATOM     76  C   UNL     1       0.122   5.473 -17.745  1.00  0.00    -0.014 A 
ATOM     77  C   UNL     1       0.906   5.345 -18.905  1.00  0.00     0.010 A 
ATOM     78  C   UNL     1      -0.884   4.523 -17.491  1.00  0.00     0.010 A 
ATOM     79  C   UNL     1       0.678   4.299 -19.803  1.00  0.00     0.020 A 
ATOM     80  C   UNL     1      -1.099   3.461 -18.375  1.00  0.00     0.020 A 
ATOM     81  C   UNL     1      -0.323   3.362 -19.531  1.00  0.00     0.054 A 
BRANCH  81  82
ATOM     82  S   UNL     1      -0.565   1.980 -20.682  1.00  0.00     0.124 S 
ATOM     83  O   UNL     1      -1.254   2.628 -21.793  1.00  0.00    -0.237 OA
ATOM     84  O   UNL     1       0.804   1.547 -20.951  1.00  0.00    -0.237 OA
ATOM     85  O   UNL     1      -1.369   1.033 -19.912  1.00  0.00    -0.744 OA
ENDBRANCH  81  82
ENDBRANCH  53  76
BRANCH  65  86
ATOM     86  C   UNL     1      -0.876  12.367 -18.042  1.00  0.00    -0.014 A 
ATOM     87  C   UNL     1      -2.240  12.403 -18.379  1.00  0.00     0.010 A 
ATOM     88  C   UNL     1       0.018  13.234 -18.697  1.00  0.00     0.010 A 
ATOM     89  C   UNL     1      -2.697  13.268 -19.377  1.00  0.00     0.020 A 
ATOM     90  C   UNL     1      -0.439  14.118 -19.677  1.00  0.00     0.020 A 
ATOM     91  C   UNL     1      -1.792  14.119 -20.021  1.00  0.00     0.054 A 
BRANCH  91  92
ATOM     92  S   UNL     1      -2.415  15.263 -21.284  1.00  0.00     0.124 S 
ATOM     93  O   UNL     1      -2.627  14.372 -22.421  1.00  0.00    -0.237 OA
ATOM     94  O   UNL     1      -3.627  15.795 -20.667  1.00  0.00    -0.237 OA
ATOM     95  O   UNL     1      -1.329  16.228 -21.441  1.00  0.00    -0.744 OA
ENDBRANCH  91  92
ENDBRANCH  65  86
ENDBRANCH  39  40
ENDBRANCH  31  34
ENDBRANCH  29  30
ENDBRANCH  28  29
ENDBRANCH   1  28
TORSDOF 20
