REMARK SMILES COc1ccc(/C=C/c2cc(C(=O)NCCCCNC(=O)c3ccc(-c4c5nc(c(-c6ccc(S(=O)(=O)[O-])cc6)c6ccc([nH]6)c(-c6ccc(S(=O)(=O)[O-])cc6)c6nc(c(-c7ccc(S(=O)(=O)[O-])cc7)c7ccc4[nH]7)C=C6)C=C5)cc3)c3ccccc3n2)c(OC)c1
REMARK SMILES IDX 16 1 15 2 14 3 12 4 13 5 11 7 9 8 10 9 88 10 87 11 82 12
REMARK SMILES IDX 86 13 83 14 85 15 84 16 8 17 7 18 6 19 3 20 4 21 92 22 5 23
REMARK SMILES IDX 89 24 2 25 1 26 90 27 91 28 17 29 18 30 19 31 20 32 21 34
REMARK SMILES IDX 22 35 23 36 81 37 24 38 80 39 25 40 26 41 27 42 74 43 28 44
REMARK SMILES IDX 79 45 73 46 75 47 29 48 78 49 72 50 71 51 30 53 60 54 41 55
REMARK SMILES IDX 59 56 42 57 45 58 58 59 76 60 43 61 44 62 57 64 77 65 46 66
REMARK SMILES IDX 31 67 32 68 40 69 33 70 39 71 34 72 35 73 36 74 37 75 38 76
REMARK SMILES IDX 61 77 62 78 70 79 63 80 69 81 64 82 65 83 66 84 67 85 68 86
REMARK SMILES IDX 47 87 48 88 56 89 49 90 55 91 50 92 51 93 52 94 53 95 54 96
REMARK H PARENT 14 6 19 33 75 52 45 63
REMARK Flexibility Score: inf
ROOT
ATOM      1  C   UNL     1       4.725  10.730  -5.242  1.00  0.00     0.023 C 
ENDROOT
BRANCH   1   2
ATOM      2  C   UNL     1       4.951   9.397  -5.960  1.00  0.00     0.116 C 
BRANCH   2   3
ATOM      3  N   UNL     1       5.774   8.552  -5.116  1.00  0.00    -0.352 N 
ATOM      4  C   UNL     1       5.349   7.622  -4.203  1.00  0.00     0.252 C 
ATOM      5  O   UNL     1       5.974   7.436  -3.167  1.00  0.00    -0.269 OA
ATOM      6  H   UNL     1       6.749   8.659  -5.209  1.00  0.00     0.163 HD
BRANCH   4   7
ATOM      7  C   UNL     1       4.239   6.737  -4.594  1.00  0.00     0.051 A 
ATOM      8  C   UNL     1       1.977   6.239  -4.949  1.00  0.00     0.065 A 
ATOM      9  C   UNL     1       2.916   7.172  -4.554  1.00  0.00     0.042 A 
ATOM     10  N   UNL     1       2.318   5.214  -5.759  1.00  0.00    -0.248 NA
ATOM     11  C   UNL     1       3.496   4.657  -5.492  1.00  0.00     0.072 A 
ATOM     12  C   UNL     1       4.503   5.366  -4.824  1.00  0.00     0.013 A 
ATOM     13  C   UNL     1       3.619   3.294  -5.690  1.00  0.00     0.029 A 
ATOM     14  C   UNL     1       5.601   4.645  -4.302  1.00  0.00     0.011 A 
ATOM     15  C   UNL     1       4.662   2.580  -5.105  1.00  0.00     0.002 A 
ATOM     16  C   UNL     1       5.645   3.255  -4.393  1.00  0.00     0.001 A 
BRANCH   8  17
ATOM     17  C   UNL     1       0.978   5.715  -3.970  1.00  0.00     0.029 C 
ATOM     18  C   UNL     1       1.522   4.993  -2.959  1.00  0.00     0.014 C 
BRANCH  18  19
ATOM     19  C   UNL     1       1.073   3.674  -2.443  1.00  0.00     0.017 A 
ATOM     20  C   UNL     1       0.280   1.114  -1.550  1.00  0.00     0.122 A 
ATOM     21  C   UNL     1      -0.569   1.877  -2.345  1.00  0.00     0.047 A 
ATOM     22  C   UNL     1       1.556   1.587  -1.256  1.00  0.00     0.093 A 
ATOM     23  C   UNL     1      -0.184   3.151  -2.775  1.00  0.00     0.016 A 
ATOM     24  C   UNL     1       1.970   2.848  -1.711  1.00  0.00     0.129 A 
BRANCH  20  25
ATOM     25  O   UNL     1      -0.211  -0.094  -1.133  1.00  0.00    -0.497 OA
ATOM     26  C   UNL     1       0.290  -0.535   0.128  1.00  0.00     0.278 C 
ENDBRANCH  20  25
BRANCH  24  27
ATOM     27  O   UNL     1       3.241   3.327  -1.478  1.00  0.00    -0.496 OA
ATOM     28  C   UNL     1       4.243   2.375  -1.123  1.00  0.00     0.278 C 
ENDBRANCH  24  27
ENDBRANCH  18  19
ENDBRANCH   8  17
ENDBRANCH   4   7
ENDBRANCH   2   3
ENDBRANCH   1   2
BRANCH   1  29
ATOM     29  C   UNL     1       6.015  11.526  -4.995  1.00  0.00     0.023 C 
BRANCH  29  30
ATOM     30  C   UNL     1       6.843  11.797  -6.246  1.00  0.00     0.116 C 
BRANCH  30  31
ATOM     31  N   UNL     1       6.071  12.465  -7.282  1.00  0.00    -0.352 N 
ATOM     32  C   UNL     1       6.440  13.521  -8.081  1.00  0.00     0.251 C 
ATOM     33  H   UNL     1       5.164  12.114  -7.432  1.00  0.00     0.163 HD
ATOM     34  O   UNL     1       5.619  14.078  -8.791  1.00  0.00    -0.269 OA
BRANCH  32  35
ATOM     35  C   UNL     1       7.842  13.983  -8.039  1.00  0.00     0.039 A 
ATOM     36  C   UNL     1       8.099  15.340  -7.843  1.00  0.00     0.014 A 
ATOM     37  C   UNL     1       8.890  13.065  -8.152  1.00  0.00     0.014 A 
ATOM     38  C   UNL     1       9.418  15.771  -7.703  1.00  0.00     0.010 A 
ATOM     39  C   UNL     1      10.197  13.487  -7.939  1.00  0.00     0.010 A 
ATOM     40  C   UNL     1      10.474  14.844  -7.716  1.00  0.00    -0.014 A 
BRANCH  40  41
ATOM     41  C   UNL     1      11.877  15.280  -7.502  1.00  0.00     0.031 A 
ATOM     42  C   UNL     1      12.891  15.107  -8.600  1.00  0.00     0.074 A 
ATOM     43  C   UNL     1      12.243  15.783  -6.307  1.00  0.00     0.049 A 
ATOM     44  N   UNL     1      14.170  15.380  -8.588  1.00  0.00    -0.248 NA
ATOM     45  C   UNL     1      12.412  14.534  -9.870  1.00  0.00     0.031 C 
ATOM     46  C   UNL     1      11.357  15.961  -5.153  1.00  0.00     0.029 A 
ATOM     47  N   UNL     1      13.460  16.235  -5.860  1.00  0.00    -0.354 N 
ATOM     48  C   UNL     1      14.648  15.005  -9.838  1.00  0.00     0.074 A 
ATOM     49  C   UNL     1      13.536  14.433 -10.564  1.00  0.00     0.031 C 
ATOM     50  C   UNL     1      12.053  16.511  -4.144  1.00  0.00     0.029 A 
ATOM     51  C   UNL     1      13.441  16.682  -4.559  1.00  0.00     0.049 A 
ATOM     52  H   UNL     1      14.271  16.239  -6.419  1.00  0.00     0.167 HD
ATOM     53  C   UNL     1      15.894  15.149 -10.346  1.00  0.00     0.031 A 
ATOM     54  C   UNL     1      14.432  17.167  -3.786  1.00  0.00     0.031 A 
ATOM     55  C   UNL     1      16.994  15.730  -9.623  1.00  0.00     0.049 A 
ATOM     56  C   UNL     1      15.815  17.291  -4.369  1.00  0.00     0.074 A 
ATOM     57  C   UNL     1      18.286  15.959 -10.063  1.00  0.00     0.029 A 
ATOM     58  N   UNL     1      16.933  16.174  -8.311  1.00  0.00    -0.354 N 
ATOM     59  N   UNL     1      16.231  16.989  -5.576  1.00  0.00    -0.248 NA
ATOM     60  C   UNL     1      16.860  17.832  -3.489  1.00  0.00     0.031 C 
ATOM     61  C   UNL     1      19.020  16.491  -9.000  1.00  0.00     0.029 A 
ATOM     62  C   UNL     1      18.169  16.657  -7.919  1.00  0.00     0.049 A 
ATOM     63  H   UNL     1      16.129  16.151  -7.743  1.00  0.00     0.167 HD
ATOM     64  C   UNL     1      17.578  17.337  -5.609  1.00  0.00     0.074 A 
ATOM     65  C   UNL     1      17.900  17.888  -4.309  1.00  0.00     0.031 C 
ATOM     66  C   UNL     1      18.468  17.212  -6.624  1.00  0.00     0.031 A 
BRANCH  53  67
ATOM     67  C   UNL     1      16.136  14.681 -11.757  1.00  0.00    -0.014 A 
ATOM     68  C   UNL     1      15.579  15.368 -12.852  1.00  0.00     0.010 A 
ATOM     69  C   UNL     1      16.985  13.586 -11.997  1.00  0.00     0.010 A 
ATOM     70  C   UNL     1      15.847  14.953 -14.159  1.00  0.00     0.020 A 
ATOM     71  C   UNL     1      17.280  13.186 -13.304  1.00  0.00     0.020 A 
ATOM     72  C   UNL     1      16.700  13.867 -14.376  1.00  0.00     0.054 A 
BRANCH  72  73
ATOM     73  S   UNL     1      17.073  13.388 -16.085  1.00  0.00     0.124 S 
ATOM     74  O   UNL     1      15.799  12.824 -16.526  1.00  0.00    -0.237 OA
ATOM     75  O   UNL     1      17.441  14.662 -16.699  1.00  0.00    -0.237 OA
ATOM     76  O   UNL     1      18.164  12.427 -15.948  1.00  0.00    -0.744 OA
ENDBRANCH  72  73
ENDBRANCH  53  67
BRANCH  54  77
ATOM     77  C   UNL     1      14.162  17.570  -2.377  1.00  0.00    -0.014 A 
ATOM     78  C   UNL     1      14.258  18.917  -1.984  1.00  0.00     0.010 A 
ATOM     79  C   UNL     1      13.833  16.601  -1.411  1.00  0.00     0.010 A 
ATOM     80  C   UNL     1      14.073  19.281  -0.646  1.00  0.00     0.020 A 
ATOM     81  C   UNL     1      13.613  16.965  -0.080  1.00  0.00     0.020 A 
ATOM     82  C   UNL     1      13.755  18.301   0.298  1.00  0.00     0.054 A 
BRANCH  82  83
ATOM     83  S   UNL     1      13.511  18.797   2.026  1.00  0.00     0.124 S 
ATOM     84  O   UNL     1      14.875  19.090   2.453  1.00  0.00    -0.237 OA
ATOM     85  O   UNL     1      12.624  19.951   1.901  1.00  0.00    -0.237 OA
ATOM     86  O   UNL     1      12.903  17.617   2.637  1.00  0.00    -0.744 OA
ENDBRANCH  82  83
ENDBRANCH  54  77
BRANCH  66  87
ATOM     87  C   UNL     1      19.866  17.722  -6.389  1.00  0.00    -0.014 A 
ATOM     88  C   UNL     1      20.752  17.059  -5.522  1.00  0.00     0.010 A 
ATOM     89  C   UNL     1      20.315  18.854  -7.095  1.00  0.00     0.010 A 
ATOM     90  C   UNL     1      22.052  17.540  -5.340  1.00  0.00     0.020 A 
ATOM     91  C   UNL     1      21.623  19.318  -6.940  1.00  0.00     0.020 A 
ATOM     92  C   UNL     1      22.479  18.665  -6.052  1.00  0.00     0.054 A 
BRANCH  92  93
ATOM     93  S   UNL     1      24.185  19.240  -5.831  1.00  0.00     0.124 S 
ATOM     94  O   UNL     1      24.141  19.815  -4.489  1.00  0.00    -0.237 OA
ATOM     95  O   UNL     1      24.957  18.006  -5.961  1.00  0.00    -0.237 OA
ATOM     96  O   UNL     1      24.370  20.202  -6.915  1.00  0.00    -0.744 OA
ENDBRANCH  92  93
ENDBRANCH  66  87
ENDBRANCH  40  41
ENDBRANCH  32  35
ENDBRANCH  30  31
ENDBRANCH  29  30
ENDBRANCH   1  29
TORSDOF 18
