REMARK SMILES CC[NH2+][C@H](C)c1cccn1Cc1ccc(C(=O)NCCCCNC(=O)c2ccc(-c3c4nc(c(-c5ccc(S(=O)(=O)[O-])cc5)c5ccc([nH]5)c(-c5ccc(S(=O)(=O)[O-])cc5)c5nc(c(-c6ccc(S(=O)(=O)[O-])cc6)c6ccc3[nH]6)C=C5)C=C4)cc2)cc1
REMARK SMILES IDX 19 1 18 2 16 3 17 4 15 6 12 7 13 8 87 9 14 10 86 11 11 12
REMARK SMILES IDX 10 13 6 14 7 15 8 16 9 17 4 18 5 19 3 20 2 23 1 24 20 25
REMARK SMILES IDX 21 26 22 27 23 28 24 29 25 31 26 32 27 33 85 34 28 35 84 36
REMARK SMILES IDX 29 37 30 38 31 39 78 40 32 41 83 42 77 43 79 44 33 45 82 46
REMARK SMILES IDX 76 47 75 48 34 50 64 51 45 52 63 53 46 54 49 55 62 56 80 57
REMARK SMILES IDX 47 58 48 59 61 61 81 62 50 63 35 64 36 65 44 66 37 67 43 68
REMARK SMILES IDX 38 69 39 70 40 71 41 72 42 73 65 74 66 75 74 76 67 77 73 78
REMARK SMILES IDX 68 79 69 80 70 81 71 82 72 83 51 84 52 85 60 86 53 87 59 88
REMARK SMILES IDX 54 89 55 90 56 91 57 92 58 93
REMARK H PARENT 18 5 3 21 3 22 23 30 79 49 49 60
REMARK Flexibility Score: inf
ROOT
ATOM      1  C   UNL     1       2.390 -10.993  -5.680  1.00  0.00     0.116 C 
ENDROOT
BRANCH   1   2
ATOM      2  N   UNL     1       2.033 -10.157  -6.812  1.00  0.00    -0.352 N 
ATOM      3  C   UNL     1       1.305  -8.998  -6.910  1.00  0.00     0.251 C 
ATOM      4  O   UNL     1       1.165  -8.493  -8.024  1.00  0.00    -0.269 OA
ATOM      5  H   UNL     1       2.380 -10.483  -7.673  1.00  0.00     0.163 HD
BRANCH   3   6
ATOM      6  C   UNL     1       0.722  -8.300  -5.732  1.00  0.00     0.039 A 
ATOM      7  C   UNL     1      -0.243  -6.811  -3.528  1.00  0.00    -0.028 A 
ATOM      8  C   UNL     1       0.175  -6.163  -4.697  1.00  0.00     0.006 A 
ATOM      9  C   UNL     1      -0.253  -8.213  -3.513  1.00  0.00     0.006 A 
ATOM     10  C   UNL     1       0.655  -6.901  -5.785  1.00  0.00     0.014 A 
ATOM     11  C   UNL     1       0.208  -8.950  -4.610  1.00  0.00     0.014 A 
BRANCH   7  12
ATOM     12  C   UNL     1      -0.642  -6.025  -2.298  1.00  0.00     0.157 C 
BRANCH  12  13
ATOM     13  N   UNL     1       0.474  -5.855  -1.363  1.00  0.00    -0.342 N 
ATOM     14  C   UNL     1       1.086  -4.670  -0.977  1.00  0.00     0.076 A 
ATOM     15  C   UNL     1       2.152  -5.026  -0.161  1.00  0.00     0.029 A 
ATOM     16  C   UNL     1       2.111  -6.419   0.051  1.00  0.00     0.020 A 
ATOM     17  C   UNL     1       1.042  -6.899  -0.665  1.00  0.00     0.086 A 
BRANCH  14  18
ATOM     18  C   UNL     1       0.621  -3.294  -1.389  1.00  0.00     0.227 C 
ATOM     19  C   UNL     1       1.048  -2.227  -0.369  1.00  0.00     0.082 C 
BRANCH  18  20
ATOM     20  N   UNL     1       1.163  -2.978  -2.708  1.00  0.00    -0.339 N 
ATOM     21  H   UNL     1       2.153  -2.752  -2.607  1.00  0.00     0.346 HD
ATOM     22  H   UNL     1       1.015  -3.794  -3.301  1.00  0.00     0.346 HD
BRANCH  20  23
ATOM     23  C   UNL     1       0.495  -1.850  -3.349  1.00  0.00     0.257 C 
ATOM     24  C   UNL     1       0.997  -1.680  -4.774  1.00  0.00     0.071 C 
ENDBRANCH  20  23
ENDBRANCH  18  20
ENDBRANCH  14  18
ENDBRANCH  12  13
ENDBRANCH   7  12
ENDBRANCH   3   6
ENDBRANCH   1   2
BRANCH   1  25
ATOM     25  C   UNL     1       1.493 -12.234  -5.626  1.00  0.00     0.023 C 
BRANCH  25  26
ATOM     26  C   UNL     1       1.814 -13.289  -6.696  1.00  0.00     0.023 C 
BRANCH  26  27
ATOM     27  C   UNL     1       3.164 -13.983  -6.506  1.00  0.00     0.116 C 
BRANCH  27  28
ATOM     28  N   UNL     1       3.198 -14.733  -5.261  1.00  0.00    -0.352 N 
ATOM     29  C   UNL     1       4.224 -15.458  -4.707  1.00  0.00     0.251 C 
ATOM     30  H   UNL     1       2.363 -14.720  -4.740  1.00  0.00     0.163 HD
ATOM     31  O   UNL     1       3.960 -16.316  -3.872  1.00  0.00    -0.269 OA
BRANCH  29  32
ATOM     32  C   UNL     1       5.630 -15.232  -5.107  1.00  0.00     0.039 A 
ATOM     33  C   UNL     1       6.457 -16.352  -5.258  1.00  0.00     0.014 A 
ATOM     34  C   UNL     1       6.160 -13.943  -5.237  1.00  0.00     0.014 A 
ATOM     35  C   UNL     1       7.796 -16.181  -5.599  1.00  0.00     0.010 A 
ATOM     36  C   UNL     1       7.495 -13.769  -5.595  1.00  0.00     0.010 A 
ATOM     37  C   UNL     1       8.310 -14.889  -5.793  1.00  0.00    -0.014 A 
BRANCH  37  38
ATOM     38  C   UNL     1       9.659 -14.750  -6.400  1.00  0.00     0.031 A 
ATOM     39  C   UNL     1       9.604 -15.028  -7.930  1.00  0.00     0.074 A 
ATOM     40  C   UNL     1      10.698 -14.485  -5.544  1.00  0.00     0.049 A 
ATOM     41  N   UNL     1      10.505 -15.510  -8.730  1.00  0.00    -0.248 NA
ATOM     42  C   UNL     1       8.321 -14.809  -8.663  1.00  0.00     0.031 C 
ATOM     43  C   UNL     1      10.556 -14.172  -4.098  1.00  0.00     0.029 A 
ATOM     44  N   UNL     1      12.070 -14.423  -5.684  1.00  0.00    -0.354 N 
ATOM     45  C   UNL     1       9.970 -15.526 -10.047  1.00  0.00     0.074 A 
ATOM     46  C   UNL     1       8.596 -15.150  -9.926  1.00  0.00     0.031 C 
ATOM     47  C   UNL     1      11.764 -14.049  -3.498  1.00  0.00     0.029 A 
ATOM     48  C   UNL     1      12.811 -14.272  -4.474  1.00  0.00     0.049 A 
ATOM     49  H   UNL     1      12.509 -14.479  -6.563  1.00  0.00     0.167 HD
ATOM     50  C   UNL     1      10.718 -15.772 -11.166  1.00  0.00     0.031 A 
ATOM     51  C   UNL     1      14.164 -14.393  -4.269  1.00  0.00     0.031 A 
ATOM     52  C   UNL     1      12.050 -16.095 -10.790  1.00  0.00     0.049 A 
ATOM     53  C   UNL     1      14.719 -14.635  -5.608  1.00  0.00     0.074 A 
ATOM     54  C   UNL     1      12.613 -17.226 -10.263  1.00  0.00     0.029 A 
ATOM     55  N   UNL     1      12.911 -15.039 -10.628  1.00  0.00    -0.354 N 
ATOM     56  N   UNL     1      14.850 -13.742  -6.539  1.00  0.00    -0.248 NA
ATOM     57  C   UNL     1      15.066 -16.014  -5.978  1.00  0.00     0.031 C 
ATOM     58  C   UNL     1      13.542 -16.709  -9.336  1.00  0.00     0.029 A 
ATOM     59  C   UNL     1      13.663 -15.326  -9.516  1.00  0.00     0.049 A 
ATOM     60  H   UNL     1      12.976 -14.237 -11.195  1.00  0.00     0.167 HD
ATOM     61  C   UNL     1      14.936 -14.509  -7.671  1.00  0.00     0.074 A 
ATOM     62  C   UNL     1      15.386 -15.818  -7.252  1.00  0.00     0.031 C 
ATOM     63  C   UNL     1      14.177 -14.215  -8.756  1.00  0.00     0.031 A 
BRANCH  50  64
ATOM     64  C   UNL     1      10.470 -15.594 -12.645  1.00  0.00    -0.014 A 
ATOM     65  C   UNL     1      11.374 -16.244 -13.531  1.00  0.00     0.010 A 
ATOM     66  C   UNL     1       9.655 -14.591 -13.186  1.00  0.00     0.010 A 
ATOM     67  C   UNL     1      11.563 -15.819 -14.847  1.00  0.00     0.020 A 
ATOM     68  C   UNL     1       9.814 -14.181 -14.527  1.00  0.00     0.020 A 
ATOM     69  C   UNL     1      10.803 -14.761 -15.329  1.00  0.00     0.054 A 
BRANCH  69  70
ATOM     70  S   UNL     1      11.188 -14.123 -16.985  1.00  0.00     0.124 S 
ATOM     71  O   UNL     1      12.503 -13.519 -16.787  1.00  0.00    -0.237 OA
ATOM     72  O   UNL     1      11.177 -15.336 -17.801  1.00  0.00    -0.237 OA
ATOM     73  O   UNL     1      10.099 -13.189 -17.256  1.00  0.00    -0.744 OA
ENDBRANCH  69  70
ENDBRANCH  50  64
BRANCH  51  74
ATOM     74  C   UNL     1      15.161 -14.504  -3.124  1.00  0.00    -0.014 A 
ATOM     75  C   UNL     1      14.948 -14.193  -1.776  1.00  0.00     0.010 A 
ATOM     76  C   UNL     1      16.450 -15.045  -3.418  1.00  0.00     0.010 A 
ATOM     77  C   UNL     1      15.905 -14.547  -0.780  1.00  0.00     0.020 A 
ATOM     78  C   UNL     1      17.377 -15.443  -2.451  1.00  0.00     0.020 A 
ATOM     79  C   UNL     1      17.087 -15.218  -1.121  1.00  0.00     0.054 A 
BRANCH  79  80
ATOM     80  S   UNL     1      18.189 -15.917   0.146  1.00  0.00     0.124 S 
ATOM     81  O   UNL     1      18.974 -14.759   0.559  1.00  0.00    -0.237 OA
ATOM     82  O   UNL     1      17.250 -16.433   1.139  1.00  0.00    -0.237 OA
ATOM     83  O   UNL     1      18.933 -16.948  -0.578  1.00  0.00    -0.744 OA
ENDBRANCH  79  80
ENDBRANCH  51  74
BRANCH  63  84
ATOM     84  C   UNL     1      13.664 -12.784  -8.833  1.00  0.00    -0.014 A 
ATOM     85  C   UNL     1      14.590 -11.733  -8.950  1.00  0.00     0.010 A 
ATOM     86  C   UNL     1      12.300 -12.436  -8.726  1.00  0.00     0.010 A 
ATOM     87  C   UNL     1      14.178 -10.393  -8.973  1.00  0.00     0.020 A 
ATOM     88  C   UNL     1      11.876 -11.093  -8.749  1.00  0.00     0.020 A 
ATOM     89  C   UNL     1      12.822 -10.077  -8.879  1.00  0.00     0.054 A 
BRANCH  89  90
ATOM     90  S   UNL     1      12.332  -8.327  -8.936  1.00  0.00     0.124 S 
ATOM     91  O   UNL     1      13.044  -7.755  -7.796  1.00  0.00    -0.237 OA
ATOM     92  O   UNL     1      12.818  -7.908 -10.248  1.00  0.00    -0.237 OA
ATOM     93  O   UNL     1      10.877  -8.364  -8.797  1.00  0.00    -0.744 OA
ENDBRANCH  89  90
ENDBRANCH  63  84
ENDBRANCH  37  38
ENDBRANCH  29  32
ENDBRANCH  27  28
ENDBRANCH  26  27
ENDBRANCH  25  26
ENDBRANCH   1  25
TORSDOF 19
