REMARK SMILES CC(C)CN(C)c1cc2c(cc1Cl)C=C(C(=O)NCCCCNC(=O)c1ccc(-c3c4nc(c(-c5ccc(S(=O)(=O)[O-])cc5)c5ccc([nH]5)c(-c5ccc(S(=O)(=O)[O-])cc5)c5nc(c(-c6ccc(S(=O)(=O)[O-])cc6)c6ccc3[nH]6)C=C5)C=C4)cc1)[C@@H](C(F)(F)F)O2
REMARK SMILES IDX 20 1 19 2 18 3 16 4 17 5 15 7 7 8 8 9 12 10 9 11 11 12 13 13
REMARK SMILES IDX 10 14 91 15 14 16 86 17 5 18 6 19 4 20 2 21 1 22 3 23 87 24
REMARK SMILES IDX 88 25 89 26 90 27 21 28 22 29 23 30 24 31 25 33 26 34 27 35
REMARK SMILES IDX 85 36 28 37 84 38 29 39 30 40 31 41 78 42 32 43 83 44 77 45
REMARK SMILES IDX 79 46 33 47 82 48 76 49 75 50 34 52 64 53 45 54 63 55 46 56
REMARK SMILES IDX 49 57 62 58 80 59 47 60 48 61 61 63 81 64 50 65 35 66 36 67
REMARK SMILES IDX 44 68 37 69 43 70 38 71 39 72 40 73 41 74 42 75 65 76 66 77
REMARK SMILES IDX 74 78 67 79 73 80 68 81 69 82 70 83 71 84 72 85 51 86 52 87
REMARK SMILES IDX 60 88 53 89 59 90 54 91 55 92 56 93 57 94 58 95
REMARK H PARENT 18 6 23 32 79 51 49 62
REMARK Flexibility Score: inf
ROOT
ATOM      1  C   UNL     1      -4.107   4.621  -7.438  1.00  0.00     0.023 C 
ENDROOT
BRANCH   1   2
ATOM      2  C   UNL     1      -3.118   3.540  -7.863  1.00  0.00     0.116 C 
BRANCH   2   3
ATOM      3  N   UNL     1      -1.752   3.885  -7.515  1.00  0.00    -0.352 N 
ATOM      4  C   UNL     1      -0.829   3.453  -6.624  1.00  0.00     0.251 C 
ATOM      5  O   UNL     1       0.276   3.999  -6.699  1.00  0.00    -0.270 OA
ATOM      6  H   UNL     1      -1.409   4.622  -8.070  1.00  0.00     0.163 HD
BRANCH   4   7
ATOM      7  C   UNL     1      -1.058   2.405  -5.591  1.00  0.00     0.067 C 
ATOM      8  C   UNL     1      -0.597  -0.832  -1.750  1.00  0.00     0.059 A 
ATOM      9  C   UNL     1      -1.649  -0.049  -2.255  1.00  0.00     0.074 A 
ATOM     10  C   UNL     1       0.673  -0.690  -2.355  1.00  0.00     0.065 A 
ATOM     11  C   UNL     1      -1.434   0.826  -3.318  1.00  0.00     0.130 A 
ATOM     12  C   UNL     1       0.902   0.259  -3.360  1.00  0.00     0.034 A 
ATOM     13  Cl  UNL     1       2.008  -1.710  -1.931  1.00  0.00    -0.082 Cl
ATOM     14  C   UNL     1      -0.156   1.020  -3.844  1.00  0.00     0.019 A 
ATOM     15  O   UNL     1      -2.527   1.470  -3.840  1.00  0.00    -0.475 OA
ATOM     16  C   UNL     1       0.027   2.018  -4.892  1.00  0.00     0.025 C 
ATOM     17  C   UNL     1      -2.387   1.782  -5.263  1.00  0.00     0.314 C 
BRANCH   8  18
ATOM     18  N   UNL     1      -0.830  -1.730  -0.696  1.00  0.00    -0.373 N 
ATOM     19  C   UNL     1      -1.825  -2.762  -0.978  1.00  0.00     0.143 C 
BRANCH  18  20
ATOM     20  C   UNL     1      -0.841  -1.160   0.665  1.00  0.00     0.119 C 
BRANCH  20  21
ATOM     21  C   UNL     1       0.580  -0.992   1.240  1.00  0.00     0.002 C 
ATOM     22  C   UNL     1       1.106   0.433   1.050  1.00  0.00     0.009 C 
ATOM     23  C   UNL     1       0.612  -1.341   2.731  1.00  0.00     0.009 C 
ENDBRANCH  20  21
ENDBRANCH  18  20
ENDBRANCH   8  18
BRANCH  17  24
ATOM     24  C   UNL     1      -2.678   0.528  -6.122  1.00  0.00     0.429 C 
ATOM     25  F   UNL     1      -3.999   0.224  -6.082  1.00  0.00    -0.167 F 
ATOM     26  F   UNL     1      -2.362   0.710  -7.427  1.00  0.00    -0.167 F 
ATOM     27  F   UNL     1      -2.003  -0.571  -5.715  1.00  0.00    -0.167 F 
ENDBRANCH  17  24
ENDBRANCH   4   7
ENDBRANCH   2   3
ENDBRANCH   1   2
BRANCH   1  28
ATOM     28  C   UNL     1      -4.208   5.800  -8.406  1.00  0.00     0.023 C 
BRANCH  28  29
ATOM     29  C   UNL     1      -4.548   5.436  -9.850  1.00  0.00     0.116 C 
BRANCH  29  30
ATOM     30  N   UNL     1      -5.736   4.603  -9.998  1.00  0.00    -0.352 N 
ATOM     31  C   UNL     1      -6.574   4.533 -11.091  1.00  0.00     0.251 C 
ATOM     32  H   UNL     1      -5.965   4.026  -9.233  1.00  0.00     0.163 HD
ATOM     33  O   UNL     1      -7.566   3.816 -11.091  1.00  0.00    -0.269 OA
BRANCH  31  34
ATOM     34  C   UNL     1      -6.264   5.407 -12.238  1.00  0.00     0.039 A 
ATOM     35  C   UNL     1      -5.022   5.298 -12.867  1.00  0.00     0.014 A 
ATOM     36  C   UNL     1      -7.133   6.459 -12.528  1.00  0.00     0.014 A 
ATOM     37  C   UNL     1      -4.572   6.350 -13.655  1.00  0.00     0.010 A 
ATOM     38  C   UNL     1      -6.701   7.483 -13.370  1.00  0.00     0.010 A 
ATOM     39  C   UNL     1      -5.391   7.470 -13.877  1.00  0.00    -0.014 A 
BRANCH  39  40
ATOM     40  C   UNL     1      -4.837   8.664 -14.559  1.00  0.00     0.031 A 
ATOM     41  C   UNL     1      -4.619   9.939 -13.786  1.00  0.00     0.074 A 
ATOM     42  C   UNL     1      -4.464   8.586 -15.849  1.00  0.00     0.049 A 
ATOM     43  N   UNL     1      -4.192  11.098 -14.216  1.00  0.00    -0.248 NA
ATOM     44  C   UNL     1      -4.914   9.909 -12.343  1.00  0.00     0.031 C 
ATOM     45  C   UNL     1      -4.562   7.385 -16.678  1.00  0.00     0.029 A 
ATOM     46  N   UNL     1      -3.906   9.525 -16.677  1.00  0.00    -0.354 N 
ATOM     47  C   UNL     1      -4.185  11.937 -13.108  1.00  0.00     0.074 A 
ATOM     48  C   UNL     1      -4.668  11.162 -11.986  1.00  0.00     0.031 C 
ATOM     49  C   UNL     1      -4.036   7.646 -17.884  1.00  0.00     0.029 A 
ATOM     50  C   UNL     1      -3.630   9.049 -17.935  1.00  0.00     0.049 A 
ATOM     51  H   UNL     1      -3.720  10.450 -16.397  1.00  0.00     0.167 HD
ATOM     52  C   UNL     1      -3.805  13.234 -13.032  1.00  0.00     0.031 A 
ATOM     53  C   UNL     1      -3.126   9.671 -19.019  1.00  0.00     0.031 A 
ATOM     54  C   UNL     1      -3.317  13.996 -14.149  1.00  0.00     0.049 A 
ATOM     55  C   UNL     1      -2.777  11.127 -18.935  1.00  0.00     0.074 A 
ATOM     56  C   UNL     1      -2.936  15.326 -14.179  1.00  0.00     0.029 A 
ATOM     57  N   UNL     1      -3.129  13.495 -15.428  1.00  0.00    -0.354 N 
ATOM     58  N   UNL     1      -2.844  11.923 -17.896  1.00  0.00    -0.248 NA
ATOM     59  C   UNL     1      -2.305  11.775 -20.166  1.00  0.00     0.031 C 
ATOM     60  C   UNL     1      -2.555  15.639 -15.486  1.00  0.00     0.029 A 
ATOM     61  C   UNL     1      -2.651  14.492 -16.258  1.00  0.00     0.049 A 
ATOM     62  H   UNL     1      -3.309  12.567 -15.704  1.00  0.00     0.167 HD
ATOM     63  C   UNL     1      -2.425  13.169 -18.346  1.00  0.00     0.074 A 
ATOM     64  C   UNL     1      -2.092  13.018 -19.748  1.00  0.00     0.031 C 
ATOM     65  C   UNL     1      -2.332  14.330 -17.655  1.00  0.00     0.031 A 
BRANCH  52  66
ATOM     66  C   UNL     1      -3.918  13.926 -11.701  1.00  0.00    -0.014 A 
ATOM     67  C   UNL     1      -4.921  14.892 -11.500  1.00  0.00     0.010 A 
ATOM     68  C   UNL     1      -2.990  13.677 -10.675  1.00  0.00     0.010 A 
ATOM     69  C   UNL     1      -4.992  15.603 -10.299  1.00  0.00     0.020 A 
ATOM     70  C   UNL     1      -3.071  14.372  -9.464  1.00  0.00     0.020 A 
ATOM     71  C   UNL     1      -4.063  15.341  -9.289  1.00  0.00     0.054 A 
BRANCH  71  72
ATOM     72  S   UNL     1      -4.181  16.247  -7.721  1.00  0.00     0.124 S 
ATOM     73  O   UNL     1      -3.490  17.493  -8.032  1.00  0.00    -0.237 OA
ATOM     74  O   UNL     1      -5.624  16.357  -7.518  1.00  0.00    -0.237 OA
ATOM     75  O   UNL     1      -3.498  15.368  -6.773  1.00  0.00    -0.744 OA
ENDBRANCH  71  72
ENDBRANCH  52  66
BRANCH  53  76
ATOM     76  C   UNL     1      -2.940   8.881 -20.264  1.00  0.00    -0.014 A 
ATOM     77  C   UNL     1      -4.061   8.446 -20.997  1.00  0.00     0.010 A 
ATOM     78  C   UNL     1      -1.661   8.436 -20.635  1.00  0.00     0.010 A 
ATOM     79  C   UNL     1      -3.913   7.522 -22.032  1.00  0.00     0.020 A 
ATOM     80  C   UNL     1      -1.507   7.528 -21.687  1.00  0.00     0.020 A 
ATOM     81  C   UNL     1      -2.639   7.050 -22.354  1.00  0.00     0.054 A 
BRANCH  81  82
ATOM     82  S   UNL     1      -2.474   5.775 -23.634  1.00  0.00     0.124 S 
ATOM     83  O   UNL     1      -2.810   4.563 -22.892  1.00  0.00    -0.237 OA
ATOM     84  O   UNL     1      -3.453   6.193 -24.634  1.00  0.00    -0.237 OA
ATOM     85  O   UNL     1      -1.078   5.890 -24.048  1.00  0.00    -0.744 OA
ENDBRANCH  81  82
ENDBRANCH  53  76
BRANCH  65  86
ATOM     86  C   UNL     1      -1.864  15.558 -18.385  1.00  0.00    -0.014 A 
ATOM     87  C   UNL     1      -0.580  16.072 -18.132  1.00  0.00     0.010 A 
ATOM     88  C   UNL     1      -2.757  16.291 -19.186  1.00  0.00     0.010 A 
ATOM     89  C   UNL     1      -0.209  17.322 -18.631  1.00  0.00     0.020 A 
ATOM     90  C   UNL     1      -2.383  17.535 -19.701  1.00  0.00     0.020 A 
ATOM     91  C   UNL     1      -1.121  18.055 -19.396  1.00  0.00     0.054 A 
BRANCH  91  92
ATOM     92  S   UNL     1      -0.650  19.707 -19.977  1.00  0.00     0.124 S 
ATOM     93  O   UNL     1      -0.838  20.519 -18.779  1.00  0.00    -0.237 OA
ATOM     94  O   UNL     1       0.736  19.518 -20.399  1.00  0.00    -0.237 OA
ATOM     95  O   UNL     1      -1.593  19.968 -21.064  1.00  0.00    -0.744 OA
ENDBRANCH  91  92
ENDBRANCH  65  86
ENDBRANCH  39  40
ENDBRANCH  31  34
ENDBRANCH  29  30
ENDBRANCH  28  29
ENDBRANCH   1  28
TORSDOF 18
