REMARK SMILES [NH3+]C[C@@H](Cc1ccc(Br)cc1)C(=O)NCCCCNC(=O)c1ccc(-c2c3nc(c(-c4ccc(S(=O)(=O)[O-])cc4)c4ccc([nH]4)c(-c4ccc(S(=O)(=O)[O-])cc4)c4nc(c(-c5ccc(S(=O)(=O)[O-])cc5)c5ccc2[nH]5)C=C4)C=C3)cc1
REMARK SMILES IDX 17 1 16 2 15 3 14 4 12 5 13 6 3 8 2 9 1 10 4 14 5 15 6 16
REMARK SMILES IDX 11 17 7 18 10 19 8 20 9 21 18 22 19 23 20 24 21 26 22 27
REMARK SMILES IDX 23 28 81 29 24 30 80 31 25 32 26 33 27 34 74 35 28 36 79 37
REMARK SMILES IDX 73 38 75 39 29 40 78 41 72 42 71 43 30 45 60 46 41 47 59 48
REMARK SMILES IDX 42 49 45 50 58 51 76 52 43 53 44 54 57 56 77 57 46 58 31 59
REMARK SMILES IDX 32 60 40 61 33 62 39 63 34 64 35 65 36 66 37 67 38 68 61 69
REMARK SMILES IDX 62 70 70 71 63 72 69 73 64 74 65 75 66 76 67 77 68 78 47 79
REMARK SMILES IDX 48 80 56 81 49 82 55 83 50 84 51 85 52 86 53 87 54 88
REMARK H PARENT 14 7 1 11 1 12 1 13 19 25 75 44 45 55
REMARK Flexibility Score: inf
ROOT
ATOM      1  C   UNL     1      -3.637  -4.288   1.243  1.00  0.00     0.023 C 
ENDROOT
BRANCH   1   2
ATOM      2  C   UNL     1      -2.763  -3.139   0.736  1.00  0.00     0.023 C 
BRANCH   2   3
ATOM      3  C   UNL     1      -2.007  -2.386   1.823  1.00  0.00     0.116 C 
BRANCH   3   4
ATOM      4  N   UNL     1      -0.758  -3.012   2.203  1.00  0.00    -0.356 N 
ATOM      5  C   UNL     1       0.470  -2.473   2.424  1.00  0.00     0.229 C 
ATOM      6  O   UNL     1       1.297  -3.190   2.998  1.00  0.00    -0.275 OA
ATOM      7  H   UNL     1      -0.806  -3.988   2.321  1.00  0.00     0.163 HD
BRANCH   5   8
ATOM      8  C   UNL     1       0.871  -1.054   2.010  1.00  0.00     0.137 C 
BRANCH   8   9
ATOM      9  C   UNL     1       0.571  -0.735   0.538  1.00  0.00     0.272 C 
BRANCH   9  10
ATOM     10  N   UNL     1       1.311   0.418   0.017  1.00  0.00    -0.357 N 
ATOM     11  H   UNL     1       1.062   0.568  -0.961  1.00  0.00     0.344 HD
ATOM     12  H   UNL     1       2.313   0.240   0.089  1.00  0.00     0.344 HD
ATOM     13  H   UNL     1       1.074   1.249   0.559  1.00  0.00     0.344 HD
ENDBRANCH   9  10
ENDBRANCH   8   9
BRANCH   8  14
ATOM     14  C   UNL     1       0.538   0.022   3.064  1.00  0.00     0.055 C 
BRANCH  14  15
ATOM     15  C   UNL     1      -0.904   0.420   3.254  1.00  0.00    -0.047 A 
ATOM     16  C   UNL     1      -1.704  -0.247   4.194  1.00  0.00     0.005 A 
ATOM     17  C   UNL     1      -1.472   1.458   2.501  1.00  0.00     0.005 A 
ATOM     18  C   UNL     1      -3.059   0.066   4.328  1.00  0.00     0.016 A 
ATOM     19  C   UNL     1      -2.823   1.785   2.647  1.00  0.00     0.016 A 
ATOM     20  C   UNL     1      -3.614   1.075   3.547  1.00  0.00     0.017 A 
ATOM     21  Br  UNL     1      -5.454   1.475   3.698  1.00  0.00    -0.051 Br
ENDBRANCH  14  15
ENDBRANCH   8  14
ENDBRANCH   5   8
ENDBRANCH   3   4
ENDBRANCH   2   3
ENDBRANCH   1   2
BRANCH   1  22
ATOM     22  C   UNL     1      -4.620  -3.946   2.363  1.00  0.00     0.116 C 
BRANCH  22  23
ATOM     23  N   UNL     1      -5.473  -2.801   2.082  1.00  0.00    -0.352 N 
ATOM     24  C   UNL     1      -6.778  -2.595   2.466  1.00  0.00     0.251 C 
ATOM     25  H   UNL     1      -5.063  -2.081   1.549  1.00  0.00     0.163 HD
ATOM     26  O   UNL     1      -7.392  -1.610   2.064  1.00  0.00    -0.269 OA
BRANCH  24  27
ATOM     27  C   UNL     1      -7.450  -3.591   3.328  1.00  0.00     0.039 A 
ATOM     28  C   UNL     1      -8.708  -4.068   2.952  1.00  0.00     0.014 A 
ATOM     29  C   UNL     1      -6.827  -4.081   4.479  1.00  0.00     0.014 A 
ATOM     30  C   UNL     1      -9.310  -5.087   3.693  1.00  0.00     0.010 A 
ATOM     31  C   UNL     1      -7.396  -5.145   5.174  1.00  0.00     0.010 A 
ATOM     32  C   UNL     1      -8.644  -5.658   4.790  1.00  0.00    -0.014 A 
BRANCH  32  33
ATOM     33  C   UNL     1      -9.242  -6.790   5.544  1.00  0.00     0.031 A 
ATOM     34  C   UNL     1      -9.640  -6.614   6.985  1.00  0.00     0.074 A 
ATOM     35  C   UNL     1      -9.379  -7.991   4.948  1.00  0.00     0.049 A 
ATOM     36  N   UNL     1     -10.174  -7.483   7.804  1.00  0.00    -0.248 NA
ATOM     37  C   UNL     1      -9.379  -5.299   7.592  1.00  0.00     0.031 C 
ATOM     38  C   UNL     1      -8.981  -8.307   3.574  1.00  0.00     0.029 A 
ATOM     39  N   UNL     1      -9.894  -9.172   5.422  1.00  0.00    -0.354 N 
ATOM     40  C   UNL     1     -10.293  -6.829   9.025  1.00  0.00     0.074 A 
ATOM     41  C   UNL     1      -9.730  -5.508   8.852  1.00  0.00     0.031 C 
ATOM     42  C   UNL     1      -9.305  -9.583   3.304  1.00  0.00     0.029 A 
ATOM     43  C   UNL     1      -9.904 -10.184   4.491  1.00  0.00     0.049 A 
ATOM     44  H   UNL     1     -10.225  -9.284   6.343  1.00  0.00     0.167 HD
ATOM     45  C   UNL     1     -10.838  -7.278  10.182  1.00  0.00     0.031 A 
ATOM     46  C   UNL     1     -10.359 -11.449   4.578  1.00  0.00     0.031 A 
ATOM     47  C   UNL     1     -11.416  -8.585  10.346  1.00  0.00     0.049 A 
ATOM     48  C   UNL     1     -10.992 -11.915   5.861  1.00  0.00     0.074 A 
ATOM     49  C   UNL     1     -12.050  -9.114  11.456  1.00  0.00     0.029 A 
ATOM     50  N   UNL     1     -11.431  -9.570   9.370  1.00  0.00    -0.354 N 
ATOM     51  N   UNL     1     -11.162 -11.256   6.983  1.00  0.00    -0.248 NA
ATOM     52  C   UNL     1     -11.516 -13.287   5.880  1.00  0.00     0.031 C 
ATOM     53  C   UNL     1     -12.416 -10.433  11.164  1.00  0.00     0.029 A 
ATOM     54  C   UNL     1     -12.055 -10.707   9.854  1.00  0.00     0.049 A 
ATOM     55  H   UNL     1     -11.055  -9.474   8.465  1.00  0.00     0.167 HD
ATOM     56  C   UNL     1     -11.848 -12.121   7.828  1.00  0.00     0.074 A 
ATOM     57  C   UNL     1     -12.065 -13.347   7.085  1.00  0.00     0.031 C 
ATOM     58  C   UNL     1     -12.269 -11.916   9.101  1.00  0.00     0.031 A 
BRANCH  45  59
ATOM     59  C   UNL     1     -10.823  -6.341  11.361  1.00  0.00    -0.014 A 
ATOM     60  C   UNL     1     -11.628  -5.187  11.384  1.00  0.00     0.010 A 
ATOM     61  C   UNL     1     -10.001  -6.623  12.466  1.00  0.00     0.010 A 
ATOM     62  C   UNL     1     -11.568  -4.303  12.464  1.00  0.00     0.020 A 
ATOM     63  C   UNL     1      -9.959  -5.756  13.562  1.00  0.00     0.020 A 
ATOM     64  C   UNL     1     -10.726  -4.589  13.543  1.00  0.00     0.054 A 
BRANCH  64  65
ATOM     65  S   UNL     1     -10.662  -3.424  14.932  1.00  0.00     0.124 S 
ATOM     66  O   UNL     1      -9.857  -2.339  14.376  1.00  0.00    -0.237 OA
ATOM     67  O   UNL     1     -12.071  -3.109  15.155  1.00  0.00    -0.237 OA
ATOM     68  O   UNL     1     -10.023  -4.191  15.998  1.00  0.00    -0.744 OA
ENDBRANCH  64  65
ENDBRANCH  45  59
BRANCH  46  69
ATOM     69  C   UNL     1     -10.288 -12.348   3.394  1.00  0.00    -0.014 A 
ATOM     70  C   UNL     1     -11.456 -12.677   2.684  1.00  0.00     0.010 A 
ATOM     71  C   UNL     1      -9.055 -12.868   2.961  1.00  0.00     0.010 A 
ATOM     72  C   UNL     1     -11.398 -13.524   1.574  1.00  0.00     0.020 A 
ATOM     73  C   UNL     1      -8.989 -13.696   1.836  1.00  0.00     0.020 A 
ATOM     74  C   UNL     1     -10.163 -14.028   1.156  1.00  0.00     0.054 A 
BRANCH  74  75
ATOM     75  S   UNL     1     -10.103 -15.082  -0.320  1.00  0.00     0.124 S 
ATOM     76  O   UNL     1     -10.640 -16.342   0.185  1.00  0.00    -0.237 OA
ATOM     77  O   UNL     1     -10.957 -14.361  -1.260  1.00  0.00    -0.237 OA
ATOM     78  O   UNL     1      -8.684 -15.100  -0.668  1.00  0.00    -0.744 OA
ENDBRANCH  74  75
ENDBRANCH  46  69
BRANCH  58  79
ATOM     79  C   UNL     1     -13.055 -13.021   9.754  1.00  0.00    -0.014 A 
ATOM     80  C   UNL     1     -12.439 -14.212  10.175  1.00  0.00     0.010 A 
ATOM     81  C   UNL     1     -14.432 -12.842   9.982  1.00  0.00     0.010 A 
ATOM     82  C   UNL     1     -13.195 -15.223  10.774  1.00  0.00     0.020 A 
ATOM     83  C   UNL     1     -15.186 -13.839  10.605  1.00  0.00     0.020 A 
ATOM     84  C   UNL     1     -14.565 -15.032  10.981  1.00  0.00     0.054 A 
BRANCH  84  85
ATOM     85  S   UNL     1     -15.523 -16.346  11.784  1.00  0.00     0.124 S 
ATOM     86  O   UNL     1     -15.681 -17.311  10.699  1.00  0.00    -0.237 OA
ATOM     87  O   UNL     1     -14.646 -16.765  12.874  1.00  0.00    -0.237 OA
ATOM     88  O   UNL     1     -16.749 -15.673  12.204  1.00  0.00    -0.744 OA
ENDBRANCH  84  85
ENDBRANCH  58  79
ENDBRANCH  32  33
ENDBRANCH  24  27
ENDBRANCH  22  23
ENDBRANCH   1  22
TORSDOF 18
