REMARK SMILES CCOC(=O)c1c(NC(=O)[C@@H]2[C@@H]3CC[C@@H](C3)[C@@H]2C(=O)NCCCCNC(=O)c2ccc(-c3c4nc(c(-c5ccc(S(=O)(=O)[O-])cc5)c5ccc([nH]5)c(-c5ccc(S(=O)(=O)[O-])cc5)c5nc(c(-c6ccc(S(=O)(=O)[O-])cc6)c6ccc3[nH]6)C=C5)C=C4)cc2)sc2c1CCCC2
REMARK SMILES IDX 21 1 20 2 18 3 19 4 17 6 11 7 12 8 13 9 16 10 15 11 14 12
REMARK SMILES IDX 9 13 8 14 10 16 7 17 6 18 90 19 88 20 89 21 91 22 94 23
REMARK SMILES IDX 92 24 93 25 4 26 5 27 3 28 2 29 1 30 22 31 23 32 24 33 25 34
REMARK SMILES IDX 26 35 27 37 28 38 29 39 87 40 30 41 86 42 31 43 32 44 33 45
REMARK SMILES IDX 80 46 34 47 85 48 79 49 81 50 35 51 84 52 78 53 77 54 36 56
REMARK SMILES IDX 66 57 47 58 65 59 48 60 51 61 64 62 82 63 49 64 50 65 63 67
REMARK SMILES IDX 83 68 52 69 37 70 38 71 46 72 39 73 45 74 40 75 41 76 42 77
REMARK SMILES IDX 43 78 44 79 67 80 68 81 76 82 69 83 75 84 70 85 71 86 72 87
REMARK SMILES IDX 73 88 74 89 53 90 54 91 62 92 55 93 61 94 56 95 57 96 58 97
REMARK SMILES IDX 59 98 60 99
REMARK H PARENT 20 5 8 15 25 36 81 55 51 66
REMARK Flexibility Score: inf
ROOT
ATOM      1  C   UNL     1       0.600  -5.101  -2.146  1.00  0.00     0.116 C 
ENDROOT
BRANCH   1   2
ATOM      2  N   UNL     1      -0.234  -4.118  -1.427  1.00  0.00    -0.356 N 
ATOM      3  C   UNL     1       0.124  -2.985  -0.711  1.00  0.00     0.224 C 
ATOM      4  O   UNL     1      -0.721  -2.273  -0.173  1.00  0.00    -0.275 OA
ATOM      5  H   UNL     1      -1.201  -4.295  -1.462  1.00  0.00     0.163 HD
BRANCH   3   6
ATOM      6  C   UNL     1       1.595  -2.763  -0.593  1.00  0.00     0.094 C 
ATOM      7  C   UNL     1       2.424  -1.785   0.265  1.00  0.00     0.094 C 
ATOM      8  C   UNL     1       3.765  -1.923  -0.506  1.00  0.00     0.002 C 
ATOM      9  C   UNL     1       3.689  -0.816  -1.480  1.00  0.00     0.005 C 
ATOM     10  C   UNL     1       3.638  -3.042  -1.564  1.00  0.00     0.009 C 
ATOM     11  C   UNL     1       2.248  -2.583  -1.967  1.00  0.00     0.002 C 
ATOM     12  C   UNL     1       2.404  -1.110  -2.269  1.00  0.00     0.005 C 
BRANCH   7  13
ATOM     13  C   UNL     1       1.902  -0.335   0.644  1.00  0.00     0.229 C 
ATOM     14  N   UNL     1       1.831   0.888   0.026  1.00  0.00    -0.317 N 
ATOM     15  H   UNL     1       1.391   1.476   0.681  1.00  0.00     0.170 HD
ATOM     16  O   UNL     1       1.404  -0.274   1.792  1.00  0.00    -0.274 OA
BRANCH  14  17
ATOM     17  C   UNL     1       2.083   1.722  -1.097  1.00  0.00     0.110 A 
ATOM     18  C   UNL     1       2.769   1.941  -2.329  1.00  0.00     0.098 A 
ATOM     19  C   UNL     1       2.003   2.902  -3.138  1.00  0.00    -0.017 A 
ATOM     20  S   UNL     1       1.004   3.084  -0.821  1.00  0.00    -0.122 S 
ATOM     21  C   UNL     1       1.015   3.545  -2.440  1.00  0.00     0.011 A 
ATOM     22  C   UNL     1       2.189   3.135  -4.620  1.00  0.00     0.038 C 
ATOM     23  C   UNL     1       0.079   4.567  -3.011  1.00  0.00     0.047 C 
ATOM     24  C   UNL     1       1.518   4.417  -5.104  1.00  0.00     0.005 C 
ATOM     25  C   UNL     1       0.096   4.531  -4.551  1.00  0.00     0.006 C 
BRANCH  18  26
ATOM     26  C   UNL     1       3.896   1.289  -3.080  1.00  0.00     0.341 C 
ATOM     27  O   UNL     1       3.720   0.884  -4.229  1.00  0.00    -0.246 OA
BRANCH  26  28
ATOM     28  O   UNL     1       5.146   1.208  -2.487  1.00  0.00    -0.462 OA
BRANCH  28  29
ATOM     29  C   UNL     1       6.132   0.452  -3.268  1.00  0.00     0.230 C 
ATOM     30  C   UNL     1       6.892  -0.599  -2.447  1.00  0.00     0.049 C 
ENDBRANCH  28  29
ENDBRANCH  26  28
ENDBRANCH  18  26
ENDBRANCH  14  17
ENDBRANCH   7  13
ENDBRANCH   3   6
ENDBRANCH   1   2
BRANCH   1  31
ATOM     31  C   UNL     1       1.195  -6.211  -1.290  1.00  0.00     0.023 C 
BRANCH  31  32
ATOM     32  C   UNL     1       0.141  -7.118  -0.693  1.00  0.00     0.023 C 
BRANCH  32  33
ATOM     33  C   UNL     1      -0.881  -7.586  -1.713  1.00  0.00     0.116 C 
BRANCH  33  34
ATOM     34  N   UNL     1      -0.274  -8.280  -2.844  1.00  0.00    -0.352 N 
ATOM     35  C   UNL     1      -0.753  -9.397  -3.483  1.00  0.00     0.251 C 
ATOM     36  H   UNL     1       0.571  -7.908  -3.186  1.00  0.00     0.163 HD
ATOM     37  O   UNL     1      -0.088  -9.982  -4.328  1.00  0.00    -0.269 OA
BRANCH  35  38
ATOM     38  C   UNL     1      -2.082  -9.885  -3.078  1.00  0.00     0.039 A 
ATOM     39  C   UNL     1      -2.196 -11.180  -2.575  1.00  0.00     0.014 A 
ATOM     40  C   UNL     1      -3.163  -8.998  -3.053  1.00  0.00     0.014 A 
ATOM     41  C   UNL     1      -3.396 -11.569  -1.984  1.00  0.00     0.010 A 
ATOM     42  C   UNL     1      -4.323  -9.360  -2.384  1.00  0.00     0.010 A 
ATOM     43  C   UNL     1      -4.450 -10.649  -1.845  1.00  0.00    -0.014 A 
BRANCH  43  44
ATOM     44  C   UNL     1      -5.690 -11.017  -1.121  1.00  0.00     0.031 A 
ATOM     45  C   UNL     1      -7.004 -11.043  -1.850  1.00  0.00     0.074 A 
ATOM     46  C   UNL     1      -5.634 -11.279   0.200  1.00  0.00     0.049 A 
ATOM     47  N   UNL     1      -8.194 -11.318  -1.386  1.00  0.00    -0.248 NA
ATOM     48  C   UNL     1      -6.982 -10.694  -3.281  1.00  0.00     0.031 C 
ATOM     49  C   UNL     1      -4.422 -11.239   1.024  1.00  0.00     0.029 A 
ATOM     50  N   UNL     1      -6.622 -11.632   1.084  1.00  0.00    -0.354 N 
ATOM     51  C   UNL     1      -9.061 -11.170  -2.462  1.00  0.00     0.074 A 
ATOM     52  C   UNL     1      -8.271 -10.725  -3.587  1.00  0.00     0.031 C 
ATOM     53  C   UNL     1      -4.733 -11.590   2.282  1.00  0.00     0.029 A 
ATOM     54  C   UNL     1      -6.169 -11.833   2.368  1.00  0.00     0.049 A 
ATOM     55  H   UNL     1      -7.566 -11.733   0.825  1.00  0.00     0.167 HD
ATOM     56  C   UNL     1     -10.393 -11.406  -2.512  1.00  0.00     0.031 A 
ATOM     57  C   UNL     1      -6.837 -12.166   3.489  1.00  0.00     0.031 A 
ATOM     58  C   UNL     1     -11.172 -11.850  -1.388  1.00  0.00     0.049 A 
ATOM     59  C   UNL     1      -8.322 -12.395   3.410  1.00  0.00     0.074 A 
ATOM     60  C   UNL     1     -12.519 -12.165  -1.349  1.00  0.00     0.029 A 
ATOM     61  N   UNL     1     -10.680 -12.035  -0.105  1.00  0.00    -0.354 N 
ATOM     62  N   UNL     1      -9.112 -12.325   2.365  1.00  0.00    -0.248 NA
ATOM     63  C   UNL     1      -9.004 -12.757   4.660  1.00  0.00     0.031 C 
ATOM     64  C   UNL     1     -12.854 -12.480  -0.029  1.00  0.00     0.029 A 
ATOM     65  C   UNL     1     -11.702 -12.430   0.741  1.00  0.00     0.049 A 
ATOM     66  H   UNL     1      -9.742 -11.905   0.165  1.00  0.00     0.167 HD
ATOM     67  C   UNL     1     -10.380 -12.659   2.827  1.00  0.00     0.074 A 
ATOM     68  C   UNL     1     -10.246 -12.953   4.239  1.00  0.00     0.031 C 
ATOM     69  C   UNL     1     -11.552 -12.716   2.146  1.00  0.00     0.031 A 
BRANCH  56  70
ATOM     70  C   UNL     1     -11.093 -11.186  -3.828  1.00  0.00    -0.014 A 
ATOM     71  C   UNL     1     -10.861 -12.036  -4.925  1.00  0.00     0.010 A 
ATOM     72  C   UNL     1     -12.038 -10.152  -3.952  1.00  0.00     0.010 A 
ATOM     73  C   UNL     1     -11.539 -11.838  -6.130  1.00  0.00     0.020 A 
ATOM     74  C   UNL     1     -12.741  -9.969  -5.146  1.00  0.00     0.020 A 
ATOM     75  C   UNL     1     -12.478 -10.807  -6.232  1.00  0.00     0.054 A 
BRANCH  75  76
ATOM     76  S   UNL     1     -13.375 -10.603  -7.795  1.00  0.00     0.124 S 
ATOM     77  O   UNL     1     -12.326 -10.105  -8.681  1.00  0.00    -0.237 OA
ATOM     78  O   UNL     1     -13.841 -11.959  -8.073  1.00  0.00    -0.237 OA
ATOM     79  O   UNL     1     -14.425  -9.640  -7.471  1.00  0.00    -0.744 OA
ENDBRANCH  75  76
ENDBRANCH  56  70
BRANCH  57  80
ATOM     80  C   UNL     1      -6.109 -12.306   4.781  1.00  0.00    -0.014 A 
ATOM     81  C   UNL     1      -5.978 -13.562   5.400  1.00  0.00     0.010 A 
ATOM     82  C   UNL     1      -5.544 -11.178   5.404  1.00  0.00     0.010 A 
ATOM     83  C   UNL     1      -5.323 -13.683   6.629  1.00  0.00     0.020 A 
ATOM     84  C   UNL     1      -4.859 -11.299   6.616  1.00  0.00     0.020 A 
ATOM     85  C   UNL     1      -4.766 -12.550   7.229  1.00  0.00     0.054 A 
BRANCH  85  86
ATOM     86  S   UNL     1      -3.891 -12.736   8.807  1.00  0.00     0.124 S 
ATOM     87  O   UNL     1      -4.989 -12.984   9.736  1.00  0.00    -0.237 OA
ATOM     88  O   UNL     1      -3.013 -13.874   8.546  1.00  0.00    -0.237 OA
ATOM     89  O   UNL     1      -3.206 -11.456   8.972  1.00  0.00    -0.744 OA
ENDBRANCH  85  86
ENDBRANCH  57  80
BRANCH  69  90
ATOM     90  C   UNL     1     -12.778 -13.141   2.910  1.00  0.00    -0.014 A 
ATOM     91  C   UNL     1     -13.363 -12.304   3.876  1.00  0.00     0.010 A 
ATOM     92  C   UNL     1     -13.384 -14.377   2.616  1.00  0.00     0.010 A 
ATOM     93  C   UNL     1     -14.512 -12.711   4.560  1.00  0.00     0.020 A 
ATOM     94  C   UNL     1     -14.551 -14.772   3.273  1.00  0.00     0.020 A 
ATOM     95  C   UNL     1     -15.099 -13.942   4.253  1.00  0.00     0.054 A 
BRANCH  95  96
ATOM     96  S   UNL     1     -16.613 -14.427   5.125  1.00  0.00     0.124 S 
ATOM     97  O   UNL     1     -16.111 -14.725   6.464  1.00  0.00    -0.237 OA
ATOM     98  O   UNL     1     -17.442 -13.228   5.017  1.00  0.00    -0.237 OA
ATOM     99  O   UNL     1     -17.096 -15.581   4.370  1.00  0.00    -0.744 OA
ENDBRANCH  95  96
ENDBRANCH  69  90
ENDBRANCH  43  44
ENDBRANCH  35  38
ENDBRANCH  33  34
ENDBRANCH  32  33
ENDBRANCH  31  32
ENDBRANCH   1  31
TORSDOF 19
