REMARK SMILES C[C@]1(C(=O)N2CCC(CC(=O)NCCCCNC(=O)c3ccc(-c4c5nc(c(-c6ccc(S(=O)(=O)[O-])cc6)c6ccc([nH]6)c(-c6ccc(S(=O)(=O)[O-])cc6)c6nc(c(-c7ccc(S(=O)(=O)[O-])cc7)c7ccc4[nH]7)C=C6)C=C5)cc3)CC2)CCC[NH2+]C1
REMARK SMILES IDX 15 1 14 2 13 3 12 4 10 5 11 6 9 8 8 9 3 10 4 11 5 12 6 13
REMARK SMILES IDX 81 14 7 15 80 16 2 17 1 18 82 19 86 20 83 21 85 22 84 23
REMARK SMILES IDX 16 26 17 27 18 28 19 30 20 31 21 32 79 33 22 34 78 35 23 36
REMARK SMILES IDX 24 37 25 38 72 39 26 40 77 41 71 42 73 43 27 44 76 45 70 46
REMARK SMILES IDX 69 47 28 49 58 50 39 51 57 52 40 53 43 54 56 55 74 56 41 57
REMARK SMILES IDX 42 58 55 60 75 61 44 62 29 63 30 64 38 65 31 66 37 67 32 68
REMARK SMILES IDX 33 69 34 70 35 71 36 72 59 73 60 74 68 75 61 76 67 77 62 78
REMARK SMILES IDX 63 79 64 80 65 81 66 82 45 83 46 84 54 85 47 86 53 87 48 88
REMARK SMILES IDX 49 89 50 90 51 91 52 92
REMARK H PARENT 12 7 85 24 85 25 17 29 73 48 43 59
REMARK Flexibility Score: inf
ROOT
ATOM      1  C   UNL     1       7.091   0.330   3.275  1.00  0.00     0.023 C 
ENDROOT
BRANCH   1   2
ATOM      2  C   UNL     1       6.009   0.947   2.409  1.00  0.00     0.023 C 
BRANCH   2   3
ATOM      3  C   UNL     1       6.238   2.405   1.995  1.00  0.00     0.116 C 
BRANCH   3   4
ATOM      4  N   UNL     1       7.086   2.505   0.816  1.00  0.00    -0.356 N 
ATOM      5  C   UNL     1       6.782   2.770  -0.488  1.00  0.00     0.220 C 
ATOM      6  O   UNL     1       7.694   2.751  -1.316  1.00  0.00    -0.275 OA
ATOM      7  H   UNL     1       8.043   2.355   0.989  1.00  0.00     0.163 HD
BRANCH   5   8
ATOM      8  C   UNL     1       5.358   3.084  -0.922  1.00  0.00     0.103 C 
BRANCH   8   9
ATOM      9  C   UNL     1       4.577   1.866  -1.474  1.00  0.00     0.002 C 
ATOM     10  C   UNL     1       0.856   0.126  -0.434  1.00  0.00     0.234 C 
ATOM     11  O   UNL     1       0.125  -0.583  -1.125  1.00  0.00    -0.274 OA
ATOM     12  N   UNL     1       2.094   0.521  -0.903  1.00  0.00    -0.342 N 
ATOM     13  C   UNL     1       2.199   1.199  -2.181  1.00  0.00     0.120 C 
ATOM     14  C   UNL     1       3.293  -0.186  -0.529  1.00  0.00     0.120 C 
ATOM     15  C   UNL     1       3.222   2.329  -2.052  1.00  0.00     0.026 C 
ATOM     16  C   UNL     1       4.421   0.808  -0.376  1.00  0.00     0.026 C 
BRANCH  10  17
ATOM     17  C   UNL     1       0.484   0.591   1.004  1.00  0.00     0.095 C 
ATOM     18  C   UNL     1       1.016  -0.433   2.025  1.00  0.00     0.028 C 
ATOM     19  C   UNL     1       1.037   1.991   1.368  1.00  0.00     0.028 C 
ATOM     20  C   UNL     1      -1.063   0.648   1.110  1.00  0.00     0.277 C 
ATOM     21  C   UNL     1       0.362   3.107   0.573  1.00  0.00     0.063 C 
ATOM     22  N   UNL     1      -1.661   1.729   0.313  1.00  0.00    -0.345 N 
ATOM     23  C   UNL     1      -1.155   3.042   0.694  1.00  0.00     0.260 C 
ATOM     24  H   UNL     1      -1.447   1.568  -0.671  1.00  0.00     0.346 HD
ATOM     25  H   UNL     1      -2.667   1.721   0.481  1.00  0.00     0.346 HD
ENDBRANCH  10  17
ENDBRANCH   8   9
ENDBRANCH   5   8
ENDBRANCH   3   4
ENDBRANCH   2   3
ENDBRANCH   1   2
BRANCH   1  26
ATOM     26  C   UNL     1       7.126   0.863   4.692  1.00  0.00     0.116 C 
BRANCH  26  27
ATOM     27  N   UNL     1       5.888   0.632   5.428  1.00  0.00    -0.352 N 
ATOM     28  C   UNL     1       5.731   0.167   6.715  1.00  0.00     0.251 C 
ATOM     29  H   UNL     1       5.056   0.835   4.941  1.00  0.00     0.163 HD
ATOM     30  O   UNL     1       4.617  -0.073   7.159  1.00  0.00    -0.269 OA
BRANCH  28  31
ATOM     31  C   UNL     1       6.941  -0.077   7.525  1.00  0.00     0.039 A 
ATOM     32  C   UNL     1       7.095  -1.306   8.168  1.00  0.00     0.014 A 
ATOM     33  C   UNL     1       7.963   0.875   7.552  1.00  0.00     0.014 A 
ATOM     34  C   UNL     1       8.317  -1.613   8.769  1.00  0.00     0.010 A 
ATOM     35  C   UNL     1       9.208   0.524   8.050  1.00  0.00     0.010 A 
ATOM     36  C   UNL     1       9.396  -0.719   8.673  1.00  0.00    -0.014 A 
BRANCH  36  37
ATOM     37  C   UNL     1      10.728  -1.039   9.240  1.00  0.00     0.031 A 
ATOM     38  C   UNL     1      11.305  -0.151  10.311  1.00  0.00     0.074 A 
ATOM     39  C   UNL     1      11.447  -2.064   8.742  1.00  0.00     0.049 A 
ATOM     40  N   UNL     1      12.492  -0.184  10.858  1.00  0.00    -0.248 NA
ATOM     41  C   UNL     1      10.449   0.944  10.799  1.00  0.00     0.031 C 
ATOM     42  C   UNL     1      11.023  -2.958   7.660  1.00  0.00     0.029 A 
ATOM     43  N   UNL     1      12.697  -2.521   9.075  1.00  0.00    -0.354 N 
ATOM     44  C   UNL     1      12.530   0.895  11.733  1.00  0.00     0.074 A 
ATOM     45  C   UNL     1      11.278   1.602  11.594  1.00  0.00     0.031 C 
ATOM     46  C   UNL     1      11.985  -3.870   7.440  1.00  0.00     0.029 A 
ATOM     47  C   UNL     1      13.105  -3.606   8.335  1.00  0.00     0.049 A 
ATOM     48  H   UNL     1      13.251  -2.111   9.779  1.00  0.00     0.167 HD
ATOM     49  C   UNL     1      13.506   1.250  12.601  1.00  0.00     0.031 A 
ATOM     50  C   UNL     1      14.256  -4.306   8.374  1.00  0.00     0.031 A 
ATOM     51  C   UNL     1      14.735   0.525  12.762  1.00  0.00     0.049 A 
ATOM     52  C   UNL     1      15.313  -3.915   9.370  1.00  0.00     0.074 A 
ATOM     53  C   UNL     1      15.771   0.769  13.645  1.00  0.00     0.029 A 
ATOM     54  N   UNL     1      15.086  -0.600  12.030  1.00  0.00    -0.354 N 
ATOM     55  N   UNL     1      15.309  -2.920  10.226  1.00  0.00    -0.248 NA
ATOM     56  C   UNL     1      16.521  -4.750   9.419  1.00  0.00     0.031 C 
ATOM     57  C   UNL     1      16.763  -0.193  13.427  1.00  0.00     0.029 A 
ATOM     58  C   UNL     1      16.324  -1.061  12.440  1.00  0.00     0.049 A 
ATOM     59  H   UNL     1      14.536  -1.010  11.324  1.00  0.00     0.167 HD
ATOM     60  C   UNL     1      16.503  -3.023  10.930  1.00  0.00     0.074 A 
ATOM     61  C   UNL     1      17.195  -4.187  10.413  1.00  0.00     0.031 C 
ATOM     62  C   UNL     1      16.987  -2.227  11.915  1.00  0.00     0.031 A 
BRANCH  49  63
ATOM     63  C   UNL     1      13.261   2.465  13.454  1.00  0.00    -0.014 A 
ATOM     64  C   UNL     1      12.295   2.442  14.478  1.00  0.00     0.010 A 
ATOM     65  C   UNL     1      14.008   3.637  13.244  1.00  0.00     0.010 A 
ATOM     66  C   UNL     1      12.047   3.583  15.243  1.00  0.00     0.020 A 
ATOM     67  C   UNL     1      13.783   4.773  14.027  1.00  0.00     0.020 A 
ATOM     68  C   UNL     1      12.789   4.744  15.009  1.00  0.00     0.054 A 
BRANCH  68  69
ATOM     69  S   UNL     1      12.457   6.207  16.028  1.00  0.00     0.124 S 
ATOM     70  O   UNL     1      11.197   6.685  15.463  1.00  0.00    -0.237 OA
ATOM     71  O   UNL     1      12.368   5.648  17.374  1.00  0.00    -0.237 OA
ATOM     72  O   UNL     1      13.613   7.066  15.788  1.00  0.00    -0.744 OA
ENDBRANCH  68  69
ENDBRANCH  49  63
BRANCH  50  73
ATOM     73  C   UNL     1      14.459  -5.460   7.456  1.00  0.00    -0.014 A 
ATOM     74  C   UNL     1      14.439  -6.777   7.949  1.00  0.00     0.010 A 
ATOM     75  C   UNL     1      14.671  -5.248   6.082  1.00  0.00     0.010 A 
ATOM     76  C   UNL     1      14.652  -7.859   7.090  1.00  0.00     0.020 A 
ATOM     77  C   UNL     1      14.858  -6.330   5.215  1.00  0.00     0.020 A 
ATOM     78  C   UNL     1      14.863  -7.628   5.728  1.00  0.00     0.054 A 
BRANCH  78  79
ATOM     79  S   UNL     1      15.097  -9.048   4.622  1.00  0.00     0.124 S 
ATOM     80  O   UNL     1      16.474  -9.434   4.912  1.00  0.00    -0.237 OA
ATOM     81  O   UNL     1      14.068  -9.980   5.079  1.00  0.00    -0.237 OA
ATOM     82  O   UNL     1      14.869  -8.485   3.293  1.00  0.00    -0.744 OA
ENDBRANCH  78  79
ENDBRANCH  50  73
BRANCH  62  83
ATOM     83  C   UNL     1      18.309  -2.606  12.522  1.00  0.00    -0.014 A 
ATOM     84  C   UNL     1      19.512  -2.396  11.827  1.00  0.00     0.010 A 
ATOM     85  C   UNL     1      18.347  -3.121  13.830  1.00  0.00     0.010 A 
ATOM     86  C   UNL     1      20.733  -2.722  12.422  1.00  0.00     0.020 A 
ATOM     87  C   UNL     1      19.567  -3.425  14.436  1.00  0.00     0.020 A 
ATOM     88  C   UNL     1      20.753  -3.236  13.723  1.00  0.00     0.054 A 
BRANCH  88  89
ATOM     89  S   UNL     1      22.353  -3.606  14.492  1.00  0.00     0.124 S 
ATOM     90  O   UNL     1      22.726  -4.853  13.831  1.00  0.00    -0.237 OA
ATOM     91  O   UNL     1      23.158  -2.440  14.137  1.00  0.00    -0.237 OA
ATOM     92  O   UNL     1      22.034  -3.724  15.913  1.00  0.00    -0.744 OA
ENDBRANCH  88  89
ENDBRANCH  62  83
ENDBRANCH  36  37
ENDBRANCH  28  31
ENDBRANCH  26  27
ENDBRANCH   1  26
TORSDOF 16
