REMARK SMILES Cc1ncccc1NC(=O)Nc1ccc(C(=O)NCCCCNC(=O)c2ccc(-c3c4nc(c(-c5ccc(S(=O)(=O)[O-])cc5)c5ccc([nH]5)c(-c5ccc(S(=O)(=O)[O-])cc5)c5nc(c(-c6ccc(S(=O)(=O)[O-])cc6)c6ccc3[nH]6)C=C5)C=C4)cc2)c(O)c1
REMARK SMILES IDX 21 1 20 2 19 3 18 4 16 5 17 6 15 8 12 9 13 10 88 11 14 12
REMARK SMILES IDX 86 13 11 14 8 15 9 16 10 18 7 20 1 21 2 22 3 23 4 24 6 25
REMARK SMILES IDX 5 26 87 27 22 29 23 30 24 31 25 33 26 34 27 35 85 36 28 37
REMARK SMILES IDX 84 38 29 39 30 40 31 41 78 42 32 43 83 44 77 45 79 46 33 47
REMARK SMILES IDX 82 48 76 49 75 50 34 52 64 53 45 54 63 55 46 56 49 57 62 58
REMARK SMILES IDX 80 59 47 60 48 61 61 63 81 64 50 65 35 66 36 67 44 68 37 69
REMARK SMILES IDX 43 70 38 71 39 72 40 73 41 74 42 75 65 76 66 77 74 78 67 79
REMARK SMILES IDX 73 80 68 81 69 82 70 83 71 84 72 85 51 86 52 87 60 88 53 89
REMARK SMILES IDX 59 90 54 91 55 92 56 93 57 94 58 95
REMARK H PARENT 18 7 8 17 11 19 87 28 23 32 79 51 49 62
REMARK Flexibility Score: inf
ROOT
ATOM      1  C   UNL     1      -6.225   2.617   3.355  1.00  0.00     0.023 C 
ENDROOT
BRANCH   1   2
ATOM      2  C   UNL     1      -5.204   1.481   3.290  1.00  0.00     0.023 C 
BRANCH   2   3
ATOM      3  C   UNL     1      -5.262   0.560   2.071  1.00  0.00     0.116 C 
BRANCH   3   4
ATOM      4  N   UNL     1      -5.208   1.235   0.782  1.00  0.00    -0.352 N 
ATOM      5  C   UNL     1      -4.749   0.798  -0.442  1.00  0.00     0.255 C 
ATOM      6  O   UNL     1      -4.851   1.540  -1.415  1.00  0.00    -0.269 OA
ATOM      7  H   UNL     1      -5.557   2.156   0.785  1.00  0.00     0.163 HD
BRANCH   5   8
ATOM      8  C   UNL     1      -4.048  -0.502  -0.596  1.00  0.00     0.081 A 
ATOM      9  C   UNL     1      -2.265  -2.646  -0.448  1.00  0.00     0.046 A 
ATOM     10  C   UNL     1      -1.978  -1.568  -1.283  1.00  0.00     0.027 A 
ATOM     11  C   UNL     1      -3.550  -2.768   0.088  1.00  0.00     0.073 A 
ATOM     12  C   UNL     1      -2.857  -0.483  -1.336  1.00  0.00     0.020 A 
ATOM     13  C   UNL     1      -4.445  -1.701  -0.004  1.00  0.00     0.130 A 
BRANCH   9  14
ATOM     14  N   UNL     1      -1.305  -3.586  -0.046  1.00  0.00    -0.308 N 
ATOM     15  N   UNL     1       0.781  -2.412   0.112  1.00  0.00    -0.306 N 
ATOM     16  C   UNL     1       0.045  -3.545   0.030  1.00  0.00     0.323 C 
ATOM     17  H   UNL     1       1.716  -2.543  -0.169  1.00  0.00     0.171 HD
ATOM     18  O   UNL     1       0.656  -4.620   0.033  1.00  0.00    -0.248 OA
ATOM     19  H   UNL     1      -1.690  -4.447   0.237  1.00  0.00     0.171 HD
BRANCH  15  20
ATOM     20  C   UNL     1       0.510  -1.083   0.510  1.00  0.00     0.064 A 
ATOM     21  C   UNL     1       2.706  -0.209  -0.498  1.00  0.00     0.069 C 
ATOM     22  C   UNL     1       1.351  -0.025   0.121  1.00  0.00     0.061 A 
ATOM     23  N   UNL     1       1.019   1.282   0.308  1.00  0.00    -0.259 NA
ATOM     24  C   UNL     1      -0.140   1.559   0.937  1.00  0.00     0.111 A 
ATOM     25  C   UNL     1      -0.600  -0.747   1.288  1.00  0.00     0.030 A 
ATOM     26  C   UNL     1      -0.954   0.588   1.478  1.00  0.00     0.022 A 
ENDBRANCH  15  20
ENDBRANCH   9  14
BRANCH  13  27
ATOM     27  O   UNL     1      -5.682  -1.906   0.538  1.00  0.00    -0.507 OA
ATOM     28  H   UNL     1      -6.326  -1.226   0.507  1.00  0.00     0.293 HD
ENDBRANCH  13  27
ENDBRANCH   5   8
ENDBRANCH   3   4
ENDBRANCH   2   3
ENDBRANCH   1   2
BRANCH   1  29
ATOM     29  C   UNL     1      -7.669   2.275   3.003  1.00  0.00     0.116 C 
BRANCH  29  30
ATOM     30  N   UNL     1      -8.274   1.285   3.878  1.00  0.00    -0.352 N 
ATOM     31  C   UNL     1      -9.422   1.349   4.641  1.00  0.00     0.251 C 
ATOM     32  H   UNL     1      -7.786   0.433   3.937  1.00  0.00     0.163 HD
ATOM     33  O   UNL     1      -9.713   0.406   5.364  1.00  0.00    -0.269 OA
BRANCH  31  34
ATOM     34  C   UNL     1     -10.277   2.562   4.628  1.00  0.00     0.039 A 
ATOM     35  C   UNL     1     -10.742   3.063   5.849  1.00  0.00     0.014 A 
ATOM     36  C   UNL     1     -10.618   3.212   3.441  1.00  0.00     0.014 A 
ATOM     37  C   UNL     1     -11.461   4.262   5.885  1.00  0.00     0.010 A 
ATOM     38  C   UNL     1     -11.265   4.447   3.484  1.00  0.00     0.010 A 
ATOM     39  C   UNL     1     -11.684   4.994   4.707  1.00  0.00    -0.014 A 
BRANCH  39  40
ATOM     40  C   UNL     1     -12.320   6.340   4.736  1.00  0.00     0.031 A 
ATOM     41  C   UNL     1     -13.619   6.587   4.015  1.00  0.00     0.074 A 
ATOM     42  C   UNL     1     -11.687   7.366   5.343  1.00  0.00     0.049 A 
ATOM     43  N   UNL     1     -14.271   7.710   3.852  1.00  0.00    -0.248 NA
ATOM     44  C   UNL     1     -14.255   5.426   3.370  1.00  0.00     0.031 C 
ATOM     45  C   UNL     1     -10.400   7.278   6.038  1.00  0.00     0.029 A 
ATOM     46  N   UNL     1     -12.034   8.690   5.460  1.00  0.00    -0.354 N 
ATOM     47  C   UNL     1     -15.375   7.399   3.066  1.00  0.00     0.074 A 
ATOM     48  C   UNL     1     -15.284   5.989   2.752  1.00  0.00     0.031 C 
ATOM     49  C   UNL     1     -10.078   8.488   6.525  1.00  0.00     0.029 A 
ATOM     50  C   UNL     1     -11.109   9.447   6.143  1.00  0.00     0.049 A 
ATOM     51  H   UNL     1     -12.866   9.064   5.090  1.00  0.00     0.167 HD
ATOM     52  C   UNL     1     -16.383   8.207   2.656  1.00  0.00     0.031 A 
ATOM     53  C   UNL     1     -11.083  10.765   6.423  1.00  0.00     0.031 A 
ATOM     54  C   UNL     1     -16.488   9.603   2.987  1.00  0.00     0.049 A 
ATOM     55  C   UNL     1     -12.220  11.638   5.968  1.00  0.00     0.074 A 
ATOM     56  C   UNL     1     -17.507  10.486   2.672  1.00  0.00     0.029 A 
ATOM     57  N   UNL     1     -15.547  10.320   3.709  1.00  0.00    -0.354 N 
ATOM     58  N   UNL     1     -13.288  11.307   5.282  1.00  0.00    -0.248 NA
ATOM     59  C   UNL     1     -12.155  13.060   6.335  1.00  0.00     0.031 C 
ATOM     60  C   UNL     1     -17.161  11.748   3.166  1.00  0.00     0.029 A 
ATOM     61  C   UNL     1     -15.952  11.639   3.833  1.00  0.00     0.049 A 
ATOM     62  H   UNL     1     -14.714   9.948   4.078  1.00  0.00     0.167 HD
ATOM     63  C   UNL     1     -14.034  12.475   5.160  1.00  0.00     0.074 A 
ATOM     64  C   UNL     1     -13.303  13.515   5.853  1.00  0.00     0.031 C 
ATOM     65  C   UNL     1     -15.220  12.665   4.531  1.00  0.00     0.031 A 
BRANCH  52  66
ATOM     66  C   UNL     1     -17.459   7.598   1.796  1.00  0.00    -0.014 A 
ATOM     67  C   UNL     1     -18.392   6.693   2.333  1.00  0.00     0.010 A 
ATOM     68  C   UNL     1     -17.572   7.976   0.445  1.00  0.00     0.010 A 
ATOM     69  C   UNL     1     -19.393   6.146   1.527  1.00  0.00     0.020 A 
ATOM     70  C   UNL     1     -18.589   7.451  -0.358  1.00  0.00     0.020 A 
ATOM     71  C   UNL     1     -19.483   6.526   0.184  1.00  0.00     0.054 A 
BRANCH  71  72
ATOM     72  S   UNL     1     -20.809   5.821  -0.832  1.00  0.00     0.124 S 
ATOM     73  O   UNL     1     -20.331   4.456  -1.043  1.00  0.00    -0.237 OA
ATOM     74  O   UNL     1     -21.980   5.949   0.032  1.00  0.00    -0.237 OA
ATOM     75  O   UNL     1     -20.822   6.667  -2.022  1.00  0.00    -0.744 OA
ENDBRANCH  71  72
ENDBRANCH  52  66
BRANCH  53  76
ATOM     76  C   UNL     1      -9.942  11.342   7.186  1.00  0.00    -0.014 A 
ATOM     77  C   UNL     1     -10.116  11.772   8.513  1.00  0.00     0.010 A 
ATOM     78  C   UNL     1      -8.674  11.461   6.589  1.00  0.00     0.010 A 
ATOM     79  C   UNL     1      -9.049  12.331   9.223  1.00  0.00     0.020 A 
ATOM     80  C   UNL     1      -7.598  11.994   7.305  1.00  0.00     0.020 A 
ATOM     81  C   UNL     1      -7.796  12.439   8.614  1.00  0.00     0.054 A 
BRANCH  81  82
ATOM     82  S   UNL     1      -6.412  13.124   9.568  1.00  0.00     0.124 S 
ATOM     83  O   UNL     1      -6.717  14.551   9.560  1.00  0.00    -0.237 OA
ATOM     84  O   UNL     1      -6.554  12.452  10.857  1.00  0.00    -0.237 OA
ATOM     85  O   UNL     1      -5.237  12.728   8.795  1.00  0.00    -0.744 OA
ENDBRANCH  81  82
ENDBRANCH  53  76
BRANCH  65  86
ATOM     86  C   UNL     1     -15.828  14.040   4.594  1.00  0.00    -0.014 A 
ATOM     87  C   UNL     1     -15.302  15.106   3.844  1.00  0.00     0.010 A 
ATOM     88  C   UNL     1     -16.981  14.251   5.373  1.00  0.00     0.010 A 
ATOM     89  C   UNL     1     -15.903  16.367   3.893  1.00  0.00     0.020 A 
ATOM     90  C   UNL     1     -17.599  15.504   5.404  1.00  0.00     0.020 A 
ATOM     91  C   UNL     1     -17.048  16.558   4.673  1.00  0.00     0.054 A 
BRANCH  91  92
ATOM     92  S   UNL     1     -17.839  18.190   4.682  1.00  0.00     0.124 S 
ATOM     93  O   UNL     1     -16.930  18.963   5.524  1.00  0.00    -0.237 OA
ATOM     94  O   UNL     1     -17.846  18.552   3.267  1.00  0.00    -0.237 OA
ATOM     95  O   UNL     1     -19.156  17.934   5.260  1.00  0.00    -0.744 OA
ENDBRANCH  91  92
ENDBRANCH  65  86
ENDBRANCH  39  40
ENDBRANCH  31  34
ENDBRANCH  29  30
ENDBRANCH   1  29
TORSDOF 17
