REMARK SMILES CC[C@H]1CN(C(=O)CCC(=O)NCCCCNC(=O)c2ccc(-c3c4nc(c(-c5ccc(S(=O)(=O)[O-])cc5)c5ccc([nH]5)c(-c5ccc(S(=O)(=O)[O-])cc5)c5nc(c(-c6ccc(S(=O)(=O)[O-])cc6)c6ccc3[nH]6)C=C5)C=C4)cc2)c2cc(Cl)ccc2O1
REMARK SMILES IDX 14 1 13 2 12 3 10 4 11 5 9 7 8 8 6 9 7 10 5 11 3 12 4 13
REMARK SMILES IDX 87 14 86 15 80 16 85 17 81 18 84 19 82 20 83 21 2 22 1 23
REMARK SMILES IDX 15 24 16 25 17 26 18 27 19 29 20 30 21 31 79 32 22 33 78 34
REMARK SMILES IDX 23 35 24 36 25 37 72 38 26 39 77 40 71 41 73 42 27 43 76 44
REMARK SMILES IDX 70 45 69 46 28 48 58 49 39 50 57 51 40 52 43 53 56 54 74 55
REMARK SMILES IDX 41 56 42 57 55 59 75 60 44 61 29 62 30 63 38 64 31 65 37 66
REMARK SMILES IDX 32 67 33 68 34 69 35 70 36 71 59 72 60 73 68 74 61 75 67 76
REMARK SMILES IDX 62 77 63 78 64 79 65 80 66 81 45 82 46 83 54 84 47 85 53 86
REMARK SMILES IDX 48 87 49 88 50 89 51 90 52 91
REMARK H PARENT 12 6 17 28 73 47 43 58
REMARK Flexibility Score: inf
ROOT
ATOM      1  C   UNL     1      -1.029   1.338   5.518  1.00  0.00     0.023 C 
ENDROOT
BRANCH   1   2
ATOM      2  C   UNL     1      -1.919   0.175   5.939  1.00  0.00     0.116 C 
BRANCH   2   3
ATOM      3  N   UNL     1      -1.674  -0.992   5.104  1.00  0.00    -0.356 N 
ATOM      4  C   UNL     1      -0.693  -1.933   5.199  1.00  0.00     0.220 C 
ATOM      5  O   UNL     1      -0.566  -2.749   4.285  1.00  0.00    -0.275 OA
ATOM      6  H   UNL     1      -2.309  -1.120   4.363  1.00  0.00     0.163 HD
BRANCH   4   7
ATOM      7  C   UNL     1       0.220  -1.971   6.407  1.00  0.00     0.110 C 
BRANCH   7   8
ATOM      8  C   UNL     1       1.695  -1.895   6.011  1.00  0.00     0.110 C 
BRANCH   8   9
ATOM      9  C   UNL     1       2.192  -0.451   6.029  1.00  0.00     0.227 C 
ATOM     10  O   UNL     1       2.423   0.027   7.144  1.00  0.00    -0.275 OA
BRANCH   9  11
ATOM     11  N   UNL     1       2.272   0.254   4.816  1.00  0.00    -0.305 N 
ATOM     12  C   UNL     1       2.409   0.340   2.289  1.00  0.00     0.193 C 
ATOM     13  C   UNL     1       1.966  -0.403   3.543  1.00  0.00     0.170 C 
ATOM     14  O   UNL     1       2.015   1.708   2.300  1.00  0.00    -0.486 OA
ATOM     15  C   UNL     1       2.190   2.348   3.499  1.00  0.00     0.143 A 
ATOM     16  C   UNL     1       2.367   1.701   4.741  1.00  0.00     0.088 A 
ATOM     17  C   UNL     1       2.078   3.743   3.409  1.00  0.00     0.050 A 
ATOM     18  C   UNL     1       2.486   2.526   5.873  1.00  0.00     0.050 A 
ATOM     19  C   UNL     1       2.144   4.531   4.552  1.00  0.00     0.024 A 
ATOM     20  C   UNL     1       2.357   3.918   5.778  1.00  0.00     0.043 A 
ATOM     21  Cl  UNL     1       2.417   4.878   7.208  1.00  0.00    -0.084 Cl
BRANCH  12  22
ATOM     22  C   UNL     1       3.904   0.194   1.977  1.00  0.00     0.044 C 
ATOM     23  C   UNL     1       4.185   0.524   0.515  1.00  0.00     0.008 C 
ENDBRANCH  12  22
ENDBRANCH   9  11
ENDBRANCH   8   9
ENDBRANCH   7   8
ENDBRANCH   4   7
ENDBRANCH   2   3
ENDBRANCH   1   2
BRANCH   1  24
ATOM     24  C   UNL     1      -1.463   2.003   4.215  1.00  0.00     0.023 C 
BRANCH  24  25
ATOM     25  C   UNL     1      -2.516   3.076   4.441  1.00  0.00     0.116 C 
BRANCH  25  26
ATOM     26  N   UNL     1      -1.970   4.272   5.083  1.00  0.00    -0.352 N 
ATOM     27  C   UNL     1      -1.611   5.513   4.598  1.00  0.00     0.251 C 
ATOM     28  H   UNL     1      -1.831   4.171   6.052  1.00  0.00     0.163 HD
ATOM     29  O   UNL     1      -1.016   6.289   5.333  1.00  0.00    -0.269 OA
BRANCH  27  30
ATOM     30  C   UNL     1      -1.898   5.907   3.198  1.00  0.00     0.039 A 
ATOM     31  C   UNL     1      -3.029   5.447   2.540  1.00  0.00     0.014 A 
ATOM     32  C   UNL     1      -1.026   6.774   2.526  1.00  0.00     0.014 A 
ATOM     33  C   UNL     1      -3.148   5.613   1.170  1.00  0.00     0.010 A 
ATOM     34  C   UNL     1      -1.248   7.091   1.177  1.00  0.00     0.010 A 
ATOM     35  C   UNL     1      -2.282   6.466   0.468  1.00  0.00    -0.014 A 
BRANCH  35  36
ATOM     36  C   UNL     1      -2.541   6.693  -0.982  1.00  0.00     0.031 A 
ATOM     37  C   UNL     1      -1.506   6.363  -2.025  1.00  0.00     0.074 A 
ATOM     38  C   UNL     1      -3.777   7.090  -1.357  1.00  0.00     0.049 A 
ATOM     39  N   UNL     1      -1.618   6.417  -3.328  1.00  0.00    -0.248 NA
ATOM     40  C   UNL     1      -0.179   5.927  -1.561  1.00  0.00     0.031 C 
ATOM     41  C   UNL     1      -4.863   7.431  -0.429  1.00  0.00     0.029 A 
ATOM     42  N   UNL     1      -4.363   7.199  -2.593  1.00  0.00    -0.354 N 
ATOM     43  C   UNL     1      -0.375   6.054  -3.836  1.00  0.00     0.074 A 
ATOM     44  C   UNL     1       0.486   5.801  -2.703  1.00  0.00     0.031 C 
ATOM     45  C   UNL     1      -6.004   7.565  -1.115  1.00  0.00     0.029 A 
ATOM     46  C   UNL     1      -5.717   7.448  -2.539  1.00  0.00     0.049 A 
ATOM     47  H   UNL     1      -3.864   7.108  -3.437  1.00  0.00     0.167 HD
ATOM     48  C   UNL     1       0.004   5.936  -5.130  1.00  0.00     0.031 A 
ATOM     49  C   UNL     1      -6.635   7.579  -3.517  1.00  0.00     0.031 A 
ATOM     50  C   UNL     1      -0.876   6.161  -6.248  1.00  0.00     0.049 A 
ATOM     51  C   UNL     1      -6.184   7.461  -4.941  1.00  0.00     0.074 A 
ATOM     52  C   UNL     1      -0.585   6.067  -7.598  1.00  0.00     0.029 A 
ATOM     53  N   UNL     1      -2.216   6.508  -6.151  1.00  0.00    -0.354 N 
ATOM     54  N   UNL     1      -4.995   7.148  -5.396  1.00  0.00    -0.248 NA
ATOM     55  C   UNL     1      -7.181   7.738  -5.983  1.00  0.00     0.031 C 
ATOM     56  C   UNL     1      -1.730   6.415  -8.316  1.00  0.00     0.029 A 
ATOM     57  C   UNL     1      -2.757   6.656  -7.417  1.00  0.00     0.049 A 
ATOM     58  H   UNL     1      -2.708   6.631  -5.308  1.00  0.00     0.167 HD
ATOM     59  C   UNL     1      -5.094   7.202  -6.779  1.00  0.00     0.074 A 
ATOM     60  C   UNL     1      -6.470   7.542  -7.087  1.00  0.00     0.031 C 
ATOM     61  C   UNL     1      -4.127   7.004  -7.706  1.00  0.00     0.031 A 
BRANCH  48  62
ATOM     62  C   UNL     1       1.432   5.554  -5.432  1.00  0.00    -0.014 A 
ATOM     63  C   UNL     1       2.285   6.488  -6.052  1.00  0.00     0.010 A 
ATOM     64  C   UNL     1       1.897   4.244  -5.223  1.00  0.00     0.010 A 
ATOM     65  C   UNL     1       3.559   6.112  -6.487  1.00  0.00     0.020 A 
ATOM     66  C   UNL     1       3.182   3.871  -5.631  1.00  0.00     0.020 A 
ATOM     67  C   UNL     1       3.995   4.801  -6.283  1.00  0.00     0.054 A 
BRANCH  67  68
ATOM     68  S   UNL     1       5.641   4.322  -6.880  1.00  0.00     0.124 S 
ATOM     69  O   UNL     1       5.425   4.201  -8.318  1.00  0.00    -0.237 OA
ATOM     70  O   UNL     1       6.474   5.447  -6.458  1.00  0.00    -0.237 OA
ATOM     71  O   UNL     1       5.906   3.068  -6.178  1.00  0.00    -0.744 OA
ENDBRANCH  67  68
ENDBRANCH  48  62
BRANCH  49  72
ATOM     72  C   UNL     1      -8.057   7.839  -3.151  1.00  0.00    -0.014 A 
ATOM     73  C   UNL     1      -8.411   9.029  -2.484  1.00  0.00     0.010 A 
ATOM     74  C   UNL     1      -9.041   6.857  -3.357  1.00  0.00     0.010 A 
ATOM     75  C   UNL     1      -9.692   9.196  -1.956  1.00  0.00     0.020 A 
ATOM     76  C   UNL     1     -10.339   7.038  -2.862  1.00  0.00     0.020 A 
ATOM     77  C   UNL     1     -10.643   8.190  -2.132  1.00  0.00     0.054 A 
BRANCH  77  78
ATOM     78  S   UNL     1     -12.279   8.395  -1.373  1.00  0.00     0.124 S 
ATOM     79  O   UNL     1     -12.004   8.061   0.022  1.00  0.00    -0.237 OA
ATOM     80  O   UNL     1     -12.581   9.800  -1.636  1.00  0.00    -0.237 OA
ATOM     81  O   UNL     1     -13.111   7.436  -2.095  1.00  0.00    -0.744 OA
ENDBRANCH  77  78
ENDBRANCH  49  72
BRANCH  61  82
ATOM     82  C   UNL     1      -4.498   7.163  -9.155  1.00  0.00    -0.014 A 
ATOM     83  C   UNL     1      -4.513   6.038 -10.000  1.00  0.00     0.010 A 
ATOM     84  C   UNL     1      -4.693   8.442  -9.705  1.00  0.00     0.010 A 
ATOM     85  C   UNL     1      -4.674   6.192 -11.378  1.00  0.00     0.020 A 
ATOM     86  C   UNL     1      -4.882   8.597 -11.081  1.00  0.00     0.020 A 
ATOM     87  C   UNL     1      -4.843   7.473 -11.911  1.00  0.00     0.054 A 
BRANCH  87  88
ATOM     88  S   UNL     1      -5.002   7.658 -13.707  1.00  0.00     0.124 S 
ATOM     89  O   UNL     1      -3.624   7.486 -14.156  1.00  0.00    -0.237 OA
ATOM     90  O   UNL     1      -5.920   6.577 -14.062  1.00  0.00    -0.237 OA
ATOM     91  O   UNL     1      -5.548   9.004 -13.866  1.00  0.00    -0.744 OA
ENDBRANCH  87  88
ENDBRANCH  61  82
ENDBRANCH  35  36
ENDBRANCH  27  30
ENDBRANCH  25  26
ENDBRANCH  24  25
ENDBRANCH   1  24
TORSDOF 18
