REMARK SMILES O=C(CNC(=O)N1CC(NCCCCNC(=O)c2ccc(-c3c4nc(c(-c5ccc(S(=O)(=O)[O-])cc5)c5ccc([nH]5)c(-c5ccc(S(=O)(=O)[O-])cc5)c5nc(c(-c6ccc(S(=O)(=O)[O-])cc6)c6ccc3[nH]6)C=C5)C=C4)cc2)=[NH+]c2ccccc21)N[C@H](C(=O)[O-])c1ccccc1
REMARK SMILES IDX 12 1 11 2 10 3 7 4 8 5 84 6 9 7 79 8 83 9 78 10 80 11 82 12
REMARK SMILES IDX 81 15 5 16 4 17 6 19 3 20 2 21 1 22 85 23 86 25 90 26 91 27
REMARK SMILES IDX 95 28 92 29 94 30 93 31 87 32 88 33 89 34 13 35 14 36 15 37
REMARK SMILES IDX 16 38 17 40 18 41 19 42 77 43 20 44 76 45 21 46 22 47 23 48
REMARK SMILES IDX 70 49 24 50 75 51 69 52 71 53 25 54 74 55 68 56 67 57 26 59
REMARK SMILES IDX 56 60 37 61 55 62 38 63 41 64 54 65 72 66 39 67 40 68 53 70
REMARK SMILES IDX 73 71 42 72 27 73 28 74 36 75 29 76 35 77 30 78 31 79 32 80
REMARK SMILES IDX 33 81 34 82 57 83 58 84 66 85 59 86 65 87 60 88 61 89 62 90
REMARK SMILES IDX 63 91 64 92 43 93 44 94 52 95 45 96 51 97 46 98 47 99 48 100
REMARK SMILES IDX 49 101 50 102
REMARK H PARENT 10 13 78 14 4 18 85 24 15 39 71 58 41 69
REMARK Flexibility Score: inf
ROOT
ATOM      1  C   UNL     1       0.032   6.154   0.156  1.00  0.00     0.048 C 
ENDROOT
BRANCH   1   2
ATOM      2  C   UNL     1       1.020   7.159   0.745  1.00  0.00     0.233 C 
BRANCH   2   3
ATOM      3  N   UNL     1       2.183   6.506   1.293  1.00  0.00    -0.277 N 
ATOM      4  N   UNL     1       4.872   6.465  -1.173  1.00  0.00    -0.278 N 
ATOM      5  C   UNL     1       3.851   7.231  -0.481  1.00  0.00     0.255 C 
ATOM      6  C   UNL     1       5.957   6.060  -0.361  1.00  0.00     0.093 A 
ATOM      7  C   UNL     1       3.469   6.495   0.811  1.00  0.00     0.268 C 
ATOM      8  C   UNL     1       5.673   5.755   0.984  1.00  0.00     0.148 A 
ATOM      9  C   UNL     1       7.238   5.854  -0.890  1.00  0.00     0.031 A 
ATOM     10  N   UNL     1       4.370   5.862   1.518  1.00  0.00    -0.241 N 
ATOM     11  C   UNL     1       6.670   5.154   1.754  1.00  0.00     0.054 A 
ATOM     12  C   UNL     1       8.225   5.266  -0.102  1.00  0.00     0.002 A 
ATOM     13  H   UNL     1       2.035   6.000   2.125  1.00  0.00     0.304 HD
ATOM     14  H   UNL     1       4.147   5.473   2.395  1.00  0.00     0.312 HD
ATOM     15  C   UNL     1       7.935   4.900   1.212  1.00  0.00     0.005 A 
BRANCH   4  16
ATOM     16  C   UNL     1       4.624   6.064  -2.461  1.00  0.00     0.323 C 
ATOM     17  N   UNL     1       4.996   4.820  -2.858  1.00  0.00    -0.329 N 
ATOM     18  H   UNL     1       4.981   4.667  -3.830  1.00  0.00     0.165 HD
ATOM     19  O   UNL     1       3.985   6.757  -3.256  1.00  0.00    -0.248 OA
BRANCH  17  20
ATOM     20  C   UNL     1       5.418   3.672  -2.051  1.00  0.00     0.218 C 
BRANCH  20  21
ATOM     21  C   UNL     1       4.686   2.406  -2.443  1.00  0.00     0.240 C 
ATOM     22  O   UNL     1       5.300   1.452  -2.909  1.00  0.00    -0.273 OA
ATOM     23  N   UNL     1       3.326   2.483  -2.224  1.00  0.00    -0.342 N 
ATOM     24  H   UNL     1       2.930   3.356  -1.999  1.00  0.00     0.164 HD
BRANCH  23  25
ATOM     25  C   UNL     1       2.439   1.296  -2.315  1.00  0.00     0.158 C 
BRANCH  25  26
ATOM     26  C   UNL     1       2.524   0.648  -3.691  1.00  0.00    -0.020 A 
ATOM     27  C   UNL     1       2.374  -0.725  -3.905  1.00  0.00     0.006 A 
ATOM     28  C   UNL     1       2.758   1.459  -4.824  1.00  0.00     0.006 A 
ATOM     29  C   UNL     1       2.572  -1.281  -5.173  1.00  0.00     0.000 A 
ATOM     30  C   UNL     1       2.974   0.908  -6.086  1.00  0.00     0.000 A 
ATOM     31  C   UNL     1       2.898  -0.469  -6.256  1.00  0.00     0.000 A 
ENDBRANCH  25  26
BRANCH  25  32
ATOM     32  C   UNL     1       2.533   0.479  -0.977  1.00  0.00     0.068 C 
ATOM     33  O   UNL     1       2.891  -0.728  -1.006  1.00  0.00    -0.548 OA
ATOM     34  O   UNL     1       2.250   1.192   0.046  1.00  0.00    -0.548 OA
ENDBRANCH  25  32
ENDBRANCH  23  25
ENDBRANCH  20  21
ENDBRANCH  17  20
ENDBRANCH   4  16
ENDBRANCH   2   3
ENDBRANCH   1   2
BRANCH   1  35
ATOM     35  C   UNL     1      -0.662   5.244   1.174  1.00  0.00     0.025 C 
BRANCH  35  36
ATOM     36  C   UNL     1      -1.358   5.950   2.334  1.00  0.00     0.116 C 
BRANCH  36  37
ATOM     37  N   UNL     1      -2.383   6.895   1.910  1.00  0.00    -0.352 N 
ATOM     38  C   UNL     1      -3.637   7.108   2.434  1.00  0.00     0.251 C 
ATOM     39  H   UNL     1      -2.145   7.460   1.140  1.00  0.00     0.163 HD
ATOM     40  O   UNL     1      -4.409   7.887   1.880  1.00  0.00    -0.269 OA
BRANCH  38  41
ATOM     41  C   UNL     1      -4.071   6.376   3.646  1.00  0.00     0.039 A 
ATOM     42  C   UNL     1      -5.332   5.774   3.653  1.00  0.00     0.014 A 
ATOM     43  C   UNL     1      -3.238   6.268   4.763  1.00  0.00     0.014 A 
ATOM     44  C   UNL     1      -5.726   5.000   4.748  1.00  0.00     0.010 A 
ATOM     45  C   UNL     1      -3.603   5.438   5.822  1.00  0.00     0.010 A 
ATOM     46  C   UNL     1      -4.847   4.790   5.824  1.00  0.00    -0.014 A 
BRANCH  46  47
ATOM     47  C   UNL     1      -5.201   3.873   6.940  1.00  0.00     0.031 A 
ATOM     48  C   UNL     1      -5.345   4.395   8.345  1.00  0.00     0.074 A 
ATOM     49  C   UNL     1      -5.329   2.552   6.699  1.00  0.00     0.049 A 
ATOM     50  N   UNL     1      -5.610   3.740   9.447  1.00  0.00    -0.248 NA
ATOM     51  C   UNL     1      -5.146   5.840   8.542  1.00  0.00     0.031 C 
ATOM     52  C   UNL     1      -5.167   1.911   5.391  1.00  0.00     0.029 A 
ATOM     53  N   UNL     1      -5.616   1.508   7.544  1.00  0.00    -0.354 N 
ATOM     54  C   UNL     1      -5.591   4.684  10.466  1.00  0.00     0.074 A 
ATOM     55  C   UNL     1      -5.246   5.951   9.859  1.00  0.00     0.031 C 
ATOM     56  C   UNL     1      -5.384   0.592   5.516  1.00  0.00     0.029 A 
ATOM     57  C   UNL     1      -5.657   0.284   6.916  1.00  0.00     0.049 A 
ATOM     58  H   UNL     1      -5.777   1.625   8.508  1.00  0.00     0.167 HD
ATOM     59  C   UNL     1      -5.853   4.516  11.785  1.00  0.00     0.031 A 
ATOM     60  C   UNL     1      -5.880  -0.949   7.410  1.00  0.00     0.031 A 
ATOM     61  C   UNL     1      -6.197   3.253  12.385  1.00  0.00     0.049 A 
ATOM     62  C   UNL     1      -6.155  -1.111   8.882  1.00  0.00     0.074 A 
ATOM     63  C   UNL     1      -6.538   2.992  13.701  1.00  0.00     0.029 A 
ATOM     64  N   UNL     1      -6.236   2.039  11.714  1.00  0.00    -0.354 N 
ATOM     65  N   UNL     1      -6.217  -0.193   9.817  1.00  0.00    -0.248 NA
ATOM     66  C   UNL     1      -6.405  -2.478   9.363  1.00  0.00     0.031 C 
ATOM     67  C   UNL     1      -6.729   1.613  13.838  1.00  0.00     0.029 A 
ATOM     68  C   UNL     1      -6.571   1.023  12.595  1.00  0.00     0.049 A 
ATOM     69  H   UNL     1      -6.053   1.918  10.755  1.00  0.00     0.167 HD
ATOM     70  C   UNL     1      -6.540  -0.867  10.990  1.00  0.00     0.074 A 
ATOM     71  C   UNL     1      -6.678  -2.266  10.643  1.00  0.00     0.031 C 
ATOM     72  C   UNL     1      -6.709  -0.368  12.240  1.00  0.00     0.031 A 
BRANCH  59  73
ATOM     73  C   UNL     1      -5.771   5.732  12.673  1.00  0.00    -0.014 A 
ATOM     74  C   UNL     1      -6.717   6.769  12.576  1.00  0.00     0.010 A 
ATOM     75  C   UNL     1      -4.761   5.820  13.649  1.00  0.00     0.010 A 
ATOM     76  C   UNL     1      -6.631   7.889  13.409  1.00  0.00     0.020 A 
ATOM     77  C   UNL     1      -4.689   6.925  14.504  1.00  0.00     0.020 A 
ATOM     78  C   UNL     1      -5.615   7.960  14.367  1.00  0.00     0.054 A 
BRANCH  78  79
ATOM     79  S   UNL     1      -5.545   9.413  15.452  1.00  0.00     0.124 S 
ATOM     80  O   UNL     1      -5.079  10.453  14.538  1.00  0.00    -0.237 OA
ATOM     81  O   UNL     1      -6.930   9.547  15.899  1.00  0.00    -0.237 OA
ATOM     82  O   UNL     1      -4.595   9.027  16.492  1.00  0.00    -0.744 OA
ENDBRANCH  78  79
ENDBRANCH  59  73
BRANCH  60  83
ATOM     83  C   UNL     1      -5.883  -2.128   6.499  1.00  0.00    -0.014 A 
ATOM     84  C   UNL     1      -7.085  -2.801   6.215  1.00  0.00     0.010 A 
ATOM     85  C   UNL     1      -4.691  -2.580   5.901  1.00  0.00     0.010 A 
ATOM     86  C   UNL     1      -7.091  -3.917   5.373  1.00  0.00     0.020 A 
ATOM     87  C   UNL     1      -4.699  -3.678   5.034  1.00  0.00     0.020 A 
ATOM     88  C   UNL     1      -5.898  -4.349   4.788  1.00  0.00     0.054 A 
BRANCH  88  89
ATOM     89  S   UNL     1      -5.950  -5.783   3.677  1.00  0.00     0.124 S 
ATOM     90  O   UNL     1      -6.184  -6.881   4.611  1.00  0.00    -0.237 OA
ATOM     91  O   UNL     1      -7.070  -5.459   2.796  1.00  0.00    -0.237 OA
ATOM     92  O   UNL     1      -4.638  -5.774   3.038  1.00  0.00    -0.744 OA
ENDBRANCH  88  89
ENDBRANCH  60  83
BRANCH  72  93
ATOM     93  C   UNL     1      -7.105  -1.334  13.327  1.00  0.00    -0.014 A 
ATOM     94  C   UNL     1      -6.196  -2.279  13.837  1.00  0.00     0.010 A 
ATOM     95  C   UNL     1      -8.393  -1.254  13.888  1.00  0.00     0.010 A 
ATOM     96  C   UNL     1      -6.578  -3.143  14.867  1.00  0.00     0.020 A 
ATOM     97  C   UNL     1      -8.769  -2.096  14.938  1.00  0.00     0.020 A 
ATOM     98  C   UNL     1      -7.863  -3.046  15.412  1.00  0.00     0.054 A 
BRANCH  98  99
ATOM     99  S   UNL     1      -8.319  -4.144  16.783  1.00  0.00     0.124 S 
ATOM    100  O   UNL     1      -8.477  -5.428  16.107  1.00  0.00    -0.237 OA
ATOM    101  O   UNL     1      -7.167  -4.041  17.675  1.00  0.00    -0.237 OA
ATOM    102  O   UNL     1      -9.553  -3.558  17.302  1.00  0.00    -0.744 OA
ENDBRANCH  98  99
ENDBRANCH  72  93
ENDBRANCH  46  47
ENDBRANCH  38  41
ENDBRANCH  36  37
ENDBRANCH  35  36
ENDBRANCH   1  35
TORSDOF 19
