REMARK SMILES O=C(NCCCCNC(=O)c1cnccc1C(=O)N1CCC(Cc2ccccc2)CC1)c1ccc(-c2c3nc(c(-c4ccc(S(=O)(=O)[O-])cc4)c4ccc([nH]4)c(-c4ccc(S(=O)(=O)[O-])cc4)c4nc(c(-c5ccc(S(=O)(=O)[O-])cc5)c5ccc2[nH]5)C=C4)C=C3)cc1
REMARK SMILES IDX 5 1 4 2 3 3 1 4 2 5 32 7 33 8 91 9 34 10 90 11 35 12 36 13
REMARK SMILES IDX 37 14 84 15 38 16 89 17 83 18 85 19 39 20 88 21 82 22 81 23
REMARK SMILES IDX 40 25 70 26 51 27 69 28 52 29 55 30 68 31 86 32 53 33 54 34
REMARK SMILES IDX 67 36 87 37 56 38 41 39 42 40 50 41 43 42 49 43 44 44 45 45
REMARK SMILES IDX 46 46 47 47 48 48 71 49 72 50 80 51 73 52 79 53 74 54 75 55
REMARK SMILES IDX 76 56 77 57 78 58 57 59 58 60 66 61 59 62 65 63 60 64 61 65
REMARK SMILES IDX 62 66 63 67 64 68 6 69 7 70 8 71 9 72 10 74 11 75 12 76
REMARK SMILES IDX 16 77 13 78 15 79 14 80 17 81 18 82 19 83 20 84 31 85 21 86
REMARK SMILES IDX 30 87 22 88 23 89 24 90 25 91 29 92 26 93 28 94 27 95
REMARK H PARENT 3 6 85 24 55 35 8 73
REMARK Flexibility Score: inf
ROOT
ATOM      1  C   UNL     1       4.754   2.481   1.897  1.00  0.00     0.023 C 
ENDROOT
BRANCH   1   2
ATOM      2  C   UNL     1       4.521   1.133   1.222  1.00  0.00     0.116 C 
BRANCH   2   3
ATOM      3  N   UNL     1       3.124   0.740   1.161  1.00  0.00    -0.352 N 
ATOM      4  O   UNL     1       1.175   0.154   0.191  1.00  0.00    -0.269 OA
ATOM      5  C   UNL     1       2.381   0.331   0.074  1.00  0.00     0.251 C 
ATOM      6  H   UNL     1       2.639   0.770   2.017  1.00  0.00     0.163 HD
BRANCH   5   7
ATOM      7  C   UNL     1       3.034   0.138  -1.242  1.00  0.00     0.039 A 
ATOM      8  C   UNL     1       4.200  -0.620  -1.363  1.00  0.00     0.014 A 
ATOM      9  C   UNL     1       2.459   0.723  -2.376  1.00  0.00     0.014 A 
ATOM     10  C   UNL     1       4.857  -0.684  -2.591  1.00  0.00     0.010 A 
ATOM     11  C   UNL     1       3.091   0.609  -3.620  1.00  0.00     0.010 A 
ATOM     12  C   UNL     1       4.313  -0.070  -3.731  1.00  0.00    -0.014 A 
BRANCH  12  13
ATOM     13  C   UNL     1       5.026  -0.181  -5.030  1.00  0.00     0.031 A 
ATOM     14  C   UNL     1       5.720   1.006  -5.636  1.00  0.00     0.074 A 
ATOM     15  C   UNL     1       5.092  -1.380  -5.640  1.00  0.00     0.049 A 
ATOM     16  N   UNL     1       6.439   1.067  -6.728  1.00  0.00    -0.248 NA
ATOM     17  C   UNL     1       5.592   2.289  -4.928  1.00  0.00     0.031 C 
ATOM     18  C   UNL     1       4.460  -2.605  -5.149  1.00  0.00     0.029 A 
ATOM     19  N   UNL     1       5.742  -1.776  -6.781  1.00  0.00    -0.354 N 
ATOM     20  C   UNL     1       6.839   2.393  -6.848  1.00  0.00     0.074 A 
ATOM     21  C   UNL     1       6.269   3.106  -5.724  1.00  0.00     0.031 C 
ATOM     22  C   UNL     1       4.803  -3.627  -5.948  1.00  0.00     0.029 A 
ATOM     23  C   UNL     1       5.632  -3.122  -7.038  1.00  0.00     0.049 A 
ATOM     24  H   UNL     1       6.240  -1.155  -7.361  1.00  0.00     0.167 HD
ATOM     25  C   UNL     1       7.609   2.963  -7.807  1.00  0.00     0.031 A 
ATOM     26  C   UNL     1       6.135  -3.869  -8.040  1.00  0.00     0.031 A 
ATOM     27  C   UNL     1       8.162   2.257  -8.934  1.00  0.00     0.049 A 
ATOM     28  C   UNL     1       6.959  -3.205  -9.106  1.00  0.00     0.074 A 
ATOM     29  C   UNL     1       8.947   2.754  -9.961  1.00  0.00     0.029 A 
ATOM     30  N   UNL     1       7.985   0.905  -9.187  1.00  0.00    -0.354 N 
ATOM     31  N   UNL     1       7.330  -1.951  -9.196  1.00  0.00    -0.248 NA
ATOM     32  C   UNL     1       7.423  -4.056 -10.210  1.00  0.00     0.031 C 
ATOM     33  C   UNL     1       9.210   1.711 -10.856  1.00  0.00     0.029 A 
ATOM     34  C   UNL     1       8.630   0.554 -10.362  1.00  0.00     0.049 A 
ATOM     35  H   UNL     1       7.477   0.285  -8.615  1.00  0.00     0.167 HD
ATOM     36  C   UNL     1       8.075  -1.862 -10.366  1.00  0.00     0.074 A 
ATOM     37  C   UNL     1       8.124  -3.194 -10.935  1.00  0.00     0.031 C 
ATOM     38  C   UNL     1       8.660  -0.773 -10.922  1.00  0.00     0.031 A 
BRANCH  25  39
ATOM     39  C   UNL     1       7.869   4.441  -7.697  1.00  0.00    -0.014 A 
ATOM     40  C   UNL     1       8.771   4.951  -6.745  1.00  0.00     0.010 A 
ATOM     41  C   UNL     1       7.232   5.330  -8.582  1.00  0.00     0.010 A 
ATOM     42  C   UNL     1       9.000   6.327  -6.655  1.00  0.00     0.020 A 
ATOM     43  C   UNL     1       7.475   6.705  -8.509  1.00  0.00     0.020 A 
ATOM     44  C   UNL     1       8.345   7.196  -7.533  1.00  0.00     0.054 A 
BRANCH  44  45
ATOM     45  S   UNL     1       8.665   8.977  -7.400  1.00  0.00     0.124 S 
ATOM     46  O   UNL     1       7.903   9.329  -6.203  1.00  0.00    -0.237 OA
ATOM     47  O   UNL     1      10.117   9.034  -7.258  1.00  0.00    -0.237 OA
ATOM     48  O   UNL     1       8.142   9.518  -8.652  1.00  0.00    -0.744 OA
ENDBRANCH  44  45
ENDBRANCH  25  39
BRANCH  26  49
ATOM     49  C   UNL     1       5.863  -5.330  -8.082  1.00  0.00    -0.014 A 
ATOM     50  C   UNL     1       6.890  -6.255  -7.828  1.00  0.00     0.010 A 
ATOM     51  C   UNL     1       4.566  -5.803  -8.356  1.00  0.00     0.010 A 
ATOM     52  C   UNL     1       6.628  -7.628  -7.855  1.00  0.00     0.020 A 
ATOM     53  C   UNL     1       4.295  -7.174  -8.359  1.00  0.00     0.020 A 
ATOM     54  C   UNL     1       5.331  -8.078  -8.119  1.00  0.00     0.054 A 
BRANCH  54  55
ATOM     55  S   UNL     1       4.994  -9.861  -8.090  1.00  0.00     0.124 S 
ATOM     56  O   UNL     1       5.504 -10.286  -9.390  1.00  0.00    -0.237 OA
ATOM     57  O   UNL     1       5.760 -10.312  -6.931  1.00  0.00    -0.237 OA
ATOM     58  O   UNL     1       3.543  -9.929  -7.932  1.00  0.00    -0.744 OA
ENDBRANCH  54  55
ENDBRANCH  26  49
BRANCH  38  59
ATOM     59  C   UNL     1       9.411  -0.978 -12.210  1.00  0.00    -0.014 A 
ATOM     60  C   UNL     1       8.727  -1.175 -13.422  1.00  0.00     0.010 A 
ATOM     61  C   UNL     1      10.817  -0.931 -12.212  1.00  0.00     0.010 A 
ATOM     62  C   UNL     1       9.438  -1.349 -14.613  1.00  0.00     0.020 A 
ATOM     63  C   UNL     1      11.530  -1.083 -13.404  1.00  0.00     0.020 A 
ATOM     64  C   UNL     1      10.835  -1.305 -14.596  1.00  0.00     0.054 A 
BRANCH  64  65
ATOM     65  S   UNL     1      11.736  -1.492 -16.159  1.00  0.00     0.124 S 
ATOM     66  O   UNL     1      11.650  -2.931 -16.389  1.00  0.00    -0.237 OA
ATOM     67  O   UNL     1      10.963  -0.661 -17.079  1.00  0.00    -0.237 OA
ATOM     68  O   UNL     1      13.073  -0.988 -15.849  1.00  0.00    -0.744 OA
ENDBRANCH  64  65
ENDBRANCH  38  59
ENDBRANCH  12  13
ENDBRANCH   5   7
ENDBRANCH   2   3
ENDBRANCH   1   2
BRANCH   1  69
ATOM     69  C   UNL     1       4.260   2.646   3.339  1.00  0.00     0.023 C 
BRANCH  69  70
ATOM     70  C   UNL     1       4.694   1.586   4.350  1.00  0.00     0.116 C 
BRANCH  70  71
ATOM     71  N   UNL     1       6.129   1.369   4.381  1.00  0.00    -0.352 N 
ATOM     72  C   UNL     1       6.919   0.911   5.400  1.00  0.00     0.253 C 
ATOM     73  H   UNL     1       6.604   1.583   3.545  1.00  0.00     0.163 HD
ATOM     74  O   UNL     1       8.135   0.823   5.245  1.00  0.00    -0.269 OA
BRANCH  72  75
ATOM     75  C   UNL     1       6.372   0.560   6.711  1.00  0.00     0.070 A 
ATOM     76  C   UNL     1       6.830   1.329   7.776  1.00  0.00     0.125 A 
ATOM     77  C   UNL     1       5.472  -0.467   6.990  1.00  0.00     0.055 A 
ATOM     78  N   UNL     1       6.407   1.192   9.057  1.00  0.00    -0.264 NA
ATOM     79  C   UNL     1       5.013  -0.618   8.308  1.00  0.00     0.035 A 
ATOM     80  C   UNL     1       5.495   0.228   9.291  1.00  0.00     0.112 A 
BRANCH  77  81
ATOM     81  C   UNL     1       4.762  -1.257   5.965  1.00  0.00     0.254 C 
ATOM     82  O   UNL     1       3.532  -1.240   6.071  1.00  0.00    -0.269 OA
ATOM     83  N   UNL     1       5.407  -1.908   4.917  1.00  0.00    -0.339 N 
ATOM     84  C   UNL     1       4.617  -2.082   3.703  1.00  0.00     0.120 C 
ATOM     85  C   UNL     1       6.841  -2.200   4.810  1.00  0.00     0.120 C 
ATOM     86  C   UNL     1       4.901  -3.361   2.947  1.00  0.00     0.025 C 
ATOM     87  C   UNL     1       7.129  -3.494   4.034  1.00  0.00     0.025 C 
ATOM     88  C   UNL     1       6.402  -3.504   2.675  1.00  0.00    -0.003 C 
BRANCH  88  89
ATOM     89  C   UNL     1       6.718  -4.777   1.869  1.00  0.00     0.039 C 
BRANCH  89  90
ATOM     90  C   UNL     1       6.086  -4.784   0.493  1.00  0.00    -0.048 A 
ATOM     91  C   UNL     1       4.852  -5.419   0.285  1.00  0.00     0.004 A 
ATOM     92  C   UNL     1       6.708  -4.146  -0.589  1.00  0.00     0.004 A 
ATOM     93  C   UNL     1       4.253  -5.418  -0.975  1.00  0.00     0.000 A 
ATOM     94  C   UNL     1       6.117  -4.165  -1.855  1.00  0.00     0.000 A 
ATOM     95  C   UNL     1       4.890  -4.798  -2.045  1.00  0.00     0.000 A 
ENDBRANCH  89  90
ENDBRANCH  88  89
ENDBRANCH  77  81
ENDBRANCH  72  75
ENDBRANCH  70  71
ENDBRANCH  69  70
ENDBRANCH   1  69
TORSDOF 17
