REMARK SMILES Cc1cc(=O)n2nc(C)c(C(=O)NCCCCNC(=O)c3ccc(-c4c5nc(c(-c6ccc(S(=O)(=O)[O-])cc6)c6ccc([nH]6)c(-c6ccc(S(=O)(=O)[O-])cc6)c6nc(c(-c7ccc(S(=O)(=O)[O-])cc7)c7ccc4[nH]7)C=C6)C=C5)cc3)c2[nH]1
REMARK SMILES IDX 17 1 16 2 15 3 14 4 13 5 11 6 12 7 10 9 1 10 2 11 3 12 82 13
REMARK SMILES IDX 4 14 81 15 5 17 6 18 7 19 8 20 9 21 18 22 19 23 20 25 21 26
REMARK SMILES IDX 22 27 80 28 23 29 79 30 24 31 25 32 26 33 73 34 27 35 78 36
REMARK SMILES IDX 72 37 74 38 28 39 77 40 71 41 70 42 29 44 59 45 40 46 58 47
REMARK SMILES IDX 41 48 44 49 57 50 75 51 42 52 43 53 56 55 76 56 45 57 30 58
REMARK SMILES IDX 31 59 39 60 32 61 38 62 33 63 34 64 35 65 36 66 37 67 60 68
REMARK SMILES IDX 61 69 69 70 62 71 68 72 63 73 64 74 65 75 66 76 67 77 46 78
REMARK SMILES IDX 47 79 55 80 48 81 54 82 49 83 50 84 51 85 52 86 53 87
REMARK H PARENT 13 8 82 16 18 24 74 43 44 54
REMARK Flexibility Score: inf
ROOT
ATOM      1  C   UNL     1      -1.924   4.808   9.442  1.00  0.00     0.116 C 
ENDROOT
BRANCH   1   2
ATOM      2  C   UNL     1      -0.673   4.274   8.751  1.00  0.00     0.023 C 
BRANCH   2   3
ATOM      3  C   UNL     1      -0.811   2.855   8.178  1.00  0.00     0.023 C 
BRANCH   3   4
ATOM      4  C   UNL     1      -1.841   2.701   7.054  1.00  0.00     0.116 C 
BRANCH   4   5
ATOM      5  N   UNL     1      -1.272   2.947   5.753  1.00  0.00    -0.352 N 
ATOM      6  C   UNL     1      -0.802   2.153   4.744  1.00  0.00     0.256 C 
ATOM      7  O   UNL     1      -0.457   2.789   3.737  1.00  0.00    -0.269 OA
ATOM      8  H   UNL     1      -1.206   3.906   5.543  1.00  0.00     0.163 HD
BRANCH   6   9
ATOM      9  C   UNL     1      -0.673   0.691   4.762  1.00  0.00     0.105 A 
ATOM     10  C   UNL     1       0.953   0.132   0.064  1.00  0.00     0.064 C 
ATOM     11  C   UNL     1       0.571  -0.432   1.403  1.00  0.00     0.019 A 
ATOM     12  C   UNL     1       0.622  -1.758   1.630  1.00  0.00     0.095 A 
ATOM     13  N   UNL     1       0.155   0.450   2.385  1.00  0.00    -0.343 N 
ATOM     14  C   UNL     1       0.244  -2.299   2.965  1.00  0.00     0.274 A 
ATOM     15  C   UNL     1      -0.222   0.031   3.622  1.00  0.00     0.150 A 
ATOM     16  H   UNL     1       0.131   1.413   2.181  1.00  0.00     0.168 HD
ATOM     17  O   UNL     1       0.303  -3.483   3.250  1.00  0.00    -0.267 OA
ATOM     18  N   UNL     1      -0.171  -1.314   3.880  1.00  0.00    -0.179 N 
ATOM     19  N   UNL     1      -0.549  -1.596   5.139  1.00  0.00    -0.168 NA
ATOM     20  C   UNL     1      -0.863  -0.406   5.678  1.00  0.00     0.075 A 
ATOM     21  C   UNL     1      -1.318  -0.487   7.089  1.00  0.00     0.070 C 
ENDBRANCH   6   9
ENDBRANCH   4   5
ENDBRANCH   3   4
ENDBRANCH   2   3
ENDBRANCH   1   2
BRANCH   1  22
ATOM     22  N   UNL     1      -2.330   4.015  10.603  1.00  0.00    -0.352 N 
ATOM     23  C   UNL     1      -3.495   4.155  11.341  1.00  0.00     0.251 C 
ATOM     24  H   UNL     1      -1.710   3.307  10.891  1.00  0.00     0.163 HD
ATOM     25  O   UNL     1      -3.557   3.771  12.502  1.00  0.00    -0.269 OA
BRANCH  23  26
ATOM     26  C   UNL     1      -4.664   4.755  10.676  1.00  0.00     0.039 A 
ATOM     27  C   UNL     1      -5.467   5.715  11.295  1.00  0.00     0.014 A 
ATOM     28  C   UNL     1      -4.898   4.363   9.359  1.00  0.00     0.014 A 
ATOM     29  C   UNL     1      -6.463   6.333  10.539  1.00  0.00     0.010 A 
ATOM     30  C   UNL     1      -5.752   5.091   8.576  1.00  0.00     0.010 A 
ATOM     31  C   UNL     1      -6.583   6.029   9.171  1.00  0.00    -0.014 A 
BRANCH  31  32
ATOM     32  C   UNL     1      -7.506   6.750   8.307  1.00  0.00     0.031 A 
ATOM     33  C   UNL     1      -7.357   8.226   8.344  1.00  0.00     0.074 A 
ATOM     34  C   UNL     1      -8.314   6.145   7.409  1.00  0.00     0.049 A 
ATOM     35  N   UNL     1      -8.107   9.056   8.987  1.00  0.00    -0.248 NA
ATOM     36  C   UNL     1      -6.158   8.842   7.756  1.00  0.00     0.031 C 
ATOM     37  C   UNL     1      -8.399   4.726   7.041  1.00  0.00     0.029 A 
ATOM     38  N   UNL     1      -9.204   6.719   6.559  1.00  0.00    -0.354 N 
ATOM     39  C   UNL     1      -7.630  10.324   8.682  1.00  0.00     0.074 A 
ATOM     40  C   UNL     1      -6.327  10.123   8.098  1.00  0.00     0.031 C 
ATOM     41  C   UNL     1      -9.125   4.588   5.906  1.00  0.00     0.029 A 
ATOM     42  C   UNL     1      -9.708   5.875   5.576  1.00  0.00     0.049 A 
ATOM     43  H   UNL     1      -9.473   7.663   6.634  1.00  0.00     0.167 HD
ATOM     44  C   UNL     1      -8.460  11.406   8.707  1.00  0.00     0.031 A 
ATOM     45  C   UNL     1     -10.569   6.209   4.580  1.00  0.00     0.031 A 
ATOM     46  C   UNL     1      -9.718  11.084   9.341  1.00  0.00     0.049 A 
ATOM     47  C   UNL     1     -11.299   7.412   5.054  1.00  0.00     0.074 A 
ATOM     48  C   UNL     1     -10.090  10.635  10.593  1.00  0.00     0.029 A 
ATOM     49  N   UNL     1     -10.777  10.794   8.508  1.00  0.00    -0.354 N 
ATOM     50  N   UNL     1     -12.100   7.390   6.085  1.00  0.00    -0.248 NA
ATOM     51  C   UNL     1     -10.764   8.718   4.705  1.00  0.00     0.031 C 
ATOM     52  C   UNL     1     -11.112   9.670  10.345  1.00  0.00     0.029 A 
ATOM     53  C   UNL     1     -11.369   9.648   8.973  1.00  0.00     0.049 A 
ATOM     54  H   UNL     1     -11.057  11.316   7.721  1.00  0.00     0.167 HD
ATOM     55  C   UNL     1     -11.825   8.564   6.772  1.00  0.00     0.074 A 
ATOM     56  C   UNL     1     -11.059   9.381   5.828  1.00  0.00     0.031 C 
ATOM     57  C   UNL     1     -11.998   8.655   8.125  1.00  0.00     0.031 A 
BRANCH  44  58
ATOM     58  C   UNL     1      -8.323  12.604   7.798  1.00  0.00    -0.014 A 
ATOM     59  C   UNL     1      -9.289  13.629   7.899  1.00  0.00     0.010 A 
ATOM     60  C   UNL     1      -7.476  12.635   6.673  1.00  0.00     0.010 A 
ATOM     61  C   UNL     1      -9.470  14.563   6.872  1.00  0.00     0.020 A 
ATOM     62  C   UNL     1      -7.621  13.588   5.662  1.00  0.00     0.020 A 
ATOM     63  C   UNL     1      -8.646  14.520   5.749  1.00  0.00     0.054 A 
BRANCH  63  64
ATOM     64  S   UNL     1      -8.979  15.642   4.370  1.00  0.00     0.124 S 
ATOM     65  O   UNL     1     -10.297  15.194   3.931  1.00  0.00    -0.237 OA
ATOM     66  O   UNL     1      -8.936  16.948   5.021  1.00  0.00    -0.237 OA
ATOM     67  O   UNL     1      -7.883  15.376   3.442  1.00  0.00    -0.744 OA
ENDBRANCH  63  64
ENDBRANCH  44  58
BRANCH  45  68
ATOM     68  C   UNL     1     -10.539   5.788   3.154  1.00  0.00    -0.014 A 
ATOM     69  C   UNL     1     -11.594   6.111   2.278  1.00  0.00     0.010 A 
ATOM     70  C   UNL     1      -9.334   5.332   2.579  1.00  0.00     0.010 A 
ATOM     71  C   UNL     1     -11.426   6.054   0.881  1.00  0.00     0.020 A 
ATOM     72  C   UNL     1      -9.160   5.271   1.189  1.00  0.00     0.020 A 
ATOM     73  C   UNL     1     -10.198   5.658   0.345  1.00  0.00     0.054 A 
BRANCH  73  74
ATOM     74  S   UNL     1      -9.925   5.768  -1.451  1.00  0.00     0.124 S 
ATOM     75  O   UNL     1     -10.816   4.733  -1.967  1.00  0.00    -0.237 OA
ATOM     76  O   UNL     1     -10.314   7.143  -1.749  1.00  0.00    -0.237 OA
ATOM     77  O   UNL     1      -8.498   5.486  -1.600  1.00  0.00    -0.744 OA
ENDBRANCH  73  74
ENDBRANCH  45  68
BRANCH  57  78
ATOM     78  C   UNL     1     -12.709   7.525   8.844  1.00  0.00    -0.014 A 
ATOM     79  C   UNL     1     -12.204   6.211   8.930  1.00  0.00     0.010 A 
ATOM     80  C   UNL     1     -13.833   7.859   9.619  1.00  0.00     0.010 A 
ATOM     81  C   UNL     1     -12.813   5.260   9.766  1.00  0.00     0.020 A 
ATOM     82  C   UNL     1     -14.434   6.922  10.465  1.00  0.00     0.020 A 
ATOM     83  C   UNL     1     -13.924   5.625  10.533  1.00  0.00     0.054 A 
BRANCH  83  84
ATOM     84  S   UNL     1     -14.671   4.416  11.664  1.00  0.00     0.124 S 
ATOM     85  O   UNL     1     -15.224   3.422  10.748  1.00  0.00    -0.237 OA
ATOM     86  O   UNL     1     -13.530   3.970  12.462  1.00  0.00    -0.237 OA
ATOM     87  O   UNL     1     -15.664   5.195  12.402  1.00  0.00    -0.744 OA
ENDBRANCH  83  84
ENDBRANCH  57  78
ENDBRANCH  31  32
ENDBRANCH  23  26
ENDBRANCH   1  22
TORSDOF 14
