REMARK SMILES Cc1ccccc1OCC(=O)N1C[C@@H](O)C[C@H]1C(=O)NCCCCNC(=O)c1ccc(-c2c3nc(c(-c4ccc(S(=O)(=O)[O-])cc4)c4ccc([nH]4)c(-c4ccc(S(=O)(=O)[O-])cc4)c4nc(c(-c5ccc(S(=O)(=O)[O-])cc5)c5ccc2[nH]5)C=C4)C=C3)cc1
REMARK SMILES IDX 22 1 21 2 20 3 18 4 19 5 17 7 12 8 13 9 14 10 16 11 10 12
REMARK SMILES IDX 11 13 9 14 8 15 7 16 1 17 2 18 3 19 4 20 6 21 5 22 15 23
REMARK SMILES IDX 23 25 24 26 25 27 26 28 27 30 28 31 29 32 87 33 30 34 86 35
REMARK SMILES IDX 31 36 32 37 33 38 80 39 34 40 85 41 79 42 81 43 35 44 84 45
REMARK SMILES IDX 78 46 77 47 36 49 66 50 47 51 65 52 48 53 51 54 64 55 82 56
REMARK SMILES IDX 49 57 50 58 63 60 83 61 52 62 37 63 38 64 46 65 39 66 45 67
REMARK SMILES IDX 40 68 41 69 42 70 43 71 44 72 67 73 68 74 76 75 69 76 75 77
REMARK SMILES IDX 70 78 71 79 72 80 73 81 74 82 53 83 54 84 62 85 55 86 61 87
REMARK SMILES IDX 56 88 57 89 58 90 59 91 60 92
REMARK H PARENT 20 6 15 24 25 29 81 48 51 59
REMARK Flexibility Score: inf
ROOT
ATOM      1  C   UNL     1       0.653  -0.567   3.316  1.00  0.00     0.023 C 
ENDROOT
BRANCH   1   2
ATOM      2  C   UNL     1       1.375   0.024   4.525  1.00  0.00     0.116 C 
BRANCH   2   3
ATOM      3  N   UNL     1       2.823  -0.052   4.431  1.00  0.00    -0.354 N 
ATOM      4  C   UNL     1       3.773   0.889   4.172  1.00  0.00     0.242 C 
ATOM      5  O   UNL     1       4.947   0.568   4.390  1.00  0.00    -0.273 OA
ATOM      6  H   UNL     1       3.186  -0.955   4.582  1.00  0.00     0.163 HD
BRANCH   4   7
ATOM      7  C   UNL     1       3.435   2.339   3.767  1.00  0.00     0.177 C 
ATOM      8  N   UNL     1       2.578   2.484   2.589  1.00  0.00    -0.325 N 
ATOM      9  C   UNL     1       1.375   3.236   2.888  1.00  0.00     0.152 C 
ATOM     10  C   UNL     1       1.687   3.964   4.195  1.00  0.00     0.136 C 
ATOM     11  C   UNL     1       2.742   3.109   4.893  1.00  0.00     0.069 C 
BRANCH   8  12
ATOM     12  C   UNL     1       3.078   2.196   1.334  1.00  0.00     0.261 C 
ATOM     13  O   UNL     1       4.209   1.725   1.183  1.00  0.00    -0.271 OA
BRANCH  12  14
ATOM     14  C   UNL     1       2.249   2.584   0.101  1.00  0.00     0.329 C 
BRANCH  14  15
ATOM     15  O   UNL     1       0.869   2.327   0.081  1.00  0.00    -0.484 OA
BRANCH  15  16
ATOM     16  C   UNL     1       0.332   1.087  -0.090  1.00  0.00     0.122 A 
ATOM     17  C   UNL     1       2.403  -0.411  -0.534  1.00  0.00     0.048 C 
ATOM     18  C   UNL     1       0.933  -0.149  -0.375  1.00  0.00    -0.009 A 
ATOM     19  C   UNL     1       0.102  -1.293  -0.446  1.00  0.00     0.007 A 
ATOM     20  C   UNL     1      -1.275  -1.224  -0.236  1.00  0.00     0.001 A 
ATOM     21  C   UNL     1      -1.064   1.140   0.090  1.00  0.00     0.047 A 
ATOM     22  C   UNL     1      -1.862   0.000   0.030  1.00  0.00     0.004 A 
ENDBRANCH  15  16
ENDBRANCH  14  15
ENDBRANCH  12  14
ENDBRANCH   8  12
BRANCH  10  23
ATOM     23  O   UNL     1       0.539   4.144   5.008  1.00  0.00    -0.391 OA
ATOM     24  H   UNL     1       0.159   3.279   5.226  1.00  0.00     0.211 HD
ENDBRANCH  10  23
ENDBRANCH   4   7
ENDBRANCH   2   3
ENDBRANCH   1   2
BRANCH   1  25
ATOM     25  C   UNL     1       0.946  -2.042   3.037  1.00  0.00     0.023 C 
BRANCH  25  26
ATOM     26  C   UNL     1       0.474  -2.984   4.136  1.00  0.00     0.116 C 
BRANCH  26  27
ATOM     27  N   UNL     1      -0.696  -3.776   3.792  1.00  0.00    -0.352 N 
ATOM     28  C   UNL     1      -1.337  -4.716   4.584  1.00  0.00     0.251 C 
ATOM     29  H   UNL     1      -1.076  -3.628   2.896  1.00  0.00     0.163 HD
ATOM     30  O   UNL     1      -2.200  -5.454   4.135  1.00  0.00    -0.269 OA
BRANCH  28  31
ATOM     31  C   UNL     1      -0.989  -4.745   6.023  1.00  0.00     0.039 A 
ATOM     32  C   UNL     1      -1.981  -4.387   6.941  1.00  0.00     0.014 A 
ATOM     33  C   UNL     1       0.339  -4.876   6.424  1.00  0.00     0.014 A 
ATOM     34  C   UNL     1      -1.612  -3.979   8.223  1.00  0.00     0.010 A 
ATOM     35  C   UNL     1       0.711  -4.381   7.662  1.00  0.00     0.010 A 
ATOM     36  C   UNL     1      -0.257  -3.880   8.544  1.00  0.00    -0.014 A 
BRANCH  36  37
ATOM     37  C   UNL     1       0.245  -3.162   9.716  1.00  0.00     0.031 A 
ATOM     38  C   UNL     1       0.872  -3.894  10.847  1.00  0.00     0.074 A 
ATOM     39  C   UNL     1       0.193  -1.810   9.768  1.00  0.00     0.049 A 
ATOM     40  N   UNL     1       1.002  -3.416  12.043  1.00  0.00    -0.248 NA
ATOM     41  C   UNL     1       1.318  -5.282  10.739  1.00  0.00     0.031 C 
ATOM     42  C   UNL     1       0.941  -0.949  10.682  1.00  0.00     0.029 A 
ATOM     43  N   UNL     1      -0.720  -0.941   9.163  1.00  0.00    -0.354 N 
ATOM     44  C   UNL     1       1.804  -4.281  12.752  1.00  0.00     0.074 A 
ATOM     45  C   UNL     1       1.848  -5.479  11.950  1.00  0.00     0.031 C 
ATOM     46  C   UNL     1       0.280   0.209  10.818  1.00  0.00     0.029 A 
ATOM     47  C   UNL     1      -0.974   0.078  10.097  1.00  0.00     0.049 A 
ATOM     48  H   UNL     1      -1.107  -1.026   8.261  1.00  0.00     0.167 HD
ATOM     49  C   UNL     1       2.462  -3.840  13.863  1.00  0.00     0.031 A 
ATOM     50  C   UNL     1      -2.204   0.403  10.589  1.00  0.00     0.031 A 
ATOM     51  C   UNL     1       1.986  -2.527  14.297  1.00  0.00     0.049 A 
ATOM     52  C   UNL     1      -2.282   0.377  12.098  1.00  0.00     0.074 A 
ATOM     53  C   UNL     1       2.520  -1.251  14.238  1.00  0.00     0.029 A 
ATOM     54  N   UNL     1       0.664  -2.383  14.705  1.00  0.00    -0.354 N 
ATOM     55  N   UNL     1      -1.357  -0.132  12.862  1.00  0.00    -0.248 NA
ATOM     56  C   UNL     1      -3.434   0.852  12.863  1.00  0.00     0.031 C 
ATOM     57  C   UNL     1       1.481  -0.329  14.532  1.00  0.00     0.029 A 
ATOM     58  C   UNL     1       0.329  -1.047  14.803  1.00  0.00     0.049 A 
ATOM     59  H   UNL     1       0.052  -3.130  14.897  1.00  0.00     0.167 HD
ATOM     60  C   UNL     1      -1.773  -0.108  14.166  1.00  0.00     0.074 A 
ATOM     61  C   UNL     1      -3.068   0.546  14.120  1.00  0.00     0.031 C 
ATOM     62  C   UNL     1      -1.027  -0.657  15.167  1.00  0.00     0.031 A 
BRANCH  49  63
ATOM     63  C   UNL     1       3.719  -4.484  14.431  1.00  0.00    -0.014 A 
ATOM     64  C   UNL     1       4.457  -3.813  15.432  1.00  0.00     0.010 A 
ATOM     65  C   UNL     1       4.297  -5.675  13.951  1.00  0.00     0.010 A 
ATOM     66  C   UNL     1       5.714  -4.268  15.872  1.00  0.00     0.020 A 
ATOM     67  C   UNL     1       5.540  -6.152  14.389  1.00  0.00     0.020 A 
ATOM     68  C   UNL     1       6.257  -5.431  15.332  1.00  0.00     0.054 A 
BRANCH  68  69
ATOM     69  S   UNL     1       7.908  -5.980  15.836  1.00  0.00     0.124 S 
ATOM     70  O   UNL     1       8.759  -4.905  15.334  1.00  0.00    -0.237 OA
ATOM     71  O   UNL     1       7.786  -6.066  17.288  1.00  0.00    -0.237 OA
ATOM     72  O   UNL     1       8.069  -7.264  15.153  1.00  0.00    -0.744 OA
ENDBRANCH  68  69
ENDBRANCH  49  63
BRANCH  50  73
ATOM     73  C   UNL     1      -3.338   0.103   9.679  1.00  0.00    -0.014 A 
ATOM     74  C   UNL     1      -3.478   0.916   8.536  1.00  0.00     0.010 A 
ATOM     75  C   UNL     1      -3.950  -1.163   9.703  1.00  0.00     0.010 A 
ATOM     76  C   UNL     1      -4.056   0.404   7.374  1.00  0.00     0.020 A 
ATOM     77  C   UNL     1      -4.533  -1.677   8.537  1.00  0.00     0.020 A 
ATOM     78  C   UNL     1      -4.514  -0.914   7.366  1.00  0.00     0.054 A 
BRANCH  78  79
ATOM     79  S   UNL     1      -4.864  -1.675   5.753  1.00  0.00     0.124 S 
ATOM     80  O   UNL     1      -5.882  -0.787   5.201  1.00  0.00    -0.237 OA
ATOM     81  O   UNL     1      -3.552  -1.608   5.111  1.00  0.00    -0.237 OA
ATOM     82  O   UNL     1      -5.319  -3.015   6.107  1.00  0.00    -0.744 OA
ENDBRANCH  78  79
ENDBRANCH  50  73
BRANCH  62  83
ATOM     83  C   UNL     1      -1.474  -0.835  16.597  1.00  0.00    -0.014 A 
ATOM     84  C   UNL     1      -2.813  -0.987  16.989  1.00  0.00     0.010 A 
ATOM     85  C   UNL     1      -0.489  -0.984  17.602  1.00  0.00     0.010 A 
ATOM     86  C   UNL     1      -3.160  -1.213  18.330  1.00  0.00     0.020 A 
ATOM     87  C   UNL     1      -0.821  -1.249  18.934  1.00  0.00     0.020 A 
ATOM     88  C   UNL     1      -2.161  -1.337  19.296  1.00  0.00     0.054 A 
BRANCH  88  89
ATOM     89  S   UNL     1      -2.603  -1.695  21.016  1.00  0.00     0.124 S 
ATOM     90  O   UNL     1      -2.678  -0.355  21.592  1.00  0.00    -0.237 OA
ATOM     91  O   UNL     1      -3.880  -2.394  20.893  1.00  0.00    -0.237 OA
ATOM     92  O   UNL     1      -1.493  -2.521  21.485  1.00  0.00    -0.744 OA
ENDBRANCH  88  89
ENDBRANCH  62  83
ENDBRANCH  36  37
ENDBRANCH  28  31
ENDBRANCH  26  27
ENDBRANCH  25  26
ENDBRANCH   1  25
TORSDOF 19
