REMARK SMILES CCN(C(=O)N1[C@@H](C(=O)NCCCCNC(=O)c2ccc(-c3c4nc(c(-c5ccc(S(=O)(=O)[O-])cc5)c5ccc([nH]5)c(-c5ccc(S(=O)(=O)[O-])cc5)c5nc(c(-c6ccc(S(=O)(=O)[O-])cc6)c6ccc3[nH]6)C=C5)C=C4)cc2)CC[C@H]2CCCC[C@@H]21)C(C)C
REMARK SMILES IDX 12 1 11 2 10 3 8 4 9 5 7 7 6 8 85 9 78 10 80 11 84 12 79 13
REMARK SMILES IDX 81 14 83 15 82 16 4 17 5 18 3 19 2 20 1 21 86 22 87 23 88 24
REMARK SMILES IDX 13 25 14 26 15 27 16 28 17 30 18 31 19 32 77 33 20 34 76 35
REMARK SMILES IDX 21 36 22 37 23 38 70 39 24 40 75 41 69 42 71 43 25 44 74 45
REMARK SMILES IDX 68 46 67 47 26 49 56 50 37 51 55 52 38 53 41 54 54 55 72 56
REMARK SMILES IDX 39 57 40 58 53 60 73 61 42 62 27 63 28 64 36 65 29 66 35 67
REMARK SMILES IDX 30 68 31 69 32 70 33 71 34 72 57 73 58 74 66 75 59 76 65 77
REMARK SMILES IDX 60 78 61 79 62 80 63 81 64 82 43 83 44 84 52 85 45 86 51 87
REMARK SMILES IDX 46 88 47 89 48 90 49 91 50 92
REMARK H PARENT 10 6 15 29 71 48 41 59
REMARK Flexibility Score: inf
ROOT
ATOM      1  C   UNL     1      -1.232   3.319   2.232  1.00  0.00     0.023 C 
ENDROOT
BRANCH   1   2
ATOM      2  C   UNL     1      -0.677   1.952   2.621  1.00  0.00     0.116 C 
BRANCH   2   3
ATOM      3  N   UNL     1      -0.941   1.651   4.010  1.00  0.00    -0.354 N 
ATOM      4  C   UNL     1      -1.704   0.657   4.549  1.00  0.00     0.242 C 
ATOM      5  O   UNL     1      -1.998   0.754   5.746  1.00  0.00    -0.273 OA
ATOM      6  H   UNL     1      -0.508   2.249   4.661  1.00  0.00     0.163 HD
BRANCH   4   7
ATOM      7  C   UNL     1      -2.357  -0.439   3.667  1.00  0.00     0.176 C 
ATOM      8  N   UNL     1      -1.493  -1.143   2.695  1.00  0.00    -0.309 N 
ATOM      9  C   UNL     1      -2.165  -2.189   1.899  1.00  0.00     0.091 C 
ATOM     10  C   UNL     1      -3.561   0.227   2.938  1.00  0.00     0.036 C 
ATOM     11  C   UNL     1      -3.669  -1.901   1.708  1.00  0.00     0.012 C 
ATOM     12  C   UNL     1      -2.048  -3.623   2.440  1.00  0.00     0.025 C 
ATOM     13  C   UNL     1      -3.891  -0.406   1.579  1.00  0.00     0.008 C 
ATOM     14  C   UNL     1      -4.186  -2.748   0.550  1.00  0.00     0.006 C 
ATOM     15  C   UNL     1      -2.641  -4.609   1.417  1.00  0.00     0.002 C 
ATOM     16  C   UNL     1      -4.045  -4.230   0.920  1.00  0.00     0.000 C 
BRANCH   8  17
ATOM     17  C   UNL     1      -0.150  -1.291   3.025  1.00  0.00     0.321 C 
ATOM     18  O   UNL     1       0.179  -1.450   4.199  1.00  0.00    -0.248 OA
BRANCH  17  19
ATOM     19  N   UNL     1       0.786  -1.138   1.984  1.00  0.00    -0.322 N 
BRANCH  19  20
ATOM     20  C   UNL     1       0.411  -0.925   0.574  1.00  0.00     0.118 C 
ATOM     21  C   UNL     1       1.187   0.096  -0.241  1.00  0.00     0.027 C 
ENDBRANCH  19  20
BRANCH  19  22
ATOM     22  C   UNL     1       2.214  -1.319   2.361  1.00  0.00     0.080 C 
ATOM     23  C   UNL     1       2.830  -2.553   1.706  1.00  0.00     0.031 C 
ATOM     24  C   UNL     1       3.086  -0.074   2.167  1.00  0.00     0.031 C 
ENDBRANCH  19  22
ENDBRANCH  17  19
ENDBRANCH   8  17
ENDBRANCH   4   7
ENDBRANCH   2   3
ENDBRANCH   1   2
BRANCH   1  25
ATOM     25  C   UNL     1      -0.531   4.500   2.900  1.00  0.00     0.023 C 
BRANCH  25  26
ATOM     26  C   UNL     1       0.974   4.570   2.668  1.00  0.00     0.116 C 
BRANCH  26  27
ATOM     27  N   UNL     1       1.325   4.633   1.258  1.00  0.00    -0.352 N 
ATOM     28  C   UNL     1       2.267   5.423   0.644  1.00  0.00     0.251 C 
ATOM     29  H   UNL     1       0.821   4.030   0.664  1.00  0.00     0.163 HD
ATOM     30  O   UNL     1       2.341   5.451  -0.582  1.00  0.00    -0.269 OA
BRANCH  28  31
ATOM     31  C   UNL     1       3.166   6.255   1.470  1.00  0.00     0.039 A 
ATOM     32  C   UNL     1       3.352   7.597   1.129  1.00  0.00     0.014 A 
ATOM     33  C   UNL     1       3.805   5.717   2.590  1.00  0.00     0.014 A 
ATOM     34  C   UNL     1       4.140   8.413   1.943  1.00  0.00     0.010 A 
ATOM     35  C   UNL     1       4.526   6.548   3.441  1.00  0.00     0.010 A 
ATOM     36  C   UNL     1       4.711   7.902   3.120  1.00  0.00    -0.014 A 
BRANCH  36  37
ATOM     37  C   UNL     1       5.534   8.756   4.014  1.00  0.00     0.031 A 
ATOM     38  C   UNL     1       6.993   8.444   4.211  1.00  0.00     0.074 A 
ATOM     39  C   UNL     1       4.962   9.774   4.687  1.00  0.00     0.049 A 
ATOM     40  N   UNL     1       7.865   9.031   4.990  1.00  0.00    -0.248 NA
ATOM     41  C   UNL     1       7.539   7.306   3.452  1.00  0.00     0.031 C 
ATOM     42  C   UNL     1       3.549  10.155   4.611  1.00  0.00     0.029 A 
ATOM     43  N   UNL     1       5.500  10.674   5.572  1.00  0.00    -0.354 N 
ATOM     44  C   UNL     1       9.052   8.325   4.828  1.00  0.00     0.074 A 
ATOM     45  C   UNL     1       8.775   7.234   3.921  1.00  0.00     0.031 C 
ATOM     46  C   UNL     1       3.341  11.228   5.392  1.00  0.00     0.029 A 
ATOM     47  C   UNL     1       4.592  11.588   6.052  1.00  0.00     0.049 A 
ATOM     48  H   UNL     1       6.447  10.666   5.838  1.00  0.00     0.167 HD
ATOM     49  C   UNL     1      10.270   8.576   5.365  1.00  0.00     0.031 A 
ATOM     50  C   UNL     1       4.749  12.602   6.925  1.00  0.00     0.031 A 
ATOM     51  C   UNL     1      10.547   9.672   6.254  1.00  0.00     0.049 A 
ATOM     52  C   UNL     1       6.112  12.860   7.510  1.00  0.00     0.074 A 
ATOM     53  C   UNL     1      11.756  10.037   6.820  1.00  0.00     0.029 A 
ATOM     54  N   UNL     1       9.603  10.584   6.702  1.00  0.00    -0.354 N 
ATOM     55  N   UNL     1       7.234  12.211   7.306  1.00  0.00    -0.248 NA
ATOM     56  C   UNL     1       6.232  13.998   8.433  1.00  0.00     0.031 C 
ATOM     57  C   UNL     1      11.535  11.147   7.642  1.00  0.00     0.029 A 
ATOM     58  C   UNL     1      10.200  11.505   7.544  1.00  0.00     0.049 A 
ATOM     59  H   UNL     1       8.650  10.577   6.456  1.00  0.00     0.167 HD
ATOM     60  C   UNL     1       8.200  12.884   8.045  1.00  0.00     0.074 A 
ATOM     61  C   UNL     1       7.533  13.995   8.694  1.00  0.00     0.031 C 
ATOM     62  C   UNL     1       9.522  12.611   8.173  1.00  0.00     0.031 A 
BRANCH  49  63
ATOM     63  C   UNL     1      11.395   7.645   4.995  1.00  0.00    -0.014 A 
ATOM     64  C   UNL     1      11.926   7.634   3.692  1.00  0.00     0.010 A 
ATOM     65  C   UNL     1      11.946   6.789   5.965  1.00  0.00     0.010 A 
ATOM     66  C   UNL     1      12.955   6.753   3.354  1.00  0.00     0.020 A 
ATOM     67  C   UNL     1      12.997   5.926   5.638  1.00  0.00     0.020 A 
ATOM     68  C   UNL     1      13.482   5.901   4.329  1.00  0.00     0.054 A 
BRANCH  68  69
ATOM     69  S   UNL     1      14.829   4.778   3.866  1.00  0.00     0.124 S 
ATOM     70  O   UNL     1      14.123   3.773   3.075  1.00  0.00    -0.237 OA
ATOM     71  O   UNL     1      15.729   5.649   3.114  1.00  0.00    -0.237 OA
ATOM     72  O   UNL     1      15.347   4.310   5.149  1.00  0.00    -0.744 OA
ENDBRANCH  68  69
ENDBRANCH  49  63
BRANCH  50  73
ATOM     73  C   UNL     1       3.593  13.472   7.277  1.00  0.00    -0.014 A 
ATOM     74  C   UNL     1       3.539  14.801   6.822  1.00  0.00     0.010 A 
ATOM     75  C   UNL     1       2.540  12.977   8.068  1.00  0.00     0.010 A 
ATOM     76  C   UNL     1       2.468  15.628   7.173  1.00  0.00     0.020 A 
ATOM     77  C   UNL     1       1.453  13.792   8.397  1.00  0.00     0.020 A 
ATOM     78  C   UNL     1       1.431  15.118   7.958  1.00  0.00     0.054 A 
BRANCH  78  79
ATOM     79  S   UNL     1       0.031  16.197   8.367  1.00  0.00     0.124 S 
ATOM     80  O   UNL     1       0.611  17.077   9.376  1.00  0.00    -0.237 OA
ATOM     81  O   UNL     1      -0.274  16.820   7.082  1.00  0.00    -0.237 OA
ATOM     82  O   UNL     1      -0.985  15.267   8.855  1.00  0.00    -0.744 OA
ENDBRANCH  78  79
ENDBRANCH  50  73
BRANCH  62  83
ATOM     83  C   UNL     1      10.348  13.556   9.004  1.00  0.00    -0.014 A 
ATOM     84  C   UNL     1      10.243  13.583  10.405  1.00  0.00     0.010 A 
ATOM     85  C   UNL     1      11.283  14.394   8.368  1.00  0.00     0.010 A 
ATOM     86  C   UNL     1      11.035  14.459  11.154  1.00  0.00     0.020 A 
ATOM     87  C   UNL     1      12.095  15.250   9.115  1.00  0.00     0.020 A 
ATOM     88  C   UNL     1      11.955  15.288  10.503  1.00  0.00     0.054 A 
BRANCH  88  89
ATOM     89  S   UNL     1      12.999  16.387  11.499  1.00  0.00     0.124 S 
ATOM     90  O   UNL     1      12.058  17.436  11.881  1.00  0.00    -0.237 OA
ATOM     91  O   UNL     1      13.441  15.514  12.584  1.00  0.00    -0.237 OA
ATOM     92  O   UNL     1      14.050  16.799  10.572  1.00  0.00    -0.744 OA
ENDBRANCH  88  89
ENDBRANCH  62  83
ENDBRANCH  36  37
ENDBRANCH  28  31
ENDBRANCH  26  27
ENDBRANCH  25  26
ENDBRANCH   1  25
TORSDOF 18
