REMARK SMILES O=C(NCCCCNC(=O)c1cc(-c2ccccc2)nc(Nc2nc3ccccc3s2)n1)c1ccc(-c2c3nc(c(-c4ccc(S(=O)(=O)[O-])cc4)c4ccc([nH]4)c(-c4ccc(S(=O)(=O)[O-])cc4)c4nc(c(-c5ccc(S(=O)(=O)[O-])cc5)c5ccc2[nH]5)C=C4)C=C3)cc1
REMARK SMILES IDX 5 1 4 2 3 3 1 4 2 5 33 7 34 8 92 9 35 10 91 11 36 12 37 13
REMARK SMILES IDX 38 14 85 15 39 16 90 17 84 18 86 19 40 20 89 21 83 22 82 23
REMARK SMILES IDX 41 25 71 26 52 27 70 28 53 29 56 30 69 31 87 32 54 33 55 34
REMARK SMILES IDX 68 36 88 37 57 38 42 39 43 40 51 41 44 42 50 43 45 44 46 45
REMARK SMILES IDX 47 46 48 47 49 48 72 49 73 50 81 51 74 52 80 53 75 54 76 55
REMARK SMILES IDX 77 56 78 57 79 58 58 59 59 60 67 61 60 62 66 63 61 64 62 65
REMARK SMILES IDX 63 66 64 67 65 68 6 69 7 70 8 71 9 72 10 74 11 75 12 76
REMARK SMILES IDX 32 77 13 78 21 79 20 80 14 81 15 82 19 83 16 84 18 85 17 86
REMARK SMILES IDX 22 87 23 89 24 90 31 91 25 92 30 93 26 94 29 95 27 96 28 97
REMARK H PARENT 3 6 86 24 56 35 8 73 22 88
REMARK Flexibility Score: inf
ROOT
ATOM      1  C   UNL     1       4.802   0.496  -2.792  1.00  0.00     0.023 C 
ENDROOT
BRANCH   1   2
ATOM      2  C   UNL     1       4.470   0.577  -1.309  1.00  0.00     0.116 C 
BRANCH   2   3
ATOM      3  N   UNL     1       3.043   0.619  -1.028  1.00  0.00    -0.352 N 
ATOM      4  O   UNL     1       1.114  -0.005  -0.035  1.00  0.00    -0.269 OA
ATOM      5  C   UNL     1       2.329  -0.093  -0.084  1.00  0.00     0.251 C 
ATOM      6  H   UNL     1       2.516   1.236  -1.585  1.00  0.00     0.163 HD
BRANCH   5   7
ATOM      7  C   UNL     1       3.058  -0.996   0.839  1.00  0.00     0.039 A 
ATOM      8  C   UNL     1       4.217  -0.563   1.484  1.00  0.00     0.014 A 
ATOM      9  C   UNL     1       2.599  -2.304   1.022  1.00  0.00     0.014 A 
ATOM     10  C   UNL     1       5.004  -1.480   2.168  1.00  0.00     0.010 A 
ATOM     11  C   UNL     1       3.345  -3.201   1.794  1.00  0.00     0.010 A 
ATOM     12  C   UNL     1       4.575  -2.808   2.341  1.00  0.00    -0.014 A 
BRANCH  12  13
ATOM     13  C   UNL     1       5.419  -3.726   3.150  1.00  0.00     0.031 A 
ATOM     14  C   UNL     1       6.085  -4.931   2.542  1.00  0.00     0.074 A 
ATOM     15  C   UNL     1       5.646  -3.408   4.440  1.00  0.00     0.049 A 
ATOM     16  N   UNL     1       6.928  -5.767   3.096  1.00  0.00    -0.248 NA
ATOM     17  C   UNL     1       5.764  -5.248   1.141  1.00  0.00     0.031 C 
ATOM     18  C   UNL     1       5.038  -2.274   5.146  1.00  0.00     0.029 A 
ATOM     19  N   UNL     1       6.475  -3.972   5.374  1.00  0.00    -0.354 N 
ATOM     20  C   UNL     1       7.229  -6.713   2.123  1.00  0.00     0.074 A 
ATOM     21  C   UNL     1       6.459  -6.363   0.948  1.00  0.00     0.031 C 
ATOM     22  C   UNL     1       5.569  -2.185   6.373  1.00  0.00     0.029 A 
ATOM     23  C   UNL     1       6.506  -3.285   6.564  1.00  0.00     0.049 A 
ATOM     24  H   UNL     1       6.997  -4.791   5.209  1.00  0.00     0.167 HD
ATOM     25  C   UNL     1       8.073  -7.771   2.200  1.00  0.00     0.031 A 
ATOM     26  C   UNL     1       7.207  -3.510   7.690  1.00  0.00     0.031 A 
ATOM     27  C   UNL     1       8.839  -8.115   3.371  1.00  0.00     0.049 A 
ATOM     28  C   UNL     1       8.146  -4.678   7.740  1.00  0.00     0.074 A 
ATOM     29  C   UNL     1       9.721  -9.168   3.546  1.00  0.00     0.029 A 
ATOM     30  N   UNL     1       8.821  -7.410   4.566  1.00  0.00    -0.354 N 
ATOM     31  N   UNL     1       8.418  -5.554   6.803  1.00  0.00    -0.248 NA
ATOM     32  C   UNL     1       8.873  -4.886   8.998  1.00  0.00     0.031 C 
ATOM     33  C   UNL     1      10.210  -9.120   4.856  1.00  0.00     0.029 A 
ATOM     34  C   UNL     1       9.668  -8.011   5.484  1.00  0.00     0.049 A 
ATOM     35  H   UNL     1       8.286  -6.602   4.736  1.00  0.00     0.167 HD
ATOM     36  C   UNL     1       9.343  -6.425   7.362  1.00  0.00     0.074 A 
ATOM     37  C   UNL     1       9.614  -5.945   8.703  1.00  0.00     0.031 C 
ATOM     38  C   UNL     1       9.908  -7.532   6.820  1.00  0.00     0.031 A 
BRANCH  25  39
ATOM     39  C   UNL     1       8.209  -8.650   0.984  1.00  0.00    -0.014 A 
ATOM     40  C   UNL     1       8.940  -8.225  -0.139  1.00  0.00     0.010 A 
ATOM     41  C   UNL     1       7.658  -9.945   0.991  1.00  0.00     0.010 A 
ATOM     42  C   UNL     1       9.098  -9.068  -1.243  1.00  0.00     0.020 A 
ATOM     43  C   UNL     1       7.831 -10.800  -0.103  1.00  0.00     0.020 A 
ATOM     44  C   UNL     1       8.540 -10.350  -1.219  1.00  0.00     0.054 A 
BRANCH  44  45
ATOM     45  S   UNL     1       8.793 -11.439  -2.649  1.00  0.00     0.124 S 
ATOM     46  O   UNL     1       7.874 -10.866  -3.629  1.00  0.00    -0.237 OA
ATOM     47  O   UNL     1      10.213 -11.263  -2.941  1.00  0.00    -0.237 OA
ATOM     48  O   UNL     1       8.423 -12.761  -2.148  1.00  0.00    -0.744 OA
ENDBRANCH  44  45
ENDBRANCH  25  39
BRANCH  26  49
ATOM     49  C   UNL     1       7.023  -2.615   8.862  1.00  0.00    -0.014 A 
ATOM     50  C   UNL     1       8.036  -1.726   9.258  1.00  0.00     0.010 A 
ATOM     51  C   UNL     1       5.808  -2.633   9.572  1.00  0.00     0.010 A 
ATOM     52  C   UNL     1       7.842  -0.880  10.354  1.00  0.00     0.020 A 
ATOM     53  C   UNL     1       5.600  -1.769  10.648  1.00  0.00     0.020 A 
ATOM     54  C   UNL     1       6.625  -0.907  11.041  1.00  0.00     0.054 A 
BRANCH  54  55
ATOM     55  S   UNL     1       6.363   0.238  12.424  1.00  0.00     0.124 S 
ATOM     56  O   UNL     1       7.045  -0.448  13.516  1.00  0.00    -0.237 OA
ATOM     57  O   UNL     1       6.999   1.465  11.950  1.00  0.00    -0.237 OA
ATOM     58  O   UNL     1       4.907   0.306  12.536  1.00  0.00    -0.744 OA
ENDBRANCH  54  55
ENDBRANCH  26  49
BRANCH  38  59
ATOM     59  C   UNL     1      10.870  -8.292   7.690  1.00  0.00    -0.014 A 
ATOM     60  C   UNL     1      10.406  -9.070   8.766  1.00  0.00     0.010 A 
ATOM     61  C   UNL     1      12.250  -8.226   7.430  1.00  0.00     0.010 A 
ATOM     62  C   UNL     1      11.311  -9.732   9.598  1.00  0.00     0.020 A 
ATOM     63  C   UNL     1      13.156  -8.906   8.248  1.00  0.00     0.020 A 
ATOM     64  C   UNL     1      12.682  -9.637   9.340  1.00  0.00     0.054 A 
BRANCH  64  65
ATOM     65  S   UNL     1      13.841 -10.505  10.431  1.00  0.00     0.124 S 
ATOM     66  O   UNL     1      13.893  -9.615  11.587  1.00  0.00    -0.237 OA
ATOM     67  O   UNL     1      13.179 -11.788  10.654  1.00  0.00    -0.237 OA
ATOM     68  O   UNL     1      15.069 -10.575   9.642  1.00  0.00    -0.744 OA
ENDBRANCH  64  65
ENDBRANCH  38  59
ENDBRANCH  12  13
ENDBRANCH   5   7
ENDBRANCH   2   3
ENDBRANCH   1   2
BRANCH   1  69
ATOM     69  C   UNL     1       4.322   1.668  -3.642  1.00  0.00     0.023 C 
BRANCH  69  70
ATOM     70  C   UNL     1       4.635   3.052  -3.085  1.00  0.00     0.116 C 
BRANCH  70  71
ATOM     71  N   UNL     1       6.053   3.275  -2.850  1.00  0.00    -0.351 N 
ATOM     72  C   UNL     1       6.889   4.205  -3.427  1.00  0.00     0.270 C 
ATOM     73  H   UNL     1       6.473   2.680  -2.188  1.00  0.00     0.163 HD
ATOM     74  O   UNL     1       8.070   4.272  -3.100  1.00  0.00    -0.268 OA
BRANCH  72  75
ATOM     75  C   UNL     1       6.333   5.141  -4.429  1.00  0.00     0.134 A 
ATOM     76  C   UNL     1       5.379   6.046  -4.059  1.00  0.00     0.063 A 
ATOM     77  N   UNL     1       6.745   4.958  -5.688  1.00  0.00    -0.207 NA
ATOM     78  C   UNL     1       4.779   6.711  -5.102  1.00  0.00     0.077 A 
ATOM     79  C   UNL     1       6.166   5.685  -6.643  1.00  0.00     0.230 A 
ATOM     80  N   UNL     1       5.172   6.556  -6.392  1.00  0.00    -0.213 NA
BRANCH  78  81
ATOM     81  C   UNL     1       3.574   7.516  -4.854  1.00  0.00     0.000 A 
ATOM     82  C   UNL     1       2.385   7.252  -5.553  1.00  0.00     0.010 A 
ATOM     83  C   UNL     1       3.538   8.479  -3.829  1.00  0.00     0.010 A 
ATOM     84  C   UNL     1       1.193   7.899  -5.216  1.00  0.00     0.001 A 
ATOM     85  C   UNL     1       2.348   9.131  -3.495  1.00  0.00     0.001 A 
ATOM     86  C   UNL     1       1.175   8.832  -4.182  1.00  0.00     0.000 A 
ENDBRANCH  78  81
BRANCH  79  87
ATOM     87  N   UNL     1       6.639   5.605  -7.950  1.00  0.00    -0.300 N 
ATOM     88  H   UNL     1       6.238   6.192  -8.631  1.00  0.00     0.172 HD
BRANCH  87  89
ATOM     89  C   UNL     1       7.621   4.760  -8.327  1.00  0.00     0.190 A 
ATOM     90  N   UNL     1       7.817   3.558  -7.833  1.00  0.00    -0.220 NA
ATOM     91  S   UNL     1       8.764   5.213  -9.539  1.00  0.00    -0.097 S 
ATOM     92  C   UNL     1       9.033   3.051  -8.232  1.00  0.00     0.084 A 
ATOM     93  C   UNL     1       9.724   3.830  -9.158  1.00  0.00     0.056 A 
ATOM     94  C   UNL     1       9.615   1.855  -7.768  1.00  0.00     0.030 A 
ATOM     95  C   UNL     1      10.994   3.458  -9.630  1.00  0.00     0.021 A 
ATOM     96  C   UNL     1      10.884   1.483  -8.217  1.00  0.00     0.002 A 
ATOM     97  C   UNL     1      11.564   2.279  -9.134  1.00  0.00     0.002 A 
ENDBRANCH  87  89
ENDBRANCH  79  87
ENDBRANCH  72  75
ENDBRANCH  70  71
ENDBRANCH  69  70
ENDBRANCH   1  69
TORSDOF 17
