REMARK SMILES Cc1c(C[N@H+]2CC[C@@H](C(=O)NCCCCNC(=O)c3ccc(-c4c5nc(c(-c6ccc(S(=O)(=O)[O-])cc6)c6ccc([nH]6)c(-c6ccc(S(=O)(=O)[O-])cc6)c6nc(c(-c7ccc(S(=O)(=O)[O-])cc7)c7ccc4[nH]7)C=C6)C=C5)cc3)[C@@H]2C)cccc1[N+](=O)[O-]
REMARK SMILES IDX 13 1 12 2 11 3 9 4 10 5 8 7 5 8 6 9 79 10 7 12 80 13 4 14
REMARK SMILES IDX 3 15 1 16 2 17 84 18 81 19 83 20 82 21 85 22 86 23 87 24
REMARK SMILES IDX 14 25 15 26 16 27 17 28 18 30 19 31 20 32 78 33 21 34 77 35
REMARK SMILES IDX 22 36 23 37 24 38 71 39 25 40 76 41 70 42 72 43 26 44 75 45
REMARK SMILES IDX 69 46 68 47 27 49 57 50 38 51 56 52 39 53 42 54 55 55 73 56
REMARK SMILES IDX 40 57 41 58 54 60 74 61 43 62 28 63 29 64 37 65 30 66 36 67
REMARK SMILES IDX 31 68 32 69 33 70 34 71 35 72 58 73 59 74 67 75 60 76 66 77
REMARK SMILES IDX 61 78 62 79 63 80 64 81 65 82 44 83 45 84 53 85 46 86 52 87
REMARK SMILES IDX 47 88 48 89 49 90 50 91 51 92
REMARK H PARENT 11 6 5 11 16 29 72 48 42 59
REMARK Flexibility Score: inf
ROOT
ATOM      1  C   UNL     1      -0.963  -0.678  -1.492  1.00  0.00     0.023 C 
ENDROOT
BRANCH   1   2
ATOM      2  C   UNL     1      -1.145  -0.803   0.692  1.00  0.00     0.116 C 
BRANCH   2   3
ATOM      3  N   UNL     1      -2.287  -1.357   1.666  1.00  0.00    -0.356 N 
ATOM      4  C   UNL     1      -2.331  -2.281   2.659  1.00  0.00     0.229 C 
ATOM      5  O   UNL     1      -3.382  -2.352   3.307  1.00  0.00    -0.275 OA
ATOM      6  H   UNL     1      -3.159  -0.929   1.509  1.00  0.00     0.163 HD
BRANCH   4   7
ATOM      7  C   UNL     1      -1.193  -3.236   2.980  1.00  0.00     0.142 C 
ATOM      8  N   UNL     1       0.518  -3.949   1.430  1.00  0.00    -0.328 N 
ATOM      9  C   UNL     1       1.164  -3.111   2.442  1.00  0.00     0.263 C 
ATOM     10  C   UNL     1      -0.872  -4.181   1.828  1.00  0.00     0.193 C 
ATOM     11  H   UNL     1       1.023  -4.836   1.416  1.00  0.00     0.348 HD
ATOM     12  C   UNL     1       0.100  -2.553   3.377  1.00  0.00     0.081 C 
ATOM     13  C   UNL     1      -1.051  -5.654   2.183  1.00  0.00     0.076 C 
BRANCH   8  14
ATOM     14  C   UNL     1       0.682  -3.530   0.025  1.00  0.00     0.299 C 
BRANCH  14  15
ATOM     15  C   UNL     1      -0.069  -2.276  -0.363  1.00  0.00     0.016 A 
ATOM     16  C   UNL     1       2.291  -0.650  -0.253  1.00  0.00     0.052 C 
ATOM     17  C   UNL     1       0.789  -0.689  -0.258  1.00  0.00     0.036 A 
ATOM     18  C   UNL     1      -0.157   0.843  -0.231  1.00  0.00     0.272 A 
ATOM     19  C   UNL     1      -1.873  -2.305  -0.570  1.00  0.00     0.010 A 
ATOM     20  C   UNL     1      -1.960   0.807  -0.377  1.00  0.00     0.086 A 
ATOM     21  C   UNL     1      -2.821  -0.761  -0.555  1.00  0.00     0.008 A 
BRANCH  18  22
ATOM     22  N   UNL     1       0.352   1.902   0.617  1.00  0.00     0.062 N 
ATOM     23  O   UNL     1      -0.507   2.694   1.022  1.00  0.00    -0.258 OA
ATOM     24  O   UNL     1       1.503   1.772   1.052  1.00  0.00    -0.258 OA
ENDBRANCH  18  22
ENDBRANCH  14  15
ENDBRANCH   8  14
ENDBRANCH   4   7
ENDBRANCH   2   3
ENDBRANCH   1   2
BRANCH   1  25
ATOM     25  C   UNL     1      -2.017  -0.377  -2.850  1.00  0.00     0.023 C 
BRANCH  25  26
ATOM     26  C   UNL     1      -2.153   1.058  -3.343  1.00  0.00     0.116 C 
BRANCH  26  27
ATOM     27  N   UNL     1      -1.085   1.594  -4.175  1.00  0.00    -0.352 N 
ATOM     28  C   UNL     1      -1.262   2.825  -4.818  1.00  0.00     0.251 C 
ATOM     29  H   UNL     1      -0.244   1.095  -4.284  1.00  0.00     0.163 HD
ATOM     30  O   UNL     1      -1.556   2.974  -5.995  1.00  0.00    -0.269 OA
BRANCH  28  31
ATOM     31  C   UNL     1      -1.163   3.989  -3.911  1.00  0.00     0.039 A 
ATOM     32  C   UNL     1      -0.102   4.894  -3.982  1.00  0.00     0.014 A 
ATOM     33  C   UNL     1      -2.036   3.993  -2.830  1.00  0.00     0.014 A 
ATOM     34  C   UNL     1       0.205   5.652  -2.860  1.00  0.00     0.010 A 
ATOM     35  C   UNL     1      -1.610   4.549  -1.665  1.00  0.00     0.010 A 
ATOM     36  C   UNL     1      -0.489   5.378  -1.691  1.00  0.00    -0.014 A 
BRANCH  36  37
ATOM     37  C   UNL     1      -0.276   6.028  -0.421  1.00  0.00     0.031 A 
ATOM     38  C   UNL     1      -1.219   7.119  -0.129  1.00  0.00     0.074 A 
ATOM     39  C   UNL     1       0.506   5.361   0.452  1.00  0.00     0.049 A 
ATOM     40  N   UNL     1      -1.080   7.968   0.816  1.00  0.00    -0.248 NA
ATOM     41  C   UNL     1      -2.414   7.391  -0.945  1.00  0.00     0.031 C 
ATOM     42  C   UNL     1       0.548   5.396   1.909  1.00  0.00     0.029 A 
ATOM     43  N   UNL     1       1.544   4.495   0.132  1.00  0.00    -0.354 N 
ATOM     44  C   UNL     1      -2.314   8.557   0.994  1.00  0.00     0.074 A 
ATOM     45  C   UNL     1      -3.041   8.320  -0.221  1.00  0.00     0.031 C 
ATOM     46  C   UNL     1       1.718   4.866   2.326  1.00  0.00     0.029 A 
ATOM     47  C   UNL     1       2.512   4.594   1.132  1.00  0.00     0.049 A 
ATOM     48  H   UNL     1       1.588   3.912  -0.660  1.00  0.00     0.167 HD
ATOM     49  C   UNL     1      -2.641   8.979   2.245  1.00  0.00     0.031 A 
ATOM     50  C   UNL     1       3.742   5.118   0.851  1.00  0.00     0.031 A 
ATOM     51  C   UNL     1      -1.515   8.719   3.149  1.00  0.00     0.049 A 
ATOM     52  C   UNL     1       3.792   6.470   1.527  1.00  0.00     0.074 A 
ATOM     53  C   UNL     1      -1.272   7.710   4.065  1.00  0.00     0.029 A 
ATOM     54  N   UNL     1      -0.280   9.289   2.854  1.00  0.00    -0.354 N 
ATOM     55  N   UNL     1       2.747   7.247   1.685  1.00  0.00    -0.248 NA
ATOM     56  C   UNL     1       4.965   6.933   2.260  1.00  0.00     0.031 C 
ATOM     57  C   UNL     1       0.142   7.628   4.247  1.00  0.00     0.029 A 
ATOM     58  C   UNL     1       0.752   8.569   3.429  1.00  0.00     0.049 A 
ATOM     59  H   UNL     1      -0.156  10.098   2.307  1.00  0.00     0.167 HD
ATOM     60  C   UNL     1       3.034   8.176   2.647  1.00  0.00     0.074 A 
ATOM     61  C   UNL     1       4.449   7.973   2.934  1.00  0.00     0.031 C 
ATOM     62  C   UNL     1       2.130   9.008   3.245  1.00  0.00     0.031 A 
BRANCH  49  63
ATOM     63  C   UNL     1      -4.025   9.353   2.722  1.00  0.00    -0.014 A 
ATOM     64  C   UNL     1      -4.244   9.456   4.111  1.00  0.00     0.010 A 
ATOM     65  C   UNL     1      -5.142   9.611   1.901  1.00  0.00     0.010 A 
ATOM     66  C   UNL     1      -5.493   9.782   4.653  1.00  0.00     0.020 A 
ATOM     67  C   UNL     1      -6.406   9.932   2.430  1.00  0.00     0.020 A 
ATOM     68  C   UNL     1      -6.571  10.021   3.807  1.00  0.00     0.054 A 
BRANCH  68  69
ATOM     69  S   UNL     1      -8.162  10.486   4.538  1.00  0.00     0.124 S 
ATOM     70  O   UNL     1      -8.480   9.323   5.362  1.00  0.00    -0.237 OA
ATOM     71  O   UNL     1      -7.825  11.704   5.270  1.00  0.00    -0.237 OA
ATOM     72  O   UNL     1      -9.033  10.681   3.381  1.00  0.00    -0.744 OA
ENDBRANCH  68  69
ENDBRANCH  49  63
BRANCH  50  73
ATOM     73  C   UNL     1       4.224   4.725  -0.518  1.00  0.00    -0.014 A 
ATOM     74  C   UNL     1       4.580   3.360  -0.669  1.00  0.00     0.010 A 
ATOM     75  C   UNL     1       3.795   5.427  -1.661  1.00  0.00     0.010 A 
ATOM     76  C   UNL     1       4.274   2.662  -1.844  1.00  0.00     0.020 A 
ATOM     77  C   UNL     1       3.494   4.723  -2.845  1.00  0.00     0.020 A 
ATOM     78  C   UNL     1       3.649   3.334  -2.891  1.00  0.00     0.054 A 
BRANCH  78  79
ATOM     79  S   UNL     1       2.859   2.337  -4.197  1.00  0.00     0.124 S 
ATOM     80  O   UNL     1       3.962   1.509  -4.673  1.00  0.00    -0.237 OA
ATOM     81  O   UNL     1       1.808   1.633  -3.454  1.00  0.00    -0.237 OA
ATOM     82  O   UNL     1       2.374   3.337  -5.140  1.00  0.00    -0.744 OA
ENDBRANCH  78  79
ENDBRANCH  50  73
BRANCH  62  83
ATOM     83  C   UNL     1       2.521  10.366   3.766  1.00  0.00    -0.014 A 
ATOM     84  C   UNL     1       3.760  10.957   3.483  1.00  0.00     0.010 A 
ATOM     85  C   UNL     1       1.556  11.173   4.415  1.00  0.00     0.010 A 
ATOM     86  C   UNL     1       4.064  12.244   3.919  1.00  0.00     0.020 A 
ATOM     87  C   UNL     1       1.817  12.492   4.775  1.00  0.00     0.020 A 
ATOM     88  C   UNL     1       3.090  13.002   4.563  1.00  0.00     0.054 A 
BRANCH  88  89
ATOM     89  S   UNL     1       3.514  14.668   5.095  1.00  0.00     0.124 S 
ATOM     90  O   UNL     1       4.321  14.399   6.283  1.00  0.00    -0.237 OA
ATOM     91  O   UNL     1       4.247  15.192   3.945  1.00  0.00    -0.237 OA
ATOM     92  O   UNL     1       2.220  15.295   5.343  1.00  0.00    -0.744 OA
ENDBRANCH  88  89
ENDBRANCH  62  83
ENDBRANCH  36  37
ENDBRANCH  28  31
ENDBRANCH  26  27
ENDBRANCH  25  26
ENDBRANCH   1  25
TORSDOF 17
