REMARK SMILES C[NH2+][C@]1(C(=O)NCCCCNC(=O)c2ccc(-c3c4nc(c(-c5ccc(S(=O)(=O)[O-])cc5)c5ccc([nH]5)c(-c5ccc(S(=O)(=O)[O-])cc5)c5nc(c(-c6ccc(S(=O)(=O)[O-])cc6)c6ccc3[nH]6)C=C5)C=C4)cc2)CCC[C@@H](Sc2nncs2)C1
REMARK SMILES IDX 9 1 8 2 7 3 6 4 4 5 5 6 3 8 74 9 84 10 75 11 77 12 76 13
REMARK SMILES IDX 2 14 1 15 78 18 79 19 80 20 83 21 81 22 82 23 10 24 11 25
REMARK SMILES IDX 12 26 13 28 14 29 15 30 73 31 16 32 72 33 17 34 18 35 19 36
REMARK SMILES IDX 66 37 20 38 71 39 65 40 67 41 21 42 70 43 64 44 63 45 22 47
REMARK SMILES IDX 52 48 33 49 51 50 34 51 37 52 50 53 68 54 35 55 36 56 49 58
REMARK SMILES IDX 69 59 38 60 23 61 24 62 32 63 25 64 31 65 26 66 27 67 28 68
REMARK SMILES IDX 29 69 30 70 53 71 54 72 62 73 55 74 61 75 56 76 57 77 58 78
REMARK SMILES IDX 59 79 60 80 39 81 40 82 48 83 41 84 47 85 42 86 43 87 44 88
REMARK SMILES IDX 45 89 46 90
REMARK H PARENT 6 7 2 16 2 17 11 27 67 46 37 57
REMARK Flexibility Score: inf
ROOT
ATOM      1  C   UNL     1       2.432  -0.787   2.899  1.00  0.00     0.023 C 
ENDROOT
BRANCH   1   2
ATOM      2  C   UNL     1       0.955  -0.521   2.613  1.00  0.00     0.023 C 
BRANCH   2   3
ATOM      3  C   UNL     1       0.641   0.889   2.112  1.00  0.00     0.116 C 
BRANCH   3   4
ATOM      4  N   UNL     1       1.091   1.094   0.742  1.00  0.00    -0.351 N 
ATOM      5  C   UNL     1       0.422   1.285  -0.437  1.00  0.00     0.281 C 
ATOM      6  O   UNL     1       1.140   1.446  -1.431  1.00  0.00    -0.268 OA
ATOM      7  H   UNL     1       2.071   1.095   0.645  1.00  0.00     0.163 HD
BRANCH   5   8
ATOM      8  C   UNL     1      -1.155   1.334  -0.511  1.00  0.00     0.176 C 
ATOM      9  C   UNL     1      -1.728  -0.013   0.014  1.00  0.00     0.079 C 
ATOM     10  C   UNL     1      -1.659   2.562   0.294  1.00  0.00     0.094 C 
ATOM     11  C   UNL     1      -3.217   0.019   0.351  1.00  0.00     0.008 C 
ATOM     12  C   UNL     1      -3.153   2.513   0.620  1.00  0.00     0.061 C 
ATOM     13  C   UNL     1      -3.559   1.188   1.268  1.00  0.00     0.015 C 
BRANCH   8  14
ATOM     14  N   UNL     1      -1.600   1.385  -1.939  1.00  0.00    -0.336 N 
ATOM     15  C   UNL     1      -1.444   2.656  -2.627  1.00  0.00     0.331 C 
ATOM     16  H   UNL     1      -1.065   0.687  -2.455  1.00  0.00     0.346 HD
ATOM     17  H   UNL     1      -2.606   1.218  -1.912  1.00  0.00     0.346 HD
ENDBRANCH   8  14
BRANCH  12  18
ATOM     18  S   UNL     1      -3.727   3.957   1.593  1.00  0.00    -0.090 SA
BRANCH  18  19
ATOM     19  C   UNL     1      -2.978   3.730   3.155  1.00  0.00     0.174 A 
ATOM     20  N   UNL     1      -1.708   3.422   3.303  1.00  0.00    -0.132 NA
ATOM     21  S   UNL     1      -3.826   3.925   4.634  1.00  0.00    -0.094 S 
ATOM     22  N   UNL     1      -1.342   3.308   4.628  1.00  0.00    -0.146 NA
ATOM     23  C   UNL     1      -2.352   3.559   5.432  1.00  0.00     0.203 A 
ENDBRANCH  18  19
ENDBRANCH  12  18
ENDBRANCH   5   8
ENDBRANCH   3   4
ENDBRANCH   2   3
ENDBRANCH   1   2
BRANCH   1  24
ATOM     24  C   UNL     1       3.078   0.149   3.914  1.00  0.00     0.116 C 
BRANCH  24  25
ATOM     25  N   UNL     1       2.398   0.161   5.202  1.00  0.00    -0.352 N 
ATOM     26  C   UNL     1       2.945   0.146   6.463  1.00  0.00     0.251 C 
ATOM     27  H   UNL     1       1.415   0.182   5.164  1.00  0.00     0.163 HD
ATOM     28  O   UNL     1       2.222   0.041   7.450  1.00  0.00    -0.269 OA
BRANCH  26  29
ATOM     29  C   UNL     1       4.413   0.225   6.618  1.00  0.00     0.039 A 
ATOM     30  C   UNL     1       5.058  -0.692   7.452  1.00  0.00     0.014 A 
ATOM     31  C   UNL     1       5.153   1.178   5.912  1.00  0.00     0.014 A 
ATOM     32  C   UNL     1       6.453  -0.701   7.518  1.00  0.00     0.010 A 
ATOM     33  C   UNL     1       6.543   1.118   5.921  1.00  0.00     0.010 A 
ATOM     34  C   UNL     1       7.208   0.177   6.722  1.00  0.00    -0.014 A 
BRANCH  34  35
ATOM     35  C   UNL     1       8.692   0.123   6.704  1.00  0.00     0.031 A 
ATOM     36  C   UNL     1       9.496   1.301   7.184  1.00  0.00     0.074 A 
ATOM     37  C   UNL     1       9.315  -0.957   6.192  1.00  0.00     0.049 A 
ATOM     38  N   UNL     1      10.794   1.468   7.184  1.00  0.00    -0.248 NA
ATOM     39  C   UNL     1       8.743   2.450   7.712  1.00  0.00     0.031 C 
ATOM     40  C   UNL     1       8.649  -2.147   5.657  1.00  0.00     0.029 A 
ATOM     41  N   UNL     1      10.651  -1.227   6.032  1.00  0.00    -0.354 N 
ATOM     42  C   UNL     1      11.011   2.742   7.694  1.00  0.00     0.074 A 
ATOM     43  C   UNL     1       9.711   3.324   7.946  1.00  0.00     0.031 C 
ATOM     44  C   UNL     1       9.579  -3.030   5.257  1.00  0.00     0.029 A 
ATOM     45  C   UNL     1      10.904  -2.455   5.467  1.00  0.00     0.049 A 
ATOM     46  H   UNL     1      11.363  -0.600   6.297  1.00  0.00     0.167 HD
ATOM     47  C   UNL     1      12.186   3.366   7.950  1.00  0.00     0.031 A 
ATOM     48  C   UNL     1      12.069  -3.051   5.149  1.00  0.00     0.031 A 
ATOM     49  C   UNL     1      13.478   2.782   7.708  1.00  0.00     0.049 A 
ATOM     50  C   UNL     1      13.361  -2.334   5.432  1.00  0.00     0.074 A 
ATOM     51  C   UNL     1      14.727   3.314   7.978  1.00  0.00     0.029 A 
ATOM     52  N   UNL     1      13.690   1.534   7.142  1.00  0.00    -0.354 N 
ATOM     53  N   UNL     1      13.546  -1.151   5.965  1.00  0.00    -0.248 NA
ATOM     54  C   UNL     1      14.601  -3.039   5.079  1.00  0.00     0.031 C 
ATOM     55  C   UNL     1      15.694   2.407   7.534  1.00  0.00     0.029 A 
ATOM     56  C   UNL     1      15.048   1.286   7.038  1.00  0.00     0.049 A 
ATOM     57  H   UNL     1      12.979   0.915   6.856  1.00  0.00     0.167 HD
ATOM     58  C   UNL     1      14.924  -0.980   6.038  1.00  0.00     0.074 A 
ATOM     59  C   UNL     1      15.524  -2.187   5.505  1.00  0.00     0.031 C 
ATOM     60  C   UNL     1      15.629   0.079   6.506  1.00  0.00     0.031 A 
BRANCH  47  61
ATOM     61  C   UNL     1      12.122   4.756   8.524  1.00  0.00    -0.014 A 
ATOM     62  C   UNL     1      11.684   4.975   9.843  1.00  0.00     0.010 A 
ATOM     63  C   UNL     1      12.537   5.855   7.750  1.00  0.00     0.010 A 
ATOM     64  C   UNL     1      11.620   6.270  10.363  1.00  0.00     0.020 A 
ATOM     65  C   UNL     1      12.501   7.150   8.276  1.00  0.00     0.020 A 
ATOM     66  C   UNL     1      12.025   7.351   9.574  1.00  0.00     0.054 A 
BRANCH  66  67
ATOM     67  S   UNL     1      11.950   9.019  10.281  1.00  0.00     0.124 S 
ATOM     68  O   UNL     1      10.514   9.284  10.273  1.00  0.00    -0.237 OA
ATOM     69  O   UNL     1      12.546   8.835  11.602  1.00  0.00    -0.237 OA
ATOM     70  O   UNL     1      12.738   9.826   9.353  1.00  0.00    -0.744 OA
ENDBRANCH  66  67
ENDBRANCH  47  61
BRANCH  48  71
ATOM     71  C   UNL     1      12.069  -4.414   4.550  1.00  0.00    -0.014 A 
ATOM     72  C   UNL     1      12.502  -5.520   5.302  1.00  0.00     0.010 A 
ATOM     73  C   UNL     1      11.624  -4.616   3.231  1.00  0.00     0.010 A 
ATOM     74  C   UNL     1      12.507  -6.801   4.742  1.00  0.00     0.020 A 
ATOM     75  C   UNL     1      11.602  -5.899   2.676  1.00  0.00     0.020 A 
ATOM     76  C   UNL     1      12.055  -6.982   3.432  1.00  0.00     0.054 A 
BRANCH  76  77
ATOM     77  S   UNL     1      12.020  -8.661   2.743  1.00  0.00     0.124 S 
ATOM     78  O   UNL     1      13.434  -8.914   2.489  1.00  0.00    -0.237 OA
ATOM     79  O   UNL     1      11.423  -9.435   3.829  1.00  0.00    -0.237 OA
ATOM     80  O   UNL     1      11.182  -8.524   1.553  1.00  0.00    -0.744 OA
ENDBRANCH  76  77
ENDBRANCH  48  71
BRANCH  60  81
ATOM     81  C   UNL     1      17.131  -0.029   6.498  1.00  0.00    -0.014 A 
ATOM     82  C   UNL     1      17.862   0.051   5.301  1.00  0.00     0.010 A 
ATOM     83  C   UNL     1      17.821  -0.157   7.718  1.00  0.00     0.010 A 
ATOM     84  C   UNL     1      19.257  -0.024   5.320  1.00  0.00     0.020 A 
ATOM     85  C   UNL     1      19.217  -0.206   7.743  1.00  0.00     0.020 A 
ATOM     86  C   UNL     1      19.926  -0.152   6.542  1.00  0.00     0.054 A 
BRANCH  86  87
ATOM     87  S   UNL     1      21.739  -0.200   6.545  1.00  0.00     0.124 S 
ATOM     88  O   UNL     1      22.009  -1.547   6.050  1.00  0.00    -0.237 OA
ATOM     89  O   UNL     1      22.091   0.887   5.634  1.00  0.00    -0.237 OA
ATOM     90  O   UNL     1      22.090   0.032   7.945  1.00  0.00    -0.744 OA
ENDBRANCH  86  87
ENDBRANCH  60  81
ENDBRANCH  34  35
ENDBRANCH  26  29
ENDBRANCH  24  25
ENDBRANCH   1  24
TORSDOF 17
