REMARK SMILES Nn1c(SCC(=O)Nc2c(Cl)cccc2Cl)nnc(CCC(=O)NCCCCNC(=O)c2ccc(-c3c4nc(c(-c5ccc(S(=O)(=O)[O-])cc5)c5ccc([nH]5)c(-c5ccc(S(=O)(=O)[O-])cc5)c5nc(c(-c6ccc(S(=O)(=O)[O-])cc6)c6ccc3[nH]6)C=C5)C=C4)cc2)c1=O
REMARK SMILES IDX 25 1 24 2 22 3 23 4 21 6 20 7 19 8 2 9 3 10 92 11 17 12
REMARK SMILES IDX 93 13 18 14 1 15 4 18 5 19 6 20 7 21 8 22 9 24 10 25 15 26
REMARK SMILES IDX 11 27 12 28 14 29 16 30 13 31 26 32 27 33 28 34 29 35 30 36
REMARK SMILES IDX 31 38 32 39 33 40 91 41 34 42 90 43 35 44 36 45 37 46 84 47
REMARK SMILES IDX 38 48 89 49 83 50 85 51 39 52 88 53 82 54 81 55 40 57 70 58
REMARK SMILES IDX 51 59 69 60 52 61 55 62 68 63 86 64 53 65 54 66 67 68 87 69
REMARK SMILES IDX 56 70 41 71 42 72 50 73 43 74 49 75 44 76 45 77 46 78 47 79
REMARK SMILES IDX 48 80 71 81 72 82 80 83 73 84 79 85 74 86 75 87 76 88 77 89
REMARK SMILES IDX 78 90 57 91 58 92 66 93 59 94 65 95 60 96 61 97 62 98 63 99
REMARK SMILES IDX 64 100
REMARK H PARENT 24 5 1 16 1 17 8 23 29 37 85 56 55 67
REMARK Flexibility Score: inf
ROOT
ATOM      1  C   UNL     1      -2.661   0.981  -2.199  1.00  0.00     0.116 C 
ENDROOT
BRANCH   1   2
ATOM      2  N   UNL     1      -3.172   2.244  -1.700  1.00  0.00    -0.356 N 
ATOM      3  C   UNL     1      -2.520   3.255  -1.060  1.00  0.00     0.220 C 
ATOM      4  O   UNL     1      -3.177   4.196  -0.613  1.00  0.00    -0.275 OA
ATOM      5  H   UNL     1      -4.135   2.392  -1.846  1.00  0.00     0.163 HD
BRANCH   3   6
ATOM      6  C   UNL     1      -1.009   3.231  -0.927  1.00  0.00     0.106 C 
BRANCH   6   7
ATOM      7  C   UNL     1      -0.549   2.975   0.508  1.00  0.00     0.074 C 
BRANCH   7   8
ATOM      8  C   UNL     1      -0.247   1.515   0.754  1.00  0.00     0.131 A 
ATOM      9  N   UNL     1       0.847  -0.500  -0.022  1.00  0.00    -0.199 N 
ATOM     10  C   UNL     1      -0.007  -1.159   0.845  1.00  0.00     0.211 A 
ATOM     11  C   UNL     1       0.874   0.883  -0.034  1.00  0.00     0.294 A 
ATOM     12  N   UNL     1      -0.803  -0.552   1.660  1.00  0.00    -0.123 NA
ATOM     13  O   UNL     1       1.695   1.592  -0.587  1.00  0.00    -0.265 OA
ATOM     14  N   UNL     1      -0.962   0.838   1.593  1.00  0.00    -0.147 NA
BRANCH   9  15
ATOM     15  N   UNL     1       1.778  -1.192  -0.869  1.00  0.00    -0.334 N 
ATOM     16  H   UNL     1       1.789  -2.176  -0.888  1.00  0.00     0.178 HD
ATOM     17  H   UNL     1       2.405  -0.682  -1.431  1.00  0.00     0.178 HD
ENDBRANCH   9  15
BRANCH  10  18
ATOM     18  S   UNL     1       0.057  -2.910   0.809  1.00  0.00    -0.074 SA
BRANCH  18  19
ATOM     19  C   UNL     1      -1.622  -3.384   1.270  1.00  0.00     0.178 C 
BRANCH  19  20
ATOM     20  C   UNL     1      -2.122  -2.931   2.635  1.00  0.00     0.234 C 
ATOM     21  O   UNL     1      -3.132  -2.225   2.724  1.00  0.00    -0.274 OA
ATOM     22  N   UNL     1      -1.573  -3.419   3.797  1.00  0.00    -0.323 N 
ATOM     23  H   UNL     1      -1.856  -3.000   4.641  1.00  0.00     0.170 HD
BRANCH  22  24
ATOM     24  C   UNL     1      -0.640  -4.471   3.877  1.00  0.00     0.078 A 
ATOM     25  C   UNL     1       0.740  -4.224   3.816  1.00  0.00     0.066 A 
ATOM     26  C   UNL     1      -1.085  -5.793   4.026  1.00  0.00     0.066 A 
ATOM     27  Cl  UNL     1       1.396  -2.625   3.937  1.00  0.00    -0.082 Cl
ATOM     28  C   UNL     1       1.643  -5.287   3.730  1.00  0.00     0.023 A 
ATOM     29  C   UNL     1      -0.176  -6.853   3.978  1.00  0.00     0.023 A 
ATOM     30  Cl  UNL     1      -2.757  -6.164   4.241  1.00  0.00    -0.082 Cl
ATOM     31  C   UNL     1       1.183  -6.601   3.791  1.00  0.00     0.003 A 
ENDBRANCH  22  24
ENDBRANCH  19  20
ENDBRANCH  18  19
ENDBRANCH  10  18
ENDBRANCH   7   8
ENDBRANCH   6   7
ENDBRANCH   3   6
ENDBRANCH   1   2
BRANCH   1  32
ATOM     32  C   UNL     1      -2.693  -0.079  -1.105  1.00  0.00     0.023 C 
BRANCH  32  33
ATOM     33  C   UNL     1      -3.931  -0.964  -1.108  1.00  0.00     0.023 C 
BRANCH  33  34
ATOM     34  C   UNL     1      -3.995  -1.940  -2.276  1.00  0.00     0.116 C 
BRANCH  34  35
ATOM     35  N   UNL     1      -2.852  -2.849  -2.337  1.00  0.00    -0.352 N 
ATOM     36  C   UNL     1      -2.778  -4.211  -2.161  1.00  0.00     0.251 C 
ATOM     37  H   UNL     1      -1.992  -2.414  -2.538  1.00  0.00     0.163 HD
ATOM     38  O   UNL     1      -1.679  -4.753  -2.074  1.00  0.00    -0.269 OA
BRANCH  36  39
ATOM     39  C   UNL     1      -4.011  -5.016  -2.033  1.00  0.00     0.039 A 
ATOM     40  C   UNL     1      -4.059  -6.061  -1.103  1.00  0.00     0.014 A 
ATOM     41  C   UNL     1      -5.122  -4.741  -2.827  1.00  0.00     0.014 A 
ATOM     42  C   UNL     1      -5.251  -6.767  -0.912  1.00  0.00     0.010 A 
ATOM     43  C   UNL     1      -6.332  -5.362  -2.556  1.00  0.00     0.010 A 
ATOM     44  C   UNL     1      -6.409  -6.392  -1.607  1.00  0.00    -0.014 A 
BRANCH  44  45
ATOM     45  C   UNL     1      -7.715  -7.077  -1.436  1.00  0.00     0.031 A 
ATOM     46  C   UNL     1      -8.371  -7.692  -2.645  1.00  0.00     0.074 A 
ATOM     47  C   UNL     1      -8.366  -7.035  -0.257  1.00  0.00     0.049 A 
ATOM     48  N   UNL     1      -9.608  -8.078  -2.812  1.00  0.00    -0.248 NA
ATOM     49  C   UNL     1      -7.531  -7.831  -3.848  1.00  0.00     0.031 C 
ATOM     50  C   UNL     1      -7.857  -6.444   0.983  1.00  0.00     0.029 A 
ATOM     51  N   UNL     1      -9.621  -7.478   0.079  1.00  0.00    -0.354 N 
ATOM     52  C   UNL     1      -9.710  -8.439  -4.151  1.00  0.00     0.074 A 
ATOM     53  C   UNL     1      -8.421  -8.193  -4.758  1.00  0.00     0.031 C 
ATOM     54  C   UNL     1      -8.785  -6.573   1.946  1.00  0.00     0.029 A 
ATOM     55  C   UNL     1      -9.972  -7.206   1.381  1.00  0.00     0.049 A 
ATOM     56  H   UNL     1     -10.215  -7.946  -0.552  1.00  0.00     0.167 HD
ATOM     57  C   UNL     1     -10.778  -8.943  -4.813  1.00  0.00     0.031 A 
ATOM     58  C   UNL     1     -11.129  -7.422   2.035  1.00  0.00     0.031 A 
ATOM     59  C   UNL     1     -12.034  -9.249  -4.186  1.00  0.00     0.049 A 
ATOM     60  C   UNL     1     -12.281  -8.048   1.296  1.00  0.00     0.074 A 
ATOM     61  C   UNL     1     -13.161  -9.822  -4.747  1.00  0.00     0.029 A 
ATOM     62  N   UNL     1     -12.315  -9.035  -2.845  1.00  0.00    -0.354 N 
ATOM     63  N   UNL     1     -12.360  -8.390   0.032  1.00  0.00    -0.248 NA
ATOM     64  C   UNL     1     -13.498  -8.322   2.074  1.00  0.00     0.031 C 
ATOM     65  C   UNL     1     -14.132  -9.941  -3.746  1.00  0.00     0.029 A 
ATOM     66  C   UNL     1     -13.594  -9.474  -2.556  1.00  0.00     0.049 A 
ATOM     67  H   UNL     1     -11.696  -8.630  -2.196  1.00  0.00     0.167 HD
ATOM     68  C   UNL     1     -13.626  -8.942  -0.131  1.00  0.00     0.074 A 
ATOM     69  C   UNL     1     -14.272  -8.899   1.165  1.00  0.00     0.031 C 
ATOM     70  C   UNL     1     -14.205  -9.436  -1.253  1.00  0.00     0.031 A 
BRANCH  57  71
ATOM     71  C   UNL     1     -10.621  -9.199  -6.288  1.00  0.00    -0.014 A 
ATOM     72  C   UNL     1      -9.800 -10.239  -6.760  1.00  0.00     0.010 A 
ATOM     73  C   UNL     1     -11.308  -8.395  -7.215  1.00  0.00     0.010 A 
ATOM     74  C   UNL     1      -9.627 -10.437  -8.132  1.00  0.00     0.020 A 
ATOM     75  C   UNL     1     -11.161  -8.608  -8.589  1.00  0.00     0.020 A 
ATOM     76  C   UNL     1     -10.303  -9.615  -9.038  1.00  0.00     0.054 A 
BRANCH  76  77
ATOM     77  S   UNL     1     -10.069  -9.899 -10.814  1.00  0.00     0.124 S 
ATOM     78  O   UNL     1      -8.758  -9.297 -11.043  1.00  0.00    -0.237 OA
ATOM     79  O   UNL     1     -10.117 -11.355 -10.918  1.00  0.00    -0.237 OA
ATOM     80  O   UNL     1     -11.194  -9.197 -11.427  1.00  0.00    -0.744 OA
ENDBRANCH  76  77
ENDBRANCH  57  71
BRANCH  58  81
ATOM     81  C   UNL     1     -11.255  -7.059   3.473  1.00  0.00    -0.014 A 
ATOM     82  C   UNL     1     -11.270  -8.065   4.455  1.00  0.00     0.010 A 
ATOM     83  C   UNL     1     -11.353  -5.713   3.870  1.00  0.00     0.010 A 
ATOM     84  C   UNL     1     -11.406  -7.735   5.806  1.00  0.00     0.020 A 
ATOM     85  C   UNL     1     -11.465  -5.378   5.223  1.00  0.00     0.020 A 
ATOM     86  C   UNL     1     -11.505  -6.392   6.182  1.00  0.00     0.054 A 
BRANCH  86  87
ATOM     87  S   UNL     1     -11.638  -5.985   7.946  1.00  0.00     0.124 S 
ATOM     88  O   UNL     1     -13.035  -6.301   8.225  1.00  0.00    -0.237 OA
ATOM     89  O   UNL     1     -10.654  -6.878   8.554  1.00  0.00    -0.237 OA
ATOM     90  O   UNL     1     -11.293  -4.566   7.995  1.00  0.00    -0.744 OA
ENDBRANCH  86  87
ENDBRANCH  58  81
BRANCH  70  91
ATOM     91  C   UNL     1     -15.585 -10.015  -1.119  1.00  0.00    -0.014 A 
ATOM     92  C   UNL     1     -16.712  -9.184  -1.006  1.00  0.00     0.010 A 
ATOM     93  C   UNL     1     -15.756 -11.410  -1.175  1.00  0.00     0.010 A 
ATOM     94  C   UNL     1     -17.991  -9.742  -0.929  1.00  0.00     0.020 A 
ATOM     95  C   UNL     1     -17.034 -11.969  -1.119  1.00  0.00     0.020 A 
ATOM     96  C   UNL     1     -18.143 -11.131  -0.984  1.00  0.00     0.054 A 
BRANCH  96  97
ATOM     97  S   UNL     1     -19.816 -11.832  -0.936  1.00  0.00     0.124 S 
ATOM     98  O   UNL     1     -20.145 -11.733   0.483  1.00  0.00    -0.237 OA
ATOM     99  O   UNL     1     -20.565 -10.941  -1.819  1.00  0.00    -0.237 OA
ATOM    100  O   UNL     1     -19.635 -13.191  -1.442  1.00  0.00    -0.744 OA
ENDBRANCH  96  97
ENDBRANCH  70  91
ENDBRANCH  44  45
ENDBRANCH  36  39
ENDBRANCH  34  35
ENDBRANCH  33  34
ENDBRANCH  32  33
ENDBRANCH   1  32
TORSDOF 21
