REMARK SMILES O=C(NC[C@@H]1CC[C@@H](C(=O)NCCCCNC(=O)c2ccc(-c3c4nc(c(-c5ccc(S(=O)(=O)[O-])cc5)c5ccc([nH]5)c(-c5ccc(S(=O)(=O)[O-])cc5)c5nc(c(-c6ccc(S(=O)(=O)[O-])cc6)c6ccc3[nH]6)C=C5)C=C4)cc2)O1)NC1CC1
REMARK SMILES IDX 13 1 12 2 11 3 9 4 10 5 8 7 5 8 6 9 79 10 7 11 4 12 3 13
REMARK SMILES IDX 1 14 2 15 80 16 81 19 82 20 83 21 14 22 15 23 16 24 17 25
REMARK SMILES IDX 18 27 19 28 20 29 78 30 21 31 77 32 22 33 23 34 24 35 71 36
REMARK SMILES IDX 25 37 76 38 70 39 72 40 26 41 75 42 69 43 68 44 27 46 57 47
REMARK SMILES IDX 38 48 56 49 39 50 42 51 55 52 73 53 40 54 41 55 54 57 74 58
REMARK SMILES IDX 43 59 28 60 29 61 37 62 30 63 36 64 31 65 32 66 33 67 34 68
REMARK SMILES IDX 35 69 58 70 59 71 67 72 60 73 66 74 61 75 62 76 63 77 64 78
REMARK SMILES IDX 65 79 44 80 45 81 53 82 46 83 52 84 47 85 48 86 49 87 50 88
REMARK SMILES IDX 51 89
REMARK H PARENT 11 6 3 17 80 18 16 26 72 45 42 56
REMARK Flexibility Score: inf
ROOT
ATOM      1  C   UNL     1       7.214   7.001   0.524  1.00  0.00     0.023 C 
ENDROOT
BRANCH   1   2
ATOM      2  C   UNL     1       5.795   7.072  -0.049  1.00  0.00     0.116 C 
BRANCH   2   3
ATOM      3  N   UNL     1       5.659   6.185  -1.184  1.00  0.00    -0.354 N 
ATOM      4  C   UNL     1       5.221   4.898  -1.275  1.00  0.00     0.249 C 
ATOM      5  O   UNL     1       5.382   4.350  -2.371  1.00  0.00    -0.272 OA
ATOM      6  H   UNL     1       5.930   6.582  -2.043  1.00  0.00     0.163 HD
BRANCH   4   7
ATOM      7  C   UNL     1       4.477   4.183  -0.118  1.00  0.00     0.207 C 
ATOM      8  C   UNL     1       5.056   2.094   0.769  1.00  0.00     0.138 C 
ATOM      9  C   UNL     1       4.755   3.005   1.936  1.00  0.00     0.037 C 
ATOM     10  O   UNL     1       4.469   2.751  -0.362  1.00  0.00    -0.363 OA
ATOM     11  C   UNL     1       5.005   4.351   1.302  1.00  0.00     0.045 C 
BRANCH   8  12
ATOM     12  C   UNL     1       4.553   0.660   0.932  1.00  0.00     0.149 C 
BRANCH  12  13
ATOM     13  N   UNL     1       3.101   0.545   0.908  1.00  0.00    -0.336 N 
ATOM     14  O   UNL     1       1.094  -0.235   0.329  1.00  0.00    -0.249 OA
ATOM     15  C   UNL     1       2.294  -0.161   0.075  1.00  0.00     0.315 C 
ATOM     16  N   UNL     1       2.890  -0.782  -0.983  1.00  0.00    -0.335 N 
ATOM     17  H   UNL     1       2.632   1.059   1.605  1.00  0.00     0.165 HD
ATOM     18  H   UNL     1       3.845  -0.611  -1.152  1.00  0.00     0.165 HD
BRANCH  16  19
ATOM     19  C   UNL     1       2.191  -1.669  -1.855  1.00  0.00     0.084 C 
ATOM     20  C   UNL     1       2.938  -2.471  -2.886  1.00  0.00     0.027 C 
ATOM     21  C   UNL     1       2.327  -3.160  -1.702  1.00  0.00     0.027 C 
ENDBRANCH  16  19
ENDBRANCH  12  13
ENDBRANCH   8  12
ENDBRANCH   4   7
ENDBRANCH   2   3
ENDBRANCH   1   2
BRANCH   1  22
ATOM     22  C   UNL     1       8.262   7.774  -0.282  1.00  0.00     0.023 C 
BRANCH  22  23
ATOM     23  C   UNL     1       8.033   9.279  -0.369  1.00  0.00     0.116 C 
BRANCH  23  24
ATOM     24  N   UNL     1       7.948   9.922   0.933  1.00  0.00    -0.352 N 
ATOM     25  C   UNL     1       8.342  11.189   1.288  1.00  0.00     0.251 C 
ATOM     26  H   UNL     1       7.556   9.378   1.654  1.00  0.00     0.163 HD
ATOM     27  O   UNL     1       8.296  11.540   2.463  1.00  0.00    -0.269 OA
BRANCH  25  28
ATOM     28  C   UNL     1       8.860  12.106   0.252  1.00  0.00     0.039 A 
ATOM     29  C   UNL     1      10.071  12.764   0.481  1.00  0.00     0.014 A 
ATOM     30  C   UNL     1       8.173  12.288  -0.951  1.00  0.00     0.014 A 
ATOM     31  C   UNL     1      10.629  13.553  -0.527  1.00  0.00     0.010 A 
ATOM     32  C   UNL     1       8.761  13.024  -1.976  1.00  0.00     0.010 A 
ATOM     33  C   UNL     1       9.995  13.660  -1.777  1.00  0.00    -0.014 A 
BRANCH  33  34
ATOM     34  C   UNL     1      10.616  14.418  -2.892  1.00  0.00     0.031 A 
ATOM     35  C   UNL     1       9.942  15.649  -3.435  1.00  0.00     0.074 A 
ATOM     36  C   UNL     1      11.742  13.952  -3.468  1.00  0.00     0.049 A 
ATOM     37  N   UNL     1      10.292  16.399  -4.448  1.00  0.00    -0.248 NA
ATOM     38  C   UNL     1       8.698  16.078  -2.773  1.00  0.00     0.031 C 
ATOM     39  C   UNL     1      12.461  12.738  -3.069  1.00  0.00     0.029 A 
ATOM     40  N   UNL     1      12.473  14.434  -4.524  1.00  0.00    -0.354 N 
ATOM     41  C   UNL     1       9.301  17.367  -4.564  1.00  0.00     0.074 A 
ATOM     42  C   UNL     1       8.319  17.092  -3.538  1.00  0.00     0.031 C 
ATOM     43  C   UNL     1      13.536  12.582  -3.859  1.00  0.00     0.029 A 
ATOM     44  C   UNL     1      13.566  13.661  -4.841  1.00  0.00     0.049 A 
ATOM     45  H   UNL     1      12.238  15.258  -5.010  1.00  0.00     0.167 HD
ATOM     46  C   UNL     1       9.223  18.398  -5.437  1.00  0.00     0.031 A 
ATOM     47  C   UNL     1      14.483  13.798  -5.818  1.00  0.00     0.031 A 
ATOM     48  C   UNL     1      10.222  18.692  -6.430  1.00  0.00     0.049 A 
ATOM     49  C   UNL     1      14.387  14.972  -6.755  1.00  0.00     0.074 A 
ATOM     50  C   UNL     1      10.279  19.770  -7.296  1.00  0.00     0.029 A 
ATOM     51  N   UNL     1      11.334  17.908  -6.691  1.00  0.00    -0.354 N 
ATOM     52  N   UNL     1      13.492  15.930  -6.785  1.00  0.00    -0.248 NA
ATOM     53  C   UNL     1      15.431  15.089  -7.783  1.00  0.00     0.031 C 
ATOM     54  C   UNL     1      11.403  19.614  -8.113  1.00  0.00     0.029 A 
ATOM     55  C   UNL     1      12.071  18.465  -7.722  1.00  0.00     0.049 A 
ATOM     56  H   UNL     1      11.566  17.079  -6.214  1.00  0.00     0.167 HD
ATOM     57  C   UNL     1      13.883  16.779  -7.814  1.00  0.00     0.074 A 
ATOM     58  C   UNL     1      15.101  16.230  -8.372  1.00  0.00     0.031 C 
ATOM     59  C   UNL     1      13.287  17.913  -8.257  1.00  0.00     0.031 A 
BRANCH  46  60
ATOM     60  C   UNL     1       8.017  19.294  -5.364  1.00  0.00    -0.014 A 
ATOM     61  C   UNL     1       7.855  20.211  -4.310  1.00  0.00     0.010 A 
ATOM     62  C   UNL     1       7.071  19.272  -6.405  1.00  0.00     0.010 A 
ATOM     63  C   UNL     1       6.754  21.072  -4.286  1.00  0.00     0.020 A 
ATOM     64  C   UNL     1       5.982  20.148  -6.397  1.00  0.00     0.020 A 
ATOM     65  C   UNL     1       5.825  21.035  -5.330  1.00  0.00     0.054 A 
BRANCH  65  66
ATOM     66  S   UNL     1       4.435  22.200  -5.299  1.00  0.00     0.124 S 
ATOM     67  O   UNL     1       3.582  21.621  -4.264  1.00  0.00    -0.237 OA
ATOM     68  O   UNL     1       5.081  23.462  -4.947  1.00  0.00    -0.237 OA
ATOM     69  O   UNL     1       3.898  22.136  -6.656  1.00  0.00    -0.744 OA
ENDBRANCH  65  66
ENDBRANCH  46  60
BRANCH  47  70
ATOM     70  C   UNL     1      15.581  12.804  -5.964  1.00  0.00    -0.014 A 
ATOM     71  C   UNL     1      16.908  13.155  -5.657  1.00  0.00     0.010 A 
ATOM     72  C   UNL     1      15.308  11.507  -6.436  1.00  0.00     0.010 A 
ATOM     73  C   UNL     1      17.947  12.241  -5.854  1.00  0.00     0.020 A 
ATOM     74  C   UNL     1      16.341  10.581  -6.608  1.00  0.00     0.020 A 
ATOM     75  C   UNL     1      17.657  10.960  -6.334  1.00  0.00     0.054 A 
BRANCH  75  76
ATOM     76  S   UNL     1      19.015   9.781  -6.567  1.00  0.00     0.124 S 
ATOM     77  O   UNL     1      19.613  10.251  -7.812  1.00  0.00    -0.237 OA
ATOM     78  O   UNL     1      19.819   9.979  -5.363  1.00  0.00    -0.237 OA
ATOM     79  O   UNL     1      18.334   8.490  -6.645  1.00  0.00    -0.744 OA
ENDBRANCH  75  76
ENDBRANCH  47  70
BRANCH  59  80
ATOM     80  C   UNL     1      13.964  18.661  -9.373  1.00  0.00    -0.014 A 
ATOM     81  C   UNL     1      13.938  18.179 -10.693  1.00  0.00     0.010 A 
ATOM     82  C   UNL     1      14.586  19.893  -9.102  1.00  0.00     0.010 A 
ATOM     83  C   UNL     1      14.548  18.904 -11.720  1.00  0.00     0.020 A 
ATOM     84  C   UNL     1      15.175  20.633 -10.130  1.00  0.00     0.020 A 
ATOM     85  C   UNL     1      15.164  20.127 -11.431  1.00  0.00     0.054 A 
BRANCH  85  86
ATOM     86  S   UNL     1      15.910  21.073 -12.787  1.00  0.00     0.124 S 
ATOM     87  O   UNL     1      17.148  20.338 -13.025  1.00  0.00    -0.237 OA
ATOM     88  O   UNL     1      14.905  20.971 -13.842  1.00  0.00    -0.237 OA
ATOM     89  O   UNL     1      16.077  22.411 -12.223  1.00  0.00    -0.744 OA
ENDBRANCH  85  86
ENDBRANCH  59  80
ENDBRANCH  33  34
ENDBRANCH  25  28
ENDBRANCH  23  24
ENDBRANCH  22  23
ENDBRANCH   1  22
TORSDOF 17
