REMARK SMILES CC(C)(C)c1ccc(C(=O)C[C@H](C(=O)NCCCCNC(=O)c2ccc(-c3c4nc(c(-c5ccc(S(=O)(=O)[O-])cc5)c5ccc([nH]5)c(-c5ccc(S(=O)(=O)[O-])cc5)c5nc(c(-c6ccc(S(=O)(=O)[O-])cc6)c6ccc3[nH]6)C=C5)C=C4)cc2)[NH+]2CCCC2)cc1
REMARK SMILES IDX 17 1 16 2 15 3 13 4 14 5 12 7 11 8 9 9 10 10 8 11 5 12 6 13
REMARK SMILES IDX 89 14 7 15 88 16 2 17 1 18 3 19 4 20 83 21 84 22 87 23 85 25
REMARK SMILES IDX 86 26 18 27 19 28 20 29 21 30 22 32 23 33 24 34 82 35 25 36
REMARK SMILES IDX 81 37 26 38 27 39 28 40 75 41 29 42 80 43 74 44 76 45 30 46
REMARK SMILES IDX 79 47 73 48 72 49 31 51 61 52 42 53 60 54 43 55 46 56 59 57
REMARK SMILES IDX 77 58 44 59 45 60 58 62 78 63 47 64 32 65 33 66 41 67 34 68
REMARK SMILES IDX 40 69 35 70 36 71 37 72 38 73 39 74 62 75 63 76 71 77 64 78
REMARK SMILES IDX 70 79 65 80 66 81 67 82 68 83 69 84 48 85 49 86 57 87 50 88
REMARK SMILES IDX 56 89 51 90 52 91 53 92 54 93 55 94
REMARK H PARENT 15 6 83 24 20 31 76 50 46 61
REMARK Flexibility Score: inf
ROOT
ATOM      1  C   UNL     1       4.513   6.864   5.139  1.00  0.00     0.023 C 
ENDROOT
BRANCH   1   2
ATOM      2  C   UNL     1       3.801   6.407   3.865  1.00  0.00     0.116 C 
BRANCH   2   3
ATOM      3  N   UNL     1       2.433   6.884   3.768  1.00  0.00    -0.351 N 
ATOM      4  C   UNL     1       1.690   7.266   2.684  1.00  0.00     0.278 C 
ATOM      5  O   UNL     1       0.487   7.448   2.882  1.00  0.00    -0.268 OA
ATOM      6  H   UNL     1       1.959   6.942   4.629  1.00  0.00     0.163 HD
BRANCH   4   7
ATOM      7  C   UNL     1       2.349   7.436   1.294  1.00  0.00     0.281 C 
BRANCH   7   8
ATOM      8  C   UNL     1       1.859   6.462   0.200  1.00  0.00     0.156 C 
BRANCH   8   9
ATOM      9  C   UNL     1       0.546   5.723   0.374  1.00  0.00     0.169 C 
ATOM     10  O   UNL     1      -0.376   5.878  -0.428  1.00  0.00    -0.294 OA
BRANCH   9  11
ATOM     11  C   UNL     1       0.380   4.729   1.471  1.00  0.00     0.018 A 
ATOM     12  C   UNL     1      -0.047   3.085   3.737  1.00  0.00    -0.043 A 
ATOM     13  C   UNL     1      -1.121   3.688   3.064  1.00  0.00     0.005 A 
ATOM     14  C   UNL     1       1.243   3.278   3.203  1.00  0.00     0.005 A 
ATOM     15  C   UNL     1      -0.912   4.496   1.944  1.00  0.00     0.012 A 
ATOM     16  C   UNL     1       1.457   4.079   2.075  1.00  0.00     0.012 A 
BRANCH  12  17
ATOM     17  C   UNL     1      -0.247   2.329   5.061  1.00  0.00    -0.013 C 
ATOM     18  C   UNL     1      -1.722   2.020   5.400  1.00  0.00     0.016 C 
ATOM     19  C   UNL     1       0.294   3.222   6.191  1.00  0.00     0.016 C 
ATOM     20  C   UNL     1       0.511   0.984   5.060  1.00  0.00     0.016 C 
ENDBRANCH  12  17
ENDBRANCH   9  11
ENDBRANCH   8   9
ENDBRANCH   7   8
BRANCH   7  21
ATOM     21  N   UNL     1       2.326   8.833   0.743  1.00  0.00    -0.324 N 
ATOM     22  C   UNL     1       3.642   9.487   0.789  1.00  0.00     0.263 C 
ATOM     23  C   UNL     1       1.442   9.807   1.402  1.00  0.00     0.263 C 
ATOM     24  H   UNL     1       1.983   8.637  -0.197  1.00  0.00     0.348 HD
ATOM     25  C   UNL     1       3.717  10.110   2.170  1.00  0.00     0.067 C 
ATOM     26  C   UNL     1       2.274  10.474   2.494  1.00  0.00     0.067 C 
ENDBRANCH   7  21
ENDBRANCH   4   7
ENDBRANCH   2   3
ENDBRANCH   1   2
BRANCH   1  27
ATOM     27  C   UNL     1       3.864   6.453   6.464  1.00  0.00     0.023 C 
BRANCH  27  28
ATOM     28  C   UNL     1       3.656   4.954   6.660  1.00  0.00     0.116 C 
BRANCH  28  29
ATOM     29  N   UNL     1       4.894   4.212   6.841  1.00  0.00    -0.352 N 
ATOM     30  C   UNL     1       5.229   3.316   7.834  1.00  0.00     0.251 C 
ATOM     31  H   UNL     1       5.588   4.372   6.161  1.00  0.00     0.163 HD
ATOM     32  O   UNL     1       6.357   2.832   7.873  1.00  0.00    -0.269 OA
BRANCH  30  33
ATOM     33  C   UNL     1       4.236   2.967   8.873  1.00  0.00     0.039 A 
ATOM     34  C   UNL     1       4.546   3.177  10.218  1.00  0.00     0.014 A 
ATOM     35  C   UNL     1       2.983   2.468   8.516  1.00  0.00     0.014 A 
ATOM     36  C   UNL     1       3.563   2.983  11.196  1.00  0.00     0.010 A 
ATOM     37  C   UNL     1       1.986   2.344   9.485  1.00  0.00     0.010 A 
ATOM     38  C   UNL     1       2.254   2.623  10.835  1.00  0.00    -0.014 A 
BRANCH  38  39
ATOM     39  C   UNL     1       1.141   2.580  11.828  1.00  0.00     0.031 A 
ATOM     40  C   UNL     1       0.355   1.312  12.050  1.00  0.00     0.074 A 
ATOM     41  C   UNL     1       0.759   3.710  12.461  1.00  0.00     0.049 A 
ATOM     42  N   UNL     1      -0.727   1.125  12.763  1.00  0.00    -0.248 NA
ATOM     43  C   UNL     1       0.831   0.104  11.357  1.00  0.00     0.031 C 
ATOM     44  C   UNL     1       1.392   5.023  12.313  1.00  0.00     0.029 A 
ATOM     45  N   UNL     1      -0.268   3.941  13.346  1.00  0.00    -0.354 N 
ATOM     46  C   UNL     1      -1.081  -0.206  12.578  1.00  0.00     0.074 A 
ATOM     47  C   UNL     1      -0.119  -0.771  11.656  1.00  0.00     0.031 C 
ATOM     48  C   UNL     1       0.758   5.911  13.095  1.00  0.00     0.029 A 
ATOM     49  C   UNL     1      -0.359   5.249  13.763  1.00  0.00     0.049 A 
ATOM     50  H   UNL     1      -0.882   3.235  13.653  1.00  0.00     0.167 HD
ATOM     51  C   UNL     1      -2.103  -0.903  13.133  1.00  0.00     0.031 A 
ATOM     52  C   UNL     1      -1.244   5.860  14.576  1.00  0.00     0.031 A 
ATOM     53  C   UNL     1      -3.042  -0.358  14.077  1.00  0.00     0.049 A 
ATOM     54  C   UNL     1      -2.364   5.065  15.189  1.00  0.00     0.074 A 
ATOM     55  C   UNL     1      -4.066  -1.011  14.743  1.00  0.00     0.029 A 
ATOM     56  N   UNL     1      -3.072   0.963  14.495  1.00  0.00    -0.354 N 
ATOM     57  N   UNL     1      -2.645   3.794  15.041  1.00  0.00    -0.248 NA
ATOM     58  C   UNL     1      -3.284   5.786  16.082  1.00  0.00     0.031 C 
ATOM     59  C   UNL     1      -4.741  -0.076  15.533  1.00  0.00     0.029 A 
ATOM     60  C   UNL     1      -4.106   1.148  15.398  1.00  0.00     0.049 A 
ATOM     61  H   UNL     1      -2.452   1.665  14.195  1.00  0.00     0.167 HD
ATOM     62  C   UNL     1      -3.753   3.556  15.847  1.00  0.00     0.074 A 
ATOM     63  C   UNL     1      -4.090   4.812  16.483  1.00  0.00     0.031 C 
ATOM     64  C   UNL     1      -4.426   2.396  16.043  1.00  0.00     0.031 A 
BRANCH  51  65
ATOM     65  C   UNL     1      -2.261  -2.347  12.733  1.00  0.00    -0.014 A 
ATOM     66  C   UNL     1      -1.345  -3.324  13.162  1.00  0.00     0.010 A 
ATOM     67  C   UNL     1      -3.367  -2.740  11.957  1.00  0.00     0.010 A 
ATOM     68  C   UNL     1      -1.504  -4.658  12.781  1.00  0.00     0.020 A 
ATOM     69  C   UNL     1      -3.546  -4.079  11.598  1.00  0.00     0.020 A 
ATOM     70  C   UNL     1      -2.600  -5.026  11.996  1.00  0.00     0.054 A 
BRANCH  70  71
ATOM     71  S   UNL     1      -2.788  -6.768  11.525  1.00  0.00     0.124 S 
ATOM     72  O   UNL     1      -1.768  -6.908  10.488  1.00  0.00    -0.237 OA
ATOM     73  O   UNL     1      -2.511  -7.471  12.775  1.00  0.00    -0.237 OA
ATOM     74  O   UNL     1      -4.169  -6.854  11.057  1.00  0.00    -0.744 OA
ENDBRANCH  70  71
ENDBRANCH  51  65
BRANCH  52  75
ATOM     75  C   UNL     1      -1.099   7.312  14.870  1.00  0.00    -0.014 A 
ATOM     76  C   UNL     1      -0.662   7.740  16.136  1.00  0.00     0.010 A 
ATOM     77  C   UNL     1      -1.383   8.274  13.883  1.00  0.00     0.010 A 
ATOM     78  C   UNL     1      -0.523   9.102  16.415  1.00  0.00     0.020 A 
ATOM     79  C   UNL     1      -1.222   9.636  14.150  1.00  0.00     0.020 A 
ATOM     80  C   UNL     1      -0.802  10.042  15.419  1.00  0.00     0.054 A 
BRANCH  80  81
ATOM     81  S   UNL     1      -0.559  11.803  15.784  1.00  0.00     0.124 S 
ATOM     82  O   UNL     1      -1.719  12.102  16.618  1.00  0.00    -0.237 OA
ATOM     83  O   UNL     1       0.732  11.809  16.468  1.00  0.00    -0.237 OA
ATOM     84  O   UNL     1      -0.558  12.428  14.463  1.00  0.00    -0.744 OA
ENDBRANCH  80  81
ENDBRANCH  52  75
BRANCH  64  85
ATOM     85  C   UNL     1      -5.569   2.398  17.021  1.00  0.00    -0.014 A 
ATOM     86  C   UNL     1      -6.815   2.956  16.687  1.00  0.00     0.010 A 
ATOM     87  C   UNL     1      -5.420   1.740  18.256  1.00  0.00     0.010 A 
ATOM     88  C   UNL     1      -7.891   2.858  17.573  1.00  0.00     0.020 A 
ATOM     89  C   UNL     1      -6.499   1.622  19.135  1.00  0.00     0.020 A 
ATOM     90  C   UNL     1      -7.729   2.186  18.789  1.00  0.00     0.054 A 
BRANCH  90  91
ATOM     91  S   UNL     1      -9.164   1.995  19.883  1.00  0.00     0.124 S 
ATOM     92  O   UNL     1      -9.304   3.337  20.440  1.00  0.00    -0.237 OA
ATOM     93  O   UNL     1     -10.219   1.585  18.959  1.00  0.00    -0.237 OA
ATOM     94  O   UNL     1      -8.742   0.967  20.832  1.00  0.00    -0.744 OA
ENDBRANCH  90  91
ENDBRANCH  64  85
ENDBRANCH  38  39
ENDBRANCH  30  33
ENDBRANCH  28  29
ENDBRANCH  27  28
ENDBRANCH   1  27
TORSDOF 19
