REMARK SMILES COc1ccc(S(=O)(=O)N2CCC[C@H](C(=O)N3CCC[C@H](C(=O)NCCCCNC(=O)c4ccc(-c5c6nc(c(-c7ccc(S(=O)(=O)[O-])cc7)c7ccc([nH]7)c(-c7ccc(S(=O)(=O)[O-])cc7)c7nc(c(-c8ccc(S(=O)(=O)[O-])cc8)c8ccc5[nH]8)C=C7)C=C6)cc4)C3)C2)cc1
REMARK SMILES IDX 25 1 24 2 22 3 23 4 21 6 17 7 18 8 92 9 19 10 20 11 15 12
REMARK SMILES IDX 16 13 14 14 10 15 11 16 93 17 12 18 13 19 7 20 8 21 9 22
REMARK SMILES IDX 6 23 3 24 4 25 95 26 5 27 94 28 2 29 1 30 26 31 27 32 28 33
REMARK SMILES IDX 29 34 30 35 31 37 32 38 33 39 91 40 34 41 90 42 35 43 36 44
REMARK SMILES IDX 37 45 84 46 38 47 89 48 83 49 85 50 39 51 88 52 82 53 81 54
REMARK SMILES IDX 40 56 70 57 51 58 69 59 52 60 55 61 68 62 86 63 53 64 54 65
REMARK SMILES IDX 67 67 87 68 56 69 41 70 42 71 50 72 43 73 49 74 44 75 45 76
REMARK SMILES IDX 46 77 47 78 48 79 71 80 72 81 80 82 73 83 79 84 74 85 75 86
REMARK SMILES IDX 76 87 77 88 78 89 57 90 58 91 66 92 59 93 65 94 60 95 61 96
REMARK SMILES IDX 62 97 63 98 64 99
REMARK H PARENT 24 5 29 36 85 55 55 66
REMARK Flexibility Score: inf
ROOT
ATOM      1  C   UNL     1       7.980 -10.755   0.155  1.00  0.00     0.116 C 
ENDROOT
BRANCH   1   2
ATOM      2  N   UNL     1       8.536 -10.849  -1.172  1.00  0.00    -0.356 N 
ATOM      3  C   UNL     1       7.994 -10.494  -2.365  1.00  0.00     0.224 C 
ATOM      4  O   UNL     1       8.754 -10.479  -3.340  1.00  0.00    -0.275 OA
ATOM      5  H   UNL     1       9.444 -11.226  -1.220  1.00  0.00     0.163 HD
BRANCH   3   6
ATOM      6  C   UNL     1       6.521 -10.114  -2.560  1.00  0.00     0.098 C 
ATOM      7  N   UNL     1       5.440  -8.770  -0.729  1.00  0.00    -0.342 N 
ATOM      8  C   UNL     1       4.349  -9.729  -0.594  1.00  0.00     0.119 C 
ATOM      9  C   UNL     1       6.135  -8.740  -2.006  1.00  0.00     0.133 C 
ATOM     10  C   UNL     1       4.743 -11.149  -0.979  1.00  0.00     0.022 C 
ATOM     11  C   UNL     1       5.504 -11.231  -2.299  1.00  0.00     0.017 C 
BRANCH   7  12
ATOM     12  C   UNL     1       5.873  -8.099   0.397  1.00  0.00     0.227 C 
ATOM     13  O   UNL     1       6.010  -8.697   1.471  1.00  0.00    -0.275 OA
BRANCH  12  14
ATOM     14  C   UNL     1       5.930  -6.571   0.404  1.00  0.00     0.094 C 
ATOM     15  N   UNL     1       3.543  -6.235  -0.117  1.00  0.00    -0.197 NA
ATOM     16  C   UNL     1       3.808  -5.819  -1.504  1.00  0.00     0.102 C 
ATOM     17  C   UNL     1       4.583  -6.074   0.915  1.00  0.00     0.116 C 
ATOM     18  C   UNL     1       5.263  -5.541  -1.867  1.00  0.00     0.018 C 
ATOM     19  C   UNL     1       6.339  -5.757  -0.809  1.00  0.00     0.016 C 
BRANCH  15  20
ATOM     20  S   UNL     1       1.921  -6.266   0.383  1.00  0.00     0.243 S 
ATOM     21  O   UNL     1       1.844  -6.891   1.679  1.00  0.00    -0.207 OA
ATOM     22  O   UNL     1       1.141  -6.756  -0.742  1.00  0.00    -0.207 OA
BRANCH  20  23
ATOM     23  C   UNL     1       1.440  -4.565   0.605  1.00  0.00     0.082 A 
ATOM     24  C   UNL     1       0.531  -1.930   0.794  1.00  0.00     0.118 A 
ATOM     25  C   UNL     1      -0.355  -2.992   0.984  1.00  0.00     0.048 A 
ATOM     26  C   UNL     1       1.882  -2.188   0.566  1.00  0.00     0.048 A 
ATOM     27  C   UNL     1       0.093  -4.311   0.881  1.00  0.00     0.025 A 
ATOM     28  C   UNL     1       2.335  -3.504   0.466  1.00  0.00     0.025 A 
BRANCH  24  29
ATOM     29  O   UNL     1      -0.014  -0.677   0.867  1.00  0.00    -0.497 OA
ATOM     30  C   UNL     1       0.635   0.300   0.057  1.00  0.00     0.278 C 
ENDBRANCH  24  29
ENDBRANCH  20  23
ENDBRANCH  15  20
ENDBRANCH  12  14
ENDBRANCH   7  12
ENDBRANCH   3   6
ENDBRANCH   1   2
BRANCH   1  31
ATOM     31  C   UNL     1       7.905 -12.086   0.892  1.00  0.00     0.023 C 
BRANCH  31  32
ATOM     32  C   UNL     1       9.037 -12.316   1.884  1.00  0.00     0.023 C 
BRANCH  32  33
ATOM     33  C   UNL     1       9.185 -11.254   2.970  1.00  0.00     0.116 C 
BRANCH  33  34
ATOM     34  N   UNL     1       8.001 -11.056   3.798  1.00  0.00    -0.352 N 
ATOM     35  C   UNL     1       7.956 -10.863   5.163  1.00  0.00     0.251 C 
ATOM     36  H   UNL     1       7.136 -11.062   3.329  1.00  0.00     0.163 HD
ATOM     37  O   UNL     1       6.893 -10.785   5.767  1.00  0.00    -0.269 OA
BRANCH  35  38
ATOM     38  C   UNL     1       9.238 -10.791   5.894  1.00  0.00     0.039 A 
ATOM     39  C   UNL     1       9.497 -11.714   6.909  1.00  0.00     0.014 A 
ATOM     40  C   UNL     1      10.225  -9.896   5.471  1.00  0.00     0.014 A 
ATOM     41  C   UNL     1      10.789 -11.807   7.431  1.00  0.00     0.010 A 
ATOM     42  C   UNL     1      11.526 -10.049   5.934  1.00  0.00     0.010 A 
ATOM     43  C   UNL     1      11.825 -11.015   6.908  1.00  0.00    -0.014 A 
BRANCH  43  44
ATOM     44  C   UNL     1      13.235 -11.197   7.340  1.00  0.00     0.031 A 
ATOM     45  C   UNL     1      13.969 -10.066   8.006  1.00  0.00     0.074 A 
ATOM     46  C   UNL     1      13.881 -12.346   7.054  1.00  0.00     0.049 A 
ATOM     47  N   UNL     1      15.222 -10.003   8.378  1.00  0.00    -0.248 NA
ATOM     48  C   UNL     1      13.205  -8.832   8.254  1.00  0.00     0.031 C 
ATOM     49  C   UNL     1      13.302 -13.498   6.357  1.00  0.00     0.029 A 
ATOM     50  N   UNL     1      15.174 -12.732   7.307  1.00  0.00    -0.354 N 
ATOM     51  C   UNL     1      15.402  -8.718   8.876  1.00  0.00     0.074 A 
ATOM     52  C   UNL     1      14.145  -8.021   8.715  1.00  0.00     0.031 C 
ATOM     53  C   UNL     1      14.225 -14.470   6.268  1.00  0.00     0.029 A 
ATOM     54  C   UNL     1      15.470 -14.001   6.867  1.00  0.00     0.049 A 
ATOM     55  H   UNL     1      15.829 -12.154   7.761  1.00  0.00     0.167 HD
ATOM     56  C   UNL     1      16.506  -8.172   9.438  1.00  0.00     0.031 A 
ATOM     57  C   UNL     1      16.615 -14.709   6.937  1.00  0.00     0.031 A 
ATOM     58  C   UNL     1      17.745  -8.876   9.628  1.00  0.00     0.049 A 
ATOM     59  C   UNL     1      17.819 -14.094   7.595  1.00  0.00     0.074 A 
ATOM     60  C   UNL     1      18.899  -8.433  10.252  1.00  0.00     0.029 A 
ATOM     61  N   UNL     1      17.991 -10.172   9.202  1.00  0.00    -0.354 N 
ATOM     62  N   UNL     1      17.948 -12.900   8.122  1.00  0.00    -0.248 NA
ATOM     63  C   UNL     1      19.028 -14.925   7.677  1.00  0.00     0.031 C 
ATOM     64  C   UNL     1      19.855  -9.451  10.172  1.00  0.00     0.029 A 
ATOM     65  C   UNL     1      19.282 -10.542   9.537  1.00  0.00     0.049 A 
ATOM     66  H   UNL     1      17.344 -10.744   8.731  1.00  0.00     0.167 HD
ATOM     67  C   UNL     1      19.244 -12.846   8.622  1.00  0.00     0.074 A 
ATOM     68  C   UNL     1      19.855 -14.130   8.344  1.00  0.00     0.031 C 
ATOM     69  C   UNL     1      19.872 -11.825   9.256  1.00  0.00     0.031 A 
BRANCH  56  70
ATOM     70  C   UNL     1      16.414  -6.740   9.891  1.00  0.00    -0.014 A 
ATOM     71  C   UNL     1      15.640  -6.383  11.010  1.00  0.00     0.010 A 
ATOM     72  C   UNL     1      17.122  -5.741   9.200  1.00  0.00     0.010 A 
ATOM     73  C   UNL     1      15.536  -5.046  11.400  1.00  0.00     0.020 A 
ATOM     74  C   UNL     1      17.043  -4.405   9.604  1.00  0.00     0.020 A 
ATOM     75  C   UNL     1      16.233  -4.064  10.690  1.00  0.00     0.054 A 
BRANCH  75  76
ATOM     76  S   UNL     1      16.088  -2.336  11.221  1.00  0.00     0.124 S 
ATOM     77  O   UNL     1      14.764  -1.978  10.720  1.00  0.00    -0.237 OA
ATOM     78  O   UNL     1      16.203  -2.434  12.674  1.00  0.00    -0.237 OA
ATOM     79  O   UNL     1      17.207  -1.674  10.554  1.00  0.00    -0.744 OA
ENDBRANCH  75  76
ENDBRANCH  56  70
BRANCH  57  80
ATOM     80  C   UNL     1      16.668 -16.095   6.397  1.00  0.00    -0.014 A 
ATOM     81  C   UNL     1      16.705 -17.195   7.272  1.00  0.00     0.010 A 
ATOM     82  C   UNL     1      16.673 -16.324   5.010  1.00  0.00     0.010 A 
ATOM     83  C   UNL     1      16.763 -18.498   6.771  1.00  0.00     0.020 A 
ATOM     84  C   UNL     1      16.708 -17.627   4.504  1.00  0.00     0.020 A 
ATOM     85  C   UNL     1      16.764 -18.706   5.389  1.00  0.00     0.054 A 
BRANCH  85  86
ATOM     86  S   UNL     1      16.788 -20.408   4.758  1.00  0.00     0.124 S 
ATOM     87  O   UNL     1      18.183 -20.785   4.956  1.00  0.00    -0.237 OA
ATOM     88  O   UNL     1      15.821 -21.081   5.623  1.00  0.00    -0.237 OA
ATOM     89  O   UNL     1      16.368 -20.260   3.367  1.00  0.00    -0.744 OA
ENDBRANCH  85  86
ENDBRANCH  57  80
BRANCH  69  90
ATOM     90  C   UNL     1      21.281 -12.064   9.723  1.00  0.00    -0.014 A 
ATOM     91  C   UNL     1      22.354 -12.084   8.815  1.00  0.00     0.010 A 
ATOM     92  C   UNL     1      21.540 -12.209  11.099  1.00  0.00     0.010 A 
ATOM     93  C   UNL     1      23.661 -12.271   9.273  1.00  0.00     0.020 A 
ATOM     94  C   UNL     1      22.848 -12.373  11.562  1.00  0.00     0.020 A 
ATOM     95  C   UNL     1      23.899 -12.416  10.644  1.00  0.00     0.054 A 
BRANCH  95  96
ATOM     96  S   UNL     1      25.608 -12.606  11.220  1.00  0.00     0.124 S 
ATOM     97  O   UNL     1      25.887 -14.000  10.887  1.00  0.00    -0.237 OA
ATOM     98  O   UNL     1      26.329 -11.614  10.426  1.00  0.00    -0.237 OA
ATOM     99  O   UNL     1      25.526 -12.310  12.649  1.00  0.00    -0.744 OA
ENDBRANCH  95  96
ENDBRANCH  69  90
ENDBRANCH  43  44
ENDBRANCH  35  38
ENDBRANCH  33  34
ENDBRANCH  32  33
ENDBRANCH  31  32
ENDBRANCH   1  31
TORSDOF 19
