REMARK SMILES NS(=O)(=O)c1ccc(N2N=C(C(=O)NCCCCNC(=O)c3ccc(-c4c5nc(c(-c6ccc(S(=O)(=O)[O-])cc6)c6ccc([nH]6)c(-c6ccc(S(=O)(=O)[O-])cc6)c6nc(c(-c7ccc(S(=O)(=O)[O-])cc7)c7ccc4[nH]7)C=C6)C=C5)cc3)C[C@H]2c2ccco2)cc1
REMARK SMILES IDX 16 1 15 2 14 3 12 4 13 5 11 7 9 8 10 9 83 10 82 11 8 12 5 13
REMARK SMILES IDX 6 14 90 15 7 16 89 17 2 18 3 19 4 20 1 21 84 24 85 25 88 26
REMARK SMILES IDX 86 27 87 28 17 29 18 30 19 31 20 32 21 34 22 35 23 36 81 37
REMARK SMILES IDX 24 38 80 39 25 40 26 41 27 42 74 43 28 44 79 45 73 46 75 47
REMARK SMILES IDX 29 48 78 49 72 50 71 51 30 53 60 54 41 55 59 56 42 57 45 58
REMARK SMILES IDX 58 59 76 60 43 61 44 62 57 64 77 65 46 66 31 67 32 68 40 69
REMARK SMILES IDX 33 70 39 71 34 72 35 73 36 74 37 75 38 76 61 77 62 78 70 79
REMARK SMILES IDX 63 80 69 81 64 82 65 83 66 84 67 85 68 86 47 87 48 88 56 89
REMARK SMILES IDX 49 90 55 91 50 92 51 93 52 94 53 95 54 96
REMARK H PARENT 14 6 1 22 1 23 19 33 75 52 45 63
REMARK Flexibility Score: inf
ROOT
ATOM      1  C   UNL     1       5.299   0.480 -11.857  1.00  0.00     0.023 C 
ENDROOT
BRANCH   1   2
ATOM      2  C   UNL     1       4.050   1.154 -11.299  1.00  0.00     0.116 C 
BRANCH   2   3
ATOM      3  N   UNL     1       2.964   0.206 -11.143  1.00  0.00    -0.351 N 
ATOM      4  C   UNL     1       2.312  -0.341 -10.066  1.00  0.00     0.267 C 
ATOM      5  O   UNL     1       1.471  -1.209 -10.289  1.00  0.00    -0.268 OA
ATOM      6  H   UNL     1       2.615  -0.119 -12.005  1.00  0.00     0.163 HD
BRANCH   4   7
ATOM      7  C   UNL     1       2.534   0.096  -8.626  1.00  0.00     0.128 C 
ATOM      8  N   UNL     1       2.127   0.338  -6.545  1.00  0.00    -0.254 N 
ATOM      9  N   UNL     1       1.795  -0.366  -7.662  1.00  0.00    -0.171 NA
ATOM     10  C   UNL     1       3.321   1.171  -6.709  1.00  0.00     0.180 C 
ATOM     11  C   UNL     1       3.562   1.091  -8.218  1.00  0.00     0.099 C 
BRANCH   8  12
ATOM     12  C   UNL     1       1.720  -0.114  -5.295  1.00  0.00     0.060 A 
ATOM     13  C   UNL     1       0.943  -0.950  -2.734  1.00  0.00     0.082 A 
ATOM     14  C   UNL     1       1.558  -1.857  -3.599  1.00  0.00     0.024 A 
ATOM     15  C   UNL     1       0.683   0.358  -3.142  1.00  0.00     0.024 A 
ATOM     16  C   UNL     1       1.932  -1.437  -4.880  1.00  0.00     0.029 A 
ATOM     17  C   UNL     1       1.073   0.765  -4.416  1.00  0.00     0.029 A 
BRANCH  13  18
ATOM     18  S   UNL     1       0.498  -1.436  -1.098  1.00  0.00     0.238 S 
ATOM     19  O   UNL     1       1.186  -2.656  -0.748  1.00  0.00    -0.207 OA
ATOM     20  O   UNL     1      -0.924  -1.260  -0.923  1.00  0.00    -0.207 OA
BRANCH  18  21
ATOM     21  N   UNL     1       1.229  -0.244  -0.158  1.00  0.00    -0.225 NA
ATOM     22  H   UNL     1       1.037  -0.423   0.828  1.00  0.00     0.137 HD
ATOM     23  H   UNL     1       0.855   0.669  -0.417  1.00  0.00     0.137 HD
ENDBRANCH  18  21
ENDBRANCH  13  18
ENDBRANCH   8  12
BRANCH  10  24
ATOM     24  C   UNL     1       3.259   2.588  -6.210  1.00  0.00     0.128 A 
ATOM     25  C   UNL     1       3.417   3.151  -4.957  1.00  0.00     0.048 A 
ATOM     26  O   UNL     1       3.014   3.580  -7.119  1.00  0.00    -0.467 OA
ATOM     27  C   UNL     1       3.240   4.547  -5.112  1.00  0.00     0.042 A 
ATOM     28  C   UNL     1       3.011   4.758  -6.450  1.00  0.00     0.195 A 
ENDBRANCH  10  24
ENDBRANCH   4   7
ENDBRANCH   2   3
ENDBRANCH   1   2
BRANCH   1  29
ATOM     29  C   UNL     1       5.234   0.192 -13.355  1.00  0.00     0.023 C 
BRANCH  29  30
ATOM     30  C   UNL     1       4.971   1.410 -14.235  1.00  0.00     0.116 C 
BRANCH  30  31
ATOM     31  N   UNL     1       5.919   2.496 -14.020  1.00  0.00    -0.352 N 
ATOM     32  C   UNL     1       6.535   3.287 -14.962  1.00  0.00     0.251 C 
ATOM     33  H   UNL     1       6.148   2.687 -13.082  1.00  0.00     0.163 HD
ATOM     34  O   UNL     1       7.398   4.093 -14.632  1.00  0.00    -0.269 OA
BRANCH  32  35
ATOM     35  C   UNL     1       6.163   3.116 -16.379  1.00  0.00     0.039 A 
ATOM     36  C   UNL     1       7.162   2.850 -17.317  1.00  0.00     0.014 A 
ATOM     37  C   UNL     1       4.816   3.129 -16.753  1.00  0.00     0.014 A 
ATOM     38  C   UNL     1       6.802   2.511 -18.623  1.00  0.00     0.010 A 
ATOM     39  C   UNL     1       4.459   2.719 -18.031  1.00  0.00     0.010 A 
ATOM     40  C   UNL     1       5.447   2.398 -18.976  1.00  0.00    -0.014 A 
BRANCH  40  41
ATOM     41  C   UNL     1       5.026   1.936 -20.323  1.00  0.00     0.031 A 
ATOM     42  C   UNL     1       4.234   2.856 -21.210  1.00  0.00     0.074 A 
ATOM     43  C   UNL     1       5.273   0.667 -20.706  1.00  0.00     0.049 A 
ATOM     44  N   UNL     1       3.663   2.603 -22.359  1.00  0.00    -0.248 NA
ATOM     45  C   UNL     1       4.033   4.232 -20.728  1.00  0.00     0.031 C 
ATOM     46  C   UNL     1       6.005  -0.331 -19.922  1.00  0.00     0.029 A 
ATOM     47  N   UNL     1       4.919  -0.006 -21.849  1.00  0.00    -0.354 N 
ATOM     48  C   UNL     1       3.017   3.777 -22.725  1.00  0.00     0.074 A 
ATOM     49  C   UNL     1       3.227   4.728 -21.654  1.00  0.00     0.031 C 
ATOM     50  C   UNL     1       6.061  -1.480 -20.615  1.00  0.00     0.029 A 
ATOM     51  C   UNL     1       5.330  -1.319 -21.868  1.00  0.00     0.049 A 
ATOM     52  H   UNL     1       4.418   0.412 -22.586  1.00  0.00     0.167 HD
ATOM     53  C   UNL     1       2.327   4.047 -23.858  1.00  0.00     0.031 A 
ATOM     54  C   UNL     1       5.127  -2.288 -22.782  1.00  0.00     0.031 A 
ATOM     55  C   UNL     1       2.133   3.103 -24.925  1.00  0.00     0.049 A 
ATOM     56  C   UNL     1       4.338  -1.970 -24.024  1.00  0.00     0.074 A 
ATOM     57  C   UNL     1       1.492   3.296 -26.136  1.00  0.00     0.029 A 
ATOM     58  N   UNL     1       2.579   1.791 -24.911  1.00  0.00    -0.354 N 
ATOM     59  N   UNL     1       3.780  -0.837 -24.377  1.00  0.00    -0.248 NA
ATOM     60  C   UNL     1       4.156  -3.060 -24.993  1.00  0.00     0.031 C 
ATOM     61  C   UNL     1       1.508   2.084 -26.834  1.00  0.00     0.029 A 
ATOM     62  C   UNL     1       2.210   1.155 -26.083  1.00  0.00     0.049 A 
ATOM     63  H   UNL     1       3.084   1.373 -24.176  1.00  0.00     0.167 HD
ATOM     64  C   UNL     1       3.209  -1.068 -25.623  1.00  0.00     0.074 A 
ATOM     65  C   UNL     1       3.495  -2.446 -25.966  1.00  0.00     0.031 C 
ATOM     66  C   UNL     1       2.514  -0.215 -26.414  1.00  0.00     0.031 A 
BRANCH  53  67
ATOM     67  C   UNL     1       1.728   5.421 -23.995  1.00  0.00    -0.014 A 
ATOM     68  C   UNL     1       2.543   6.553 -24.179  1.00  0.00     0.010 A 
ATOM     69  C   UNL     1       0.330   5.581 -23.973  1.00  0.00     0.010 A 
ATOM     70  C   UNL     1       1.975   7.824 -24.292  1.00  0.00     0.020 A 
ATOM     71  C   UNL     1      -0.244   6.848 -24.116  1.00  0.00     0.020 A 
ATOM     72  C   UNL     1       0.584   7.963 -24.256  1.00  0.00     0.054 A 
BRANCH  72  73
ATOM     73  S   UNL     1      -0.126   9.624 -24.422  1.00  0.00     0.124 S 
ATOM     74  O   UNL     1       0.187  10.215 -23.124  1.00  0.00    -0.237 OA
ATOM     75  O   UNL     1       0.611  10.175 -25.557  1.00  0.00    -0.237 OA
ATOM     76  O   UNL     1      -1.544   9.372 -24.667  1.00  0.00    -0.744 OA
ENDBRANCH  72  73
ENDBRANCH  53  67
BRANCH  54  77
ATOM     77  C   UNL     1       5.689  -3.649 -22.562  1.00  0.00    -0.014 A 
ATOM     78  C   UNL     1       6.758  -4.112 -23.349  1.00  0.00     0.010 A 
ATOM     79  C   UNL     1       5.164  -4.487 -21.562  1.00  0.00     0.010 A 
ATOM     80  C   UNL     1       7.281  -5.394 -23.151  1.00  0.00     0.020 A 
ATOM     81  C   UNL     1       5.701  -5.759 -21.343  1.00  0.00     0.020 A 
ATOM     82  C   UNL     1       6.750  -6.209 -22.148  1.00  0.00     0.054 A 
BRANCH  82  83
ATOM     83  S   UNL     1       7.476  -7.850 -21.878  1.00  0.00     0.124 S 
ATOM     84  O   UNL     1       6.975  -8.596 -23.027  1.00  0.00    -0.237 OA
ATOM     85  O   UNL     1       8.909  -7.565 -21.883  1.00  0.00    -0.237 OA
ATOM     86  O   UNL     1       6.934  -8.254 -20.582  1.00  0.00    -0.744 OA
ENDBRANCH  82  83
ENDBRANCH  54  77
BRANCH  66  87
ATOM     87  C   UNL     1       2.050  -0.721 -27.753  1.00  0.00    -0.014 A 
ATOM     88  C   UNL     1       0.967  -1.611 -27.861  1.00  0.00     0.010 A 
ATOM     89  C   UNL     1       2.652  -0.225 -28.924  1.00  0.00     0.010 A 
ATOM     90  C   UNL     1       0.503  -2.006 -29.119  1.00  0.00     0.020 A 
ATOM     91  C   UNL     1       2.174  -0.597 -30.182  1.00  0.00     0.020 A 
ATOM     92  C   UNL     1       1.106  -1.491 -30.272  1.00  0.00     0.054 A 
BRANCH  92  93
ATOM     93  S   UNL     1       0.435  -1.959 -31.891  1.00  0.00     0.124 S 
ATOM     94  O   UNL     1       0.892  -3.340 -32.022  1.00  0.00    -0.237 OA
ATOM     95  O   UNL     1      -1.004  -1.788 -31.703  1.00  0.00    -0.237 OA
ATOM     96  O   UNL     1       1.054  -1.008 -32.811  1.00  0.00    -0.744 OA
ENDBRANCH  92  93
ENDBRANCH  66  87
ENDBRANCH  40  41
ENDBRANCH  32  35
ENDBRANCH  30  31
ENDBRANCH  29  30
ENDBRANCH   1  29
TORSDOF 18
