REMARK SMILES CC[NH2+][C@@]1(C(=O)NCCCCNC(=O)c2ccc(-c3c4nc(c(-c5ccc(S(=O)(=O)[O-])cc5)c5ccc([nH]5)c(-c5ccc(S(=O)(=O)[O-])cc5)c5nc(c(-c6ccc(S(=O)(=O)[O-])cc6)c6ccc3[nH]6)C=C5)C=C4)cc2)CCC[C@@H]([N@@H+](C)C2CCCC2)C1
REMARK SMILES IDX 10 1 9 2 8 3 7 4 5 5 6 6 4 8 75 9 86 10 76 11 78 12 77 13
REMARK SMILES IDX 3 14 2 17 1 18 79 19 80 20 81 22 82 23 85 24 83 25 84 26
REMARK SMILES IDX 11 27 12 28 13 29 14 31 15 32 16 33 74 34 17 35 73 36 18 37
REMARK SMILES IDX 19 38 20 39 67 40 21 41 72 42 66 43 68 44 22 45 71 46 65 47
REMARK SMILES IDX 64 48 23 50 53 51 34 52 52 53 35 54 38 55 51 56 69 57 36 58
REMARK SMILES IDX 37 59 50 61 70 62 39 63 24 64 25 65 33 66 26 67 32 68 27 69
REMARK SMILES IDX 28 70 29 71 30 72 31 73 54 74 55 75 63 76 56 77 62 78 57 79
REMARK SMILES IDX 58 80 59 81 60 82 61 83 40 84 41 85 49 86 42 87 48 88 43 89
REMARK SMILES IDX 44 90 45 91 46 92 47 93
REMARK H PARENT 7 7 3 15 3 16 79 21 12 30 68 49 38 60
REMARK Flexibility Score: inf
ROOT
ATOM      1  C   UNL     1      -2.886  -1.052   8.064  1.00  0.00     0.023 C 
ENDROOT
BRANCH   1   2
ATOM      2  C   UNL     1      -1.646  -1.068   7.181  1.00  0.00     0.023 C 
BRANCH   2   3
ATOM      3  C   UNL     1      -1.844  -1.665   5.784  1.00  0.00     0.116 C 
BRANCH   3   4
ATOM      4  N   UNL     1      -1.699  -0.673   4.741  1.00  0.00    -0.351 N 
ATOM      5  C   UNL     1      -0.763  -0.319   3.829  1.00  0.00     0.281 C 
ATOM      6  O   UNL     1      -1.112   0.682   3.179  1.00  0.00    -0.268 OA
ATOM      7  H   UNL     1      -2.498  -0.101   4.677  1.00  0.00     0.163 HD
BRANCH   5   8
ATOM      8  C   UNL     1       0.656  -1.012   3.565  1.00  0.00     0.181 C 
ATOM      9  C   UNL     1       0.677  -2.539   3.394  1.00  0.00     0.079 C 
ATOM     10  C   UNL     1       1.710  -0.568   4.599  1.00  0.00     0.144 C 
ATOM     11  C   UNL     1       0.892  -3.421   4.619  1.00  0.00     0.013 C 
ATOM     12  C   UNL     1       1.629  -1.273   5.949  1.00  0.00     0.190 C 
ATOM     13  C   UNL     1       1.538  -2.809   5.862  1.00  0.00     0.065 C 
BRANCH   8  14
ATOM     14  N   UNL     1       1.180  -0.402   2.279  1.00  0.00    -0.334 N 
ATOM     15  H   UNL     1       1.115   0.612   2.370  1.00  0.00     0.347 HD
ATOM     16  H   UNL     1       2.129  -0.761   2.179  1.00  0.00     0.347 HD
BRANCH  14  17
ATOM     17  C   UNL     1       0.494  -0.781   1.047  1.00  0.00     0.257 C 
ATOM     18  C   UNL     1       0.964   0.136  -0.075  1.00  0.00     0.071 C 
ENDBRANCH  14  17
ENDBRANCH   8  14
BRANCH  12  19
ATOM     19  N   UNL     1       2.595  -0.753   6.948  1.00  0.00    -0.332 N 
ATOM     20  C   UNL     1       2.301  -1.234   8.302  1.00  0.00     0.333 C 
ATOM     21  H   UNL     1       2.407   0.246   6.862  1.00  0.00     0.348 HD
BRANCH  19  22
ATOM     22  C   UNL     1       4.036  -0.777   6.670  1.00  0.00     0.184 C 
ATOM     23  C   UNL     1       4.670  -1.996   5.992  1.00  0.00     0.065 C 
ATOM     24  C   UNL     1       4.562   0.435   5.867  1.00  0.00     0.065 C 
ATOM     25  C   UNL     1       6.030  -1.472   5.558  1.00  0.00     0.006 C 
ATOM     26  C   UNL     1       5.687  -0.107   4.981  1.00  0.00     0.006 C 
ENDBRANCH  19  22
ENDBRANCH  12  19
ENDBRANCH   5   8
ENDBRANCH   3   4
ENDBRANCH   2   3
ENDBRANCH   1   2
BRANCH   1  27
ATOM     27  C   UNL     1      -3.484  -2.420   8.358  1.00  0.00     0.116 C 
BRANCH  27  28
ATOM     28  N   UNL     1      -2.581  -3.350   9.025  1.00  0.00    -0.352 N 
ATOM     29  C   UNL     1      -2.925  -4.358   9.903  1.00  0.00     0.251 C 
ATOM     30  H   UNL     1      -1.622  -3.249   8.828  1.00  0.00     0.163 HD
ATOM     31  O   UNL     1      -2.070  -5.054  10.437  1.00  0.00    -0.269 OA
BRANCH  29  32
ATOM     32  C   UNL     1      -4.356  -4.530  10.228  1.00  0.00     0.039 A 
ATOM     33  C   UNL     1      -4.773  -4.380  11.551  1.00  0.00     0.014 A 
ATOM     34  C   UNL     1      -5.288  -4.672   9.197  1.00  0.00     0.014 A 
ATOM     35  C   UNL     1      -6.137  -4.267  11.829  1.00  0.00     0.010 A 
ATOM     36  C   UNL     1      -6.636  -4.473   9.466  1.00  0.00     0.010 A 
ATOM     37  C   UNL     1      -7.074  -4.255  10.783  1.00  0.00    -0.014 A 
BRANCH  37  38
ATOM     38  C   UNL     1      -8.516  -3.994  11.032  1.00  0.00     0.031 A 
ATOM     39  C   UNL     1      -9.539  -5.036  10.668  1.00  0.00     0.074 A 
ATOM     40  C   UNL     1      -8.913  -2.787  11.487  1.00  0.00     0.049 A 
ATOM     41  N   UNL     1     -10.843  -4.961  10.712  1.00  0.00    -0.248 NA
ATOM     42  C   UNL     1      -9.029  -6.317  10.149  1.00  0.00     0.031 C 
ATOM     43  C   UNL     1      -8.028  -1.662  11.809  1.00  0.00     0.029 A 
ATOM     44  N   UNL     1     -10.169  -2.298  11.746  1.00  0.00    -0.354 N 
ATOM     45  C   UNL     1     -11.308  -6.161  10.188  1.00  0.00     0.074 A 
ATOM     46  C   UNL     1     -10.148  -6.932   9.798  1.00  0.00     0.031 C 
ATOM     47  C   UNL     1      -8.767  -0.629  12.246  1.00  0.00     0.029 A 
ATOM     48  C   UNL     1     -10.177  -1.001  12.205  1.00  0.00     0.049 A 
ATOM     49  H   UNL     1     -10.989  -2.827  11.615  1.00  0.00     0.167 HD
ATOM     50  C   UNL     1     -12.584  -6.593  10.061  1.00  0.00     0.031 A 
ATOM     51  C   UNL     1     -11.204  -0.201  12.553  1.00  0.00     0.031 A 
ATOM     52  C   UNL     1     -13.733  -5.853  10.504  1.00  0.00     0.049 A 
ATOM     53  C   UNL     1     -12.610  -0.730  12.462  1.00  0.00     0.074 A 
ATOM     54  C   UNL     1     -15.059  -6.249  10.516  1.00  0.00     0.029 A 
ATOM     55  N   UNL     1     -13.692  -4.568  11.022  1.00  0.00    -0.354 N 
ATOM     56  N   UNL     1     -13.021  -1.905  12.050  1.00  0.00    -0.248 NA
ATOM     57  C   UNL     1     -13.689   0.169  12.897  1.00  0.00     0.031 C 
ATOM     58  C   UNL     1     -15.825  -5.190  11.012  1.00  0.00     0.029 A 
ATOM     59  C   UNL     1     -14.971  -4.151  11.345  1.00  0.00     0.049 A 
ATOM     60  H   UNL     1     -12.875  -4.033  11.143  1.00  0.00     0.167 HD
ATOM     61  C   UNL     1     -14.403  -1.895  12.202  1.00  0.00     0.074 A 
ATOM     62  C   UNL     1     -14.757  -0.604  12.755  1.00  0.00     0.031 C 
ATOM     63  C   UNL     1     -15.300  -2.868  11.909  1.00  0.00     0.031 A 
BRANCH  50  64
ATOM     64  C   UNL     1     -12.804  -7.938   9.425  1.00  0.00    -0.014 A 
ATOM     65  C   UNL     1     -12.478  -9.125  10.106  1.00  0.00     0.010 A 
ATOM     66  C   UNL     1     -13.384  -8.017   8.146  1.00  0.00     0.010 A 
ATOM     67  C   UNL     1     -12.692 -10.366   9.503  1.00  0.00     0.020 A 
ATOM     68  C   UNL     1     -13.623  -9.259   7.551  1.00  0.00     0.020 A 
ATOM     69  C   UNL     1     -13.260 -10.425   8.227  1.00  0.00     0.054 A 
BRANCH  69  70
ATOM     70  S   UNL     1     -13.556 -12.051   7.479  1.00  0.00     0.124 S 
ATOM     71  O   UNL     1     -12.211 -12.437   7.060  1.00  0.00    -0.237 OA
ATOM     72  O   UNL     1     -14.112 -12.820   8.590  1.00  0.00    -0.237 OA
ATOM     73  O   UNL     1     -14.491 -11.767   6.393  1.00  0.00    -0.744 OA
ENDBRANCH  69  70
ENDBRANCH  50  64
BRANCH  51  74
ATOM     74  C   UNL     1     -10.951   1.181  13.044  1.00  0.00    -0.014 A 
ATOM     75  C   UNL     1     -11.134   1.495  14.403  1.00  0.00     0.010 A 
ATOM     76  C   UNL     1     -10.547   2.194  12.157  1.00  0.00     0.010 A 
ATOM     77  C   UNL     1     -10.951   2.804  14.860  1.00  0.00     0.020 A 
ATOM     78  C   UNL     1     -10.339   3.499  12.614  1.00  0.00     0.020 A 
ATOM     79  C   UNL     1     -10.560   3.799  13.960  1.00  0.00     0.054 A 
BRANCH  79  80
ATOM     80  S   UNL     1     -10.303   5.487  14.575  1.00  0.00     0.124 S 
ATOM     81  O   UNL     1     -11.671   5.982  14.681  1.00  0.00    -0.237 OA
ATOM     82  O   UNL     1      -9.610   5.264  15.842  1.00  0.00    -0.237 OA
ATOM     83  O   UNL     1      -9.490   6.107  13.531  1.00  0.00    -0.744 OA
ENDBRANCH  79  80
ENDBRANCH  51  74
BRANCH  63  84
ATOM     84  C   UNL     1     -16.745  -2.594  12.219  1.00  0.00    -0.014 A 
ATOM     85  C   UNL     1     -17.511  -1.739  11.409  1.00  0.00     0.010 A 
ATOM     86  C   UNL     1     -17.358  -3.252  13.301  1.00  0.00     0.010 A 
ATOM     87  C   UNL     1     -18.863  -1.527  11.690  1.00  0.00     0.020 A 
ATOM     88  C   UNL     1     -18.714  -3.060  13.572  1.00  0.00     0.020 A 
ATOM     89  C   UNL     1     -19.456  -2.189  12.771  1.00  0.00     0.054 A 
BRANCH  89  90
ATOM     90  S   UNL     1     -21.225  -1.942  13.087  1.00  0.00     0.124 S 
ATOM     91  O   UNL     1     -21.237  -0.635  13.738  1.00  0.00    -0.237 OA
ATOM     92  O   UNL     1     -21.802  -1.982  11.745  1.00  0.00    -0.237 OA
ATOM     93  O   UNL     1     -21.582  -3.070  13.944  1.00  0.00    -0.744 OA
ENDBRANCH  89  90
ENDBRANCH  63  84
ENDBRANCH  37  38
ENDBRANCH  29  32
ENDBRANCH  27  28
ENDBRANCH   1  27
TORSDOF 18
