REMARK SMILES CC1(C)CCSC[C@@H]1[N@@H+]1CCNC(=O)[C@@H]1CC(=O)NCCCCNC(=O)c1ccc(-c2c3nc(c(-c4ccc(S(=O)(=O)[O-])cc4)c4ccc([nH]4)c(-c4ccc(S(=O)(=O)[O-])cc4)c4nc(c(-c5ccc(S(=O)(=O)[O-])cc5)c5ccc2[nH]5)C=C4)C=C3)cc1
REMARK SMILES IDX 22 1 21 2 20 3 19 4 17 5 18 6 16 8 15 9 9 10 10 11 11 13
REMARK SMILES IDX 13 14 12 15 14 16 8 18 1 19 2 20 3 21 4 22 5 23 7 24 6 25
REMARK SMILES IDX 23 26 24 27 25 28 26 30 27 31 28 32 86 33 29 34 85 35 30 36
REMARK SMILES IDX 31 37 32 38 79 39 33 40 84 41 78 42 80 43 34 44 83 45 77 46
REMARK SMILES IDX 76 47 35 49 65 50 46 51 64 52 47 53 50 54 63 55 81 56 48 57
REMARK SMILES IDX 49 58 62 60 82 61 51 62 36 63 37 64 45 65 38 66 44 67 39 68
REMARK SMILES IDX 40 69 41 70 42 71 43 72 66 73 67 74 75 75 68 76 74 77 69 78
REMARK SMILES IDX 70 79 71 80 72 81 73 82 52 83 53 84 61 85 54 86 60 87 55 88
REMARK SMILES IDX 56 89 57 90 58 91 59 92
REMARK H PARENT 19 7 9 12 12 17 24 29 80 48 50 59
REMARK Flexibility Score: inf
ROOT
ATOM      1  C   UNL     1      -0.850  -2.093   2.454  1.00  0.00     0.023 C 
ENDROOT
BRANCH   1   2
ATOM      2  C   UNL     1      -0.560  -2.670   1.073  1.00  0.00     0.023 C 
BRANCH   2   3
ATOM      3  C   UNL     1       0.732  -3.511   0.912  1.00  0.00     0.116 C 
BRANCH   3   4
ATOM      4  N   UNL     1       0.439  -4.763   0.208  1.00  0.00    -0.356 N 
ATOM      5  C   UNL     1       0.668  -5.295  -1.023  1.00  0.00     0.226 C 
ATOM      6  O   UNL     1       0.054  -6.338  -1.276  1.00  0.00    -0.275 OA
ATOM      7  H   UNL     1      -0.058  -5.390   0.782  1.00  0.00     0.163 HD
BRANCH   5   8
ATOM      8  C   UNL     1       1.664  -4.762  -2.031  1.00  0.00     0.175 C 
BRANCH   8   9
ATOM      9  C   UNL     1       1.244  -3.765  -3.137  1.00  0.00     0.283 C 
ATOM     10  N   UNL     1       0.511  -2.504  -2.847  1.00  0.00    -0.319 N 
ATOM     11  C   UNL     1      -0.876  -2.837  -2.431  1.00  0.00     0.284 C 
ATOM     12  H   UNL     1       0.493  -1.983  -3.724  1.00  0.00     0.349 HD
ATOM     13  C   UNL     1      -1.606  -3.950  -3.218  1.00  0.00     0.177 C 
ATOM     14  C   UNL     1       0.532  -4.519  -4.293  1.00  0.00     0.279 C 
ATOM     15  N   UNL     1      -0.833  -4.536  -4.278  1.00  0.00    -0.345 N 
ATOM     16  O   UNL     1       1.140  -5.101  -5.191  1.00  0.00    -0.268 OA
ATOM     17  H   UNL     1      -1.308  -4.969  -5.024  1.00  0.00     0.163 HD
BRANCH  10  18
ATOM     18  C   UNL     1       1.191  -1.485  -1.985  1.00  0.00     0.200 C 
ATOM     19  C   UNL     1       1.237   0.917  -1.107  1.00  0.00     0.017 C 
ATOM     20  C   UNL     1       0.910   0.037  -2.347  1.00  0.00     0.018 C 
ATOM     21  C   UNL     1      -0.572   0.327  -2.664  1.00  0.00     0.017 C 
ATOM     22  C   UNL     1       1.744   0.502  -3.568  1.00  0.00     0.023 C 
ATOM     23  C   UNL     1       3.261   0.404  -3.430  1.00  0.00     0.070 C 
ATOM     24  C   UNL     1       2.723  -1.640  -1.711  1.00  0.00     0.135 C 
ATOM     25  S   UNL     1       3.815  -1.279  -3.107  1.00  0.00    -0.156 SA
ENDBRANCH  10  18
ENDBRANCH   8   9
ENDBRANCH   5   8
ENDBRANCH   3   4
ENDBRANCH   2   3
ENDBRANCH   1   2
BRANCH   1  26
ATOM     26  C   UNL     1       0.200  -1.156   3.026  1.00  0.00     0.116 C 
BRANCH  26  27
ATOM     27  N   UNL     1       0.109   0.228   2.577  1.00  0.00    -0.352 N 
ATOM     28  C   UNL     1       0.248   1.389   3.324  1.00  0.00     0.251 C 
ATOM     29  H   UNL     1      -0.075   0.356   1.618  1.00  0.00     0.163 HD
ATOM     30  O   UNL     1       0.178   2.485   2.798  1.00  0.00    -0.269 OA
BRANCH  28  31
ATOM     31  C   UNL     1       0.384   1.260   4.795  1.00  0.00     0.039 A 
ATOM     32  C   UNL     1      -0.583   1.861   5.604  1.00  0.00     0.014 A 
ATOM     33  C   UNL     1       1.326   0.389   5.340  1.00  0.00     0.014 A 
ATOM     34  C   UNL     1      -0.697   1.467   6.939  1.00  0.00     0.010 A 
ATOM     35  C   UNL     1       1.137  -0.082   6.635  1.00  0.00     0.010 A 
ATOM     36  C   UNL     1       0.108   0.432   7.442  1.00  0.00    -0.014 A 
BRANCH  36  37
ATOM     37  C   UNL     1      -0.123  -0.149   8.792  1.00  0.00     0.031 A 
ATOM     38  C   UNL     1       0.983  -0.131   9.813  1.00  0.00     0.074 A 
ATOM     39  C   UNL     1      -1.290  -0.769   9.073  1.00  0.00     0.049 A 
ATOM     40  N   UNL     1       1.014  -0.670  11.004  1.00  0.00    -0.248 NA
ATOM     41  C   UNL     1       2.232   0.547   9.428  1.00  0.00     0.031 C 
ATOM     42  C   UNL     1      -2.421  -0.921   8.151  1.00  0.00     0.029 A 
ATOM     43  N   UNL     1      -1.720  -1.395  10.218  1.00  0.00    -0.354 N 
ATOM     44  C   UNL     1       2.292  -0.424  11.494  1.00  0.00     0.074 A 
ATOM     45  C   UNL     1       3.023   0.258  10.449  1.00  0.00     0.031 C 
ATOM     46  C   UNL     1      -3.425  -1.556   8.780  1.00  0.00     0.029 A 
ATOM     47  C   UNL     1      -3.001  -1.893  10.135  1.00  0.00     0.049 A 
ATOM     48  H   UNL     1      -1.162  -1.480  11.025  1.00  0.00     0.167 HD
ATOM     49  C   UNL     1       2.804  -0.707  12.714  1.00  0.00     0.031 A 
ATOM     50  C   UNL     1      -3.751  -2.543  11.047  1.00  0.00     0.031 A 
ATOM     51  C   UNL     1       2.064  -1.342  13.769  1.00  0.00     0.049 A 
ATOM     52  C   UNL     1      -3.175  -2.807  12.412  1.00  0.00     0.074 A 
ATOM     53  C   UNL     1       2.472  -1.619  15.061  1.00  0.00     0.029 A 
ATOM     54  N   UNL     1       0.754  -1.783  13.658  1.00  0.00    -0.354 N 
ATOM     55  N   UNL     1      -1.983  -2.512  12.873  1.00  0.00    -0.248 NA
ATOM     56  C   UNL     1      -4.049  -3.478  13.385  1.00  0.00     0.031 C 
ATOM     57  C   UNL     1       1.417  -2.253  15.725  1.00  0.00     0.029 A 
ATOM     58  C   UNL     1       0.339  -2.331  14.857  1.00  0.00     0.049 A 
ATOM     59  H   UNL     1       0.202  -1.715  12.845  1.00  0.00     0.167 HD
ATOM     60  C   UNL     1      -1.975  -2.934  14.198  1.00  0.00     0.074 A 
ATOM     61  C   UNL     1      -3.284  -3.493  14.468  1.00  0.00     0.031 C 
ATOM     62  C   UNL     1      -0.974  -2.867  15.109  1.00  0.00     0.031 A 
BRANCH  49  63
ATOM     63  C   UNL     1       4.232  -0.308  12.972  1.00  0.00    -0.014 A 
ATOM     64  C   UNL     1       4.590   1.047  13.094  1.00  0.00     0.010 A 
ATOM     65  C   UNL     1       5.224  -1.295  13.111  1.00  0.00     0.010 A 
ATOM     66  C   UNL     1       5.922   1.410  13.300  1.00  0.00     0.020 A 
ATOM     67  C   UNL     1       6.554  -0.936  13.348  1.00  0.00     0.020 A 
ATOM     68  C   UNL     1       6.897   0.416  13.421  1.00  0.00     0.054 A 
BRANCH  68  69
ATOM     69  S   UNL     1       8.617   0.916  13.704  1.00  0.00     0.124 S 
ATOM     70  O   UNL     1       9.012   1.390  12.380  1.00  0.00    -0.237 OA
ATOM     71  O   UNL     1       8.486   1.951  14.727  1.00  0.00    -0.237 OA
ATOM     72  O   UNL     1       9.267  -0.315  14.146  1.00  0.00    -0.744 OA
ENDBRANCH  68  69
ENDBRANCH  49  63
BRANCH  50  73
ATOM     73  C   UNL     1      -5.142  -2.965  10.719  1.00  0.00    -0.014 A 
ATOM     74  C   UNL     1      -6.240  -2.310  11.307  1.00  0.00     0.010 A 
ATOM     75  C   UNL     1      -5.379  -4.030   9.832  1.00  0.00     0.010 A 
ATOM     76  C   UNL     1      -7.546  -2.730  11.038  1.00  0.00     0.020 A 
ATOM     77  C   UNL     1      -6.686  -4.437   9.540  1.00  0.00     0.020 A 
ATOM     78  C   UNL     1      -7.761  -3.793  10.157  1.00  0.00     0.054 A 
BRANCH  78  79
ATOM     79  S   UNL     1      -9.465  -4.302   9.794  1.00  0.00     0.124 S 
ATOM     80  O   UNL     1      -9.825  -5.038  11.001  1.00  0.00    -0.237 OA
ATOM     81  O   UNL     1     -10.145  -3.023   9.605  1.00  0.00    -0.237 OA
ATOM     82  O   UNL     1      -9.327  -5.109   8.583  1.00  0.00    -0.744 OA
ENDBRANCH  78  79
ENDBRANCH  50  73
BRANCH  62  83
ATOM     83  C   UNL     1      -1.265  -3.368  16.496  1.00  0.00    -0.014 A 
ATOM     84  C   UNL     1      -1.347  -4.745  16.770  1.00  0.00     0.010 A 
ATOM     85  C   UNL     1      -1.390  -2.447  17.552  1.00  0.00     0.010 A 
ATOM     86  C   UNL     1      -1.575  -5.190  18.074  1.00  0.00     0.020 A 
ATOM     87  C   UNL     1      -1.594  -2.890  18.860  1.00  0.00     0.020 A 
ATOM     88  C   UNL     1      -1.698  -4.260  19.111  1.00  0.00     0.054 A 
BRANCH  88  89
ATOM     89  S   UNL     1      -1.939  -4.864  20.804  1.00  0.00     0.124 S 
ATOM     90  O   UNL     1      -3.347  -5.252  20.789  1.00  0.00    -0.237 OA
ATOM     91  O   UNL     1      -0.984  -5.966  20.892  1.00  0.00    -0.237 OA
ATOM     92  O   UNL     1      -1.620  -3.704  21.633  1.00  0.00    -0.744 OA
ENDBRANCH  88  89
ENDBRANCH  62  83
ENDBRANCH  36  37
ENDBRANCH  28  31
ENDBRANCH  26  27
ENDBRANCH   1  26
TORSDOF 16
