REMARK SMILES COc1ccc2c(c1)c(CC(=O)NCCCCNC(=O)c1ccc(-c3c4nc(c(-c5ccc(S(=O)(=O)[O-])cc5)c5ccc([nH]5)c(-c5ccc(S(=O)(=O)[O-])cc5)c5nc(c(-c6ccc(S(=O)(=O)[O-])cc6)c6ccc3[nH]6)C=C5)C=C4)cc1)c(C)n2Cc1ccn(C(F)F)c(=O)c1
REMARK SMILES IDX 15 1 14 2 13 3 11 4 12 5 10 7 9 8 3 9 4 10 8 11 5 12 7 13
REMARK SMILES IDX 6 14 83 15 81 16 82 17 2 18 1 19 84 20 85 21 86 22 94 23
REMARK SMILES IDX 87 24 92 25 88 26 93 27 89 28 90 29 91 30 16 31 17 32 18 33
REMARK SMILES IDX 19 34 20 36 21 37 22 38 80 39 23 40 79 41 24 42 25 43 26 44
REMARK SMILES IDX 73 45 27 46 78 47 72 48 74 49 28 50 77 51 71 52 70 53 29 55
REMARK SMILES IDX 59 56 40 57 58 58 41 59 44 60 57 61 75 62 42 63 43 64 56 66
REMARK SMILES IDX 76 67 45 68 30 69 31 70 39 71 32 72 38 73 33 74 34 75 35 76
REMARK SMILES IDX 36 77 37 78 60 79 61 80 69 81 62 82 68 83 63 84 64 85 65 86
REMARK SMILES IDX 66 87 67 88 46 89 47 90 55 91 48 92 54 93 49 94 50 95 51 96
REMARK SMILES IDX 52 97 53 98
REMARK H PARENT 13 6 18 35 74 54 44 65
REMARK Flexibility Score: inf
ROOT
ATOM      1  C   UNL     1       0.983   7.686   1.003  1.00  0.00     0.023 C 
ENDROOT
BRANCH   1   2
ATOM      2  C   UNL     1      -0.379   7.790   1.691  1.00  0.00     0.116 C 
BRANCH   2   3
ATOM      3  N   UNL     1      -1.378   6.916   1.103  1.00  0.00    -0.356 N 
ATOM      4  C   UNL     1      -2.027   5.843   1.649  1.00  0.00     0.224 C 
ATOM      5  O   UNL     1      -2.896   5.287   0.971  1.00  0.00    -0.275 OA
ATOM      6  H   UNL     1      -1.624   7.126   0.173  1.00  0.00     0.163 HD
BRANCH   4   7
ATOM      7  C   UNL     1      -1.761   5.408   3.084  1.00  0.00     0.138 C 
BRANCH   7   8
ATOM      8  C   UNL     1      -0.343   4.991   3.331  1.00  0.00    -0.010 A 
ATOM      9  C   UNL     1       0.951   2.173   1.104  1.00  0.00     0.119 A 
ATOM     10  C   UNL     1       2.264   2.214   1.563  1.00  0.00     0.048 A 
ATOM     11  C   UNL     1       0.016   3.083   1.601  1.00  0.00     0.057 A 
ATOM     12  C   UNL     1       2.661   3.137   2.545  1.00  0.00     0.031 A 
ATOM     13  C   UNL     1       0.379   3.994   2.615  1.00  0.00     0.007 A 
ATOM     14  C   UNL     1       1.696   4.011   3.079  1.00  0.00     0.049 A 
ATOM     15  N   UNL     1       1.772   5.009   4.043  1.00  0.00    -0.340 N 
ATOM     16  C   UNL     1       0.492   5.452   4.339  1.00  0.00     0.020 A 
ATOM     17  C   UNL     1       0.126   6.316   5.495  1.00  0.00     0.065 C 
BRANCH   9  18
ATOM     18  O   UNL     1       0.475   1.331   0.136  1.00  0.00    -0.497 OA
ATOM     19  C   UNL     1       1.060   0.034   0.105  1.00  0.00     0.278 C 
ENDBRANCH   9  18
BRANCH  15  20
ATOM     20  C   UNL     1       3.016   5.469   4.678  1.00  0.00     0.158 C 
BRANCH  20  21
ATOM     21  C   UNL     1       3.502   6.811   4.169  1.00  0.00    -0.021 A 
ATOM     22  C   UNL     1       2.873   8.030   4.648  1.00  0.00     0.024 A 
ATOM     23  C   UNL     1       4.545   6.929   3.325  1.00  0.00     0.077 A 
ATOM     24  C   UNL     1       3.191   9.220   4.129  1.00  0.00     0.095 A 
ATOM     25  C   UNL     1       4.990   8.263   2.831  1.00  0.00     0.255 A 
ATOM     26  N   UNL     1       4.196   9.336   3.189  1.00  0.00    -0.258 N 
ATOM     27  O   UNL     1       6.016   8.325   2.150  1.00  0.00    -0.269 OA
BRANCH  26  28
ATOM     28  C   UNL     1       4.541  10.629   2.652  1.00  0.00     0.451 C 
ATOM     29  F   UNL     1       5.630  11.130   3.284  1.00  0.00    -0.185 F 
ATOM     30  F   UNL     1       4.820  10.553   1.332  1.00  0.00    -0.185 F 
ENDBRANCH  26  28
ENDBRANCH  20  21
ENDBRANCH  15  20
ENDBRANCH   7   8
ENDBRANCH   4   7
ENDBRANCH   2   3
ENDBRANCH   1   2
BRANCH   1  31
ATOM     31  C   UNL     1       1.043   8.224  -0.435  1.00  0.00     0.023 C 
BRANCH  31  32
ATOM     32  C   UNL     1       0.555   9.662  -0.627  1.00  0.00     0.116 C 
BRANCH  32  33
ATOM     33  N   UNL     1       1.237  10.647   0.190  1.00  0.00    -0.352 N 
ATOM     34  C   UNL     1       2.283  11.509  -0.012  1.00  0.00     0.251 C 
ATOM     35  H   UNL     1       0.862  10.712   1.098  1.00  0.00     0.163 HD
ATOM     36  O   UNL     1       2.414  12.382   0.854  1.00  0.00    -0.269 OA
BRANCH  34  37
ATOM     37  C   UNL     1       3.289  11.424  -1.112  1.00  0.00     0.039 A 
ATOM     38  C   UNL     1       3.264  10.514  -2.165  1.00  0.00     0.014 A 
ATOM     39  C   UNL     1       4.403  12.287  -1.007  1.00  0.00     0.014 A 
ATOM     40  C   UNL     1       4.351  10.418  -3.034  1.00  0.00     0.010 A 
ATOM     41  C   UNL     1       5.494  12.192  -1.872  1.00  0.00     0.010 A 
ATOM     42  C   UNL     1       5.483  11.232  -2.873  1.00  0.00    -0.014 A 
BRANCH  42  43
ATOM     43  C   UNL     1       6.531  11.149  -3.895  1.00  0.00     0.031 A 
ATOM     44  C   UNL     1       6.030  11.408  -5.270  1.00  0.00     0.074 A 
ATOM     45  C   UNL     1       7.848  10.929  -3.703  1.00  0.00     0.049 A 
ATOM     46  N   UNL     1       5.865  10.540  -6.212  1.00  0.00    -0.248 NA
ATOM     47  C   UNL     1       5.505  12.746  -5.580  1.00  0.00     0.031 C 
ATOM     48  C   UNL     1       8.585  10.880  -2.439  1.00  0.00     0.029 A 
ATOM     49  N   UNL     1       8.835  10.764  -4.639  1.00  0.00    -0.354 N 
ATOM     50  C   UNL     1       5.409  11.256  -7.310  1.00  0.00     0.074 A 
ATOM     51  C   UNL     1       5.053  12.565  -6.822  1.00  0.00     0.031 C 
ATOM     52  C   UNL     1       9.916  10.913  -2.692  1.00  0.00     0.029 A 
ATOM     53  C   UNL     1      10.127  10.823  -4.127  1.00  0.00     0.049 A 
ATOM     54  H   UNL     1       8.645  10.615  -5.594  1.00  0.00     0.167 HD
ATOM     55  C   UNL     1       5.579  10.793  -8.578  1.00  0.00     0.031 A 
ATOM     56  C   UNL     1      11.287  10.797  -4.831  1.00  0.00     0.031 A 
ATOM     57  C   UNL     1       5.924   9.396  -8.597  1.00  0.00     0.049 A 
ATOM     58  C   UNL     1      11.014  10.105  -6.108  1.00  0.00     0.074 A 
ATOM     59  C   UNL     1       5.299   8.221  -8.239  1.00  0.00     0.029 A 
ATOM     60  N   UNL     1       7.266   9.124  -8.691  1.00  0.00    -0.354 N 
ATOM     61  N   UNL     1      10.722   8.838  -6.193  1.00  0.00    -0.248 NA
ATOM     62  C   UNL     1      10.752  10.889  -7.304  1.00  0.00     0.031 C 
ATOM     63  C   UNL     1       6.340   7.364  -7.777  1.00  0.00     0.029 A 
ATOM     64  C   UNL     1       7.561   8.027  -7.923  1.00  0.00     0.049 A 
ATOM     65  H   UNL     1       7.915   9.635  -9.226  1.00  0.00     0.167 HD
ATOM     66  C   UNL     1       9.844   8.758  -7.258  1.00  0.00     0.074 A 
ATOM     67  C   UNL     1      10.034  10.001  -7.995  1.00  0.00     0.031 C 
ATOM     68  C   UNL     1       8.846   7.826  -7.274  1.00  0.00     0.031 A 
BRANCH  55  69
ATOM     69  C   UNL     1       5.839  11.698  -9.756  1.00  0.00    -0.014 A 
ATOM     70  C   UNL     1       6.245  13.040  -9.607  1.00  0.00     0.010 A 
ATOM     71  C   UNL     1       5.935  11.144 -11.049  1.00  0.00     0.010 A 
ATOM     72  C   UNL     1       6.674  13.811 -10.687  1.00  0.00     0.020 A 
ATOM     73  C   UNL     1       6.407  11.897 -12.135  1.00  0.00     0.020 A 
ATOM     74  C   UNL     1       6.756  13.234 -11.947  1.00  0.00     0.054 A 
BRANCH  74  75
ATOM     75  S   UNL     1       7.370  14.255 -13.308  1.00  0.00     0.124 S 
ATOM     76  O   UNL     1       6.288  15.224 -13.463  1.00  0.00    -0.237 OA
ATOM     77  O   UNL     1       8.617  14.784 -12.765  1.00  0.00    -0.237 OA
ATOM     78  O   UNL     1       7.520  13.306 -14.408  1.00  0.00    -0.744 OA
ENDBRANCH  74  75
ENDBRANCH  55  69
BRANCH  56  79
ATOM     79  C   UNL     1      12.498  11.643  -4.654  1.00  0.00    -0.014 A 
ATOM     80  C   UNL     1      12.383  12.903  -4.037  1.00  0.00     0.010 A 
ATOM     81  C   UNL     1      13.670  11.378  -5.394  1.00  0.00     0.010 A 
ATOM     82  C   UNL     1      13.347  13.899  -4.238  1.00  0.00     0.020 A 
ATOM     83  C   UNL     1      14.640  12.374  -5.601  1.00  0.00     0.020 A 
ATOM     84  C   UNL     1      14.448  13.643  -5.056  1.00  0.00     0.054 A 
BRANCH  84  85
ATOM     85  S   UNL     1      15.556  15.024  -5.468  1.00  0.00     0.124 S 
ATOM     86  O   UNL     1      14.691  15.876  -6.279  1.00  0.00    -0.237 OA
ATOM     87  O   UNL     1      15.902  15.555  -4.152  1.00  0.00    -0.237 OA
ATOM     88  O   UNL     1      16.656  14.386  -6.186  1.00  0.00    -0.744 OA
ENDBRANCH  84  85
ENDBRANCH  56  79
BRANCH  68  89
ATOM     89  C   UNL     1       8.978   6.605  -6.387  1.00  0.00    -0.014 A 
ATOM     90  C   UNL     1       8.817   5.350  -7.003  1.00  0.00     0.010 A 
ATOM     91  C   UNL     1       9.117   6.646  -4.986  1.00  0.00     0.010 A 
ATOM     92  C   UNL     1       8.759   4.176  -6.251  1.00  0.00     0.020 A 
ATOM     93  C   UNL     1       9.091   5.465  -4.224  1.00  0.00     0.020 A 
ATOM     94  C   UNL     1       8.888   4.239  -4.863  1.00  0.00     0.054 A 
BRANCH  94  95
ATOM     95  S   UNL     1       8.766   2.690  -3.927  1.00  0.00     0.124 S 
ATOM     96  O   UNL     1       7.350   2.355  -4.063  1.00  0.00    -0.237 OA
ATOM     97  O   UNL     1       9.683   1.806  -4.644  1.00  0.00    -0.237 OA
ATOM     98  O   UNL     1       9.189   3.053  -2.577  1.00  0.00    -0.744 OA
ENDBRANCH  94  95
ENDBRANCH  68  89
ENDBRANCH  42  43
ENDBRANCH  34  37
ENDBRANCH  32  33
ENDBRANCH  31  32
ENDBRANCH   1  31
TORSDOF 19
