REMARK SMILES COc1ccc(C[NH2+]Cc2cccn2-c2sc(C)c(C)c2C(=O)NCCCCNC(=O)c2ccc(-c3c4nc(c(-c5ccc(S(=O)(=O)[O-])cc5)c5ccc([nH]5)c(-c5ccc(S(=O)(=O)[O-])cc5)c5nc(c(-c6ccc(S(=O)(=O)[O-])cc6)c6ccc3[nH]6)C=C5)C=C4)cc2)cc1
REMARK SMILES IDX 25 1 24 2 22 3 23 4 21 6 15 7 16 8 17 9 19 10 18 11 20 12
REMARK SMILES IDX 14 13 10 14 11 15 12 16 13 17 9 18 8 19 7 22 6 23 3 24 4 25
REMARK SMILES IDX 93 26 5 27 92 28 2 29 1 30 26 31 27 32 28 33 29 34 30 35
REMARK SMILES IDX 31 37 32 38 33 39 91 40 34 41 90 42 35 43 36 44 37 45 84 46
REMARK SMILES IDX 38 47 89 48 83 49 85 50 39 51 88 52 82 53 81 54 40 56 70 57
REMARK SMILES IDX 51 58 69 59 52 60 55 61 68 62 86 63 53 64 54 65 67 67 87 68
REMARK SMILES IDX 56 69 41 70 42 71 50 72 43 73 49 74 44 75 45 76 46 77 47 78
REMARK SMILES IDX 48 79 71 80 72 81 80 82 73 83 79 84 74 85 75 86 76 87 77 88
REMARK SMILES IDX 78 89 57 90 58 91 66 92 59 93 65 94 60 95 61 96 62 97 63 98
REMARK SMILES IDX 64 99
REMARK H PARENT 24 5 8 20 8 21 29 36 85 55 55 66
REMARK Flexibility Score: inf
ROOT
ATOM      1  C   UNL     1       5.109  -5.604  -5.282  1.00  0.00     0.116 C 
ENDROOT
BRANCH   1   2
ATOM      2  N   UNL     1       5.758  -6.854  -5.031  1.00  0.00    -0.352 N 
ATOM      3  C   UNL     1       5.592  -8.087  -5.624  1.00  0.00     0.254 C 
ATOM      4  O   UNL     1       6.383  -8.943  -5.217  1.00  0.00    -0.269 OA
ATOM      5  H   UNL     1       6.435  -6.829  -4.317  1.00  0.00     0.163 HD
BRANCH   3   6
ATOM      6  C   UNL     1       4.519  -8.458  -6.595  1.00  0.00     0.078 A 
ATOM      7  C   UNL     1       3.762  -7.697  -7.480  1.00  0.00     0.113 A 
ATOM      8  S   UNL     1       2.639  -8.579  -8.404  1.00  0.00    -0.122 S 
ATOM      9  C   UNL     1       3.112 -10.050  -7.709  1.00  0.00     0.007 A 
ATOM     10  C   UNL     1       4.093  -9.876  -6.744  1.00  0.00    -0.022 A 
ATOM     11  C   UNL     1       2.481 -11.323  -8.179  1.00  0.00     0.057 C 
ATOM     12  C   UNL     1       4.670 -11.020  -5.953  1.00  0.00     0.046 C 
BRANCH   7  13
ATOM     13  N   UNL     1       3.882  -6.367  -7.895  1.00  0.00    -0.306 N 
ATOM     14  C   UNL     1       2.939  -5.327  -7.787  1.00  0.00     0.078 A 
ATOM     15  C   UNL     1       3.512  -4.196  -8.354  1.00  0.00     0.029 A 
ATOM     16  C   UNL     1       4.813  -4.521  -8.789  1.00  0.00     0.020 A 
ATOM     17  C   UNL     1       5.018  -5.846  -8.492  1.00  0.00     0.092 A 
BRANCH  14  18
ATOM     18  C   UNL     1       1.579  -5.460  -7.151  1.00  0.00     0.316 C 
BRANCH  18  19
ATOM     19  N   UNL     1       1.469  -4.926  -5.789  1.00  0.00    -0.338 N 
ATOM     20  H   UNL     1       0.610  -5.289  -5.375  1.00  0.00     0.346 HD
ATOM     21  H   UNL     1       2.311  -5.222  -5.295  1.00  0.00     0.346 HD
BRANCH  19  22
ATOM     22  C   UNL     1       1.434  -3.470  -5.701  1.00  0.00     0.297 C 
BRANCH  22  23
ATOM     23  C   UNL     1       1.192  -2.979  -4.282  1.00  0.00     0.006 A 
ATOM     24  C   UNL     1       0.725  -1.943  -1.691  1.00  0.00     0.118 A 
ATOM     25  C   UNL     1      -0.253  -2.696  -2.343  1.00  0.00     0.047 A 
ATOM     26  C   UNL     1       1.953  -1.745  -2.311  1.00  0.00     0.047 A 
ATOM     27  C   UNL     1      -0.024  -3.210  -3.627  1.00  0.00     0.013 A 
ATOM     28  C   UNL     1       2.169  -2.238  -3.601  1.00  0.00     0.013 A 
BRANCH  24  29
ATOM     29  O   UNL     1       0.397  -1.466  -0.450  1.00  0.00    -0.497 OA
ATOM     30  C   UNL     1       1.004  -0.221  -0.111  1.00  0.00     0.278 C 
ENDBRANCH  24  29
ENDBRANCH  22  23
ENDBRANCH  19  22
ENDBRANCH  18  19
ENDBRANCH  14  18
ENDBRANCH   7  13
ENDBRANCH   3   6
ENDBRANCH   1   2
BRANCH   1  31
ATOM     31  C   UNL     1       4.832  -4.697  -4.098  1.00  0.00     0.023 C 
BRANCH  31  32
ATOM     32  C   UNL     1       5.976  -3.842  -3.563  1.00  0.00     0.023 C 
BRANCH  32  33
ATOM     33  C   UNL     1       6.707  -2.983  -4.597  1.00  0.00     0.116 C 
BRANCH  33  34
ATOM     34  N   UNL     1       5.846  -2.030  -5.285  1.00  0.00    -0.352 N 
ATOM     35  C   UNL     1       6.215  -0.977  -6.097  1.00  0.00     0.251 C 
ATOM     36  H   UNL     1       4.879  -2.153  -5.154  1.00  0.00     0.163 HD
ATOM     37  O   UNL     1       5.416  -0.107  -6.386  1.00  0.00    -0.269 OA
BRANCH  35  38
ATOM     38  C   UNL     1       7.606  -0.918  -6.594  1.00  0.00     0.039 A 
ATOM     39  C   UNL     1       8.339   0.262  -6.440  1.00  0.00     0.014 A 
ATOM     40  C   UNL     1       8.171  -2.042  -7.206  1.00  0.00     0.014 A 
ATOM     41  C   UNL     1       9.681   0.278  -6.809  1.00  0.00     0.010 A 
ATOM     42  C   UNL     1       9.514  -2.036  -7.553  1.00  0.00     0.010 A 
ATOM     43  C   UNL     1      10.275  -0.884  -7.326  1.00  0.00    -0.014 A 
BRANCH  43  44
ATOM     44  C   UNL     1      11.747  -0.948  -7.470  1.00  0.00     0.031 A 
ATOM     45  C   UNL     1      12.448  -1.163  -6.112  1.00  0.00     0.074 A 
ATOM     46  C   UNL     1      12.252  -0.800  -8.733  1.00  0.00     0.049 A 
ATOM     47  N   UNL     1      13.638  -0.812  -5.736  1.00  0.00    -0.248 NA
ATOM     48  C   UNL     1      11.702  -1.780  -4.978  1.00  0.00     0.031 C 
ATOM     49  C   UNL     1      11.430  -0.628  -9.956  1.00  0.00     0.029 A 
ATOM     50  N   UNL     1      13.527  -0.768  -9.262  1.00  0.00    -0.354 N 
ATOM     51  C   UNL     1      13.845  -1.282  -4.416  1.00  0.00     0.074 A 
ATOM     52  C   UNL     1      12.584  -1.792  -3.971  1.00  0.00     0.031 C 
ATOM     53  C   UNL     1      12.209  -0.442 -11.045  1.00  0.00     0.029 A 
ATOM     54  C   UNL     1      13.603  -0.486 -10.653  1.00  0.00     0.049 A 
ATOM     55  H   UNL     1      14.329  -0.930  -8.714  1.00  0.00     0.167 HD
ATOM     56  C   UNL     1      15.078  -1.321  -3.825  1.00  0.00     0.031 A 
ATOM     57  C   UNL     1      14.706  -0.260 -11.431  1.00  0.00     0.031 A 
ATOM     58  C   UNL     1      16.050  -0.807  -4.729  1.00  0.00     0.049 A 
ATOM     59  C   UNL     1      15.868  -0.520 -10.573  1.00  0.00     0.074 A 
ATOM     60  C   UNL     1      16.311   0.454  -5.197  1.00  0.00     0.029 A 
ATOM     61  N   UNL     1      16.654  -1.735  -5.543  1.00  0.00    -0.354 N 
ATOM     62  N   UNL     1      16.271  -1.694 -10.199  1.00  0.00    -0.248 NA
ATOM     63  C   UNL     1      16.637   0.624 -10.066  1.00  0.00     0.031 C 
ATOM     64  C   UNL     1      16.616   0.224  -6.553  1.00  0.00     0.029 A 
ATOM     65  C   UNL     1      16.759  -1.151  -6.776  1.00  0.00     0.049 A 
ATOM     66  H   UNL     1      16.952  -2.638  -5.290  1.00  0.00     0.167 HD
ATOM     67  C   UNL     1      17.052  -1.394  -9.114  1.00  0.00     0.074 A 
ATOM     68  C   UNL     1      17.496  -0.025  -9.285  1.00  0.00     0.031 C 
ATOM     69  C   UNL     1      16.790  -2.010  -7.934  1.00  0.00     0.031 A 
BRANCH  56  70
ATOM     70  C   UNL     1      15.626  -2.000  -2.594  1.00  0.00    -0.014 A 
ATOM     71  C   UNL     1      16.930  -1.606  -2.180  1.00  0.00     0.010 A 
ATOM     72  C   UNL     1      15.119  -3.194  -2.068  1.00  0.00     0.010 A 
ATOM     73  C   UNL     1      17.750  -2.438  -1.416  1.00  0.00     0.020 A 
ATOM     74  C   UNL     1      15.927  -4.019  -1.260  1.00  0.00     0.020 A 
ATOM     75  C   UNL     1      17.252  -3.662  -0.990  1.00  0.00     0.054 A 
BRANCH  75  76
ATOM     76  S   UNL     1      18.393  -4.797  -0.151  1.00  0.00     0.124 S 
ATOM     77  O   UNL     1      19.271  -5.213  -1.241  1.00  0.00    -0.237 OA
ATOM     78  O   UNL     1      19.012  -3.938   0.857  1.00  0.00    -0.237 OA
ATOM     79  O   UNL     1      17.513  -5.834   0.382  1.00  0.00    -0.744 OA
ENDBRANCH  75  76
ENDBRANCH  56  70
BRANCH  57  80
ATOM     80  C   UNL     1      15.056   0.275 -12.803  1.00  0.00    -0.014 A 
ATOM     81  C   UNL     1      14.163   0.831 -13.724  1.00  0.00     0.010 A 
ATOM     82  C   UNL     1      16.441   0.426 -13.112  1.00  0.00     0.010 A 
ATOM     83  C   UNL     1      14.633   1.646 -14.783  1.00  0.00     0.020 A 
ATOM     84  C   UNL     1      16.914   1.281 -14.108  1.00  0.00     0.020 A 
ATOM     85  C   UNL     1      15.999   1.921 -14.922  1.00  0.00     0.054 A 
BRANCH  85  86
ATOM     86  S   UNL     1      16.581   3.240 -16.029  1.00  0.00     0.124 S 
ATOM     87  O   UNL     1      16.732   2.539 -17.300  1.00  0.00    -0.237 OA
ATOM     88  O   UNL     1      15.494   4.215 -15.970  1.00  0.00    -0.237 OA
ATOM     89  O   UNL     1      17.828   3.682 -15.405  1.00  0.00    -0.744 OA
ENDBRANCH  85  86
ENDBRANCH  57  80
BRANCH  69  90
ATOM     90  C   UNL     1      16.163  -3.395  -8.041  1.00  0.00    -0.014 A 
ATOM     91  C   UNL     1      16.837  -4.394  -8.771  1.00  0.00     0.010 A 
ATOM     92  C   UNL     1      14.896  -3.726  -7.519  1.00  0.00     0.010 A 
ATOM     93  C   UNL     1      16.279  -5.664  -8.975  1.00  0.00     0.020 A 
ATOM     94  C   UNL     1      14.326  -5.000  -7.715  1.00  0.00     0.020 A 
ATOM     95  C   UNL     1      15.026  -5.965  -8.442  1.00  0.00     0.054 A 
BRANCH  95  96
ATOM     96  S   UNL     1      14.343  -7.628  -8.716  1.00  0.00     0.124 S 
ATOM     97  O   UNL     1      14.279  -7.715 -10.173  1.00  0.00    -0.237 OA
ATOM     98  O   UNL     1      15.340  -8.487  -8.084  1.00  0.00    -0.237 OA
ATOM     99  O   UNL     1      13.044  -7.588  -8.046  1.00  0.00    -0.744 OA
ENDBRANCH  95  96
ENDBRANCH  69  90
ENDBRANCH  43  44
ENDBRANCH  35  38
ENDBRANCH  33  34
ENDBRANCH  32  33
ENDBRANCH  31  32
ENDBRANCH   1  31
TORSDOF 20
