REMARK SMILES Cc1ccc(S(=O)(=O)n2cc(C(=O)C(=O)NCC(=O)NCC(=O)NCCCCNC(=O)c3ccc(-c4c5nc(c(-c6ccc(S(=O)(=O)[O-])cc6)c6ccc([nH]6)c(-c6ccc(S(=O)(=O)[O-])cc6)c6nc(c(-c7ccc(S(=O)(=O)[O-])cc7)c7ccc4[nH]7)C=C6)C=C5)cc3)c3ccccc32)cc1
REMARK SMILES IDX 22 1 23 2 24 3 21 5 20 6 18 7 19 8 17 10 16 11 14 12 15 13
REMARK SMILES IDX 12 15 13 16 11 17 9 18 10 19 97 20 92 21 96 22 93 23 95 24
REMARK SMILES IDX 94 25 6 26 7 27 8 28 5 29 1 30 2 31 3 32 99 33 4 34 98 35
REMARK SMILES IDX 25 36 26 37 27 38 28 39 29 40 30 41 31 43 32 44 33 45 91 46
REMARK SMILES IDX 34 47 90 48 35 49 36 50 37 51 84 52 38 53 89 54 83 55 85 56
REMARK SMILES IDX 39 57 88 58 82 59 81 60 40 62 70 63 51 64 69 65 52 66 55 67
REMARK SMILES IDX 68 68 86 69 53 70 54 71 67 73 87 74 56 75 41 76 42 77 50 78
REMARK SMILES IDX 43 79 49 80 44 81 45 82 46 83 47 84 48 85 71 86 72 87 80 88
REMARK SMILES IDX 73 89 79 90 74 91 75 92 76 93 77 94 78 95 57 96 58 97 66 98
REMARK SMILES IDX 59 99 65 100 60 101 61 102 62 103 63 104 64 105
REMARK H PARENT 24 4 20 9 16 14 29 42 85 61 55 72
REMARK Flexibility Score: inf
ROOT
ATOM      1  C   UNL     1     -10.128   3.391   1.206  1.00  0.00     0.239 C 
ATOM      2  O   UNL     1     -10.502   2.737   0.229  1.00  0.00    -0.273 OA
ATOM      3  N   UNL     1     -10.231   2.819   2.441  1.00  0.00    -0.355 N 
ATOM      4  H   UNL     1     -10.725   1.967   2.472  1.00  0.00     0.163 HD
ENDROOT
BRANCH   1   5
ATOM      5  C   UNL     1      -9.416   4.739   1.014  1.00  0.00     0.216 C 
BRANCH   5   6
ATOM      6  N   UNL     1      -9.874   5.808   1.883  1.00  0.00    -0.346 N 
ATOM      7  C   UNL     1      -9.196   6.682   2.674  1.00  0.00     0.239 C 
ATOM      8  O   UNL     1      -9.843   7.636   3.117  1.00  0.00    -0.273 OA
ATOM      9  H   UNL     1     -10.852   5.920   1.902  1.00  0.00     0.164 HD
BRANCH   7  10
ATOM     10  C   UNL     1      -7.671   6.615   2.894  1.00  0.00     0.216 C 
BRANCH  10  11
ATOM     11  N   UNL     1      -7.117   5.347   3.367  1.00  0.00    -0.340 N 
ATOM     12  C   UNL     1      -6.335   4.389   2.757  1.00  0.00     0.292 C 
ATOM     13  O   UNL     1      -6.127   3.338   3.349  1.00  0.00    -0.265 OA
ATOM     14  H   UNL     1      -7.348   5.136   4.301  1.00  0.00     0.164 HD
BRANCH  12  15
ATOM     15  C   UNL     1      -5.747   4.623   1.349  1.00  0.00     0.252 C 
ATOM     16  O   UNL     1      -5.877   5.743   0.861  1.00  0.00    -0.283 OA
BRANCH  15  17
ATOM     17  C   UNL     1      -5.063   3.574   0.578  1.00  0.00     0.054 A 
ATOM     18  N   UNL     1      -4.154   1.653  -0.117  1.00  0.00    -0.240 N 
ATOM     19  C   UNL     1      -4.848   2.247   0.910  1.00  0.00     0.117 A 
ATOM     20  C   UNL     1      -3.899   2.551  -1.134  1.00  0.00     0.065 A 
ATOM     21  C   UNL     1      -4.457   3.766  -0.718  1.00  0.00     0.012 A 
ATOM     22  C   UNL     1      -3.212   2.435  -2.357  1.00  0.00     0.028 A 
ATOM     23  C   UNL     1      -4.326   4.890  -1.565  1.00  0.00     0.011 A 
ATOM     24  C   UNL     1      -3.077   3.573  -3.156  1.00  0.00     0.002 A 
ATOM     25  C   UNL     1      -3.631   4.786  -2.770  1.00  0.00     0.001 A 
BRANCH  18  26
ATOM     26  S   UNL     1      -3.597   0.039  -0.093  1.00  0.00     0.268 S 
ATOM     27  O   UNL     1      -3.929  -0.487  -1.399  1.00  0.00    -0.201 OA
ATOM     28  O   UNL     1      -4.123  -0.536   1.134  1.00  0.00    -0.201 OA
BRANCH  26  29
ATOM     29  C   UNL     1      -1.828   0.076   0.042  1.00  0.00     0.088 A 
ATOM     30  C   UNL     1       2.475  -0.059   0.037  1.00  0.00     0.044 C 
ATOM     31  C   UNL     1       0.975  -0.006   0.054  1.00  0.00    -0.051 A 
ATOM     32  C   UNL     1       0.233  -1.192  -0.009  1.00  0.00     0.005 A 
ATOM     33  C   UNL     1       0.300   1.217   0.143  1.00  0.00     0.005 A 
ATOM     34  C   UNL     1      -1.162  -1.153  -0.021  1.00  0.00     0.022 A 
ATOM     35  C   UNL     1      -1.097   1.262   0.151  1.00  0.00     0.022 A 
ENDBRANCH  26  29
ENDBRANCH  18  26
ENDBRANCH  15  17
ENDBRANCH  12  15
ENDBRANCH  10  11
ENDBRANCH   7  10
ENDBRANCH   5   6
ENDBRANCH   1   5
BRANCH   3  36
ATOM     36  C   UNL     1      -9.717   3.287   3.712  1.00  0.00     0.116 C 
BRANCH  36  37
ATOM     37  C   UNL     1     -10.799   3.723   4.695  1.00  0.00     0.023 C 
BRANCH  37  38
ATOM     38  C   UNL     1     -11.679   2.588   5.197  1.00  0.00     0.023 C 
BRANCH  38  39
ATOM     39  C   UNL     1     -10.948   1.559   6.047  1.00  0.00     0.116 C 
BRANCH  39  40
ATOM     40  N   UNL     1     -11.008   1.827   7.478  1.00  0.00    -0.352 N 
ATOM     41  C   UNL     1     -10.850   0.975   8.561  1.00  0.00     0.251 C 
ATOM     42  H   UNL     1     -11.190   2.765   7.714  1.00  0.00     0.163 HD
ATOM     43  O   UNL     1     -11.195   1.280   9.697  1.00  0.00    -0.269 OA
BRANCH  41  44
ATOM     44  C   UNL     1     -10.050  -0.260   8.391  1.00  0.00     0.039 A 
ATOM     45  C   UNL     1      -8.907  -0.313   9.206  1.00  0.00     0.014 A 
ATOM     46  C   UNL     1     -10.093  -0.918   7.173  1.00  0.00     0.014 A 
ATOM     47  C   UNL     1      -7.710  -0.675   8.628  1.00  0.00     0.010 A 
ATOM     48  C   UNL     1      -8.900  -1.082   6.532  1.00  0.00     0.010 A 
ATOM     49  C   UNL     1      -7.722  -0.911   7.258  1.00  0.00    -0.014 A 
BRANCH  49  50
ATOM     50  C   UNL     1      -6.534  -1.214   6.506  1.00  0.00     0.031 A 
ATOM     51  C   UNL     1      -6.187  -2.639   6.561  1.00  0.00     0.074 A 
ATOM     52  C   UNL     1      -5.949  -0.210   5.822  1.00  0.00     0.049 A 
ATOM     53  N   UNL     1      -5.001  -3.112   6.656  1.00  0.00    -0.248 NA
ATOM     54  C   UNL     1      -7.220  -3.680   6.700  1.00  0.00     0.031 C 
ATOM     55  C   UNL     1      -4.841  -0.246   4.882  1.00  0.00     0.029 A 
ATOM     56  N   UNL     1      -6.144   1.157   6.072  1.00  0.00    -0.354 N 
ATOM     57  C   UNL     1      -5.125  -4.464   6.410  1.00  0.00     0.074 A 
ATOM     58  C   UNL     1      -6.490  -4.794   6.697  1.00  0.00     0.031 C 
ATOM     59  C   UNL     1      -4.233   0.957   4.903  1.00  0.00     0.029 A 
ATOM     60  C   UNL     1      -4.888   1.767   5.926  1.00  0.00     0.049 A 
ATOM     61  H   UNL     1      -6.992   1.600   6.304  1.00  0.00     0.167 HD
ATOM     62  C   UNL     1      -4.141  -5.083   5.706  1.00  0.00     0.031 A 
ATOM     63  C   UNL     1      -4.274   2.277   7.032  1.00  0.00     0.031 A 
ATOM     64  C   UNL     1      -3.076  -4.121   5.424  1.00  0.00     0.049 A 
ATOM     65  C   UNL     1      -3.067   1.439   7.395  1.00  0.00     0.074 A 
ATOM     66  C   UNL     1      -2.825  -3.328   4.316  1.00  0.00     0.029 A 
ATOM     67  N   UNL     1      -2.415  -3.530   6.494  1.00  0.00    -0.354 N 
ATOM     68  N   UNL     1      -2.964   0.155   7.155  1.00  0.00    -0.248 NA
ATOM     69  C   UNL     1      -1.830   2.017   7.912  1.00  0.00     0.031 C 
ATOM     70  C   UNL     1      -2.092  -2.190   4.761  1.00  0.00     0.029 A 
ATOM     71  C   UNL     1      -1.902  -2.298   6.129  1.00  0.00     0.049 A 
ATOM     72  H   UNL     1      -2.325  -3.931   7.389  1.00  0.00     0.167 HD
ATOM     73  C   UNL     1      -1.671  -0.244   7.385  1.00  0.00     0.074 A 
ATOM     74  C   UNL     1      -1.009   0.953   7.878  1.00  0.00     0.031 C 
ATOM     75  C   UNL     1      -1.189  -1.495   7.111  1.00  0.00     0.031 A 
BRANCH  62  76
ATOM     76  C   UNL     1      -4.309  -6.397   4.983  1.00  0.00    -0.014 A 
ATOM     77  C   UNL     1      -3.421  -6.701   3.933  1.00  0.00     0.010 A 
ATOM     78  C   UNL     1      -5.308  -7.357   5.249  1.00  0.00     0.010 A 
ATOM     79  C   UNL     1      -3.535  -7.873   3.175  1.00  0.00     0.020 A 
ATOM     80  C   UNL     1      -5.450  -8.526   4.484  1.00  0.00     0.020 A 
ATOM     81  C   UNL     1      -4.554  -8.780   3.453  1.00  0.00     0.054 A 
BRANCH  81  82
ATOM     82  S   UNL     1      -4.653 -10.304   2.484  1.00  0.00     0.124 S 
ATOM     83  O   UNL     1      -4.833  -9.802   1.124  1.00  0.00    -0.237 OA
ATOM     84  O   UNL     1      -3.364 -10.932   2.759  1.00  0.00    -0.237 OA
ATOM     85  O   UNL     1      -5.812 -10.998   3.044  1.00  0.00    -0.744 OA
ENDBRANCH  81  82
ENDBRANCH  62  76
BRANCH  63  86
ATOM     86  C   UNL     1      -5.209   3.031   7.931  1.00  0.00    -0.014 A 
ATOM     87  C   UNL     1      -5.734   4.242   7.417  1.00  0.00     0.010 A 
ATOM     88  C   UNL     1      -5.870   2.446   9.026  1.00  0.00     0.010 A 
ATOM     89  C   UNL     1      -6.939   4.778   7.886  1.00  0.00     0.020 A 
ATOM     90  C   UNL     1      -7.087   2.986   9.506  1.00  0.00     0.020 A 
ATOM     91  C   UNL     1      -7.634   4.121   8.899  1.00  0.00     0.054 A 
BRANCH  91  92
ATOM     92  S   UNL     1      -9.281   4.756   9.347  1.00  0.00     0.124 S 
ATOM     93  O   UNL     1      -9.061   6.200   9.391  1.00  0.00    -0.237 OA
ATOM     94  O   UNL     1     -10.098   4.295   8.222  1.00  0.00    -0.237 OA
ATOM     95  O   UNL     1      -9.552   4.134  10.636  1.00  0.00    -0.744 OA
ENDBRANCH  91  92
ENDBRANCH  63  86
BRANCH  75  96
ATOM     96  C   UNL     1       0.079  -2.076   7.695  1.00  0.00    -0.014 A 
ATOM     97  C   UNL     1       0.726  -1.551   8.822  1.00  0.00     0.010 A 
ATOM     98  C   UNL     1       0.568  -3.309   7.194  1.00  0.00     0.010 A 
ATOM     99  C   UNL     1       1.856  -2.171   9.363  1.00  0.00     0.020 A 
ATOM    100  C   UNL     1       1.645  -3.977   7.774  1.00  0.00     0.020 A 
ATOM    101  C   UNL     1       2.310  -3.378   8.833  1.00  0.00     0.054 A 
BRANCH 101 102
ATOM    102  S   UNL     1       3.758  -4.170   9.562  1.00  0.00     0.124 S 
ATOM    103  O   UNL     1       4.846  -3.401   8.963  1.00  0.00    -0.237 OA
ATOM    104  O   UNL     1       3.555  -3.960  10.993  1.00  0.00    -0.237 OA
ATOM    105  O   UNL     1       3.654  -5.558   9.120  1.00  0.00    -0.744 OA
ENDBRANCH 101 102
ENDBRANCH  75  96
ENDBRANCH  49  50
ENDBRANCH  41  44
ENDBRANCH  39  40
ENDBRANCH  38  39
ENDBRANCH  37  38
ENDBRANCH  36  37
ENDBRANCH   3  36
TORSDOF 21
