REMARK SMILES C[NH2+]C[C@H](C)C(=O)N[C@H]1C=C[C@@H](C(=O)NCCCCNC(=O)c2ccc(-c3c4nc(c(-c5ccc(S(=O)(=O)[O-])cc5)c5ccc([nH]5)c(-c5ccc(S(=O)(=O)[O-])cc5)c5nc(c(-c6ccc(S(=O)(=O)[O-])cc6)c6ccc3[nH]6)C=C5)C=C4)cc2)C1
REMARK SMILES IDX 17 1 16 2 15 3 13 4 14 5 12 7 9 8 10 9 83 10 11 11 8 12 6 13
REMARK SMILES IDX 7 14 4 16 5 17 3 18 2 19 1 20 18 23 19 24 20 25 21 26 22 28
REMARK SMILES IDX 23 29 24 30 82 31 25 32 81 33 26 34 27 35 28 36 75 37 29 38
REMARK SMILES IDX 80 39 74 40 76 41 30 42 79 43 73 44 72 45 31 47 61 48 42 49
REMARK SMILES IDX 60 50 43 51 46 52 59 53 77 54 44 55 45 56 58 58 78 59 47 60
REMARK SMILES IDX 32 61 33 62 41 63 34 64 40 65 35 66 36 67 37 68 38 69 39 70
REMARK SMILES IDX 62 71 63 72 71 73 64 74 70 75 65 76 66 77 67 78 68 79 69 80
REMARK SMILES IDX 48 81 49 82 57 83 50 84 56 85 51 86 52 87 53 88 54 89 55 90
REMARK H PARENT 15 6 8 15 2 21 2 22 20 27 76 46 46 57
REMARK Flexibility Score: inf
ROOT
ATOM      1  C   UNL     1      -5.889  -3.861   0.782  1.00  0.00     0.023 C 
ENDROOT
BRANCH   1   2
ATOM      2  C   UNL     1      -4.426  -4.096   1.162  1.00  0.00     0.116 C 
BRANCH   2   3
ATOM      3  N   UNL     1      -4.073  -5.491   1.019  1.00  0.00    -0.356 N 
ATOM      4  C   UNL     1      -3.401  -6.150   0.043  1.00  0.00     0.227 C 
ATOM      5  O   UNL     1      -3.291  -7.375   0.176  1.00  0.00    -0.274 OA
ATOM      6  H   UNL     1      -4.373  -6.063   1.762  1.00  0.00     0.163 HD
BRANCH   4   7
ATOM      7  C   UNL     1      -2.701  -5.456  -1.129  1.00  0.00     0.103 C 
ATOM      8  C   UNL     1      -2.558  -3.118  -1.968  1.00  0.00     0.106 C 
ATOM      9  C   UNL     1      -1.395  -3.511  -1.125  1.00  0.00    -0.006 C 
ATOM     10  C   UNL     1      -3.437  -4.396  -1.959  1.00  0.00     0.047 C 
ATOM     11  C   UNL     1      -1.467  -4.761  -0.664  1.00  0.00    -0.016 C 
BRANCH   8  12
ATOM     12  N   UNL     1      -3.267  -1.978  -1.409  1.00  0.00    -0.349 N 
ATOM     13  C   UNL     1      -2.957  -0.675  -1.205  1.00  0.00     0.228 C 
ATOM     14  O   UNL     1      -3.905   0.061  -0.903  1.00  0.00    -0.275 OA
ATOM     15  H   UNL     1      -4.179  -2.204  -1.113  1.00  0.00     0.164 HD
BRANCH  13  16
ATOM     16  C   UNL     1      -1.551  -0.090  -1.258  1.00  0.00     0.130 C 
ATOM     17  C   UNL     1      -0.737  -0.469  -0.017  1.00  0.00     0.024 C 
BRANCH  16  18
ATOM     18  C   UNL     1      -0.790  -0.320  -2.571  1.00  0.00     0.273 C 
BRANCH  18  19
ATOM     19  N   UNL     1      -1.442   0.203  -3.777  1.00  0.00    -0.348 N 
ATOM     20  C   UNL     1      -1.367   1.657  -3.859  1.00  0.00     0.330 C 
ATOM     21  H   UNL     1      -0.985  -0.195  -4.597  1.00  0.00     0.346 HD
ATOM     22  H   UNL     1      -2.427  -0.057  -3.738  1.00  0.00     0.346 HD
ENDBRANCH  18  19
ENDBRANCH  16  18
ENDBRANCH  13  16
ENDBRANCH   8  12
ENDBRANCH   4   7
ENDBRANCH   2   3
ENDBRANCH   1   2
BRANCH   1  23
ATOM     23  C   UNL     1      -6.892  -4.544   1.714  1.00  0.00     0.023 C 
BRANCH  23  24
ATOM     24  C   UNL     1      -6.770  -4.145   3.177  1.00  0.00     0.116 C 
BRANCH  24  25
ATOM     25  N   UNL     1      -6.959  -2.720   3.383  1.00  0.00    -0.352 N 
ATOM     26  C   UNL     1      -7.701  -2.084   4.349  1.00  0.00     0.251 C 
ATOM     27  H   UNL     1      -6.494  -2.131   2.746  1.00  0.00     0.163 HD
ATOM     28  O   UNL     1      -7.895  -0.877   4.279  1.00  0.00    -0.269 OA
BRANCH  26  29
ATOM     29  C   UNL     1      -8.280  -2.873   5.458  1.00  0.00     0.039 A 
ATOM     30  C   UNL     1      -9.592  -2.612   5.858  1.00  0.00     0.014 A 
ATOM     31  C   UNL     1      -7.532  -3.865   6.099  1.00  0.00     0.014 A 
ATOM     32  C   UNL     1     -10.161  -3.368   6.884  1.00  0.00     0.010 A 
ATOM     33  C   UNL     1      -8.133  -4.680   7.051  1.00  0.00     0.010 A 
ATOM     34  C   UNL     1      -9.442  -4.420   7.478  1.00  0.00    -0.014 A 
BRANCH  34  35
ATOM     35  C   UNL     1     -10.029  -5.215   8.585  1.00  0.00     0.031 A 
ATOM     36  C   UNL     1      -9.391  -5.189   9.950  1.00  0.00     0.074 A 
ATOM     37  C   UNL     1     -11.115  -5.980   8.359  1.00  0.00     0.049 A 
ATOM     38  N   UNL     1      -9.760  -5.802  11.045  1.00  0.00    -0.248 NA
ATOM     39  C   UNL     1      -8.160  -4.394  10.098  1.00  0.00     0.031 C 
ATOM     40  C   UNL     1     -11.793  -6.131   7.069  1.00  0.00     0.029 A 
ATOM     41  N   UNL     1     -11.844  -6.771   9.211  1.00  0.00    -0.354 N 
ATOM     42  C   UNL     1      -8.802  -5.480  12.000  1.00  0.00     0.074 A 
ATOM     43  C   UNL     1      -7.800  -4.675  11.340  1.00  0.00     0.031 C 
ATOM     44  C   UNL     1     -12.861  -6.929   7.226  1.00  0.00     0.029 A 
ATOM     45  C   UNL     1     -12.924  -7.375   8.614  1.00  0.00     0.049 A 
ATOM     46  H   UNL     1     -11.615  -6.893  10.161  1.00  0.00     0.167 HD
ATOM     47  C   UNL     1      -8.771  -5.800  13.316  1.00  0.00     0.031 A 
ATOM     48  C   UNL     1     -13.864  -8.192   9.128  1.00  0.00     0.031 A 
ATOM     49  C   UNL     1      -9.777  -6.592  13.970  1.00  0.00     0.049 A 
ATOM     50  C   UNL     1     -13.818  -8.526  10.594  1.00  0.00     0.074 A 
ATOM     51  C   UNL     1      -9.873  -6.927  15.309  1.00  0.00     0.029 A 
ATOM     52  N   UNL     1     -10.863  -7.175  13.333  1.00  0.00    -0.354 N 
ATOM     53  N   UNL     1     -12.944  -8.151  11.499  1.00  0.00    -0.248 NA
ATOM     54  C   UNL     1     -14.900  -9.372  11.113  1.00  0.00     0.031 C 
ATOM     55  C   UNL     1     -10.983  -7.762  15.471  1.00  0.00     0.029 A 
ATOM     56  C   UNL     1     -11.621  -7.887  14.247  1.00  0.00     0.049 A 
ATOM     57  H   UNL     1     -11.064  -7.095  12.373  1.00  0.00     0.167 HD
ATOM     58  C   UNL     1     -13.391  -8.688  12.702  1.00  0.00     0.074 A 
ATOM     59  C   UNL     1     -14.619  -9.399  12.409  1.00  0.00     0.031 C 
ATOM     60  C   UNL     1     -12.838  -8.596  13.938  1.00  0.00     0.031 A 
BRANCH  47  61
ATOM     61  C   UNL     1      -7.601  -5.299  14.126  1.00  0.00    -0.014 A 
ATOM     62  C   UNL     1      -7.419  -3.926  14.377  1.00  0.00     0.010 A 
ATOM     63  C   UNL     1      -6.679  -6.217  14.661  1.00  0.00     0.010 A 
ATOM     64  C   UNL     1      -6.310  -3.477  15.099  1.00  0.00     0.020 A 
ATOM     65  C   UNL     1      -5.587  -5.775  15.414  1.00  0.00     0.020 A 
ATOM     66  C   UNL     1      -5.399  -4.406  15.611  1.00  0.00     0.054 A 
BRANCH  66  67
ATOM     67  S   UNL     1      -3.975  -3.796  16.554  1.00  0.00     0.124 S 
ATOM     68  O   UNL     1      -3.154  -3.194  15.506  1.00  0.00    -0.237 OA
ATOM     69  O   UNL     1      -4.589  -2.856  17.488  1.00  0.00    -0.237 OA
ATOM     70  O   UNL     1      -3.420  -5.002  17.163  1.00  0.00    -0.744 OA
ENDBRANCH  66  67
ENDBRANCH  47  61
BRANCH  48  71
ATOM     71  C   UNL     1     -14.947  -8.720   8.251  1.00  0.00    -0.014 A 
ATOM     72  C   UNL     1     -16.272  -8.275   8.399  1.00  0.00     0.010 A 
ATOM     73  C   UNL     1     -14.650  -9.659   7.245  1.00  0.00     0.010 A 
ATOM     74  C   UNL     1     -17.284  -8.771   7.570  1.00  0.00     0.020 A 
ATOM     75  C   UNL     1     -15.653 -10.133   6.395  1.00  0.00     0.020 A 
ATOM     76  C   UNL     1     -16.966  -9.694   6.570  1.00  0.00     0.054 A 
BRANCH  76  77
ATOM     77  S   UNL     1     -18.284 -10.278   5.468  1.00  0.00     0.124 S 
ATOM     78  O   UNL     1     -19.062 -11.139   6.354  1.00  0.00    -0.237 OA
ATOM     79  O   UNL     1     -18.932  -9.032   5.066  1.00  0.00    -0.237 OA
ATOM     80  O   UNL     1     -17.559 -10.966   4.402  1.00  0.00    -0.744 OA
ENDBRANCH  76  77
ENDBRANCH  48  71
BRANCH  60  81
ATOM     81  C   UNL     1     -13.585  -9.240  15.078  1.00  0.00    -0.014 A 
ATOM     82  C   UNL     1     -13.698 -10.637  15.192  1.00  0.00     0.010 A 
ATOM     83  C   UNL     1     -14.162  -8.424  16.069  1.00  0.00     0.010 A 
ATOM     84  C   UNL     1     -14.422 -11.203  16.245  1.00  0.00     0.020 A 
ATOM     85  C   UNL     1     -14.855  -8.987  17.143  1.00  0.00     0.020 A 
ATOM     86  C   UNL     1     -15.000 -10.373  17.211  1.00  0.00     0.054 A 
BRANCH  86  87
ATOM     87  S   UNL     1     -15.928 -11.131  18.572  1.00  0.00     0.124 S 
ATOM     88  O   UNL     1     -17.148 -11.570  17.900  1.00  0.00    -0.237 OA
ATOM     89  O   UNL     1     -15.034 -12.199  19.014  1.00  0.00    -0.237 OA
ATOM     90  O   UNL     1     -16.101 -10.038  19.526  1.00  0.00    -0.744 OA
ENDBRANCH  86  87
ENDBRANCH  60  81
ENDBRANCH  34  35
ENDBRANCH  26  29
ENDBRANCH  24  25
ENDBRANCH  23  24
ENDBRANCH   1  23
TORSDOF 18
