REMARK SMILES O=CN[C@H](C(=O)NCCCCNC(=O)c1ccc(-c2c3nc(c(-c4ccc(S(=O)(=O)[O-])cc4)c4ccc([nH]4)c(-c4ccc(S(=O)(=O)[O-])cc4)c4nc(c(-c5ccc(S(=O)(=O)[O-])cc5)c5ccc2[nH]5)C=C4)C=C3)cc1)[C@@H]1CCO[C@@]2(CCOC2)C1
REMARK SMILES IDX 10 1 9 2 8 3 7 4 5 5 6 6 4 8 3 9 1 10 2 11 75 13 76 14 84 15
REMARK SMILES IDX 77 16 79 17 78 18 80 19 83 20 81 21 82 22 11 23 12 24 13 25
REMARK SMILES IDX 14 27 15 28 16 29 74 30 17 31 73 32 18 33 19 34 20 35 67 36
REMARK SMILES IDX 21 37 72 38 66 39 68 40 22 41 71 42 65 43 64 44 23 46 53 47
REMARK SMILES IDX 34 48 52 49 35 50 38 51 51 52 69 53 36 54 37 55 50 57 70 58
REMARK SMILES IDX 39 59 24 60 25 61 33 62 26 63 32 64 27 65 28 66 29 67 30 68
REMARK SMILES IDX 31 69 54 70 55 71 63 72 56 73 62 74 57 75 58 76 59 77 60 78
REMARK SMILES IDX 61 79 40 80 41 81 49 82 42 83 48 84 43 85 44 86 45 87 46 88
REMARK SMILES IDX 47 89
REMARK H PARENT 7 7 3 12 12 26 68 45 38 56
REMARK Flexibility Score: inf
ROOT
ATOM      1  C   UNL     1       0.867  -4.303   2.240  1.00  0.00     0.023 C 
ENDROOT
BRANCH   1   2
ATOM      2  C   UNL     1       2.286  -3.875   1.889  1.00  0.00     0.023 C 
BRANCH   2   3
ATOM      3  C   UNL     1       2.450  -3.136   0.561  1.00  0.00     0.116 C 
BRANCH   3   4
ATOM      4  N   UNL     1       2.279  -1.728   0.808  1.00  0.00    -0.354 N 
ATOM      5  C   UNL     1       3.182  -0.775   1.145  1.00  0.00     0.242 C 
ATOM      6  O   UNL     1       2.695   0.260   1.620  1.00  0.00    -0.273 OA
ATOM      7  H   UNL     1       1.354  -1.404   0.717  1.00  0.00     0.163 HD
BRANCH   5   8
ATOM      8  C   UNL     1       4.713  -0.875   0.844  1.00  0.00     0.174 C 
BRANCH   8   9
ATOM      9  N   UNL     1       5.085   0.560   0.868  1.00  0.00    -0.347 N 
ATOM     10  O   UNL     1       6.458   2.328   0.491  1.00  0.00    -0.279 OA
ATOM     11  C   UNL     1       6.166   1.155   0.305  1.00  0.00     0.337 C 
ATOM     12  H   UNL     1       4.471   1.155   1.355  1.00  0.00     0.164 HD
ENDBRANCH   8   9
BRANCH   8  13
ATOM     13  C   UNL     1       5.791  -1.702   1.639  1.00  0.00     0.026 C 
ATOM     14  C   UNL     1       5.581  -3.163   2.079  1.00  0.00     0.035 C 
ATOM     15  C   UNL     1       6.510  -0.969   2.785  1.00  0.00     0.044 C 
ATOM     16  C   UNL     1       5.254  -3.399   3.563  1.00  0.00     0.161 C 
ATOM     17  C   UNL     1       5.866  -1.190   4.154  1.00  0.00     0.094 C 
ATOM     18  O   UNL     1       6.003  -2.575   4.456  1.00  0.00    -0.372 OA
ATOM     19  C   UNL     1       6.561  -0.308   5.180  1.00  0.00     0.066 C 
ATOM     20  C   UNL     1       4.445  -0.664   4.333  1.00  0.00     0.195 C 
ATOM     21  C   UNL     1       5.863   1.032   4.982  1.00  0.00     0.163 C 
ATOM     22  O   UNL     1       4.558   0.755   4.449  1.00  0.00    -0.378 OA
ENDBRANCH   8  13
ENDBRANCH   5   8
ENDBRANCH   3   4
ENDBRANCH   2   3
ENDBRANCH   1   2
BRANCH   1  23
ATOM     23  C   UNL     1       0.267  -5.311   1.282  1.00  0.00     0.116 C 
BRANCH  23  24
ATOM     24  N   UNL     1       1.080  -6.505   1.101  1.00  0.00    -0.352 N 
ATOM     25  C   UNL     1       0.654  -7.779   0.798  1.00  0.00     0.251 C 
ATOM     26  H   UNL     1       2.051  -6.387   1.209  1.00  0.00     0.163 HD
ATOM     27  O   UNL     1       1.449  -8.704   0.760  1.00  0.00    -0.269 OA
BRANCH  25  28
ATOM     28  C   UNL     1      -0.790  -8.001   0.573  1.00  0.00     0.039 A 
ATOM     29  C   UNL     1      -1.426  -9.046   1.243  1.00  0.00     0.014 A 
ATOM     30  C   UNL     1      -1.520  -7.127  -0.235  1.00  0.00     0.014 A 
ATOM     31  C   UNL     1      -2.811  -9.178   1.142  1.00  0.00     0.010 A 
ATOM     32  C   UNL     1      -2.905  -7.190  -0.240  1.00  0.00     0.010 A 
ATOM     33  C   UNL     1      -3.564  -8.233   0.424  1.00  0.00    -0.014 A 
BRANCH  33  34
ATOM     34  C   UNL     1      -5.037  -8.350   0.304  1.00  0.00     0.031 A 
ATOM     35  C   UNL     1      -5.658  -8.529  -1.057  1.00  0.00     0.074 A 
ATOM     36  C   UNL     1      -5.814  -8.242   1.400  1.00  0.00     0.049 A 
ATOM     37  N   UNL     1      -6.922  -8.617  -1.382  1.00  0.00    -0.248 NA
ATOM     38  C   UNL     1      -4.742  -8.576  -2.211  1.00  0.00     0.031 C 
ATOM     39  C   UNL     1      -5.335  -7.996   2.764  1.00  0.00     0.029 A 
ATOM     40  N   UNL     1      -7.175  -8.328   1.540  1.00  0.00    -0.354 N 
ATOM     41  C   UNL     1      -6.949  -8.699  -2.770  1.00  0.00     0.074 A 
ATOM     42  C   UNL     1      -5.585  -8.583  -3.231  1.00  0.00     0.031 C 
ATOM     43  C   UNL     1      -6.383  -7.992   3.604  1.00  0.00     0.029 A 
ATOM     44  C   UNL     1      -7.606  -8.207   2.840  1.00  0.00     0.049 A 
ATOM     45  H   UNL     1      -7.787  -8.464   0.780  1.00  0.00     0.167 HD
ATOM     46  C   UNL     1      -8.010  -8.890  -3.589  1.00  0.00     0.031 A 
ATOM     47  C   UNL     1      -8.849  -8.275   3.356  1.00  0.00     0.031 A 
ATOM     48  C   UNL     1      -9.359  -9.052  -3.122  1.00  0.00     0.049 A 
ATOM     49  C   UNL     1     -10.004  -8.552   2.433  1.00  0.00     0.074 A 
ATOM     50  C   UNL     1     -10.499  -9.319  -3.858  1.00  0.00     0.029 A 
ATOM     51  N   UNL     1      -9.746  -8.979  -1.793  1.00  0.00    -0.354 N 
ATOM     52  N   UNL     1     -10.002  -8.696   1.128  1.00  0.00    -0.248 NA
ATOM     53  C   UNL     1     -11.326  -8.704   3.055  1.00  0.00     0.031 C 
ATOM     54  C   UNL     1     -11.583  -9.373  -2.976  1.00  0.00     0.029 A 
ATOM     55  C   UNL     1     -11.108  -9.192  -1.686  1.00  0.00     0.049 A 
ATOM     56  H   UNL     1      -9.141  -8.800  -1.037  1.00  0.00     0.167 HD
ATOM     57  C   UNL     1     -11.315  -8.992   0.779  1.00  0.00     0.074 A 
ATOM     58  C   UNL     1     -12.078  -9.021   2.010  1.00  0.00     0.031 C 
ATOM     59  C   UNL     1     -11.844  -9.223  -0.449  1.00  0.00     0.031 A 
BRANCH  46  60
ATOM     60  C   UNL     1      -7.742  -8.950  -5.069  1.00  0.00    -0.014 A 
ATOM     61  C   UNL     1      -7.048 -10.034  -5.638  1.00  0.00     0.010 A 
ATOM     62  C   UNL     1      -8.212  -7.924  -5.907  1.00  0.00     0.010 A 
ATOM     63  C   UNL     1      -6.789 -10.069  -7.010  1.00  0.00     0.020 A 
ATOM     64  C   UNL     1      -7.983  -7.970  -7.286  1.00  0.00     0.020 A 
ATOM     65  C   UNL     1      -7.257  -9.034  -7.825  1.00  0.00     0.054 A 
BRANCH  65  66
ATOM     66  S   UNL     1      -6.932  -9.118  -9.608  1.00  0.00     0.124 S 
ATOM     67  O   UNL     1      -5.510  -8.788  -9.669  1.00  0.00    -0.237 OA
ATOM     68  O   UNL     1      -7.269 -10.502  -9.930  1.00  0.00    -0.237 OA
ATOM     69  O   UNL     1      -7.830  -8.114 -10.171  1.00  0.00    -0.744 OA
ENDBRANCH  65  66
ENDBRANCH  46  60
BRANCH  47  70
ATOM     70  C   UNL     1      -9.060  -8.129   4.822  1.00  0.00    -0.014 A 
ATOM     71  C   UNL     1      -9.422  -9.239   5.606  1.00  0.00     0.010 A 
ATOM     72  C   UNL     1      -8.901  -6.877   5.444  1.00  0.00     0.010 A 
ATOM     73  C   UNL     1      -9.653  -9.096   6.977  1.00  0.00     0.020 A 
ATOM     74  C   UNL     1      -9.104  -6.735   6.820  1.00  0.00     0.020 A 
ATOM     75  C   UNL     1      -9.495  -7.843   7.575  1.00  0.00     0.054 A 
BRANCH  75  76
ATOM     76  S   UNL     1      -9.765  -7.685   9.363  1.00  0.00     0.124 S 
ATOM     77  O   UNL     1     -11.221  -7.734   9.454  1.00  0.00    -0.237 OA
ATOM     78  O   UNL     1      -9.057  -8.847   9.894  1.00  0.00    -0.237 OA
ATOM     79  O   UNL     1      -9.159  -6.395   9.686  1.00  0.00    -0.744 OA
ENDBRANCH  75  76
ENDBRANCH  47  70
BRANCH  59  80
ATOM     80  C   UNL     1     -13.303  -9.581  -0.511  1.00  0.00    -0.014 A 
ATOM     81  C   UNL     1     -14.304  -8.627  -0.260  1.00  0.00     0.010 A 
ATOM     82  C   UNL     1     -13.675 -10.894  -0.855  1.00  0.00     0.010 A 
ATOM     83  C   UNL     1     -15.652  -8.994  -0.299  1.00  0.00     0.020 A 
ATOM     84  C   UNL     1     -15.021 -11.257  -0.923  1.00  0.00     0.020 A 
ATOM     85  C   UNL     1     -16.001 -10.309  -0.623  1.00  0.00     0.054 A 
BRANCH  85  86
ATOM     86  S   UNL     1     -17.755 -10.762  -0.674  1.00  0.00     0.124 S 
ATOM     87  O   UNL     1     -18.081 -10.870   0.745  1.00  0.00    -0.237 OA
ATOM     88  O   UNL     1     -18.360  -9.632  -1.375  1.00  0.00    -0.237 OA
ATOM     89  O   UNL     1     -17.765 -12.023  -1.414  1.00  0.00    -0.744 OA
ENDBRANCH  85  86
ENDBRANCH  59  80
ENDBRANCH  33  34
ENDBRANCH  25  28
ENDBRANCH  23  24
ENDBRANCH   1  23
TORSDOF 16
