REMARK SMILES CN1C(=O)Cc2cc([C@@H](O)CCCCC(=O)NCCCCNC(=O)c3ccc(-c4c5nc(c(-c6ccc(S(=O)(=O)[O-])cc6)c6ccc([nH]6)c(-c6ccc(S(=O)(=O)[O-])cc6)c6nc(c(-c7ccc(S(=O)(=O)[O-])cc7)c7ccc4[nH]7)C=C6)C=C5)cc3)ccc21
REMARK SMILES IDX 18 1 17 2 15 3 16 4 14 6 13 7 12 8 11 9 9 10 8 11 1 12 2 13
REMARK SMILES IDX 3 14 87 15 4 16 5 17 6 18 86 19 7 20 85 21 10 22 19 24 20 25
REMARK SMILES IDX 21 26 22 27 23 28 24 30 25 31 26 32 84 33 27 34 83 35 28 36
REMARK SMILES IDX 29 37 30 38 77 39 31 40 82 41 76 42 78 43 32 44 81 45 75 46
REMARK SMILES IDX 74 47 33 49 63 50 44 51 62 52 45 53 48 54 61 55 79 56 46 57
REMARK SMILES IDX 47 58 60 60 80 61 49 62 34 63 35 64 43 65 36 66 42 67 37 68
REMARK SMILES IDX 38 69 39 70 40 71 41 72 64 73 65 74 73 75 66 76 72 77 67 78
REMARK SMILES IDX 68 79 69 80 70 81 71 82 50 83 51 84 59 85 52 86 58 87 53 88
REMARK SMILES IDX 54 89 55 90 56 91 57 92
REMARK H PARENT 17 5 10 23 22 29 78 48 48 59
REMARK Flexibility Score: inf
ROOT
ATOM      1  C   UNL     1       5.617   3.018   3.653  1.00  0.00     0.116 C 
ENDROOT
BRANCH   1   2
ATOM      2  N   UNL     1       6.420   2.112   4.449  1.00  0.00    -0.356 N 
ATOM      3  C   UNL     1       6.977   0.915   4.119  1.00  0.00     0.219 C 
ATOM      4  O   UNL     1       7.555   0.276   5.000  1.00  0.00    -0.275 OA
ATOM      5  H   UNL     1       6.589   2.408   5.372  1.00  0.00     0.163 HD
BRANCH   3   6
ATOM      6  C   UNL     1       6.921   0.390   2.696  1.00  0.00     0.100 C 
BRANCH   6   7
ATOM      7  C   UNL     1       5.702  -0.477   2.376  1.00  0.00     0.010 C 
BRANCH   7   8
ATOM      8  C   UNL     1       4.421   0.256   1.985  1.00  0.00     0.004 C 
BRANCH   8   9
ATOM      9  C   UNL     1       4.530   1.220   0.794  1.00  0.00     0.037 C 
BRANCH   9  10
ATOM     10  C   UNL     1       4.140   0.608  -0.553  1.00  0.00     0.144 C 
BRANCH  10  11
ATOM     11  C   UNL     1       2.683   0.194  -0.562  1.00  0.00    -0.019 A 
ATOM     12  C   UNL     1      -1.956  -2.078   0.053  1.00  0.00     0.153 C 
ATOM     13  N   UNL     1      -1.310  -0.800  -0.062  1.00  0.00    -0.315 N 
ATOM     14  C   UNL     1      -1.965   0.434   0.005  1.00  0.00     0.231 C 
ATOM     15  C   UNL     1       0.063  -0.635  -0.248  1.00  0.00     0.047 A 
ATOM     16  O   UNL     1      -3.160   0.624   0.146  1.00  0.00    -0.274 OA
ATOM     17  C   UNL     1      -0.894   1.524  -0.133  1.00  0.00     0.138 C 
ATOM     18  C   UNL     1       0.361   0.724  -0.312  1.00  0.00    -0.014 A 
ATOM     19  C   UNL     1       1.041  -1.604  -0.351  1.00  0.00     0.027 A 
ATOM     20  C   UNL     1       1.662   1.159  -0.478  1.00  0.00     0.012 A 
ATOM     21  C   UNL     1       2.360  -1.181  -0.514  1.00  0.00     0.008 A 
ENDBRANCH  10  11
BRANCH  10  22
ATOM     22  O   UNL     1       4.381   1.573  -1.574  1.00  0.00    -0.388 OA
ATOM     23  H   UNL     1       3.844   2.363  -1.406  1.00  0.00     0.211 HD
ENDBRANCH  10  22
ENDBRANCH   9  10
ENDBRANCH   8   9
ENDBRANCH   7   8
ENDBRANCH   6   7
ENDBRANCH   3   6
ENDBRANCH   1   2
BRANCH   1  24
ATOM     24  C   UNL     1       4.148   2.965   4.081  1.00  0.00     0.023 C 
BRANCH  24  25
ATOM     25  C   UNL     1       3.760   3.959   5.163  1.00  0.00     0.023 C 
BRANCH  25  26
ATOM     26  C   UNL     1       3.881   5.412   4.747  1.00  0.00     0.116 C 
BRANCH  26  27
ATOM     27  N   UNL     1       3.022   5.779   3.630  1.00  0.00    -0.352 N 
ATOM     28  C   UNL     1       2.321   6.952   3.457  1.00  0.00     0.251 C 
ATOM     29  H   UNL     1       2.932   5.110   2.913  1.00  0.00     0.163 HD
ATOM     30  O   UNL     1       1.552   7.086   2.511  1.00  0.00    -0.269 OA
BRANCH  28  31
ATOM     31  C   UNL     1       2.482   8.025   4.461  1.00  0.00     0.039 A 
ATOM     32  C   UNL     1       1.346   8.618   5.011  1.00  0.00     0.014 A 
ATOM     33  C   UNL     1       3.756   8.373   4.920  1.00  0.00     0.014 A 
ATOM     34  C   UNL     1       1.491   9.519   6.067  1.00  0.00     0.010 A 
ATOM     35  C   UNL     1       3.886   9.172   6.047  1.00  0.00     0.010 A 
ATOM     36  C   UNL     1       2.759   9.777   6.618  1.00  0.00    -0.014 A 
BRANCH  36  37
ATOM     37  C   UNL     1       2.922  10.709   7.762  1.00  0.00     0.031 A 
ATOM     38  C   UNL     1       3.764  11.949   7.603  1.00  0.00     0.074 A 
ATOM     39  C   UNL     1       2.345  10.425   8.948  1.00  0.00     0.049 A 
ATOM     40  N   UNL     1       4.013  12.891   8.476  1.00  0.00    -0.248 NA
ATOM     41  C   UNL     1       4.442  12.145   6.309  1.00  0.00     0.031 C 
ATOM     42  C   UNL     1       1.568   9.218   9.249  1.00  0.00     0.029 A 
ATOM     43  N   UNL     1       2.317  11.134  10.123  1.00  0.00    -0.354 N 
ATOM     44  C   UNL     1       4.886  13.770   7.845  1.00  0.00     0.074 A 
ATOM     45  C   UNL     1       5.176  13.222   6.542  1.00  0.00     0.031 C 
ATOM     46  C   UNL     1       1.106   9.293  10.508  1.00  0.00     0.029 A 
ATOM     47  C   UNL     1       1.581  10.531  11.117  1.00  0.00     0.049 A 
ATOM     48  H   UNL     1       2.780  11.994  10.243  1.00  0.00     0.167 HD
ATOM     49  C   UNL     1       5.378  14.946   8.297  1.00  0.00     0.031 A 
ATOM     50  C   UNL     1       1.316  10.932  12.376  1.00  0.00     0.031 A 
ATOM     51  C   UNL     1       5.057  15.506   9.581  1.00  0.00     0.049 A 
ATOM     52  C   UNL     1       1.852  12.260  12.843  1.00  0.00     0.074 A 
ATOM     53  C   UNL     1       5.431  16.733  10.099  1.00  0.00     0.029 A 
ATOM     54  N   UNL     1       4.288  14.878  10.548  1.00  0.00    -0.354 N 
ATOM     55  N   UNL     1       2.587  13.129  12.188  1.00  0.00    -0.248 NA
ATOM     56  C   UNL     1       1.509  12.671  14.211  1.00  0.00     0.031 C 
ATOM     57  C   UNL     1       4.943  16.819  11.406  1.00  0.00     0.029 A 
ATOM     58  C   UNL     1       4.206  15.676  11.675  1.00  0.00     0.049 A 
ATOM     59  H   UNL     1       3.864  13.995  10.447  1.00  0.00     0.167 HD
ATOM     60  C   UNL     1       2.774  14.197  13.058  1.00  0.00     0.074 A 
ATOM     61  C   UNL     1       2.051  13.879  14.272  1.00  0.00     0.031 C 
ATOM     62  C   UNL     1       3.484  15.338  12.874  1.00  0.00     0.031 A 
BRANCH  49  63
ATOM     63  C   UNL     1       6.313  15.713   7.399  1.00  0.00    -0.014 A 
ATOM     64  C   UNL     1       5.852  16.330   6.221  1.00  0.00     0.010 A 
ATOM     65  C   UNL     1       7.658  15.878   7.776  1.00  0.00     0.010 A 
ATOM     66  C   UNL     1       6.724  17.077   5.426  1.00  0.00     0.020 A 
ATOM     67  C   UNL     1       8.526  16.650   6.999  1.00  0.00     0.020 A 
ATOM     68  C   UNL     1       8.055  17.238   5.824  1.00  0.00     0.054 A 
BRANCH  68  69
ATOM     69  S   UNL     1       9.146  18.269   4.806  1.00  0.00     0.124 S 
ATOM     70  O   UNL     1       9.325  17.436   3.619  1.00  0.00    -0.237 OA
ATOM     71  O   UNL     1       8.350  19.478   4.610  1.00  0.00    -0.237 OA
ATOM     72  O   UNL     1      10.338  18.437   5.633  1.00  0.00    -0.744 OA
ENDBRANCH  68  69
ENDBRANCH  49  63
BRANCH  50  73
ATOM     73  C   UNL     1       0.503  10.075  13.285  1.00  0.00    -0.014 A 
ATOM     74  C   UNL     1      -0.772  10.481  13.717  1.00  0.00     0.010 A 
ATOM     75  C   UNL     1       1.016   8.847  13.742  1.00  0.00     0.010 A 
ATOM     76  C   UNL     1      -1.501   9.697  14.617  1.00  0.00     0.020 A 
ATOM     77  C   UNL     1       0.277   8.043  14.614  1.00  0.00     0.020 A 
ATOM     78  C   UNL     1      -0.970   8.482  15.062  1.00  0.00     0.054 A 
BRANCH  78  79
ATOM     79  S   UNL     1      -1.940   7.470  16.214  1.00  0.00     0.124 S 
ATOM     80  O   UNL     1      -1.831   8.233  17.453  1.00  0.00    -0.237 OA
ATOM     81  O   UNL     1      -3.260   7.460  15.589  1.00  0.00    -0.237 OA
ATOM     82  O   UNL     1      -1.245   6.184  16.206  1.00  0.00    -0.744 OA
ENDBRANCH  78  79
ENDBRANCH  50  73
BRANCH  62  83
ATOM     83  C   UNL     1       3.493  16.337  14.001  1.00  0.00    -0.014 A 
ATOM     84  C   UNL     1       4.171  16.073  15.204  1.00  0.00     0.010 A 
ATOM     85  C   UNL     1       2.849  17.577  13.834  1.00  0.00     0.010 A 
ATOM     86  C   UNL     1       4.165  17.013  16.238  1.00  0.00     0.020 A 
ATOM     87  C   UNL     1       2.872  18.533  14.851  1.00  0.00     0.020 A 
ATOM     88  C   UNL     1       3.514  18.237  16.054  1.00  0.00     0.054 A 
BRANCH  88  89
ATOM     89  S   UNL     1       3.544  19.449  17.401  1.00  0.00     0.124 S 
ATOM     90  O   UNL     1       2.631  18.848  18.370  1.00  0.00    -0.237 OA
ATOM     91  O   UNL     1       4.952  19.464  17.788  1.00  0.00    -0.237 OA
ATOM     92  O   UNL     1       3.063  20.678  16.773  1.00  0.00    -0.744 OA
ENDBRANCH  88  89
ENDBRANCH  62  83
ENDBRANCH  36  37
ENDBRANCH  28  31
ENDBRANCH  26  27
ENDBRANCH  25  26
ENDBRANCH  24  25
ENDBRANCH   1  24
TORSDOF 20
