REMARK SMILES Cc1nsc(Nc2ccccc2C(C)C)c1C(=O)NCCCCNC(=O)c1ccc(-c2c3nc(c(-c4ccc(S(=O)(=O)[O-])cc4)c4ccc([nH]4)c(-c4ccc(S(=O)(=O)[O-])cc4)c4nc(c(-c5ccc(S(=O)(=O)[O-])cc5)c5ccc2[nH]5)C=C4)C=C3)cc1
REMARK SMILES IDX 21 1 20 2 19 3 17 4 18 5 16 7 1 8 2 9 3 10 4 11 5 12 6 13
REMARK SMILES IDX 7 15 8 16 12 17 9 18 11 19 10 20 13 21 14 22 15 23 22 24
REMARK SMILES IDX 23 25 24 26 25 27 26 29 27 30 28 31 86 32 29 33 85 34 30 35
REMARK SMILES IDX 31 36 32 37 79 38 33 39 84 40 78 41 80 42 34 43 83 44 77 45
REMARK SMILES IDX 76 46 35 48 65 49 46 50 64 51 47 52 50 53 63 54 81 55 48 56
REMARK SMILES IDX 49 57 62 59 82 60 51 61 36 62 37 63 45 64 38 65 44 66 39 67
REMARK SMILES IDX 40 68 41 69 42 70 43 71 66 72 67 73 75 74 68 75 74 76 69 77
REMARK SMILES IDX 70 78 71 79 72 80 73 81 52 82 53 83 61 84 54 85 60 86 55 87
REMARK SMILES IDX 56 88 57 89 58 90 59 91
REMARK H PARENT 19 6 6 14 24 28 80 47 50 58
REMARK Flexibility Score: inf
ROOT
ATOM      1  C   UNL     1       2.928   0.909   1.460  1.00  0.00     0.023 C 
ENDROOT
BRANCH   1   2
ATOM      2  C   UNL     1       1.528   1.520   1.387  1.00  0.00     0.116 C 
BRANCH   2   3
ATOM      3  N   UNL     1       1.415   2.603   0.449  1.00  0.00    -0.352 N 
ATOM      4  C   UNL     1       0.999   2.756  -0.844  1.00  0.00     0.256 C 
ATOM      5  O   UNL     1       0.968   3.949  -1.179  1.00  0.00    -0.269 OA
ATOM      6  H   UNL     1       1.714   3.457   0.838  1.00  0.00     0.163 HD
BRANCH   4   7
ATOM      7  C   UNL     1       0.691   1.698  -1.830  1.00  0.00     0.097 A 
ATOM      8  C   UNL     1       0.408  -0.699  -0.641  1.00  0.00     0.069 C 
ATOM      9  C   UNL     1       0.515   0.246  -1.784  1.00  0.00     0.066 A 
ATOM     10  N   UNL     1       0.406  -0.375  -2.961  1.00  0.00    -0.195 NA
ATOM     11  S   UNL     1       0.386   0.722  -4.167  1.00  0.00    -0.018 S 
ATOM     12  C   UNL     1       0.443   2.106  -3.159  1.00  0.00     0.127 A 
BRANCH  12  13
ATOM     13  N   UNL     1       0.314   3.381  -3.628  1.00  0.00    -0.345 N 
ATOM     14  H   UNL     1       0.603   4.105  -3.026  1.00  0.00     0.167 HD
BRANCH  13  15
ATOM     15  C   UNL     1      -0.190   3.768  -4.885  1.00  0.00     0.043 A 
ATOM     16  C   UNL     1       0.691   4.454  -5.739  1.00  0.00     0.026 A 
ATOM     17  C   UNL     1      -1.536   3.587  -5.279  1.00  0.00    -0.022 A 
ATOM     18  C   UNL     1       0.289   4.881  -7.003  1.00  0.00     0.002 A 
ATOM     19  C   UNL     1      -1.920   4.022  -6.565  1.00  0.00     0.006 A 
ATOM     20  C   UNL     1      -1.015   4.651  -7.421  1.00  0.00     0.000 A 
BRANCH  17  21
ATOM     21  C   UNL     1      -2.592   2.975  -4.360  1.00  0.00     0.015 C 
ATOM     22  C   UNL     1      -3.712   3.970  -4.034  1.00  0.00     0.012 C 
ATOM     23  C   UNL     1      -3.186   1.691  -4.952  1.00  0.00     0.012 C 
ENDBRANCH  17  21
ENDBRANCH  13  15
ENDBRANCH  12  13
ENDBRANCH   4   7
ENDBRANCH   2   3
ENDBRANCH   1   2
BRANCH   1  24
ATOM     24  C   UNL     1       3.883   1.562   2.475  1.00  0.00     0.023 C 
BRANCH  24  25
ATOM     25  C   UNL     1       3.431   1.517   3.935  1.00  0.00     0.116 C 
BRANCH  25  26
ATOM     26  N   UNL     1       3.238   0.158   4.454  1.00  0.00    -0.352 N 
ATOM     27  C   UNL     1       2.610  -0.226   5.635  1.00  0.00     0.251 C 
ATOM     28  H   UNL     1       3.596  -0.572   3.898  1.00  0.00     0.163 HD
ATOM     29  O   UNL     1       2.869  -1.287   6.175  1.00  0.00    -0.269 OA
BRANCH  27  30
ATOM     30  C   UNL     1       1.585   0.676   6.193  1.00  0.00     0.039 A 
ATOM     31  C   UNL     1       1.445   0.940   7.559  1.00  0.00     0.014 A 
ATOM     32  C   UNL     1       0.776   1.309   5.261  1.00  0.00     0.014 A 
ATOM     33  C   UNL     1       0.519   1.905   7.957  1.00  0.00     0.010 A 
ATOM     34  C   UNL     1       0.067   2.413   5.626  1.00  0.00     0.010 A 
ATOM     35  C   UNL     1      -0.159   2.641   6.974  1.00  0.00    -0.014 A 
BRANCH  35  36
ATOM     36  C   UNL     1      -1.071   3.730   7.282  1.00  0.00     0.031 A 
ATOM     37  C   UNL     1      -0.442   4.866   7.997  1.00  0.00     0.074 A 
ATOM     38  C   UNL     1      -2.289   3.818   6.698  1.00  0.00     0.049 A 
ATOM     39  N   UNL     1      -0.607   5.195   9.233  1.00  0.00    -0.248 NA
ATOM     40  C   UNL     1       0.630   5.618   7.321  1.00  0.00     0.031 C 
ATOM     41  C   UNL     1      -2.881   2.936   5.681  1.00  0.00     0.029 A 
ATOM     42  N   UNL     1      -3.206   4.813   6.780  1.00  0.00    -0.354 N 
ATOM     43  C   UNL     1       0.138   6.353   9.417  1.00  0.00     0.074 A 
ATOM     44  C   UNL     1       1.052   6.416   8.305  1.00  0.00     0.031 C 
ATOM     45  C   UNL     1      -3.900   3.575   5.065  1.00  0.00     0.029 A 
ATOM     46  C   UNL     1      -4.138   4.835   5.747  1.00  0.00     0.049 A 
ATOM     47  H   UNL     1      -3.212   5.470   7.513  1.00  0.00     0.167 HD
ATOM     48  C   UNL     1      -0.252   7.313  10.302  1.00  0.00     0.031 A 
ATOM     49  C   UNL     1      -4.994   5.848   5.445  1.00  0.00     0.031 A 
ATOM     50  C   UNL     1      -1.332   6.847  11.139  1.00  0.00     0.049 A 
ATOM     51  C   UNL     1      -5.100   6.687   6.670  1.00  0.00     0.074 A 
ATOM     52  C   UNL     1      -1.499   5.768  11.986  1.00  0.00     0.029 A 
ATOM     53  N   UNL     1      -2.601   7.275  10.814  1.00  0.00    -0.354 N 
ATOM     54  N   UNL     1      -5.615   6.251   7.788  1.00  0.00    -0.248 NA
ATOM     55  C   UNL     1      -4.178   7.806   6.808  1.00  0.00     0.031 C 
ATOM     56  C   UNL     1      -2.815   5.294  11.710  1.00  0.00     0.029 A 
ATOM     57  C   UNL     1      -3.415   6.170  10.802  1.00  0.00     0.049 A 
ATOM     58  H   UNL     1      -2.873   8.201  10.624  1.00  0.00     0.167 HD
ATOM     59  C   UNL     1      -4.759   6.715   8.778  1.00  0.00     0.074 A 
ATOM     60  C   UNL     1      -3.943   7.740   8.123  1.00  0.00     0.031 C 
ATOM     61  C   UNL     1      -4.574   6.024   9.944  1.00  0.00     0.031 A 
BRANCH  48  62
ATOM     62  C   UNL     1       0.040   8.784  10.140  1.00  0.00    -0.014 A 
ATOM     63  C   UNL     1      -0.353   9.666  11.167  1.00  0.00     0.010 A 
ATOM     64  C   UNL     1       0.441   9.364   8.919  1.00  0.00     0.010 A 
ATOM     65  C   UNL     1      -0.405  11.050  10.957  1.00  0.00     0.020 A 
ATOM     66  C   UNL     1       0.437  10.744   8.714  1.00  0.00     0.020 A 
ATOM     67  C   UNL     1      -0.019  11.577   9.725  1.00  0.00     0.054 A 
BRANCH  67  68
ATOM     68  S   UNL     1      -0.175  13.355   9.434  1.00  0.00     0.124 S 
ATOM     69  O   UNL     1      -1.622  13.539   9.474  1.00  0.00    -0.237 OA
ATOM     70  O   UNL     1       0.569  13.916  10.559  1.00  0.00    -0.237 OA
ATOM     71  O   UNL     1       0.448  13.542   8.126  1.00  0.00    -0.744 OA
ENDBRANCH  67  68
ENDBRANCH  48  62
BRANCH  49  72
ATOM     72  C   UNL     1      -5.396   6.323   4.090  1.00  0.00    -0.014 A 
ATOM     73  C   UNL     1      -6.370   7.328   3.925  1.00  0.00     0.010 A 
ATOM     74  C   UNL     1      -4.618   5.991   2.960  1.00  0.00     0.010 A 
ATOM     75  C   UNL     1      -6.499   8.028   2.708  1.00  0.00     0.020 A 
ATOM     76  C   UNL     1      -4.746   6.675   1.744  1.00  0.00     0.020 A 
ATOM     77  C   UNL     1      -5.664   7.714   1.633  1.00  0.00     0.054 A 
BRANCH  77  78
ATOM     78  S   UNL     1      -5.671   8.760   0.144  1.00  0.00     0.124 S 
ATOM     79  O   UNL     1      -6.940   8.403  -0.483  1.00  0.00    -0.237 OA
ATOM     80  O   UNL     1      -5.598  10.108   0.702  1.00  0.00    -0.237 OA
ATOM     81  O   UNL     1      -4.477   8.330  -0.582  1.00  0.00    -0.744 OA
ENDBRANCH  77  78
ENDBRANCH  49  72
BRANCH  61  82
ATOM     82  C   UNL     1      -5.505   4.877  10.278  1.00  0.00    -0.014 A 
ATOM     83  C   UNL     1      -5.682   3.733   9.473  1.00  0.00     0.010 A 
ATOM     84  C   UNL     1      -6.098   4.889  11.553  1.00  0.00     0.010 A 
ATOM     85  C   UNL     1      -6.459   2.651   9.923  1.00  0.00     0.020 A 
ATOM     86  C   UNL     1      -6.852   3.810  12.015  1.00  0.00     0.020 A 
ATOM     87  C   UNL     1      -7.043   2.700  11.193  1.00  0.00     0.054 A 
BRANCH  87  88
ATOM     88  S   UNL     1      -8.033   1.298  11.784  1.00  0.00     0.124 S 
ATOM     89  O   UNL     1      -9.195   1.338  10.901  1.00  0.00    -0.237 OA
ATOM     90  O   UNL     1      -7.135   0.162  11.592  1.00  0.00    -0.237 OA
ATOM     91  O   UNL     1      -8.308   1.631  13.181  1.00  0.00    -0.744 OA
ENDBRANCH  87  88
ENDBRANCH  61  82
ENDBRANCH  35  36
ENDBRANCH  27  30
ENDBRANCH  25  26
ENDBRANCH  24  25
ENDBRANCH   1  24
TORSDOF 17
