REMARK SMILES Cc1ccc(C(N)=O)c(NCc2ccc(C(=O)NCCCCNC(=O)c3ccc(-c4c5nc(c(-c6ccc(S(=O)(=O)[O-])cc6)c6ccc([nH]6)c(-c6ccc(S(=O)(=O)[O-])cc6)c6nc(c(-c7ccc(S(=O)(=O)[O-])cc7)c7ccc4[nH]7)C=C6)C=C5)cc3)o2)n1
REMARK SMILES IDX 20 1 19 2 18 3 16 4 17 5 15 7 12 8 13 9 86 10 14 11 11 12
REMARK SMILES IDX 10 13 9 15 1 16 2 17 3 18 87 19 4 20 5 21 6 22 7 23 8 24
REMARK SMILES IDX 21 27 22 28 23 29 24 30 25 32 26 33 27 34 85 35 28 36 84 37
REMARK SMILES IDX 29 38 30 39 31 40 78 41 32 42 83 43 77 44 79 45 33 46 82 47
REMARK SMILES IDX 76 48 75 49 34 51 64 52 45 53 63 54 46 55 49 56 62 57 80 58
REMARK SMILES IDX 47 59 48 60 61 62 81 63 50 64 35 65 36 66 44 67 37 68 43 69
REMARK SMILES IDX 38 70 39 71 40 72 41 73 42 74 65 75 66 76 74 77 67 78 73 79
REMARK SMILES IDX 68 80 69 81 70 82 71 83 72 84 51 85 52 86 60 87 53 88 59 89
REMARK SMILES IDX 54 90 55 91 56 92 57 93 58 94
REMARK H PARENT 18 6 10 14 7 25 7 26 23 31 79 50 49 61
REMARK Flexibility Score: inf
ROOT
ATOM      1  C   UNL     1      -2.650   7.007  -5.957  1.00  0.00     0.023 C 
ENDROOT
BRANCH   1   2
ATOM      2  C   UNL     1      -1.210   7.028  -5.445  1.00  0.00     0.116 C 
BRANCH   2   3
ATOM      3  N   UNL     1      -1.099   7.785  -4.216  1.00  0.00    -0.349 N 
ATOM      4  C   UNL     1      -1.069   7.372  -2.903  1.00  0.00     0.286 C 
ATOM      5  O   UNL     1      -0.873   8.257  -2.067  1.00  0.00    -0.266 OA
ATOM      6  H   UNL     1      -1.033   8.759  -4.340  1.00  0.00     0.163 HD
BRANCH   4   7
ATOM      7  C   UNL     1      -1.243   5.975  -2.540  1.00  0.00     0.191 A 
ATOM      8  C   UNL     1      -1.079   4.288  -1.109  1.00  0.00     0.124 A 
ATOM      9  C   UNL     1      -1.603   3.762  -2.268  1.00  0.00     0.048 A 
ATOM     10  O   UNL     1      -0.856   5.621  -1.268  1.00  0.00    -0.454 OA
ATOM     11  C   UNL     1      -1.750   4.848  -3.165  1.00  0.00     0.056 A 
BRANCH   8  12
ATOM     12  C   UNL     1      -0.754   3.711   0.228  1.00  0.00     0.190 C 
BRANCH  12  13
ATOM     13  N   UNL     1      -1.530   2.519   0.541  1.00  0.00    -0.362 N 
ATOM     14  H   UNL     1      -2.435   2.612   0.916  1.00  0.00     0.162 HD
BRANCH  13  15
ATOM     15  C   UNL     1      -1.009   1.255   0.318  1.00  0.00     0.139 A 
ATOM     16  C   UNL     1       2.395  -0.112  -0.049  1.00  0.00     0.067 C 
ATOM     17  C   UNL     1       0.900  -0.074   0.039  1.00  0.00     0.040 A 
ATOM     18  C   UNL     1       0.147  -1.232  -0.060  1.00  0.00     0.024 A 
ATOM     19  N   UNL     1       0.336   1.147   0.208  1.00  0.00    -0.236 NA
ATOM     20  C   UNL     1      -1.236  -1.128   0.023  1.00  0.00     0.019 A 
ATOM     21  C   UNL     1      -1.833   0.127   0.203  1.00  0.00     0.081 A 
BRANCH  21  22
ATOM     22  C   UNL     1      -3.320   0.167   0.220  1.00  0.00     0.252 C 
ATOM     23  N   UNL     1      -3.933   1.331  -0.148  1.00  0.00    -0.365 N 
ATOM     24  O   UNL     1      -3.983  -0.822   0.511  1.00  0.00    -0.269 OA
ATOM     25  H   UNL     1      -3.392   2.121  -0.380  1.00  0.00     0.159 HD
ATOM     26  H   UNL     1      -4.915   1.381  -0.181  1.00  0.00     0.159 HD
ENDBRANCH  21  22
ENDBRANCH  13  15
ENDBRANCH  12  13
ENDBRANCH   8  12
ENDBRANCH   4   7
ENDBRANCH   2   3
ENDBRANCH   1   2
BRANCH   1  27
ATOM     27  C   UNL     1      -3.066   8.279  -6.706  1.00  0.00     0.023 C 
BRANCH  27  28
ATOM     28  C   UNL     1      -2.266   8.577  -7.972  1.00  0.00     0.116 C 
BRANCH  28  29
ATOM     29  N   UNL     1      -2.306   7.500  -8.950  1.00  0.00    -0.352 N 
ATOM     30  C   UNL     1      -2.227   7.593 -10.321  1.00  0.00     0.251 C 
ATOM     31  H   UNL     1      -2.402   6.591  -8.585  1.00  0.00     0.163 HD
ATOM     32  O   UNL     1      -2.378   6.600 -11.019  1.00  0.00    -0.269 OA
BRANCH  30  33
ATOM     33  C   UNL     1      -1.999   8.918 -10.936  1.00  0.00     0.039 A 
ATOM     34  C   UNL     1      -2.873   9.360 -11.931  1.00  0.00     0.014 A 
ATOM     35  C   UNL     1      -0.956   9.734 -10.493  1.00  0.00     0.014 A 
ATOM     36  C   UNL     1      -2.745  10.657 -12.434  1.00  0.00     0.010 A 
ATOM     37  C   UNL     1      -0.869  11.045 -10.950  1.00  0.00     0.010 A 
ATOM     38  C   UNL     1      -1.766  11.522 -11.919  1.00  0.00    -0.014 A 
BRANCH  38  39
ATOM     39  C   UNL     1      -1.657  12.932 -12.368  1.00  0.00     0.031 A 
ATOM     40  C   UNL     1      -0.418  13.395 -13.083  1.00  0.00     0.074 A 
ATOM     41  C   UNL     1      -2.627  13.813 -12.052  1.00  0.00     0.049 A 
ATOM     42  N   UNL     1      -0.075  14.606 -13.439  1.00  0.00    -0.248 NA
ATOM     43  C   UNL     1       0.578  12.364 -13.417  1.00  0.00     0.031 C 
ATOM     44  C   UNL     1      -3.864  13.494 -11.334  1.00  0.00     0.029 A 
ATOM     45  N   UNL     1      -2.717  15.163 -12.281  1.00  0.00    -0.354 N 
ATOM     46  C   UNL     1       1.185  14.487 -14.013  1.00  0.00     0.074 A 
ATOM     47  C   UNL     1       1.562  13.094 -13.922  1.00  0.00     0.031 C 
ATOM     48  C   UNL     1      -4.593  14.614 -11.195  1.00  0.00     0.029 A 
ATOM     49  C   UNL     1      -3.860  15.735 -11.773  1.00  0.00     0.049 A 
ATOM     50  H   UNL     1      -2.028  15.675 -12.764  1.00  0.00     0.167 HD
ATOM     51  C   UNL     1       1.953  15.449 -14.578  1.00  0.00     0.031 A 
ATOM     52  C   UNL     1      -4.267  17.020 -11.762  1.00  0.00     0.031 A 
ATOM     53  C   UNL     1       1.566  16.831 -14.682  1.00  0.00     0.049 A 
ATOM     54  C   UNL     1      -3.397  18.071 -12.396  1.00  0.00     0.074 A 
ATOM     55  C   UNL     1       2.254  17.873 -15.278  1.00  0.00     0.029 A 
ATOM     56  N   UNL     1       0.386  17.361 -14.183  1.00  0.00    -0.354 N 
ATOM     57  N   UNL     1      -2.227  17.932 -12.973  1.00  0.00    -0.248 NA
ATOM     58  C   UNL     1      -3.906  19.450 -12.386  1.00  0.00     0.031 C 
ATOM     59  C   UNL     1       1.507  19.043 -15.106  1.00  0.00     0.029 A 
ATOM     60  C   UNL     1       0.331  18.719 -14.448  1.00  0.00     0.049 A 
ATOM     61  H   UNL     1      -0.309  16.849 -13.711  1.00  0.00     0.167 HD
ATOM     62  C   UNL     1      -1.877  19.199 -13.426  1.00  0.00     0.074 A 
ATOM     63  C   UNL     1      -2.959  20.090 -13.060  1.00  0.00     0.031 C 
ATOM     64  C   UNL     1      -0.761  19.588 -14.090  1.00  0.00     0.031 A 
BRANCH  51  65
ATOM     65  C   UNL     1       3.294  15.036 -15.122  1.00  0.00    -0.014 A 
ATOM     66  C   UNL     1       3.393  14.248 -16.283  1.00  0.00     0.010 A 
ATOM     67  C   UNL     1       4.471  15.466 -14.484  1.00  0.00     0.010 A 
ATOM     68  C   UNL     1       4.644  13.860 -16.770  1.00  0.00     0.020 A 
ATOM     69  C   UNL     1       5.725  15.104 -14.984  1.00  0.00     0.020 A 
ATOM     70  C   UNL     1       5.802  14.287 -16.113  1.00  0.00     0.054 A 
BRANCH  70  71
ATOM     71  S   UNL     1       7.413  13.781 -16.775  1.00  0.00     0.124 S 
ATOM     72  O   UNL     1       7.476  12.378 -16.372  1.00  0.00    -0.237 OA
ATOM     73  O   UNL     1       7.260  14.015 -18.209  1.00  0.00    -0.237 OA
ATOM     74  O   UNL     1       8.359  14.666 -16.100  1.00  0.00    -0.744 OA
ENDBRANCH  70  71
ENDBRANCH  51  65
BRANCH  52  75
ATOM     75  C   UNL     1      -5.571  17.381 -11.142  1.00  0.00    -0.014 A 
ATOM     76  C   UNL     1      -6.661  17.755 -11.947  1.00  0.00     0.010 A 
ATOM     77  C   UNL     1      -5.734  17.341  -9.745  1.00  0.00     0.010 A 
ATOM     78  C   UNL     1      -7.885  18.101 -11.367  1.00  0.00     0.020 A 
ATOM     79  C   UNL     1      -6.964  17.662  -9.163  1.00  0.00     0.020 A 
ATOM     80  C   UNL     1      -8.029  18.051  -9.978  1.00  0.00     0.054 A 
BRANCH  80  81
ATOM     81  S   UNL     1      -9.641  18.454  -9.249  1.00  0.00     0.124 S 
ATOM     82  O   UNL     1      -9.671  19.908  -9.366  1.00  0.00    -0.237 OA
ATOM     83  O   UNL     1     -10.569  17.729 -10.115  1.00  0.00    -0.237 OA
ATOM     84  O   UNL     1      -9.538  17.934  -7.888  1.00  0.00    -0.744 OA
ENDBRANCH  80  81
ENDBRANCH  52  75
BRANCH  64  85
ATOM     85  C   UNL     1      -0.670  21.027 -14.518  1.00  0.00    -0.014 A 
ATOM     86  C   UNL     1      -0.396  22.049 -13.592  1.00  0.00     0.010 A 
ATOM     87  C   UNL     1      -0.786  21.348 -15.883  1.00  0.00     0.010 A 
ATOM     88  C   UNL     1      -0.258  23.371 -14.024  1.00  0.00     0.020 A 
ATOM     89  C   UNL     1      -0.624  22.664 -16.320  1.00  0.00     0.020 A 
ATOM     90  C   UNL     1      -0.370  23.670 -15.386  1.00  0.00     0.054 A 
BRANCH  90  91
ATOM     91  S   UNL     1      -0.123  25.383 -15.929  1.00  0.00     0.124 S 
ATOM     92  O   UNL     1      -1.372  26.016 -15.516  1.00  0.00    -0.237 OA
ATOM     93  O   UNL     1       1.065  25.789 -15.182  1.00  0.00    -0.237 OA
ATOM     94  O   UNL     1       0.068  25.264 -17.373  1.00  0.00    -0.744 OA
ENDBRANCH  90  91
ENDBRANCH  64  85
ENDBRANCH  38  39
ENDBRANCH  30  33
ENDBRANCH  28  29
ENDBRANCH  27  28
ENDBRANCH   1  27
TORSDOF 18
