REMARK SMILES Cc1cccc(C(=O)NCCCCNC(=O)c2ccc(-c3c4nc(c(-c5ccc(S(=O)(=O)[O-])cc5)c5ccc([nH]5)c(-c5ccc(S(=O)(=O)[O-])cc5)c5nc(c(-c6ccc(S(=O)(=O)[O-])cc6)c6ccc3[nH]6)C=C5)C=C4)cc2)c1OC[C@@H]1C[C@H]2CC[C@@H]1C2
REMARK SMILES IDX 11 1 10 2 9 3 7 4 8 5 6 7 1 8 2 9 3 10 77 11 4 12 5 13 78 14
REMARK SMILES IDX 79 15 80 16 81 17 85 18 82 19 84 20 86 21 83 22 12 23 13 24
REMARK SMILES IDX 14 25 15 26 16 28 17 29 18 30 76 31 19 32 75 33 20 34 21 35
REMARK SMILES IDX 22 36 69 37 23 38 74 39 68 40 70 41 24 42 73 43 67 44 66 45
REMARK SMILES IDX 25 47 55 48 36 49 54 50 37 51 40 52 53 53 71 54 38 55 39 56
REMARK SMILES IDX 52 58 72 59 41 60 26 61 27 62 35 63 28 64 34 65 29 66 30 67
REMARK SMILES IDX 31 68 32 69 33 70 56 71 57 72 65 73 58 74 64 75 59 76 60 77
REMARK SMILES IDX 61 78 62 79 63 80 42 81 43 82 51 83 44 84 50 85 45 86 46 87
REMARK SMILES IDX 47 88 48 89 49 90
REMARK H PARENT 9 6 14 27 70 46 40 57
REMARK Flexibility Score: inf
ROOT
ATOM      1  C   UNL     1       1.054   4.544  -1.211  1.00  0.00     0.023 C 
ENDROOT
BRANCH   1   2
ATOM      2  C   UNL     1       0.360   4.155   0.107  1.00  0.00     0.116 C 
BRANCH   2   3
ATOM      3  N   UNL     1      -0.965   3.624  -0.123  1.00  0.00    -0.352 N 
ATOM      4  C   UNL     1      -1.492   2.368  -0.181  1.00  0.00     0.255 C 
ATOM      5  O   UNL     1      -2.717   2.333  -0.371  1.00  0.00    -0.269 OA
ATOM      6  H   UNL     1      -1.638   4.328  -0.270  1.00  0.00     0.163 HD
BRANCH   4   7
ATOM      7  C   UNL     1      -0.784   1.051  -0.033  1.00  0.00     0.082 A 
ATOM      8  C   UNL     1       1.934  -1.191  -1.523  1.00  0.00     0.048 C 
ATOM      9  C   UNL     1       0.805  -0.690  -0.662  1.00  0.00    -0.008 A 
ATOM     10  C   UNL     1      -0.083  -1.672  -0.188  1.00  0.00     0.007 A 
ATOM     11  C   UNL     1       0.505   0.682  -0.479  1.00  0.00     0.134 A 
ATOM     12  C   UNL     1      -1.291  -1.315   0.388  1.00  0.00     0.001 A 
ATOM     13  C   UNL     1      -1.647   0.028   0.431  1.00  0.00     0.018 A 
BRANCH  11  14
ATOM     14  O   UNL     1       1.392   1.636  -0.864  1.00  0.00    -0.492 OA
BRANCH  14  15
ATOM     15  C   UNL     1       2.708   1.701  -0.260  1.00  0.00     0.233 C 
BRANCH  15  16
ATOM     16  C   UNL     1       2.888   1.243   1.208  1.00  0.00     0.030 C 
ATOM     17  C   UNL     1       3.769   2.230   2.031  1.00  0.00     0.011 C 
ATOM     18  C   UNL     1       3.743  -0.053   1.304  1.00  0.00    -0.004 C 
ATOM     19  C   UNL     1       4.957   1.369   2.499  1.00  0.00    -0.010 C 
ATOM     20  C   UNL     1       3.639  -0.623   2.729  1.00  0.00     0.004 C 
ATOM     21  C   UNL     1       5.180   0.474   1.288  1.00  0.00     0.007 C 
ATOM     22  C   UNL     1       4.472   0.364   3.555  1.00  0.00     0.004 C 
ENDBRANCH  15  16
ENDBRANCH  14  15
ENDBRANCH  11  14
ENDBRANCH   4   7
ENDBRANCH   2   3
ENDBRANCH   1   2
BRANCH   1  23
ATOM     23  C   UNL     1       0.426   5.725  -1.954  1.00  0.00     0.023 C 
BRANCH  23  24
ATOM     24  C   UNL     1       0.648   7.046  -1.239  1.00  0.00     0.116 C 
BRANCH  24  25
ATOM     25  N   UNL     1       1.744   7.847  -1.756  1.00  0.00    -0.352 N 
ATOM     26  C   UNL     1       2.112   9.116  -1.337  1.00  0.00     0.251 C 
ATOM     27  H   UNL     1       2.280   7.447  -2.478  1.00  0.00     0.163 HD
ATOM     28  O   UNL     1       2.763   9.876  -2.034  1.00  0.00    -0.269 OA
BRANCH  26  29
ATOM     29  C   UNL     1       1.818   9.453   0.075  1.00  0.00     0.039 A 
ATOM     30  C   UNL     1       2.917   9.554   0.938  1.00  0.00     0.014 A 
ATOM     31  C   UNL     1       0.524   9.342   0.574  1.00  0.00     0.014 A 
ATOM     32  C   UNL     1       2.736   9.351   2.303  1.00  0.00     0.010 A 
ATOM     33  C   UNL     1       0.363   9.031   1.910  1.00  0.00     0.010 A 
ATOM     34  C   UNL     1       1.474   8.985   2.766  1.00  0.00    -0.014 A 
BRANCH  34  35
ATOM     35  C   UNL     1       1.212   8.477   4.109  1.00  0.00     0.031 A 
ATOM     36  C   UNL     1       0.464   9.322   5.073  1.00  0.00     0.074 A 
ATOM     37  C   UNL     1       1.556   7.212   4.444  1.00  0.00     0.049 A 
ATOM     38  N   UNL     1       0.411   9.109   6.346  1.00  0.00    -0.248 NA
ATOM     39  C   UNL     1      -0.222  10.552   4.675  1.00  0.00     0.031 C 
ATOM     40  C   UNL     1       1.056   6.445   5.584  1.00  0.00     0.029 A 
ATOM     41  N   UNL     1       2.603   6.428   3.951  1.00  0.00    -0.354 N 
ATOM     42  C   UNL     1      -0.537   9.957   6.868  1.00  0.00     0.074 A 
ATOM     43  C   UNL     1      -0.800  10.915   5.824  1.00  0.00     0.031 C 
ATOM     44  C   UNL     1       1.952   5.495   5.891  1.00  0.00     0.029 A 
ATOM     45  C   UNL     1       3.118   5.726   5.055  1.00  0.00     0.049 A 
ATOM     46  H   UNL     1       2.917   6.377   3.019  1.00  0.00     0.167 HD
ATOM     47  C   UNL     1      -1.101   9.670   8.074  1.00  0.00     0.031 A 
ATOM     48  C   UNL     1       4.398   5.841   5.517  1.00  0.00     0.031 A 
ATOM     49  C   UNL     1      -0.349   8.635   8.780  1.00  0.00     0.049 A 
ATOM     50  C   UNL     1       4.475   6.268   6.966  1.00  0.00     0.074 A 
ATOM     51  C   UNL     1      -0.571   7.292   9.026  1.00  0.00     0.029 A 
ATOM     52  N   UNL     1       0.976   8.887   9.124  1.00  0.00    -0.354 N 
ATOM     53  N   UNL     1       3.470   6.764   7.634  1.00  0.00    -0.248 NA
ATOM     54  C   UNL     1       5.699   6.219   7.761  1.00  0.00     0.031 C 
ATOM     55  C   UNL     1       0.671   6.712   9.409  1.00  0.00     0.029 A 
ATOM     56  C   UNL     1       1.628   7.713   9.444  1.00  0.00     0.049 A 
ATOM     57  H   UNL     1       1.391   9.780   9.137  1.00  0.00     0.167 HD
ATOM     58  C   UNL     1       3.883   7.125   8.888  1.00  0.00     0.074 A 
ATOM     59  C   UNL     1       5.283   6.741   8.929  1.00  0.00     0.031 C 
ATOM     60  C   UNL     1       3.047   7.732   9.780  1.00  0.00     0.031 A 
BRANCH  47  61
ATOM     61  C   UNL     1      -2.464  10.167   8.522  1.00  0.00    -0.014 A 
ATOM     62  C   UNL     1      -3.024   9.682   9.724  1.00  0.00     0.010 A 
ATOM     63  C   UNL     1      -3.300  11.002   7.753  1.00  0.00     0.010 A 
ATOM     64  C   UNL     1      -4.345   9.982  10.108  1.00  0.00     0.020 A 
ATOM     65  C   UNL     1      -4.608  11.332   8.135  1.00  0.00     0.020 A 
ATOM     66  C   UNL     1      -5.133  10.801   9.302  1.00  0.00     0.054 A 
BRANCH  66  67
ATOM     67  S   UNL     1      -6.853  11.139   9.763  1.00  0.00     0.124 S 
ATOM     68  O   UNL     1      -7.471   9.820   9.646  1.00  0.00    -0.237 OA
ATOM     69  O   UNL     1      -6.724  11.659  11.120  1.00  0.00    -0.237 OA
ATOM     70  O   UNL     1      -7.293  12.116   8.767  1.00  0.00    -0.744 OA
ENDBRANCH  66  67
ENDBRANCH  47  61
BRANCH  48  71
ATOM     71  C   UNL     1       5.406   6.180   4.477  1.00  0.00    -0.014 A 
ATOM     72  C   UNL     1       5.738   5.166   3.557  1.00  0.00     0.010 A 
ATOM     73  C   UNL     1       5.645   7.521   4.132  1.00  0.00     0.010 A 
ATOM     74  C   UNL     1       6.097   5.489   2.248  1.00  0.00     0.020 A 
ATOM     75  C   UNL     1       6.012   7.848   2.819  1.00  0.00     0.020 A 
ATOM     76  C   UNL     1       6.151   6.830   1.871  1.00  0.00     0.054 A 
BRANCH  76  77
ATOM     77  S   UNL     1       6.179   7.213   0.093  1.00  0.00     0.124 S 
ATOM     78  O   UNL     1       7.324   6.441  -0.378  1.00  0.00    -0.237 OA
ATOM     79  O   UNL     1       4.869   6.719  -0.332  1.00  0.00    -0.237 OA
ATOM     80  O   UNL     1       6.340   8.663   0.067  1.00  0.00    -0.744 OA
ENDBRANCH  76  77
ENDBRANCH  48  71
BRANCH  60  81
ATOM     81  C   UNL     1       3.472   8.359  11.087  1.00  0.00    -0.014 A 
ATOM     82  C   UNL     1       4.766   8.840  11.343  1.00  0.00     0.010 A 
ATOM     83  C   UNL     1       2.491   8.601  12.079  1.00  0.00     0.010 A 
ATOM     84  C   UNL     1       5.087   9.463  12.558  1.00  0.00     0.020 A 
ATOM     85  C   UNL     1       2.789   9.262  13.274  1.00  0.00     0.020 A 
ATOM     86  C   UNL     1       4.097   9.664  13.519  1.00  0.00     0.054 A 
BRANCH  86  87
ATOM     87  S   UNL     1       4.503  10.519  15.063  1.00  0.00     0.124 S 
ATOM     88  O   UNL     1       4.888   9.408  15.929  1.00  0.00    -0.237 OA
ATOM     89  O   UNL     1       5.591  11.412  14.671  1.00  0.00    -0.237 OA
ATOM     90  O   UNL     1       3.255  11.190  15.418  1.00  0.00    -0.744 OA
ENDBRANCH  86  87
ENDBRANCH  60  81
ENDBRANCH  34  35
ENDBRANCH  26  29
ENDBRANCH  24  25
ENDBRANCH  23  24
ENDBRANCH   1  23
TORSDOF 17
