REMARK SMILES O=C(NCCCCNC(=O)c1cc(-c2ccsc2)nc2ccccc12)c1ccc(-c2c3nc(c(-c4ccc(S(=O)(=O)[O-])cc4)c4ccc([nH]4)c(-c4ccc(S(=O)(=O)[O-])cc4)c4nc(c(-c5ccc(S(=O)(=O)[O-])cc5)c5ccc2[nH]5)C=C4)C=C3)cc1
REMARK SMILES IDX 4 1 3 2 1 3 2 4 26 6 27 7 85 8 28 9 84 10 29 11 30 12 31 13
REMARK SMILES IDX 78 14 32 15 83 16 77 17 79 18 33 19 82 20 76 21 75 22 34 24
REMARK SMILES IDX 64 25 45 26 63 27 46 28 49 29 62 30 80 31 47 32 48 33 61 35
REMARK SMILES IDX 81 36 50 37 35 38 36 39 44 40 37 41 43 42 38 43 39 44 40 45
REMARK SMILES IDX 41 46 42 47 65 48 66 49 74 50 67 51 73 52 68 53 69 54 70 55
REMARK SMILES IDX 71 56 72 57 51 58 52 59 60 60 53 61 59 62 54 63 55 64 56 65
REMARK SMILES IDX 57 66 58 67 5 68 6 69 7 70 8 71 9 72 10 74 11 75 12 76 25 77
REMARK SMILES IDX 13 78 20 79 24 80 19 81 21 82 23 83 22 84 14 85 15 86 18 87
REMARK SMILES IDX 16 88 17 89
REMARK H PARENT 3 5 79 23 49 34 8 73
REMARK Flexibility Score: inf
ROOT
ATOM      1  C   UNL     1       4.705   1.124  -0.867  1.00  0.00     0.116 C 
ENDROOT
BRANCH   1   2
ATOM      2  N   UNL     1       3.277   1.034  -0.604  1.00  0.00    -0.352 N 
ATOM      3  O   UNL     1       1.316   0.038  -0.105  1.00  0.00    -0.269 OA
ATOM      4  C   UNL     1       2.542  -0.031  -0.135  1.00  0.00     0.251 C 
ATOM      5  H   UNL     1       2.762   1.853  -0.787  1.00  0.00     0.163 HD
BRANCH   4   6
ATOM      6  C   UNL     1       3.228  -1.267   0.304  1.00  0.00     0.039 A 
ATOM      7  C   UNL     1       4.353  -1.202   1.129  1.00  0.00     0.014 A 
ATOM      8  C   UNL     1       2.742  -2.508  -0.118  1.00  0.00     0.014 A 
ATOM      9  C   UNL     1       5.078  -2.357   1.400  1.00  0.00     0.010 A 
ATOM     10  C   UNL     1       3.424  -3.679   0.230  1.00  0.00     0.010 A 
ATOM     11  C   UNL     1       4.617  -3.611   0.964  1.00  0.00    -0.014 A 
BRANCH  11  12
ATOM     12  C   UNL     1       5.372  -4.830   1.352  1.00  0.00     0.031 A 
ATOM     13  C   UNL     1       6.061  -5.689   0.325  1.00  0.00     0.074 A 
ATOM     14  C   UNL     1       5.476  -5.130   2.662  1.00  0.00     0.049 A 
ATOM     15  N   UNL     1       6.808  -6.748   0.512  1.00  0.00    -0.248 NA
ATOM     16  C   UNL     1       5.890  -5.320  -1.089  1.00  0.00     0.031 C 
ATOM     17  C   UNL     1       4.841  -4.379   3.750  1.00  0.00     0.029 A 
ATOM     18  N   UNL     1       6.172  -6.119   3.306  1.00  0.00    -0.354 N 
ATOM     19  C   UNL     1       7.183  -7.181  -0.755  1.00  0.00     0.074 A 
ATOM     20  C   UNL     1       6.565  -6.282  -1.706  1.00  0.00     0.031 C 
ATOM     21  C   UNL     1       5.224  -4.898   4.926  1.00  0.00     0.029 A 
ATOM     22  C   UNL     1       6.080  -6.051   4.676  1.00  0.00     0.049 A 
ATOM     23  H   UNL     1       6.687  -6.812   2.833  1.00  0.00     0.167 HD
ATOM     24  C   UNL     1       7.974  -8.229  -1.092  1.00  0.00     0.031 A 
ATOM     25  C   UNL     1       6.616  -6.833   5.632  1.00  0.00     0.031 A 
ATOM     26  C   UNL     1       8.592  -9.120  -0.143  1.00  0.00     0.049 A 
ATOM     27  C   UNL     1       7.480  -7.991   5.227  1.00  0.00     0.074 A 
ATOM     28  C   UNL     1       9.426 -10.197  -0.391  1.00  0.00     0.029 A 
ATOM     29  N   UNL     1       8.445  -9.039   1.233  1.00  0.00    -0.354 N 
ATOM     30  N   UNL     1       7.837  -8.367   4.023  1.00  0.00    -0.248 NA
ATOM     31  C   UNL     1       8.010  -8.829   6.310  1.00  0.00     0.031 C 
ATOM     32  C   UNL     1       9.751 -10.792   0.834  1.00  0.00     0.029 A 
ATOM     33  C   UNL     1       9.156 -10.057   1.847  1.00  0.00     0.049 A 
ATOM     34  H   UNL     1       7.913  -8.358   1.705  1.00  0.00     0.167 HD
ATOM     35  C   UNL     1       8.637  -9.488   4.203  1.00  0.00     0.074 A 
ATOM     36  C   UNL     1       8.737  -9.707   5.632  1.00  0.00     0.031 C 
ATOM     37  C   UNL     1       9.231 -10.270   3.269  1.00  0.00     0.031 A 
BRANCH  24  38
ATOM     38  C   UNL     1       8.210  -8.487  -2.557  1.00  0.00    -0.014 A 
ATOM     39  C   UNL     1       9.079  -7.674  -3.306  1.00  0.00     0.010 A 
ATOM     40  C   UNL     1       7.613  -9.602  -3.175  1.00  0.00     0.010 A 
ATOM     41  C   UNL     1       9.326  -7.956  -4.654  1.00  0.00     0.020 A 
ATOM     42  C   UNL     1       7.873  -9.898  -4.517  1.00  0.00     0.020 A 
ATOM     43  C   UNL     1       8.720  -9.065  -5.251  1.00  0.00     0.054 A 
BRANCH  43  44
ATOM     44  S   UNL     1       9.087  -9.429  -6.991  1.00  0.00     0.124 S 
ATOM     45  O   UNL     1       8.309  -8.405  -7.683  1.00  0.00    -0.237 OA
ATOM     46  O   UNL     1      10.537  -9.265  -7.055  1.00  0.00    -0.237 OA
ATOM     47  O   UNL     1       8.610 -10.799  -7.167  1.00  0.00    -0.744 OA
ENDBRANCH  43  44
ENDBRANCH  24  38
BRANCH  25  48
ATOM     48  C   UNL     1       6.329  -6.551   7.062  1.00  0.00    -0.014 A 
ATOM     49  C   UNL     1       7.330  -6.050   7.911  1.00  0.00     0.010 A 
ATOM     50  C   UNL     1       5.036  -6.765   7.576  1.00  0.00     0.010 A 
ATOM     51  C   UNL     1       7.048  -5.782   9.254  1.00  0.00     0.020 A 
ATOM     52  C   UNL     1       4.744  -6.472   8.909  1.00  0.00     0.020 A 
ATOM     53  C   UNL     1       5.756  -5.996   9.744  1.00  0.00     0.054 A 
BRANCH  53  54
ATOM     54  S   UNL     1       5.391  -5.593  11.475  1.00  0.00     0.124 S 
ATOM     55  O   UNL     1       5.925  -6.757  12.174  1.00  0.00    -0.237 OA
ATOM     56  O   UNL     1       6.122  -4.343  11.674  1.00  0.00    -0.237 OA
ATOM     57  O   UNL     1       3.936  -5.462  11.492  1.00  0.00    -0.744 OA
ENDBRANCH  53  54
ENDBRANCH  25  48
BRANCH  37  58
ATOM     58  C   UNL     1      10.044 -11.430   3.773  1.00  0.00    -0.014 A 
ATOM     59  C   UNL     1       9.419 -12.576   4.295  1.00  0.00     0.010 A 
ATOM     60  C   UNL     1      11.448 -11.378   3.709  1.00  0.00     0.010 A 
ATOM     61  C   UNL     1      10.186 -13.635   4.785  1.00  0.00     0.020 A 
ATOM     62  C   UNL     1      12.217 -12.446   4.177  1.00  0.00     0.020 A 
ATOM     63  C   UNL     1      11.581 -13.561   4.729  1.00  0.00     0.054 A 
BRANCH  63  64
ATOM     64  S   UNL     1      12.559 -14.955   5.353  1.00  0.00     0.124 S 
ATOM     65  O   UNL     1      12.491 -14.749   6.797  1.00  0.00    -0.237 OA
ATOM     66  O   UNL     1      11.828 -16.115   4.848  1.00  0.00    -0.237 OA
ATOM     67  O   UNL     1      13.876 -14.748   4.754  1.00  0.00    -0.744 OA
ENDBRANCH  63  64
ENDBRANCH  37  58
ENDBRANCH  11  12
ENDBRANCH   4   6
ENDBRANCH   1   2
BRANCH   1  68
ATOM     68  C   UNL     1       5.024   1.464  -2.318  1.00  0.00     0.023 C 
BRANCH  68  69
ATOM     69  C   UNL     1       4.548   2.834  -2.795  1.00  0.00     0.023 C 
BRANCH  69  70
ATOM     70  C   UNL     1       4.915   4.009  -1.895  1.00  0.00     0.116 C 
BRANCH  70  71
ATOM     71  N   UNL     1       6.345   4.128  -1.649  1.00  0.00    -0.352 N 
ATOM     72  C   UNL     1       7.102   5.270  -1.566  1.00  0.00     0.252 C 
ATOM     73  H   UNL     1       6.831   3.281  -1.525  1.00  0.00     0.163 HD
ATOM     74  O   UNL     1       8.308   5.218  -1.351  1.00  0.00    -0.269 OA
BRANCH  72  75
ATOM     75  C   UNL     1       6.466   6.575  -1.812  1.00  0.00     0.051 A 
ATOM     76  C   UNL     1       6.885   7.245  -2.958  1.00  0.00     0.043 A 
ATOM     77  C   UNL     1       5.458   7.101  -0.976  1.00  0.00     0.013 A 
ATOM     78  C   UNL     1       6.242   8.423  -3.275  1.00  0.00     0.073 A 
ATOM     79  C   UNL     1       4.838   8.280  -1.427  1.00  0.00     0.072 A 
ATOM     80  C   UNL     1       5.038   6.518   0.246  1.00  0.00     0.011 A 
ATOM     81  N   UNL     1       5.226   8.931  -2.538  1.00  0.00    -0.248 NA
ATOM     82  C   UNL     1       3.768   8.783  -0.698  1.00  0.00     0.029 A 
ATOM     83  C   UNL     1       3.967   7.047   0.961  1.00  0.00     0.001 A 
ATOM     84  C   UNL     1       3.318   8.174   0.477  1.00  0.00     0.002 A 
BRANCH  78  85
ATOM     85  C   UNL     1       6.640   9.215  -4.428  1.00  0.00     0.011 A 
ATOM     86  C   UNL     1       6.886  10.625  -4.445  1.00  0.00     0.022 A 
ATOM     87  C   UNL     1       6.819   8.662  -5.683  1.00  0.00     0.075 A 
ATOM     88  C   UNL     1       7.272  11.079  -5.686  1.00  0.00     0.065 A 
ATOM     89  S   UNL     1       7.307   9.822  -6.845  1.00  0.00    -0.152 S 
ENDBRANCH  78  85
ENDBRANCH  72  75
ENDBRANCH  70  71
ENDBRANCH  69  70
ENDBRANCH  68  69
ENDBRANCH   1  68
TORSDOF 15
