REMARK SMILES C=CC[N@H+](CC(=O)NCCCCNC(=O)c1ccc(-c2c3nc(c(-c4ccc(S(=O)(=O)[O-])cc4)c4ccc([nH]4)c(-c4ccc(S(=O)(=O)[O-])cc4)c4nc(c(-c5ccc(S(=O)(=O)[O-])cc5)c5ccc2[nH]5)C=C4)C=C3)cc1)[C@@H]1CC[N@@H+](C(C)C)C1
REMARK SMILES IDX 10 1 9 2 8 3 6 4 7 5 5 7 4 8 3 10 2 11 1 12 76 13 77 14
REMARK SMILES IDX 83 15 78 16 79 17 80 19 81 20 82 21 11 22 12 23 13 24 14 25
REMARK SMILES IDX 15 27 16 28 17 29 75 30 18 31 74 32 19 33 20 34 21 35 68 36
REMARK SMILES IDX 22 37 73 38 67 39 69 40 23 41 72 42 66 43 65 44 24 46 54 47
REMARK SMILES IDX 35 48 53 49 36 50 39 51 52 52 70 53 37 54 38 55 51 57 71 58
REMARK SMILES IDX 40 59 25 60 26 61 34 62 27 63 33 64 28 65 29 66 30 67 31 68
REMARK SMILES IDX 32 69 55 70 56 71 64 72 57 73 63 74 58 75 59 76 60 77 61 78
REMARK SMILES IDX 62 79 41 80 42 81 50 82 43 83 49 84 44 85 45 86 46 87 47 88
REMARK SMILES IDX 48 89
REMARK H PARENT 8 6 4 9 79 18 13 26 69 45 39 56
REMARK Flexibility Score: inf
ROOT
ATOM      1  C   UNL     1      -1.754   1.151  -0.789  1.00  0.00     0.023 C 
ENDROOT
BRANCH   1   2
ATOM      2  C   UNL     1      -3.013   1.310   0.064  1.00  0.00     0.116 C 
BRANCH   2   3
ATOM      3  N   UNL     1      -3.929   0.194  -0.038  1.00  0.00    -0.351 N 
ATOM      4  C   UNL     1      -4.035  -0.886   0.799  1.00  0.00     0.275 C 
ATOM      5  O   UNL     1      -4.994  -1.649   0.657  1.00  0.00    -0.269 OA
ATOM      6  H   UNL     1      -4.552   0.213  -0.800  1.00  0.00     0.163 HD
BRANCH   4   7
ATOM      7  C   UNL     1      -2.992  -1.115   1.902  1.00  0.00     0.364 C 
BRANCH   7   8
ATOM      8  N   UNL     1      -1.626  -1.265   1.359  1.00  0.00    -0.317 N 
ATOM      9  H   UNL     1      -1.638  -0.819   0.442  1.00  0.00     0.349 HD
BRANCH   8  10
ATOM     10  C   UNL     1      -0.651  -0.483   2.116  1.00  0.00     0.291 C 
BRANCH  10  11
ATOM     11  C   UNL     1       0.799  -0.840   1.976  1.00  0.00     0.025 C 
ATOM     12  C   UNL     1       1.602  -0.420   0.989  1.00  0.00     0.010 C 
ENDBRANCH  10  11
ENDBRANCH   8  10
BRANCH   8  13
ATOM     13  C   UNL     1      -1.236  -2.595   0.857  1.00  0.00     0.246 C 
ATOM     14  C   UNL     1      -2.180  -3.214  -0.180  1.00  0.00     0.132 C 
ATOM     15  C   UNL     1      -1.016  -3.731   1.886  1.00  0.00     0.328 C 
ATOM     16  C   UNL     1      -2.757  -4.441   0.499  1.00  0.00     0.269 C 
ATOM     17  N   UNL     1      -1.699  -4.940   1.388  1.00  0.00    -0.328 N 
ATOM     18  H   UNL     1      -2.058  -5.461   2.188  1.00  0.00     0.348 HD
BRANCH  17  19
ATOM     19  C   UNL     1      -0.870  -5.999   0.780  1.00  0.00     0.177 C 
ATOM     20  C   UNL     1      -0.092  -5.643  -0.491  1.00  0.00     0.075 C 
ATOM     21  C   UNL     1       0.084  -6.623   1.807  1.00  0.00     0.075 C 
ENDBRANCH  17  19
ENDBRANCH   8  13
ENDBRANCH   7   8
ENDBRANCH   4   7
ENDBRANCH   2   3
ENDBRANCH   1   2
BRANCH   1  22
ATOM     22  C   UNL     1      -1.911   1.490  -2.266  1.00  0.00     0.023 C 
BRANCH  22  23
ATOM     23  C   UNL     1      -2.417   2.892  -2.566  1.00  0.00     0.116 C 
BRANCH  23  24
ATOM     24  N   UNL     1      -1.660   3.958  -1.921  1.00  0.00    -0.352 N 
ATOM     25  C   UNL     1      -1.363   5.209  -2.415  1.00  0.00     0.251 C 
ATOM     26  H   UNL     1      -1.317   3.758  -1.021  1.00  0.00     0.163 HD
ATOM     27  O   UNL     1      -0.662   5.984  -1.772  1.00  0.00    -0.269 OA
BRANCH  25  28
ATOM     28  C   UNL     1      -1.860   5.580  -3.756  1.00  0.00     0.039 A 
ATOM     29  C   UNL     1      -0.957   6.056  -4.708  1.00  0.00     0.014 A 
ATOM     30  C   UNL     1      -3.195   5.351  -4.096  1.00  0.00     0.014 A 
ATOM     31  C   UNL     1      -1.374   6.210  -6.031  1.00  0.00     0.010 A 
ATOM     32  C   UNL     1      -3.580   5.411  -5.429  1.00  0.00     0.010 A 
ATOM     33  C   UNL     1      -2.674   5.838  -6.412  1.00  0.00    -0.014 A 
BRANCH  33  34
ATOM     34  C   UNL     1      -3.117   5.885  -7.828  1.00  0.00     0.031 A 
ATOM     35  C   UNL     1      -4.274   6.765  -8.218  1.00  0.00     0.074 A 
ATOM     36  C   UNL     1      -2.542   5.076  -8.742  1.00  0.00     0.049 A 
ATOM     37  N   UNL     1      -4.880   6.869  -9.372  1.00  0.00    -0.248 NA
ATOM     38  C   UNL     1      -4.852   7.609  -7.158  1.00  0.00     0.031 C 
ATOM     39  C   UNL     1      -1.448   4.137  -8.480  1.00  0.00     0.029 A 
ATOM     40  N   UNL     1      -2.805   4.910 -10.079  1.00  0.00    -0.354 N 
ATOM     41  C   UNL     1      -5.923   7.764  -9.169  1.00  0.00     0.074 A 
ATOM     42  C   UNL     1      -5.905   8.128  -7.770  1.00  0.00     0.031 C 
ATOM     43  C   UNL     1      -1.111   3.522  -9.626  1.00  0.00     0.029 A 
ATOM     44  C   UNL     1      -1.988   3.991 -10.694  1.00  0.00     0.049 A 
ATOM     45  H   UNL     1      -3.513   5.404 -10.553  1.00  0.00     0.167 HD
ATOM     46  C   UNL     1      -6.803   8.261 -10.070  1.00  0.00     0.031 A 
ATOM     47  C   UNL     1      -1.950   3.572 -11.974  1.00  0.00     0.031 A 
ATOM     48  C   UNL     1      -6.798   7.925 -11.467  1.00  0.00     0.049 A 
ATOM     49  C   UNL     1      -2.921   4.155 -12.963  1.00  0.00     0.074 A 
ATOM     50  C   UNL     1      -7.606   8.419 -12.476  1.00  0.00     0.029 A 
ATOM     51  N   UNL     1      -5.934   7.013 -12.055  1.00  0.00    -0.354 N 
ATOM     52  N   UNL     1      -3.866   5.043 -12.763  1.00  0.00    -0.248 NA
ATOM     53  C   UNL     1      -2.815   3.688 -14.352  1.00  0.00     0.031 C 
ATOM     54  C   UNL     1      -7.251   7.780 -13.669  1.00  0.00     0.029 A 
ATOM     55  C   UNL     1      -6.194   6.923 -13.411  1.00  0.00     0.049 A 
ATOM     56  H   UNL     1      -5.238   6.506 -11.578  1.00  0.00     0.167 HD
ATOM     57  C   UNL     1      -4.449   5.261 -14.006  1.00  0.00     0.074 A 
ATOM     58  C   UNL     1      -3.743   4.421 -14.953  1.00  0.00     0.031 C 
ATOM     59  C   UNL     1      -5.476   6.083 -14.335  1.00  0.00     0.031 A 
BRANCH  46  60
ATOM     60  C   UNL     1      -7.837   9.230  -9.560  1.00  0.00    -0.014 A 
ATOM     61  C   UNL     1      -7.471  10.521  -9.136  1.00  0.00     0.010 A 
ATOM     62  C   UNL     1      -9.190   8.850  -9.507  1.00  0.00     0.010 A 
ATOM     63  C   UNL     1      -8.429  11.394  -8.616  1.00  0.00     0.020 A 
ATOM     64  C   UNL     1     -10.156   9.732  -9.015  1.00  0.00     0.020 A 
ATOM     65  C   UNL     1      -9.765  10.990  -8.551  1.00  0.00     0.054 A 
BRANCH  65  66
ATOM     66  S   UNL     1     -10.990  12.143  -7.873  1.00  0.00     0.124 S 
ATOM     67  O   UNL     1     -10.722  12.055  -6.439  1.00  0.00    -0.237 OA
ATOM     68  O   UNL     1     -10.624  13.409  -8.503  1.00  0.00    -0.237 OA
ATOM     69  O   UNL     1     -12.268  11.583  -8.304  1.00  0.00    -0.744 OA
ENDBRANCH  65  66
ENDBRANCH  46  60
BRANCH  47  70
ATOM     70  C   UNL     1      -0.932   2.575 -12.402  1.00  0.00    -0.014 A 
ATOM     71  C   UNL     1       0.160   2.973 -13.194  1.00  0.00     0.010 A 
ATOM     72  C   UNL     1      -1.036   1.228 -12.010  1.00  0.00     0.010 A 
ATOM     73  C   UNL     1       1.120   2.042 -13.600  1.00  0.00     0.020 A 
ATOM     74  C   UNL     1      -0.065   0.298 -12.395  1.00  0.00     0.020 A 
ATOM     75  C   UNL     1       1.002   0.709 -13.197  1.00  0.00     0.054 A 
BRANCH  75  76
ATOM     76  S   UNL     1       2.289  -0.472 -13.689  1.00  0.00     0.124 S 
ATOM     77  O   UNL     1       1.968  -0.702 -15.094  1.00  0.00    -0.237 OA
ATOM     78  O   UNL     1       3.519   0.275 -13.434  1.00  0.00    -0.237 OA
ATOM     79  O   UNL     1       2.066  -1.609 -12.799  1.00  0.00    -0.744 OA
ENDBRANCH  75  76
ENDBRANCH  47  70
BRANCH  59  80
ATOM     80  C   UNL     1      -5.876   6.143 -15.783  1.00  0.00    -0.014 A 
ATOM     81  C   UNL     1      -6.594   5.094 -16.382  1.00  0.00     0.010 A 
ATOM     82  C   UNL     1      -5.583   7.295 -16.536  1.00  0.00     0.010 A 
ATOM     83  C   UNL     1      -6.991   5.185 -17.719  1.00  0.00     0.020 A 
ATOM     84  C   UNL     1      -5.999   7.400 -17.864  1.00  0.00     0.020 A 
ATOM     85  C   UNL     1      -6.690   6.338 -18.451  1.00  0.00     0.054 A 
BRANCH  85  86
ATOM     86  S   UNL     1      -7.261   6.457 -20.169  1.00  0.00     0.124 S 
ATOM     87  O   UNL     1      -6.318   5.585 -20.863  1.00  0.00    -0.237 OA
ATOM     88  O   UNL     1      -8.633   5.960 -20.087  1.00  0.00    -0.237 OA
ATOM     89  O   UNL     1      -7.139   7.880 -20.476  1.00  0.00    -0.744 OA
ENDBRANCH  85  86
ENDBRANCH  59  80
ENDBRANCH  33  34
ENDBRANCH  25  28
ENDBRANCH  23  24
ENDBRANCH  22  23
ENDBRANCH   1  22
TORSDOF 19
