REMARK SMILES COc1cc([C@@H]2CC[NH2+][C@@H]2C(=O)NCCCCNC(=O)c2ccc(-c3c4nc(c(-c5ccc(S(=O)(=O)[O-])cc5)c5ccc([nH]5)c(-c5ccc(S(=O)(=O)[O-])cc5)c5nc(c(-c6ccc(S(=O)(=O)[O-])cc6)c6ccc3[nH]6)C=C5)C=C4)cc2)cc(OC)c1OC
REMARK SMILES IDX 16 1 15 2 14 3 13 4 11 5 12 6 10 8 6 9 7 10 8 11 9 12 5 15
REMARK SMILES IDX 3 16 4 17 85 18 82 19 81 20 2 21 1 22 86 23 87 24 83 25
REMARK SMILES IDX 84 26 17 27 18 28 19 29 20 31 21 32 22 33 80 34 23 35 79 36
REMARK SMILES IDX 24 37 25 38 26 39 73 40 27 41 78 42 72 43 74 44 28 45 77 46
REMARK SMILES IDX 71 47 70 48 29 50 59 51 40 52 58 53 41 54 44 55 57 56 75 57
REMARK SMILES IDX 42 58 43 59 56 61 76 62 45 63 30 64 31 65 39 66 32 67 38 68
REMARK SMILES IDX 33 69 34 70 35 71 36 72 37 73 60 74 61 75 69 76 62 77 68 78
REMARK SMILES IDX 63 79 64 80 65 81 66 82 67 83 46 84 47 85 55 86 48 87 54 88
REMARK SMILES IDX 49 89 50 90 51 91 52 92 53 93
REMARK H PARENT 13 7 9 13 9 14 18 30 74 49 44 60
REMARK Flexibility Score: inf
ROOT
ATOM      1  C   UNL     1       2.440   9.423  -3.593  1.00  0.00     0.023 C 
ENDROOT
BRANCH   1   2
ATOM      2  C   UNL     1       1.840   8.588  -4.728  1.00  0.00     0.023 C 
BRANCH   2   3
ATOM      3  C   UNL     1       2.034   7.080  -4.574  1.00  0.00     0.116 C 
BRANCH   3   4
ATOM      4  N   UNL     1       1.224   6.550  -3.494  1.00  0.00    -0.351 N 
ATOM      5  C   UNL     1       0.144   5.727  -3.464  1.00  0.00     0.278 C 
ATOM      6  O   UNL     1      -0.377   5.556  -2.351  1.00  0.00    -0.268 OA
ATOM      7  H   UNL     1       1.516   6.846  -2.602  1.00  0.00     0.163 HD
BRANCH   5   8
ATOM      8  C   UNL     1      -0.448   4.983  -4.670  1.00  0.00     0.280 C 
ATOM      9  C   UNL     1      -0.282   3.445  -4.649  1.00  0.00     0.093 C 
ATOM     10  C   UNL     1       0.068   3.105  -6.104  1.00  0.00     0.076 C 
ATOM     11  C   UNL     1       0.704   4.369  -6.640  1.00  0.00     0.262 C 
ATOM     12  N   UNL     1      -0.056   5.461  -6.024  1.00  0.00    -0.335 N 
ATOM     13  H   UNL     1      -0.886   5.671  -6.579  1.00  0.00     0.346 HD
ATOM     14  H   UNL     1       0.499   6.315  -5.971  1.00  0.00     0.346 HD
BRANCH   9  15
ATOM     15  C   UNL     1       0.706   2.797  -3.694  1.00  0.00    -0.031 A 
ATOM     16  C   UNL     1       1.196   1.023  -2.077  1.00  0.00     0.164 A 
ATOM     17  C   UNL     1       0.288   1.737  -2.882  1.00  0.00     0.055 A 
ATOM     18  C   UNL     1       2.571   1.318  -2.107  1.00  0.00     0.203 A 
ATOM     19  C   UNL     1       2.988   2.425  -2.874  1.00  0.00     0.164 A 
ATOM     20  C   UNL     1       2.058   3.144  -3.648  1.00  0.00     0.055 A 
BRANCH  16  21
ATOM     21  O   UNL     1       0.691  -0.055  -1.393  1.00  0.00    -0.493 OA
ATOM     22  C   UNL     1      -0.074   0.350  -0.255  1.00  0.00     0.278 C 
ENDBRANCH  16  21
BRANCH  18  23
ATOM     23  O   UNL     1       3.562   0.576  -1.527  1.00  0.00    -0.490 OA
ATOM     24  C   UNL     1       3.262  -0.352  -0.501  1.00  0.00     0.278 C 
ENDBRANCH  18  23
BRANCH  19  25
ATOM     25  O   UNL     1       4.259   2.926  -3.030  1.00  0.00    -0.493 OA
ATOM     26  C   UNL     1       5.288   2.475  -2.162  1.00  0.00     0.278 C 
ENDBRANCH  19  25
ENDBRANCH   9  15
ENDBRANCH   5   8
ENDBRANCH   3   4
ENDBRANCH   2   3
ENDBRANCH   1   2
BRANCH   1  27
ATOM     27  C   UNL     1       3.933   9.217  -3.350  1.00  0.00     0.116 C 
BRANCH  27  28
ATOM     28  N   UNL     1       4.746   9.482  -4.527  1.00  0.00    -0.352 N 
ATOM     29  C   UNL     1       5.945  10.152  -4.619  1.00  0.00     0.251 C 
ATOM     30  H   UNL     1       4.389   9.134  -5.376  1.00  0.00     0.163 HD
ATOM     31  O   UNL     1       6.437  10.390  -5.712  1.00  0.00    -0.269 OA
BRANCH  29  32
ATOM     32  C   UNL     1       6.613  10.614  -3.381  1.00  0.00     0.039 A 
ATOM     33  C   UNL     1       7.056  11.937  -3.309  1.00  0.00     0.014 A 
ATOM     34  C   UNL     1       6.778   9.754  -2.292  1.00  0.00     0.014 A 
ATOM     35  C   UNL     1       7.598  12.419  -2.115  1.00  0.00     0.010 A 
ATOM     36  C   UNL     1       7.259  10.254  -1.085  1.00  0.00     0.010 A 
ATOM     37  C   UNL     1       7.669  11.592  -0.982  1.00  0.00    -0.014 A 
BRANCH  37  38
ATOM     38  C   UNL     1       8.153  12.113   0.323  1.00  0.00     0.031 A 
ATOM     39  C   UNL     1       9.405  11.553   0.944  1.00  0.00     0.074 A 
ATOM     40  C   UNL     1       7.422  13.033   0.985  1.00  0.00     0.049 A 
ATOM     41  N   UNL     1       9.942  11.829   2.104  1.00  0.00    -0.248 NA
ATOM     42  C   UNL     1      10.137  10.534   0.173  1.00  0.00     0.031 C 
ATOM     43  C   UNL     1       6.162  13.617   0.515  1.00  0.00     0.029 A 
ATOM     44  N   UNL     1       7.626  13.631   2.205  1.00  0.00    -0.354 N 
ATOM     45  C   UNL     1      11.052  11.000   2.216  1.00  0.00     0.074 A 
ATOM     46  C   UNL     1      11.096  10.188   1.020  1.00  0.00     0.031 C 
ATOM     47  C   UNL     1       5.718  14.500   1.425  1.00  0.00     0.029 A 
ATOM     48  C   UNL     1       6.636  14.519   2.559  1.00  0.00     0.049 A 
ATOM     49  H   UNL     1       8.408  13.443   2.772  1.00  0.00     0.167 HD
ATOM     50  C   UNL     1      11.959  10.931   3.219  1.00  0.00     0.031 A 
ATOM     51  C   UNL     1       6.478  15.257   3.676  1.00  0.00     0.031 A 
ATOM     52  C   UNL     1      11.934  11.766   4.389  1.00  0.00     0.049 A 
ATOM     53  C   UNL     1       7.515  15.172   4.764  1.00  0.00     0.074 A 
ATOM     54  C   UNL     1      12.863  11.833   5.414  1.00  0.00     0.029 A 
ATOM     55  N   UNL     1      10.936  12.677   4.693  1.00  0.00    -0.354 N 
ATOM     56  N   UNL     1       8.608  14.448   4.806  1.00  0.00    -0.248 NA
ATOM     57  C   UNL     1       7.303  16.012   5.952  1.00  0.00     0.031 C 
ATOM     58  C   UNL     1      12.400  12.749   6.363  1.00  0.00     0.029 A 
ATOM     59  C   UNL     1      11.211  13.291   5.903  1.00  0.00     0.049 A 
ATOM     60  H   UNL     1      10.148  12.861   4.132  1.00  0.00     0.167 HD
ATOM     61  C   UNL     1       9.229  14.772   6.007  1.00  0.00     0.074 A 
ATOM     62  C   UNL     1       8.399  15.765   6.655  1.00  0.00     0.031 C 
ATOM     63  C   UNL     1      10.384  14.290   6.528  1.00  0.00     0.031 A 
BRANCH  50  64
ATOM     64  C   UNL     1      13.065   9.917   3.104  1.00  0.00    -0.014 A 
ATOM     65  C   UNL     1      14.127  10.099   2.202  1.00  0.00     0.010 A 
ATOM     66  C   UNL     1      13.089   8.815   3.979  1.00  0.00     0.010 A 
ATOM     67  C   UNL     1      15.186   9.187   2.163  1.00  0.00     0.020 A 
ATOM     68  C   UNL     1      14.158   7.914   3.960  1.00  0.00     0.020 A 
ATOM     69  C   UNL     1      15.196   8.102   3.046  1.00  0.00     0.054 A 
BRANCH  69  70
ATOM     70  S   UNL     1      16.616   6.973   3.020  1.00  0.00     0.124 S 
ATOM     71  O   UNL     1      16.389   6.234   1.780  1.00  0.00    -0.237 OA
ATOM     72  O   UNL     1      17.753   7.889   3.006  1.00  0.00    -0.237 OA
ATOM     73  O   UNL     1      16.462   6.194   4.245  1.00  0.00    -0.744 OA
ENDBRANCH  69  70
ENDBRANCH  50  64
BRANCH  51  74
ATOM     74  C   UNL     1       5.293  16.145   3.834  1.00  0.00    -0.014 A 
ATOM     75  C   UNL     1       5.442  17.543   3.830  1.00  0.00     0.010 A 
ATOM     76  C   UNL     1       4.013  15.595   4.029  1.00  0.00     0.010 A 
ATOM     77  C   UNL     1       4.342  18.374   4.062  1.00  0.00     0.020 A 
ATOM     78  C   UNL     1       2.905  16.424   4.231  1.00  0.00     0.020 A 
ATOM     79  C   UNL     1       3.081  17.808   4.269  1.00  0.00     0.054 A 
BRANCH  79  80
ATOM     80  S   UNL     1       1.665  18.902   4.565  1.00  0.00     0.124 S 
ATOM     81  O   UNL     1       1.876  19.300   5.953  1.00  0.00    -0.237 OA
ATOM     82  O   UNL     1       1.859  19.952   3.568  1.00  0.00    -0.237 OA
ATOM     83  O   UNL     1       0.511  18.037   4.329  1.00  0.00    -0.744 OA
ENDBRANCH  79  80
ENDBRANCH  51  74
BRANCH  63  84
ATOM     84  C   UNL     1      10.847  14.861   7.840  1.00  0.00    -0.014 A 
ATOM     85  C   UNL     1      10.202  14.535   9.046  1.00  0.00     0.010 A 
ATOM     86  C   UNL     1      11.982  15.692   7.870  1.00  0.00     0.010 A 
ATOM     87  C   UNL     1      10.667  15.056  10.257  1.00  0.00     0.020 A 
ATOM     88  C   UNL     1      12.466  16.192   9.081  1.00  0.00     0.020 A 
ATOM     89  C   UNL     1      11.796  15.882  10.266  1.00  0.00     0.054 A 
BRANCH  89  90
ATOM     90  S   UNL     1      12.408  16.508  11.855  1.00  0.00     0.124 S 
ATOM     91  O   UNL     1      11.436  17.552  12.164  1.00  0.00    -0.237 OA
ATOM     92  O   UNL     1      12.353  15.325  12.710  1.00  0.00    -0.237 OA
ATOM     93  O   UNL     1      13.755  16.982  11.544  1.00  0.00    -0.744 OA
ENDBRANCH  89  90
ENDBRANCH  63  84
ENDBRANCH  37  38
ENDBRANCH  29  32
ENDBRANCH  27  28
ENDBRANCH   1  27
TORSDOF 18
