REMARK SMILES Cc1cc2cc(-c3ccc([C@@H](C)C(=O)NCCCCNC(=O)c4ccc(-c5c6nc(c(-c7ccc(S(=O)(=O)[O-])cc7)c7ccc([nH]7)c(-c7ccc(S(=O)(=O)[O-])cc7)c7nc(c(-c8ccc(S(=O)(=O)[O-])cc8)c8ccc5[nH]8)C=C7)C=C6)cc4)cc3)ccc2[nH]1
REMARK SMILES IDX 18 1 17 2 16 3 15 4 13 5 14 6 11 8 12 9 10 10 7 11 8 12
REMARK SMILES IDX 84 13 9 14 83 15 6 16 1 17 2 18 3 19 88 20 4 21 87 22 5 24
REMARK SMILES IDX 86 25 85 26 19 27 20 28 21 29 22 31 23 32 24 33 82 34 25 35
REMARK SMILES IDX 81 36 26 37 27 38 28 39 75 40 29 41 80 42 74 43 76 44 30 45
REMARK SMILES IDX 79 46 73 47 72 48 31 50 61 51 42 52 60 53 43 54 46 55 59 56
REMARK SMILES IDX 77 57 44 58 45 59 58 61 78 62 47 63 32 64 33 65 41 66 34 67
REMARK SMILES IDX 40 68 35 69 36 70 37 71 38 72 39 73 62 74 63 75 71 76 64 77
REMARK SMILES IDX 70 78 65 79 66 80 67 81 68 82 69 83 48 84 49 85 57 86 50 87
REMARK SMILES IDX 56 88 51 89 52 90 53 91 54 92 55 93
REMARK H PARENT 15 7 88 23 20 30 76 49 46 60
REMARK Flexibility Score: inf
ROOT
ATOM      1  C   UNL     1       5.833  -3.006  -4.869  1.00  0.00     0.023 C 
ENDROOT
BRANCH   1   2
ATOM      2  C   UNL     1       5.674  -3.498  -3.432  1.00  0.00     0.023 C 
BRANCH   2   3
ATOM      3  C   UNL     1       6.790  -4.415  -2.932  1.00  0.00     0.116 C 
BRANCH   3   4
ATOM      4  N   UNL     1       7.911  -3.675  -2.388  1.00  0.00    -0.356 N 
ATOM      5  C   UNL     1       8.224  -3.320  -1.111  1.00  0.00     0.227 C 
ATOM      6  O   UNL     1       9.244  -2.635  -0.960  1.00  0.00    -0.274 OA
ATOM      7  H   UNL     1       8.564  -3.376  -3.062  1.00  0.00     0.163 HD
BRANCH   5   8
ATOM      8  C   UNL     1       7.400  -3.735   0.118  1.00  0.00     0.105 C 
ATOM      9  C   UNL     1       7.362  -5.246   0.354  1.00  0.00     0.023 C 
BRANCH   8  10
ATOM     10  C   UNL     1       6.071  -3.006   0.229  1.00  0.00    -0.036 A 
ATOM     11  C   UNL     1       3.645  -1.491   0.308  1.00  0.00    -0.018 A 
ATOM     12  C   UNL     1       3.697  -2.785  -0.238  1.00  0.00     0.009 A 
ATOM     13  C   UNL     1       4.839  -0.985   0.843  1.00  0.00     0.009 A 
ATOM     14  C   UNL     1       4.873  -3.541  -0.244  1.00  0.00     0.005 A 
ATOM     15  C   UNL     1       6.033  -1.719   0.787  1.00  0.00     0.005 A 
BRANCH  11  16
ATOM     16  C   UNL     1       2.384  -0.711   0.288  1.00  0.00    -0.018 A 
ATOM     17  C   UNL     1      -3.662   0.286  -0.030  1.00  0.00     0.064 C 
ATOM     18  C   UNL     1      -2.195   0.109   0.080  1.00  0.00     0.013 A 
ATOM     19  C   UNL     1      -1.440  -1.032   0.253  1.00  0.00     0.031 A 
ATOM     20  N   UNL     1      -1.322   1.169   0.006  1.00  0.00    -0.359 N 
ATOM     21  C   UNL     1      -0.071  -0.652   0.264  1.00  0.00     0.000 A 
ATOM     22  C   UNL     1      -0.021   0.728   0.103  1.00  0.00     0.046 A 
ATOM     23  H   UNL     1      -1.590   2.110  -0.102  1.00  0.00     0.166 HD
ATOM     24  C   UNL     1       1.137  -1.365   0.379  1.00  0.00     0.019 A 
ATOM     25  C   UNL     1       1.185   1.431   0.051  1.00  0.00     0.027 A 
ATOM     26  C   UNL     1       2.374   0.687   0.133  1.00  0.00     0.011 A 
ENDBRANCH  11  16
ENDBRANCH   8  10
ENDBRANCH   5   8
ENDBRANCH   3   4
ENDBRANCH   2   3
ENDBRANCH   1   2
BRANCH   1  27
ATOM     27  C   UNL     1       5.831  -4.093  -5.938  1.00  0.00     0.116 C 
BRANCH  27  28
ATOM     28  N   UNL     1       4.633  -4.922  -5.944  1.00  0.00    -0.352 N 
ATOM     29  C   UNL     1       4.038  -5.543  -7.021  1.00  0.00     0.251 C 
ATOM     30  H   UNL     1       4.194  -5.053  -5.073  1.00  0.00     0.163 HD
ATOM     31  O   UNL     1       2.988  -6.157  -6.886  1.00  0.00    -0.269 OA
BRANCH  29  32
ATOM     32  C   UNL     1       4.665  -5.410  -8.354  1.00  0.00     0.039 A 
ATOM     33  C   UNL     1       3.898  -4.927  -9.416  1.00  0.00     0.014 A 
ATOM     34  C   UNL     1       6.024  -5.683  -8.526  1.00  0.00     0.014 A 
ATOM     35  C   UNL     1       4.518  -4.630 -10.632  1.00  0.00     0.010 A 
ATOM     36  C   UNL     1       6.651  -5.322  -9.713  1.00  0.00     0.010 A 
ATOM     37  C   UNL     1       5.907  -4.780 -10.774  1.00  0.00    -0.014 A 
BRANCH  37  38
ATOM     38  C   UNL     1       6.614  -4.366 -12.011  1.00  0.00     0.031 A 
ATOM     39  C   UNL     1       7.330  -5.393 -12.844  1.00  0.00     0.074 A 
ATOM     40  C   UNL     1       6.694  -3.059 -12.332  1.00  0.00     0.049 A 
ATOM     41  N   UNL     1       8.106  -5.218 -13.882  1.00  0.00    -0.248 NA
ATOM     42  C   UNL     1       7.176  -6.799 -12.436  1.00  0.00     0.031 C 
ATOM     43  C   UNL     1       6.080  -1.959 -11.583  1.00  0.00     0.029 A 
ATOM     44  N   UNL     1       7.340  -2.431 -13.368  1.00  0.00    -0.354 N 
ATOM     45  C   UNL     1       8.555  -6.485 -14.233  1.00  0.00     0.074 A 
ATOM     46  C   UNL     1       7.996  -7.414 -13.275  1.00  0.00     0.031 C 
ATOM     47  C   UNL     1       6.362  -0.797 -12.195  1.00  0.00     0.029 A 
ATOM     48  C   UNL     1       7.208  -1.062 -13.354  1.00  0.00     0.049 A 
ATOM     49  H   UNL     1       7.851  -2.916 -14.056  1.00  0.00     0.167 HD
ATOM     50  C   UNL     1       9.347  -6.847 -15.271  1.00  0.00     0.031 A 
ATOM     51  C   UNL     1       7.718  -0.125 -14.176  1.00  0.00     0.031 A 
ATOM     52  C   UNL     1       9.881  -5.926 -16.237  1.00  0.00     0.049 A 
ATOM     53  C   UNL     1       8.583  -0.551 -15.330  1.00  0.00     0.074 A 
ATOM     54  C   UNL     1      10.652  -6.200 -17.353  1.00  0.00     0.029 A 
ATOM     55  N   UNL     1       9.693  -4.553 -16.206  1.00  0.00    -0.354 N 
ATOM     56  N   UNL     1       8.959  -1.760 -15.672  1.00  0.00    -0.248 NA
ATOM     57  C   UNL     1       9.086   0.511 -16.212  1.00  0.00     0.031 C 
ATOM     58  C   UNL     1      10.955  -4.988 -17.982  1.00  0.00     0.029 A 
ATOM     59  C   UNL     1      10.340  -3.964 -17.279  1.00  0.00     0.049 A 
ATOM     60  H   UNL     1       9.177  -4.068 -15.523  1.00  0.00     0.167 HD
ATOM     61  C   UNL     1       9.722  -1.606 -16.824  1.00  0.00     0.074 A 
ATOM     62  C   UNL     1       9.747  -0.189 -17.125  1.00  0.00     0.031 C 
ATOM     63  C   UNL     1      10.345  -2.553 -17.567  1.00  0.00     0.031 A 
BRANCH  50  64
ATOM     64  C   UNL     1       9.680  -8.308 -15.406  1.00  0.00    -0.014 A 
ATOM     65  C   UNL     1       8.705  -9.235 -15.817  1.00  0.00     0.010 A 
ATOM     66  C   UNL     1      10.984  -8.758 -15.135  1.00  0.00     0.010 A 
ATOM     67  C   UNL     1       9.015 -10.594 -15.905  1.00  0.00     0.020 A 
ATOM     68  C   UNL     1      11.305 -10.114 -15.248  1.00  0.00     0.020 A 
ATOM     69  C   UNL     1      10.311 -11.026 -15.612  1.00  0.00     0.054 A 
BRANCH  69  70
ATOM     70  S   UNL     1      10.690 -12.795 -15.738  1.00  0.00     0.124 S 
ATOM     71  O   UNL     1      10.090 -13.318 -14.513  1.00  0.00    -0.237 OA
ATOM     72  O   UNL     1      10.022 -13.181 -16.978  1.00  0.00    -0.237 OA
ATOM     73  O   UNL     1      12.150 -12.834 -15.783  1.00  0.00    -0.744 OA
ENDBRANCH  69  70
ENDBRANCH  50  64
BRANCH  51  74
ATOM     74  C   UNL     1       7.407   1.312 -13.950  1.00  0.00    -0.014 A 
ATOM     75  C   UNL     1       6.512   1.984 -14.800  1.00  0.00     0.010 A 
ATOM     76  C   UNL     1       7.992   2.011 -12.879  1.00  0.00     0.010 A 
ATOM     77  C   UNL     1       6.220   3.336 -14.595  1.00  0.00     0.020 A 
ATOM     78  C   UNL     1       7.685   3.357 -12.658  1.00  0.00     0.020 A 
ATOM     79  C   UNL     1       6.809   4.014 -13.525  1.00  0.00     0.054 A 
BRANCH  79  80
ATOM     80  S   UNL     1       6.377   5.755 -13.245  1.00  0.00     0.124 S 
ATOM     81  O   UNL     1       7.171   6.432 -14.264  1.00  0.00    -0.237 OA
ATOM     82  O   UNL     1       4.932   5.763 -13.459  1.00  0.00    -0.237 OA
ATOM     83  O   UNL     1       6.794   5.990 -11.864  1.00  0.00    -0.744 OA
ENDBRANCH  79  80
ENDBRANCH  51  74
BRANCH  63  84
ATOM     84  C   UNL     1      11.076  -2.098 -18.799  1.00  0.00    -0.014 A 
ATOM     85  C   UNL     1      12.328  -1.467 -18.708  1.00  0.00     0.010 A 
ATOM     86  C   UNL     1      10.531  -2.370 -20.067  1.00  0.00     0.010 A 
ATOM     87  C   UNL     1      13.018  -1.100 -19.866  1.00  0.00     0.020 A 
ATOM     88  C   UNL     1      11.227  -2.024 -21.227  1.00  0.00     0.020 A 
ATOM     89  C   UNL     1      12.463  -1.381 -21.119  1.00  0.00     0.054 A 
BRANCH  89  90
ATOM     90  S   UNL     1      13.403  -0.954 -22.610  1.00  0.00     0.124 S 
ATOM     91  O   UNL     1      13.190   0.488 -22.701  1.00  0.00    -0.237 OA
ATOM     92  O   UNL     1      14.761  -1.368 -22.265  1.00  0.00    -0.237 OA
ATOM     93  O   UNL     1      12.766  -1.746 -23.660  1.00  0.00    -0.744 OA
ENDBRANCH  89  90
ENDBRANCH  63  84
ENDBRANCH  37  38
ENDBRANCH  29  32
ENDBRANCH  27  28
ENDBRANCH   1  27
TORSDOF 16
