REMARK SMILES [NH3+][C@@H](CNc1ccc(C(=O)NCCCCNC(=O)c2ccc(-c3c4nc(c(-c5ccc(S(=O)(=O)[O-])cc5)c5ccc([nH]5)c(-c5ccc(S(=O)(=O)[O-])cc5)c5nc(c(-c6ccc(S(=O)(=O)[O-])cc6)c6ccc3[nH]6)C=C5)C=C4)cc2)c(F)c1F)c1ccccc1
REMARK SMILES IDX 13 1 12 2 11 3 9 4 10 5 8 7 5 8 6 9 81 10 7 11 79 12 82 13
REMARK SMILES IDX 80 14 4 15 3 17 2 18 1 19 83 23 84 24 88 25 85 26 87 27
REMARK SMILES IDX 86 28 14 29 15 30 16 31 17 32 18 34 19 35 20 36 78 37 21 38
REMARK SMILES IDX 77 39 22 40 23 41 24 42 71 43 25 44 76 45 70 46 72 47 26 48
REMARK SMILES IDX 75 49 69 50 68 51 27 53 57 54 38 55 56 56 39 57 42 58 55 59
REMARK SMILES IDX 73 60 40 61 41 62 54 64 74 65 43 66 28 67 29 68 37 69 30 70
REMARK SMILES IDX 36 71 31 72 32 73 33 74 34 75 35 76 58 77 59 78 67 79 60 80
REMARK SMILES IDX 66 81 61 82 62 83 63 84 64 85 65 86 44 87 45 88 53 89 46 90
REMARK SMILES IDX 52 91 47 92 48 93 49 94 50 95 51 96
REMARK H PARENT 11 6 4 16 1 20 1 21 1 22 16 33 72 52 42 63
REMARK Flexibility Score: inf
ROOT
ATOM      1  C   UNL     1      -6.176  -1.858   5.255  1.00  0.00     0.023 C 
ENDROOT
BRANCH   1   2
ATOM      2  C   UNL     1      -4.803  -1.476   5.798  1.00  0.00     0.116 C 
BRANCH   2   3
ATOM      3  N   UNL     1      -4.166  -2.527   6.571  1.00  0.00    -0.352 N 
ATOM      4  C   UNL     1      -2.870  -2.980   6.560  1.00  0.00     0.254 C 
ATOM      5  O   UNL     1      -2.556  -3.905   7.309  1.00  0.00    -0.269 OA
ATOM      6  H   UNL     1      -4.760  -2.990   7.206  1.00  0.00     0.163 HD
BRANCH   4   7
ATOM      7  C   UNL     1      -1.853  -2.460   5.622  1.00  0.00     0.078 A 
ATOM      8  C   UNL     1       0.092  -1.640   3.733  1.00  0.00     0.074 A 
ATOM      9  C   UNL     1      -0.030  -2.984   4.095  1.00  0.00     0.030 A 
ATOM     10  C   UNL     1      -0.727  -0.714   4.400  1.00  0.00     0.182 A 
ATOM     11  C   UNL     1      -0.993  -3.393   5.026  1.00  0.00     0.019 A 
ATOM     12  C   UNL     1      -1.669  -1.111   5.348  1.00  0.00     0.173 A 
ATOM     13  F   UNL     1      -0.611   0.592   4.098  1.00  0.00    -0.201 F 
ATOM     14  F   UNL     1      -2.380  -0.167   5.983  1.00  0.00    -0.203 F 
BRANCH   8  15
ATOM     15  N   UNL     1       0.982  -1.203   2.755  1.00  0.00    -0.376 N 
ATOM     16  H   UNL     1       1.466  -0.356   2.891  1.00  0.00     0.160 HD
BRANCH  15  17
ATOM     17  C   UNL     1       1.216  -1.972   1.531  1.00  0.00     0.183 C 
BRANCH  17  18
ATOM     18  C   UNL     1       0.549  -1.317   0.276  1.00  0.00     0.231 C 
BRANCH  18  19
ATOM     19  N   UNL     1       1.115   0.022   0.009  1.00  0.00    -0.350 N 
ATOM     20  H   UNL     1       2.132  -0.039  -0.026  1.00  0.00     0.345 HD
ATOM     21  H   UNL     1       0.839   0.663   0.753  1.00  0.00     0.345 HD
ATOM     22  H   UNL     1       0.764   0.368  -0.885  1.00  0.00     0.345 HD
ENDBRANCH  18  19
BRANCH  18  23
ATOM     23  C   UNL     1      -0.976  -1.329   0.347  1.00  0.00     0.011 A 
ATOM     24  C   UNL     1      -1.750  -0.157   0.395  1.00  0.00     0.010 A 
ATOM     25  C   UNL     1      -1.655  -2.562   0.370  1.00  0.00     0.010 A 
ATOM     26  C   UNL     1      -3.144  -0.215   0.485  1.00  0.00     0.001 A 
ATOM     27  C   UNL     1      -3.048  -2.620   0.463  1.00  0.00     0.001 A 
ATOM     28  C   UNL     1      -3.792  -1.446   0.524  1.00  0.00     0.000 A 
ENDBRANCH  18  23
ENDBRANCH  17  18
ENDBRANCH  15  17
ENDBRANCH   8  15
ENDBRANCH   4   7
ENDBRANCH   2   3
ENDBRANCH   1   2
BRANCH   1  29
ATOM     29  C   UNL     1      -7.248  -2.197   6.288  1.00  0.00     0.023 C 
BRANCH  29  30
ATOM     30  C   UNL     1      -7.453  -1.184   7.409  1.00  0.00     0.116 C 
BRANCH  30  31
ATOM     31  N   UNL     1      -7.753   0.159   6.938  1.00  0.00    -0.352 N 
ATOM     32  C   UNL     1      -8.774   1.014   7.291  1.00  0.00     0.251 C 
ATOM     33  H   UNL     1      -7.130   0.511   6.261  1.00  0.00     0.163 HD
ATOM     34  O   UNL     1      -8.899   2.082   6.706  1.00  0.00    -0.269 OA
BRANCH  32  35
ATOM     35  C   UNL     1      -9.740   0.629   8.346  1.00  0.00     0.039 A 
ATOM     36  C   UNL     1     -11.102   0.854   8.125  1.00  0.00     0.014 A 
ATOM     37  C   UNL     1      -9.317   0.044   9.541  1.00  0.00     0.014 A 
ATOM     38  C   UNL     1     -12.041   0.423   9.067  1.00  0.00     0.010 A 
ATOM     39  C   UNL     1     -10.255  -0.462  10.437  1.00  0.00     0.010 A 
ATOM     40  C   UNL     1     -11.628  -0.273  10.214  1.00  0.00    -0.014 A 
BRANCH  40  41
ATOM     41  C   UNL     1     -12.613  -0.809  11.190  1.00  0.00     0.031 A 
ATOM     42  C   UNL     1     -12.614  -0.320  12.614  1.00  0.00     0.074 A 
ATOM     43  C   UNL     1     -13.454  -1.795  10.820  1.00  0.00     0.049 A 
ATOM     44  N   UNL     1     -13.362  -0.703  13.618  1.00  0.00    -0.248 NA
ATOM     45  C   UNL     1     -11.620   0.707  12.963  1.00  0.00     0.031 C 
ATOM     46  C   UNL     1     -13.507  -2.409   9.491  1.00  0.00     0.029 A 
ATOM     47  N   UNL     1     -14.417  -2.465  11.533  1.00  0.00    -0.354 N 
ATOM     48  C   UNL     1     -12.908   0.012  14.720  1.00  0.00     0.074 A 
ATOM     49  C   UNL     1     -11.788   0.810  14.272  1.00  0.00     0.031 C 
ATOM     50  C   UNL     1     -14.466  -3.350   9.480  1.00  0.00     0.029 A 
ATOM     51  C   UNL     1     -15.073  -3.429  10.805  1.00  0.00     0.049 A 
ATOM     52  H   UNL     1     -14.618  -2.274  12.478  1.00  0.00     0.167 HD
ATOM     53  C   UNL     1     -13.389   0.020  15.988  1.00  0.00     0.031 A 
ATOM     54  C   UNL     1     -16.052  -4.284  11.159  1.00  0.00     0.031 A 
ATOM     55  C   UNL     1     -14.513  -0.763  16.427  1.00  0.00     0.049 A 
ATOM     56  C   UNL     1     -16.607  -4.229  12.555  1.00  0.00     0.074 A 
ATOM     57  C   UNL     1     -15.130  -0.765  17.665  1.00  0.00     0.029 A 
ATOM     58  N   UNL     1     -15.184  -1.690  15.643  1.00  0.00    -0.354 N 
ATOM     59  N   UNL     1     -16.227  -3.477  13.561  1.00  0.00    -0.248 NA
ATOM     60  C   UNL     1     -17.734  -5.120  12.857  1.00  0.00     0.031 C 
ATOM     61  C   UNL     1     -16.145  -1.730  17.645  1.00  0.00     0.029 A 
ATOM     62  C   UNL     1     -16.196  -2.288  16.377  1.00  0.00     0.049 A 
ATOM     63  H   UNL     1     -14.973  -1.894  14.703  1.00  0.00     0.167 HD
ATOM     64  C   UNL     1     -17.083  -3.789  14.611  1.00  0.00     0.074 A 
ATOM     65  C   UNL     1     -18.008  -4.787  14.112  1.00  0.00     0.031 C 
ATOM     66  C   UNL     1     -17.102  -3.290  15.873  1.00  0.00     0.031 A 
BRANCH  53  67
ATOM     67  C   UNL     1     -12.676   0.896  16.987  1.00  0.00    -0.014 A 
ATOM     68  C   UNL     1     -12.711   2.300  16.885  1.00  0.00     0.010 A 
ATOM     69  C   UNL     1     -11.947   0.306  18.035  1.00  0.00     0.010 A 
ATOM     70  C   UNL     1     -11.970   3.092  17.765  1.00  0.00     0.020 A 
ATOM     71  C   UNL     1     -11.230   1.097  18.938  1.00  0.00     0.020 A 
ATOM     72  C   UNL     1     -11.223   2.485  18.779  1.00  0.00     0.054 A 
BRANCH  72  73
ATOM     73  S   UNL     1     -10.246   3.533  19.890  1.00  0.00     0.124 S 
ATOM     74  O   UNL     1      -9.116   3.899  19.040  1.00  0.00    -0.237 OA
ATOM     75  O   UNL     1     -11.171   4.619  20.206  1.00  0.00    -0.237 OA
ATOM     76  O   UNL     1      -9.925   2.649  21.008  1.00  0.00    -0.744 OA
ENDBRANCH  72  73
ENDBRANCH  53  67
BRANCH  54  77
ATOM     77  C   UNL     1     -16.586  -5.238  10.149  1.00  0.00    -0.014 A 
ATOM     78  C   UNL     1     -17.837  -5.017   9.549  1.00  0.00     0.010 A 
ATOM     79  C   UNL     1     -15.809  -6.334   9.730  1.00  0.00     0.010 A 
ATOM     80  C   UNL     1     -18.300  -5.871   8.543  1.00  0.00     0.020 A 
ATOM     81  C   UNL     1     -16.259  -7.176   8.708  1.00  0.00     0.020 A 
ATOM     82  C   UNL     1     -17.503  -6.939   8.122  1.00  0.00     0.054 A 
BRANCH  82  83
ATOM     83  S   UNL     1     -18.078  -7.969   6.742  1.00  0.00     0.124 S 
ATOM     84  O   UNL     1     -19.129  -8.762   7.372  1.00  0.00    -0.237 OA
ATOM     85  O   UNL     1     -18.530  -6.974   5.773  1.00  0.00    -0.237 OA
ATOM     86  O   UNL     1     -16.882  -8.711   6.348  1.00  0.00    -0.744 OA
ENDBRANCH  82  83
ENDBRANCH  54  77
BRANCH  66  87
ATOM     87  C   UNL     1     -18.174  -3.797  16.801  1.00  0.00    -0.014 A 
ATOM     88  C   UNL     1     -18.123  -5.097  17.334  1.00  0.00     0.010 A 
ATOM     89  C   UNL     1     -19.220  -2.938  17.186  1.00  0.00     0.010 A 
ATOM     90  C   UNL     1     -19.119  -5.541  18.209  1.00  0.00     0.020 A 
ATOM     91  C   UNL     1     -20.202  -3.369  18.081  1.00  0.00     0.020 A 
ATOM     92  C   UNL     1     -20.154  -4.674  18.575  1.00  0.00     0.054 A 
BRANCH  92  93
ATOM     93  S   UNL     1     -21.416  -5.260  19.739  1.00  0.00     0.124 S 
ATOM     94  O   UNL     1     -22.218  -6.144  18.898  1.00  0.00    -0.237 OA
ATOM     95  O   UNL     1     -20.620  -5.923  20.769  1.00  0.00    -0.237 OA
ATOM     96  O   UNL     1     -22.084  -4.034  20.171  1.00  0.00    -0.744 OA
ENDBRANCH  92  93
ENDBRANCH  66  87
ENDBRANCH  40  41
ENDBRANCH  32  35
ENDBRANCH  30  31
ENDBRANCH  29  30
ENDBRANCH   1  29
TORSDOF 19
