REMARK SMILES CN(C)c1ccc(CCC(=O)N2C[C@@H](C(=O)NCCCCNC(=O)c3ccc(-c4c5nc(c(-c6ccc(S(=O)(=O)[O-])cc6)c6ccc([nH]6)c(-c6ccc(S(=O)(=O)[O-])cc6)c6nc(c(-c7ccc(S(=O)(=O)[O-])cc7)c7ccc4[nH]7)C=C6)C=C5)cc3)[C@H](c3cccnc3)C2)cc1
REMARK SMILES IDX 18 1 17 2 15 3 16 4 14 6 12 7 13 8 92 9 85 10 10 11 11 12
REMARK SMILES IDX 9 13 8 14 7 15 4 16 5 17 94 18 6 19 93 20 2 21 1 22 3 23
REMARK SMILES IDX 86 24 87 25 91 26 88 27 90 28 89 29 19 30 20 31 21 32 22 33
REMARK SMILES IDX 23 34 24 36 25 37 26 38 84 39 27 40 83 41 28 42 29 43 30 44
REMARK SMILES IDX 77 45 31 46 82 47 76 48 78 49 32 50 81 51 75 52 74 53 33 55
REMARK SMILES IDX 63 56 44 57 62 58 45 59 48 60 61 61 79 62 46 63 47 64 60 66
REMARK SMILES IDX 80 67 49 68 34 69 35 70 43 71 36 72 42 73 37 74 38 75 39 76
REMARK SMILES IDX 40 77 41 78 64 79 65 80 73 81 66 82 72 83 67 84 68 85 69 86
REMARK SMILES IDX 70 87 71 88 50 89 51 90 59 91 52 92 58 93 53 94 54 95 55 96
REMARK SMILES IDX 56 97 57 98
REMARK H PARENT 17 5 22 35 78 54 48 65
REMARK Flexibility Score: inf
ROOT
ATOM      1  C   UNL     1      -2.910   2.342  -3.875  1.00  0.00     0.116 C 
ENDROOT
BRANCH   1   2
ATOM      2  N   UNL     1      -2.546   2.445  -2.479  1.00  0.00    -0.356 N 
ATOM      3  C   UNL     1      -1.776   3.373  -1.841  1.00  0.00     0.225 C 
ATOM      4  O   UNL     1      -1.949   3.493  -0.628  1.00  0.00    -0.275 OA
ATOM      5  H   UNL     1      -2.910   1.736  -1.900  1.00  0.00     0.163 HD
BRANCH   3   6
ATOM      6  C   UNL     1      -0.648   4.078  -2.586  1.00  0.00     0.107 C 
ATOM      7  N   UNL     1       0.333   6.239  -2.209  1.00  0.00    -0.341 N 
ATOM      8  C   UNL     1       0.216   4.920  -1.658  1.00  0.00     0.133 C 
ATOM      9  C   UNL     1      -0.625   6.433  -3.269  1.00  0.00     0.128 C 
ATOM     10  C   UNL     1      -1.033   5.022  -3.743  1.00  0.00     0.054 C 
BRANCH   7  11
ATOM     11  C   UNL     1       0.997   7.286  -1.604  1.00  0.00     0.222 C 
ATOM     12  O   UNL     1       0.682   8.457  -1.833  1.00  0.00    -0.275 OA
BRANCH  11  13
ATOM     13  C   UNL     1       2.249   6.979  -0.774  1.00  0.00     0.105 C 
BRANCH  13  14
ATOM     14  C   UNL     1       2.097   6.424   0.655  1.00  0.00     0.045 C 
BRANCH  14  15
ATOM     15  C   UNL     1       2.148   4.911   0.758  1.00  0.00    -0.047 A 
ATOM     16  C   UNL     1       1.898   2.117   0.391  1.00  0.00     0.036 A 
ATOM     17  C   UNL     1       0.957   2.828   1.145  1.00  0.00     0.026 A 
ATOM     18  C   UNL     1       3.034   2.799  -0.054  1.00  0.00     0.026 A 
ATOM     19  C   UNL     1       1.090   4.207   1.349  1.00  0.00     0.006 A 
ATOM     20  C   UNL     1       3.174   4.178   0.145  1.00  0.00     0.006 A 
BRANCH  16  21
ATOM     21  N   UNL     1       1.696   0.796  -0.012  1.00  0.00    -0.378 N 
ATOM     22  C   UNL     1       1.562  -0.194   1.047  1.00  0.00     0.143 C 
ATOM     23  C   UNL     1       0.818   0.644  -1.167  1.00  0.00     0.143 C 
ENDBRANCH  16  21
ENDBRANCH  14  15
ENDBRANCH  13  14
ENDBRANCH  11  13
ENDBRANCH   7  11
BRANCH  10  24
ATOM     24  C   UNL     1      -0.501   4.615  -5.121  1.00  0.00    -0.024 A 
ATOM     25  C   UNL     1       0.129   3.390  -5.403  1.00  0.00     0.007 A 
ATOM     26  C   UNL     1      -0.786   5.407  -6.233  1.00  0.00     0.115 A 
ATOM     27  C   UNL     1       0.396   3.000  -6.713  1.00  0.00     0.020 A 
ATOM     28  N   UNL     1      -0.520   5.065  -7.518  1.00  0.00    -0.264 NA
ATOM     29  C   UNL     1       0.052   3.863  -7.730  1.00  0.00     0.111 A 
ENDBRANCH  10  24
ENDBRANCH   3   6
ENDBRANCH   1   2
BRANCH   1  30
ATOM     30  C   UNL     1      -2.420   1.090  -4.590  1.00  0.00     0.023 C 
BRANCH  30  31
ATOM     31  C   UNL     1      -2.976  -0.237  -4.094  1.00  0.00     0.023 C 
BRANCH  31  32
ATOM     32  C   UNL     1      -4.447  -0.241  -3.711  1.00  0.00     0.116 C 
BRANCH  32  33
ATOM     33  N   UNL     1      -5.330   0.351  -4.707  1.00  0.00    -0.352 N 
ATOM     34  C   UNL     1      -6.585  -0.048  -5.104  1.00  0.00     0.251 C 
ATOM     35  H   UNL     1      -4.978   1.151  -5.160  1.00  0.00     0.163 HD
ATOM     36  O   UNL     1      -7.201   0.588  -5.941  1.00  0.00    -0.269 OA
BRANCH  34  37
ATOM     37  C   UNL     1      -7.124  -1.304  -4.556  1.00  0.00     0.039 A 
ATOM     38  C   UNL     1      -7.516  -2.294  -5.458  1.00  0.00     0.014 A 
ATOM     39  C   UNL     1      -7.119  -1.543  -3.181  1.00  0.00     0.014 A 
ATOM     40  C   UNL     1      -7.824  -3.565  -4.981  1.00  0.00     0.010 A 
ATOM     41  C   UNL     1      -7.329  -2.834  -2.719  1.00  0.00     0.010 A 
ATOM     42  C   UNL     1      -7.687  -3.855  -3.614  1.00  0.00    -0.014 A 
BRANCH  42  43
ATOM     43  C   UNL     1      -7.934  -5.219  -3.095  1.00  0.00     0.031 A 
ATOM     44  C   UNL     1      -9.046  -5.440  -2.108  1.00  0.00     0.074 A 
ATOM     45  C   UNL     1      -7.125  -6.232  -3.461  1.00  0.00     0.049 A 
ATOM     46  N   UNL     1      -9.382  -6.534  -1.479  1.00  0.00    -0.248 NA
ATOM     47  C   UNL     1      -9.862  -4.266  -1.752  1.00  0.00     0.031 C 
ATOM     48  C   UNL     1      -5.979  -6.123  -4.369  1.00  0.00     0.029 A 
ATOM     49  N   UNL     1      -7.141  -7.558  -3.110  1.00  0.00    -0.354 N 
ATOM     50  C   UNL     1     -10.424  -6.174  -0.633  1.00  0.00     0.074 A 
ATOM     51  C   UNL     1     -10.626  -4.751  -0.786  1.00  0.00     0.031 C 
ATOM     52  C   UNL     1      -5.427  -7.337  -4.531  1.00  0.00     0.029 A 
ATOM     53  C   UNL     1      -6.154  -8.302  -3.714  1.00  0.00     0.049 A 
ATOM     54  H   UNL     1      -7.797  -7.941  -2.484  1.00  0.00     0.167 HD
ATOM     55  C   UNL     1     -11.167  -6.962   0.178  1.00  0.00     0.031 A 
ATOM     56  C   UNL     1      -5.872  -9.615  -3.619  1.00  0.00     0.031 A 
ATOM     57  C   UNL     1     -10.985  -8.382   0.292  1.00  0.00     0.049 A 
ATOM     58  C   UNL     1      -6.736 -10.480  -2.743  1.00  0.00     0.074 A 
ATOM     59  C   UNL     1     -11.721  -9.289   1.032  1.00  0.00     0.029 A 
ATOM     60  N   UNL     1      -9.999  -9.104  -0.366  1.00  0.00    -0.354 N 
ATOM     61  N   UNL     1      -7.757 -10.131  -1.995  1.00  0.00    -0.248 NA
ATOM     62  C   UNL     1      -6.421 -11.914  -2.708  1.00  0.00     0.031 C 
ATOM     63  C   UNL     1     -11.159 -10.556   0.848  1.00  0.00     0.029 A 
ATOM     64  C   UNL     1     -10.101 -10.444  -0.042  1.00  0.00     0.049 A 
ATOM     65  H   UNL     1      -9.327  -8.719  -0.973  1.00  0.00     0.167 HD
ATOM     66  C   UNL     1      -8.221 -11.307  -1.418  1.00  0.00     0.074 A 
ATOM     67  C   UNL     1      -7.379 -12.377  -1.916  1.00  0.00     0.031 C 
ATOM     68  C   UNL     1      -9.251 -11.488  -0.555  1.00  0.00     0.031 A 
BRANCH  55  69
ATOM     69  C   UNL     1     -12.242  -6.296   0.992  1.00  0.00    -0.014 A 
ATOM     70  C   UNL     1     -13.394  -5.770   0.380  1.00  0.00     0.010 A 
ATOM     71  C   UNL     1     -12.103  -6.198   2.388  1.00  0.00     0.010 A 
ATOM     72  C   UNL     1     -14.363  -5.113   1.141  1.00  0.00     0.020 A 
ATOM     73  C   UNL     1     -13.085  -5.567   3.157  1.00  0.00     0.020 A 
ATOM     74  C   UNL     1     -14.199  -5.010   2.525  1.00  0.00     0.054 A 
BRANCH  74  75
ATOM     75  S   UNL     1     -15.477  -4.162   3.492  1.00  0.00     0.124 S 
ATOM     76  O   UNL     1     -15.204  -2.760   3.186  1.00  0.00    -0.237 OA
ATOM     77  O   UNL     1     -16.715  -4.697   2.929  1.00  0.00    -0.237 OA
ATOM     78  O   UNL     1     -15.196  -4.566   4.867  1.00  0.00    -0.744 OA
ENDBRANCH  74  75
ENDBRANCH  55  69
BRANCH  56  79
ATOM     79  C   UNL     1      -4.745 -10.194  -4.400  1.00  0.00    -0.014 A 
ATOM     80  C   UNL     1      -4.999 -11.010  -5.517  1.00  0.00     0.010 A 
ATOM     81  C   UNL     1      -3.413  -9.917  -4.045  1.00  0.00     0.010 A 
ATOM     82  C   UNL     1      -3.942 -11.552  -6.254  1.00  0.00     0.020 A 
ATOM     83  C   UNL     1      -2.353 -10.438  -4.794  1.00  0.00     0.020 A 
ATOM     84  C   UNL     1      -2.625 -11.261  -5.888  1.00  0.00     0.054 A 
BRANCH  84  85
ATOM     85  S   UNL     1      -1.268 -11.928  -6.892  1.00  0.00     0.124 S 
ATOM     86  O   UNL     1      -1.236 -13.325  -6.470  1.00  0.00    -0.237 OA
ATOM     87  O   UNL     1      -1.734 -11.688  -8.255  1.00  0.00    -0.237 OA
ATOM     88  O   UNL     1      -0.117 -11.124  -6.486  1.00  0.00    -0.744 OA
ENDBRANCH  84  85
ENDBRANCH  56  79
BRANCH  68  89
ATOM     89  C   UNL     1      -9.542 -12.895  -0.117  1.00  0.00    -0.014 A 
ATOM     90  C   UNL     1      -8.716 -13.551   0.812  1.00  0.00     0.010 A 
ATOM     91  C   UNL     1     -10.695 -13.543  -0.595  1.00  0.00     0.010 A 
ATOM     92  C   UNL     1      -9.025 -14.845   1.236  1.00  0.00     0.020 A 
ATOM     93  C   UNL     1     -11.021 -14.827  -0.154  1.00  0.00     0.020 A 
ATOM     94  C   UNL     1     -10.176 -15.475   0.750  1.00  0.00     0.054 A 
BRANCH  94  95
ATOM     95  S   UNL     1     -10.584 -17.135   1.355  1.00  0.00     0.124 S 
ATOM     96  O   UNL     1      -9.636 -17.966   0.619  1.00  0.00    -0.237 OA
ATOM     97  O   UNL     1     -10.339 -17.023   2.791  1.00  0.00    -0.237 OA
ATOM     98  O   UNL     1     -11.986 -17.304   0.980  1.00  0.00    -0.744 OA
ENDBRANCH  94  95
ENDBRANCH  68  89
ENDBRANCH  42  43
ENDBRANCH  34  37
ENDBRANCH  32  33
ENDBRANCH  31  32
ENDBRANCH  30  31
ENDBRANCH   1  30
TORSDOF 20
