REMARK SMILES COc1ccc2c(c1)[C@H]([NH2+][C@H]1CCC[C@H](C(=O)NCCCCNC(=O)c3ccc(-c4c5nc(c(-c6ccc(S(=O)(=O)[O-])cc6)c6ccc([nH]6)c(-c6ccc(S(=O)(=O)[O-])cc6)c6nc(c(-c7ccc(S(=O)(=O)[O-])cc7)c7ccc4[nH]7)C=C6)C=C5)cc3)C1)CC2
REMARK SMILES IDX 20 1 19 2 18 3 16 4 17 5 15 7 11 8 12 9 86 10 13 11 14 12
REMARK SMILES IDX 10 13 9 16 3 17 4 18 8 19 5 20 7 21 6 22 88 23 87 24 2 25
REMARK SMILES IDX 1 26 21 27 22 28 23 29 24 30 25 32 26 33 27 34 85 35 28 36
REMARK SMILES IDX 84 37 29 38 30 39 31 40 78 41 32 42 83 43 77 44 79 45 33 46
REMARK SMILES IDX 82 47 76 48 75 49 34 51 64 52 45 53 63 54 46 55 49 56 62 57
REMARK SMILES IDX 80 58 47 59 48 60 61 62 81 63 50 64 35 65 36 66 44 67 37 68
REMARK SMILES IDX 43 69 38 70 39 71 40 72 41 73 42 74 65 75 66 76 74 77 67 78
REMARK SMILES IDX 73 79 68 80 69 81 70 82 71 83 72 84 51 85 52 86 60 87 53 88
REMARK SMILES IDX 59 89 54 90 55 91 56 92 57 93 58 94
REMARK H PARENT 18 6 10 14 10 15 23 31 79 50 49 61
REMARK Flexibility Score: inf
ROOT
ATOM      1  C   UNL     1      -7.205   5.246  -3.284  1.00  0.00     0.023 C 
ENDROOT
BRANCH   1   2
ATOM      2  C   UNL     1      -5.840   5.624  -2.707  1.00  0.00     0.116 C 
BRANCH   2   3
ATOM      3  N   UNL     1      -5.673   5.248  -1.320  1.00  0.00    -0.356 N 
ATOM      4  C   UNL     1      -4.970   4.229  -0.754  1.00  0.00     0.223 C 
ATOM      5  O   UNL     1      -4.908   4.197   0.478  1.00  0.00    -0.275 OA
ATOM      6  H   UNL     1      -6.147   5.826  -0.679  1.00  0.00     0.163 HD
BRANCH   4   7
ATOM      7  C   UNL     1      -4.261   3.155  -1.586  1.00  0.00     0.084 C 
ATOM      8  C   UNL     1      -2.493   3.063  -3.519  1.00  0.00     0.183 C 
ATOM      9  C   UNL     1      -3.663   3.183  -4.497  1.00  0.00     0.065 C 
ATOM     10  C   UNL     1      -2.927   3.652  -2.163  1.00  0.00     0.078 C 
ATOM     11  C   UNL     1      -4.995   2.591  -4.039  1.00  0.00     0.007 C 
ATOM     12  C   UNL     1      -5.224   2.436  -2.537  1.00  0.00     0.014 C 
BRANCH   8  13
ATOM     13  N   UNL     1      -1.746   1.790  -3.488  1.00  0.00    -0.338 N 
ATOM     14  H   UNL     1      -1.418   1.609  -4.437  1.00  0.00     0.347 HD
ATOM     15  H   UNL     1      -1.022   1.940  -2.785  1.00  0.00     0.347 HD
BRANCH  13  16
ATOM     16  C   UNL     1      -2.435   0.600  -3.039  1.00  0.00     0.214 C 
ATOM     17  C   UNL     1      -4.350  -0.983  -5.950  1.00  0.00     0.119 A 
ATOM     18  C   UNL     1      -4.641  -2.204  -5.332  1.00  0.00     0.047 A 
ATOM     19  C   UNL     1      -3.485  -0.065  -5.360  1.00  0.00     0.056 A 
ATOM     20  C   UNL     1      -4.049  -2.524  -4.107  1.00  0.00     0.008 A 
ATOM     21  C   UNL     1      -3.034  -0.316  -4.078  1.00  0.00     0.016 A 
ATOM     22  C   UNL     1      -3.233  -1.579  -3.502  1.00  0.00    -0.038 A 
ATOM     23  C   UNL     1      -2.501  -1.671  -2.193  1.00  0.00     0.042 C 
ATOM     24  C   UNL     1      -1.579  -0.432  -2.284  1.00  0.00     0.075 C 
BRANCH  17  25
ATOM     25  O   UNL     1      -4.930  -0.636  -7.141  1.00  0.00    -0.497 OA
ATOM     26  C   UNL     1      -6.285  -0.224  -6.930  1.00  0.00     0.278 C 
ENDBRANCH  17  25
ENDBRANCH  13  16
ENDBRANCH   8  13
ENDBRANCH   4   7
ENDBRANCH   2   3
ENDBRANCH   1   2
BRANCH   1  27
ATOM     27  C   UNL     1      -8.388   6.013  -2.705  1.00  0.00     0.023 C 
BRANCH  27  28
ATOM     28  C   UNL     1      -8.275   7.524  -2.804  1.00  0.00     0.116 C 
BRANCH  28  29
ATOM     29  N   UNL     1      -8.122   8.005  -4.171  1.00  0.00    -0.352 N 
ATOM     30  C   UNL     1      -8.623   9.171  -4.705  1.00  0.00     0.251 C 
ATOM     31  H   UNL     1      -7.603   7.432  -4.781  1.00  0.00     0.163 HD
ATOM     32  O   UNL     1      -8.506   9.421  -5.899  1.00  0.00    -0.269 OA
BRANCH  30  33
ATOM     33  C   UNL     1      -9.344  10.089  -3.803  1.00  0.00     0.039 A 
ATOM     34  C   UNL     1     -10.670  10.421  -4.089  1.00  0.00     0.014 A 
ATOM     35  C   UNL     1      -8.739  10.507  -2.615  1.00  0.00     0.014 A 
ATOM     36  C   UNL     1     -11.420  11.114  -3.138  1.00  0.00     0.010 A 
ATOM     37  C   UNL     1      -9.509  11.132  -1.643  1.00  0.00     0.010 A 
ATOM     38  C   UNL     1     -10.858  11.437  -1.892  1.00  0.00    -0.014 A 
BRANCH  38  39
ATOM     39  C   UNL     1     -11.645  12.098  -0.821  1.00  0.00     0.031 A 
ATOM     40  C   UNL     1     -11.224  13.457  -0.333  1.00  0.00     0.074 A 
ATOM     41  C   UNL     1     -12.652  11.437  -0.215  1.00  0.00     0.049 A 
ATOM     42  N   UNL     1     -11.658  14.133   0.698  1.00  0.00    -0.248 NA
ATOM     43  C   UNL     1     -10.145  14.127  -1.080  1.00  0.00     0.031 C 
ATOM     44  C   UNL     1     -13.127  10.095  -0.567  1.00  0.00     0.029 A 
ATOM     45  N   UNL     1     -13.445  11.797   0.846  1.00  0.00    -0.354 N 
ATOM     46  C   UNL     1     -10.877  15.281   0.750  1.00  0.00     0.074 A 
ATOM     47  C   UNL     1      -9.926  15.201  -0.335  1.00  0.00     0.031 C 
ATOM     48  C   UNL     1     -14.130   9.751   0.258  1.00  0.00     0.029 A 
ATOM     49  C   UNL     1     -14.343  10.824   1.224  1.00  0.00     0.049 A 
ATOM     50  H   UNL     1     -13.378  12.670   1.296  1.00  0.00     0.167 HD
ATOM     51  C   UNL     1     -10.954  16.315   1.619  1.00  0.00     0.031 A 
ATOM     52  C   UNL     1     -15.222  10.793   2.244  1.00  0.00     0.031 A 
ATOM     53  C   UNL     1     -11.938  16.417   2.661  1.00  0.00     0.049 A 
ATOM     54  C   UNL     1     -15.310  11.975   3.173  1.00  0.00     0.074 A 
ATOM     55  C   UNL     1     -12.158  17.470   3.532  1.00  0.00     0.029 A 
ATOM     56  N   UNL     1     -12.870  15.439   2.967  1.00  0.00    -0.354 N 
ATOM     57  N   UNL     1     -14.614  13.087   3.158  1.00  0.00    -0.248 NA
ATOM     58  C   UNL     1     -16.307  11.904   4.252  1.00  0.00     0.031 C 
ATOM     59  C   UNL     1     -13.200  17.111   4.392  1.00  0.00     0.029 A 
ATOM     60  C   UNL     1     -13.657  15.856   4.025  1.00  0.00     0.049 A 
ATOM     61  H   UNL     1     -12.959  14.576   2.502  1.00  0.00     0.167 HD
ATOM     62  C   UNL     1     -15.114  13.859   4.201  1.00  0.00     0.074 A 
ATOM     63  C   UNL     1     -16.173  13.094   4.822  1.00  0.00     0.031 C 
ATOM     64  C   UNL     1     -14.728  15.092   4.608  1.00  0.00     0.031 A 
BRANCH  51  65
ATOM     65  C   UNL     1      -9.953  17.428   1.483  1.00  0.00    -0.014 A 
ATOM     66  C   UNL     1     -10.035  18.354   0.429  1.00  0.00     0.010 A 
ATOM     67  C   UNL     1      -8.965  17.595   2.471  1.00  0.00     0.010 A 
ATOM     68  C   UNL     1      -9.133  19.418   0.354  1.00  0.00     0.020 A 
ATOM     69  C   UNL     1      -8.076  18.672   2.412  1.00  0.00     0.020 A 
ATOM     70  C   UNL     1      -8.161  19.572   1.347  1.00  0.00     0.054 A 
BRANCH  70  71
ATOM     71  S   UNL     1      -7.045  20.998   1.258  1.00  0.00     0.124 S 
ATOM     72  O   UNL     1      -6.144  20.607   0.177  1.00  0.00    -0.237 OA
ATOM     73  O   UNL     1      -7.954  22.099   0.950  1.00  0.00    -0.237 OA
ATOM     74  O   UNL     1      -6.439  21.048   2.586  1.00  0.00    -0.744 OA
ENDBRANCH  70  71
ENDBRANCH  51  65
BRANCH  52  75
ATOM     75  C   UNL     1     -16.091   9.603   2.459  1.00  0.00    -0.014 A 
ATOM     76  C   UNL     1     -17.476   9.681   2.226  1.00  0.00     0.010 A 
ATOM     77  C   UNL     1     -15.545   8.396   2.932  1.00  0.00     0.010 A 
ATOM     78  C   UNL     1     -18.304   8.588   2.502  1.00  0.00     0.020 A 
ATOM     79  C   UNL     1     -16.366   7.293   3.182  1.00  0.00     0.020 A 
ATOM     80  C   UNL     1     -17.744   7.403   2.986  1.00  0.00     0.054 A 
BRANCH  80  81
ATOM     81  S   UNL     1     -18.833   5.993   3.331  1.00  0.00     0.124 S 
ATOM     82  O   UNL     1     -19.427   6.376   4.607  1.00  0.00    -0.237 OA
ATOM     83  O   UNL     1     -19.737   6.000   2.184  1.00  0.00    -0.237 OA
ATOM     84  O   UNL     1     -17.913   4.859   3.381  1.00  0.00    -0.744 OA
ENDBRANCH  80  81
ENDBRANCH  52  75
BRANCH  64  85
ATOM     85  C   UNL     1     -15.489  15.726   5.740  1.00  0.00    -0.014 A 
ATOM     86  C   UNL     1     -15.289  15.318   7.069  1.00  0.00     0.010 A 
ATOM     87  C   UNL     1     -16.345  16.810   5.471  1.00  0.00     0.010 A 
ATOM     88  C   UNL     1     -15.944  15.977   8.112  1.00  0.00     0.020 A 
ATOM     89  C   UNL     1     -16.983  17.486   6.513  1.00  0.00     0.020 A 
ATOM     90  C   UNL     1     -16.784  17.060   7.827  1.00  0.00     0.054 A 
BRANCH  90  91
ATOM     91  S   UNL     1     -17.563  17.949   9.203  1.00  0.00     0.124 S 
ATOM     92  O   UNL     1     -18.630  17.031   9.593  1.00  0.00    -0.237 OA
ATOM     93  O   UNL     1     -16.468  18.083  10.161  1.00  0.00    -0.237 OA
ATOM     94  O   UNL     1     -18.009  19.201   8.597  1.00  0.00    -0.744 OA
ENDBRANCH  90  91
ENDBRANCH  64  85
ENDBRANCH  38  39
ENDBRANCH  30  33
ENDBRANCH  28  29
ENDBRANCH  27  28
ENDBRANCH   1  27
TORSDOF 17
