REMARK SMILES C[C@@H]1CCCN(C(=O)N[C@]2(C(=O)NCCCCNC(=O)c3ccc(-c4c5nc(c(-c6ccc(S(=O)(=O)[O-])cc6)c6ccc([nH]6)c(-c6ccc(S(=O)(=O)[O-])cc6)c6nc(c(-c7ccc(S(=O)(=O)[O-])cc7)c7ccc4[nH]7)C=C6)C=C5)cc3)CCCC[C@@H]2C)C1
REMARK SMILES IDX 16 1 15 2 14 3 13 4 11 5 12 6 10 8 81 9 85 10 82 11 84 12
REMARK SMILES IDX 86 13 83 14 9 15 7 16 8 17 6 19 1 20 2 21 3 22 87 23 4 24
REMARK SMILES IDX 5 25 17 26 18 27 19 28 20 30 21 31 22 32 80 33 23 34 79 35
REMARK SMILES IDX 24 36 25 37 26 38 73 39 27 40 78 41 72 42 74 43 28 44 77 45
REMARK SMILES IDX 71 46 70 47 29 49 59 50 40 51 58 52 41 53 44 54 57 55 75 56
REMARK SMILES IDX 42 57 43 58 56 60 76 61 45 62 30 63 31 64 39 65 32 66 38 67
REMARK SMILES IDX 33 68 34 69 35 70 36 71 37 72 60 73 61 74 69 75 62 76 68 77
REMARK SMILES IDX 63 78 64 79 65 80 66 81 67 82 46 83 47 84 55 85 48 86 54 87
REMARK SMILES IDX 49 88 50 89 51 90 52 91 53 92
REMARK H PARENT 13 7 9 18 18 29 74 48 44 59
REMARK Flexibility Score: inf
ROOT
ATOM      1  C   UNL     1       5.545   5.985  -2.869  1.00  0.00     0.023 C 
ENDROOT
BRANCH   1   2
ATOM      2  C   UNL     1       6.035   4.529  -2.853  1.00  0.00     0.023 C 
BRANCH   2   3
ATOM      3  C   UNL     1       5.367   3.552  -1.878  1.00  0.00     0.116 C 
BRANCH   3   4
ATOM      4  N   UNL     1       4.040   3.010  -2.219  1.00  0.00    -0.354 N 
ATOM      5  C   UNL     1       3.322   1.959  -1.618  1.00  0.00     0.246 C 
ATOM      6  O   UNL     1       2.204   1.704  -2.081  1.00  0.00    -0.272 OA
ATOM      7  H   UNL     1       3.591   3.447  -2.978  1.00  0.00     0.163 HD
BRANCH   5   8
ATOM      8  C   UNL     1       4.032   0.955  -0.587  1.00  0.00     0.123 C 
ATOM      9  C   UNL     1       3.397   0.051   0.516  1.00  0.00     0.039 C 
ATOM     10  C   UNL     1       4.697  -0.050  -1.624  1.00  0.00     0.021 C 
ATOM     11  C   UNL     1       2.397  -0.992   0.086  1.00  0.00     0.003 C 
ATOM     12  C   UNL     1       3.665  -1.152  -2.056  1.00  0.00     0.006 C 
ATOM     13  C   UNL     1       6.010  -0.696  -1.195  1.00  0.00     0.011 C 
ATOM     14  C   UNL     1       3.055  -1.936  -0.897  1.00  0.00     0.000 C 
BRANCH   8  15
ATOM     15  N   UNL     1       4.852   1.843   0.236  1.00  0.00    -0.323 N 
ATOM     16  C   UNL     1       4.451   2.906   1.012  1.00  0.00     0.318 C 
ATOM     17  O   UNL     1       5.340   3.434   1.687  1.00  0.00    -0.249 OA
ATOM     18  H   UNL     1       5.818   1.655   0.235  1.00  0.00     0.166 HD
BRANCH  16  19
ATOM     19  N   UNL     1       3.194   3.488   0.853  1.00  0.00    -0.325 N 
ATOM     20  C   UNL     1       2.002   7.113   0.448  1.00  0.00     0.009 C 
ATOM     21  C   UNL     1       2.074   5.611   0.228  1.00  0.00     0.005 C 
ATOM     22  C   UNL     1       0.693   4.999   0.453  1.00  0.00     0.007 C 
ATOM     23  C   UNL     1       3.107   4.924   1.141  1.00  0.00     0.124 C 
ATOM     24  C   UNL     1       0.756   3.520   0.150  1.00  0.00     0.022 C 
ATOM     25  C   UNL     1       1.880   2.820   0.912  1.00  0.00     0.121 C 
ENDBRANCH  16  19
ENDBRANCH   8  15
ENDBRANCH   5   8
ENDBRANCH   3   4
ENDBRANCH   2   3
ENDBRANCH   1   2
BRANCH   1  26
ATOM     26  C   UNL     1       5.462   6.762  -1.548  1.00  0.00     0.116 C 
BRANCH  26  27
ATOM     27  N   UNL     1       6.710   6.936  -0.819  1.00  0.00    -0.352 N 
ATOM     28  C   UNL     1       7.218   8.067  -0.194  1.00  0.00     0.251 C 
ATOM     29  H   UNL     1       7.278   6.134  -0.760  1.00  0.00     0.163 HD
ATOM     30  O   UNL     1       8.285   8.023   0.390  1.00  0.00    -0.269 OA
BRANCH  28  31
ATOM     31  C   UNL     1       6.480   9.355  -0.278  1.00  0.00     0.039 A 
ATOM     32  C   UNL     1       7.135  10.487  -0.765  1.00  0.00     0.014 A 
ATOM     33  C   UNL     1       5.140   9.441   0.094  1.00  0.00     0.014 A 
ATOM     34  C   UNL     1       6.410  11.661  -1.007  1.00  0.00     0.010 A 
ATOM     35  C   UNL     1       4.398  10.583  -0.218  1.00  0.00     0.010 A 
ATOM     36  C   UNL     1       5.019  11.698  -0.801  1.00  0.00    -0.014 A 
BRANCH  36  37
ATOM     37  C   UNL     1       4.205  12.865  -1.248  1.00  0.00     0.031 A 
ATOM     38  C   UNL     1       3.429  13.697  -0.262  1.00  0.00     0.074 A 
ATOM     39  C   UNL     1       4.102  13.136  -2.567  1.00  0.00     0.049 A 
ATOM     40  N   UNL     1       2.642  14.720  -0.485  1.00  0.00    -0.248 NA
ATOM     41  C   UNL     1       3.531  13.316   1.155  1.00  0.00     0.031 C 
ATOM     42  C   UNL     1       4.751  12.379  -3.640  1.00  0.00     0.029 A 
ATOM     43  N   UNL     1       3.407  14.118  -3.232  1.00  0.00    -0.354 N 
ATOM     44  C   UNL     1       2.143  15.095   0.757  1.00  0.00     0.074 A 
ATOM     45  C   UNL     1       2.681  14.159   1.723  1.00  0.00     0.031 C 
ATOM     46  C   UNL     1       4.450  12.941  -4.822  1.00  0.00     0.029 A 
ATOM     47  C   UNL     1       3.558  14.075  -4.599  1.00  0.00     0.049 A 
ATOM     48  H   UNL     1       2.854  14.791  -2.773  1.00  0.00     0.167 HD
ATOM     49  C   UNL     1       1.328  16.132   1.073  1.00  0.00     0.031 A 
ATOM     50  C   UNL     1       3.041  14.854  -5.571  1.00  0.00     0.031 A 
ATOM     51  C   UNL     1       0.797  17.069   0.117  1.00  0.00     0.049 A 
ATOM     52  C   UNL     1       2.148  16.005  -5.199  1.00  0.00     0.074 A 
ATOM     53  C   UNL     1       0.010  18.184   0.351  1.00  0.00     0.029 A 
ATOM     54  N   UNL     1       0.993  17.001  -1.254  1.00  0.00    -0.354 N 
ATOM     55  N   UNL     1       1.749  16.385  -4.009  1.00  0.00    -0.248 NA
ATOM     56  C   UNL     1       1.647  16.841  -6.299  1.00  0.00     0.031 C 
ATOM     57  C   UNL     1      -0.305  18.765  -0.882  1.00  0.00     0.029 A 
ATOM     58  C   UNL     1       0.328  18.042  -1.880  1.00  0.00     0.049 A 
ATOM     59  H   UNL     1       1.526  16.313  -1.714  1.00  0.00     0.167 HD
ATOM     60  C   UNL     1       0.971  17.519  -4.215  1.00  0.00     0.074 A 
ATOM     61  C   UNL     1       0.964  17.769  -5.642  1.00  0.00     0.031 C 
ATOM     62  C   UNL     1       0.324  18.284  -3.301  1.00  0.00     0.031 A 
BRANCH  49  63
ATOM     63  C   UNL     1       0.955  16.298   2.523  1.00  0.00    -0.014 A 
ATOM     64  C   UNL     1       1.908  16.708   3.474  1.00  0.00     0.010 A 
ATOM     65  C   UNL     1      -0.365  16.054   2.941  1.00  0.00     0.010 A 
ATOM     66  C   UNL     1       1.563  16.812   4.824  1.00  0.00     0.020 A 
ATOM     67  C   UNL     1      -0.722  16.184   4.287  1.00  0.00     0.020 A 
ATOM     68  C   UNL     1       0.251  16.538   5.223  1.00  0.00     0.054 A 
BRANCH  68  69
ATOM     69  S   UNL     1      -0.168  16.667   6.983  1.00  0.00     0.124 S 
ATOM     70  O   UNL     1       0.434  15.451   7.524  1.00  0.00    -0.237 OA
ATOM     71  O   UNL     1       0.478  17.916   7.378  1.00  0.00    -0.237 OA
ATOM     72  O   UNL     1      -1.629  16.695   6.990  1.00  0.00    -0.744 OA
ENDBRANCH  68  69
ENDBRANCH  49  63
BRANCH  50  73
ATOM     73  C   UNL     1       3.383  14.584  -6.994  1.00  0.00    -0.014 A 
ATOM     74  C   UNL     1       4.265  15.432  -7.687  1.00  0.00     0.010 A 
ATOM     75  C   UNL     1       2.855  13.460  -7.655  1.00  0.00     0.010 A 
ATOM     76  C   UNL     1       4.606  15.167  -9.017  1.00  0.00     0.020 A 
ATOM     77  C   UNL     1       3.213  13.178  -8.977  1.00  0.00     0.020 A 
ATOM     78  C   UNL     1       4.081  14.038  -9.652  1.00  0.00     0.054 A 
BRANCH  78  79
ATOM     79  S   UNL     1       4.596  13.671 -11.354  1.00  0.00     0.124 S 
ATOM     80  O   UNL     1       3.844  14.661 -12.118  1.00  0.00    -0.237 OA
ATOM     81  O   UNL     1       6.041  13.878 -11.298  1.00  0.00    -0.237 OA
ATOM     82  O   UNL     1       4.180  12.283 -11.544  1.00  0.00    -0.744 OA
ENDBRANCH  78  79
ENDBRANCH  50  73
BRANCH  62  83
ATOM     83  C   UNL     1      -0.425  19.487  -3.807  1.00  0.00    -0.014 A 
ATOM     84  C   UNL     1      -1.644  19.352  -4.495  1.00  0.00     0.010 A 
ATOM     85  C   UNL     1       0.069  20.776  -3.535  1.00  0.00     0.010 A 
ATOM     86  C   UNL     1      -2.344  20.485  -4.922  1.00  0.00     0.020 A 
ATOM     87  C   UNL     1      -0.639  21.911  -3.940  1.00  0.00     0.020 A 
ATOM     88  C   UNL     1      -1.837  21.757  -4.641  1.00  0.00     0.054 A 
BRANCH  88  89
ATOM     89  S   UNL     1      -2.789  23.213  -5.159  1.00  0.00     0.124 S 
ATOM     90  O   UNL     1      -2.534  23.247  -6.596  1.00  0.00    -0.237 OA
ATOM     91  O   UNL     1      -4.152  22.860  -4.771  1.00  0.00    -0.237 OA
ATOM     92  O   UNL     1      -2.193  24.306  -4.394  1.00  0.00    -0.744 OA
ENDBRANCH  88  89
ENDBRANCH  62  83
ENDBRANCH  36  37
ENDBRANCH  28  31
ENDBRANCH  26  27
ENDBRANCH   1  26
TORSDOF 16
