REMARK SMILES Cc1c(C(=O)NCCCCNC(=O)c2ccc(-c3c4nc(c(-c5ccc(S(=O)(=O)[O-])cc5)c5ccc([nH]5)c(-c5ccc(S(=O)(=O)[O-])cc5)c5nc(c(-c6ccc(S(=O)(=O)[O-])cc6)c6ccc3[nH]6)C=C5)C=C4)cc2)sc2ncnc(NCc3cn4c(n3)SCC4)c12
REMARK SMILES IDX 8 1 7 2 6 3 4 4 5 5 3 7 1 8 2 9 90 10 74 11 75 12 79 13
REMARK SMILES IDX 76 14 78 15 77 16 80 17 81 19 82 20 83 21 86 22 84 23 85 24
REMARK SMILES IDX 89 25 87 26 88 27 9 28 10 29 11 30 12 31 13 33 14 34 15 35
REMARK SMILES IDX 73 36 16 37 72 38 17 39 18 40 19 41 66 42 20 43 71 44 65 45
REMARK SMILES IDX 67 46 21 47 70 48 64 49 63 50 22 52 52 53 33 54 51 55 34 56
REMARK SMILES IDX 37 57 50 58 68 59 35 60 36 61 49 63 69 64 38 65 23 66 24 67
REMARK SMILES IDX 32 68 25 69 31 70 26 71 27 72 28 73 29 74 30 75 53 76 54 77
REMARK SMILES IDX 62 78 55 79 61 80 56 81 57 82 58 83 59 84 60 85 39 86 40 87
REMARK SMILES IDX 48 88 41 89 47 90 42 91 43 92 44 93 45 94 46 95
REMARK H PARENT 6 6 80 18 11 32 67 51 37 62
REMARK Flexibility Score: inf
ROOT
ATOM      1  C   UNL     1      -2.335   2.925  -4.676  1.00  0.00     0.023 C 
ENDROOT
BRANCH   1   2
ATOM      2  C   UNL     1      -0.809   2.867  -4.596  1.00  0.00     0.116 C 
BRANCH   2   3
ATOM      3  N   UNL     1      -0.327   3.026  -3.239  1.00  0.00    -0.351 N 
ATOM      4  C   UNL     1       0.028   2.171  -2.222  1.00  0.00     0.261 C 
ATOM      5  O   UNL     1       0.400   2.775  -1.210  1.00  0.00    -0.268 OA
ATOM      6  H   UNL     1      -0.230   3.972  -2.984  1.00  0.00     0.163 HD
BRANCH   4   7
ATOM      7  C   UNL     1       0.008   0.700  -2.292  1.00  0.00     0.098 A 
ATOM      8  C   UNL     1       0.766   0.231   0.091  1.00  0.00     0.047 C 
ATOM      9  C   UNL     1       0.413  -0.208  -1.294  1.00  0.00    -0.014 A 
ATOM     10  C   UNL     1       0.468  -1.603  -1.771  1.00  0.00     0.057 A 
ATOM     11  S   UNL     1      -0.596  -0.152  -3.630  1.00  0.00    -0.110 S 
ATOM     12  C   UNL     1      -0.073  -1.643  -3.051  1.00  0.00     0.129 A 
ATOM     13  C   UNL     1       0.889  -2.876  -1.278  1.00  0.00     0.138 A 
ATOM     14  N   UNL     1      -0.236  -2.706  -3.853  1.00  0.00    -0.225 NA
ATOM     15  N   UNL     1       0.715  -3.961  -2.081  1.00  0.00    -0.219 NA
ATOM     16  C   UNL     1       0.196  -3.825  -3.301  1.00  0.00     0.225 A 
BRANCH  13  17
ATOM     17  N   UNL     1       1.486  -3.278  -0.119  1.00  0.00    -0.364 N 
ATOM     18  H   UNL     1       1.522  -4.258  -0.029  1.00  0.00     0.162 HD
BRANCH  17  19
ATOM     19  C   UNL     1       2.076  -2.594   1.005  1.00  0.00     0.172 C 
BRANCH  19  20
ATOM     20  C   UNL     1       1.194  -2.405   2.206  1.00  0.00     0.079 A 
ATOM     21  C   UNL     1       0.052  -3.116   2.568  1.00  0.00     0.113 A 
ATOM     22  N   UNL     1       1.403  -1.333   3.068  1.00  0.00    -0.226 NA
ATOM     23  N   UNL     1      -0.447  -2.418   3.611  1.00  0.00    -0.325 N 
ATOM     24  C   UNL     1       0.375  -1.370   3.867  1.00  0.00     0.168 A 
ATOM     25  C   UNL     1      -1.706  -2.447   4.319  1.00  0.00     0.135 C 
ATOM     26  S   UNL     1      -0.312  -0.241   4.967  1.00  0.00    -0.086 SA
ATOM     27  C   UNL     1      -1.974  -0.998   4.735  1.00  0.00     0.100 C 
ENDBRANCH  19  20
ENDBRANCH  17  19
ENDBRANCH  13  17
ENDBRANCH   4   7
ENDBRANCH   2   3
ENDBRANCH   1   2
BRANCH   1  28
ATOM     28  C   UNL     1      -2.942   4.324  -4.484  1.00  0.00     0.023 C 
BRANCH  28  29
ATOM     29  C   UNL     1      -2.504   5.365  -5.510  1.00  0.00     0.116 C 
BRANCH  29  30
ATOM     30  N   UNL     1      -2.816   4.978  -6.886  1.00  0.00    -0.352 N 
ATOM     31  C   UNL     1      -2.357   5.561  -8.050  1.00  0.00     0.251 C 
ATOM     32  H   UNL     1      -3.424   4.212  -6.994  1.00  0.00     0.163 HD
ATOM     33  O   UNL     1      -2.958   5.409  -9.111  1.00  0.00    -0.269 OA
BRANCH  31  34
ATOM     34  C   UNL     1      -1.122   6.358  -7.994  1.00  0.00     0.039 A 
ATOM     35  C   UNL     1      -1.046   7.632  -8.557  1.00  0.00     0.014 A 
ATOM     36  C   UNL     1      -0.046   5.819  -7.294  1.00  0.00     0.014 A 
ATOM     37  C   UNL     1       0.093   8.399  -8.321  1.00  0.00     0.010 A 
ATOM     38  C   UNL     1       1.015   6.621  -6.951  1.00  0.00     0.010 A 
ATOM     39  C   UNL     1       1.111   7.900  -7.490  1.00  0.00    -0.014 A 
BRANCH  39  40
ATOM     40  C   UNL     1       2.223   8.756  -7.081  1.00  0.00     0.031 A 
ATOM     41  C   UNL     1       1.822  10.050  -6.465  1.00  0.00     0.074 A 
ATOM     42  C   UNL     1       3.512   8.349  -7.059  1.00  0.00     0.049 A 
ATOM     43  N   UNL     1       1.933  11.229  -6.978  1.00  0.00    -0.248 NA
ATOM     44  C   UNL     1       1.094  10.027  -5.184  1.00  0.00     0.031 C 
ATOM     45  C   UNL     1       4.036   7.002  -7.324  1.00  0.00     0.029 A 
ATOM     46  N   UNL     1       4.628   9.032  -6.679  1.00  0.00    -0.354 N 
ATOM     47  C   UNL     1       1.502  12.118  -5.997  1.00  0.00     0.074 A 
ATOM     48  C   UNL     1       0.834  11.324  -4.996  1.00  0.00     0.031 C 
ATOM     49  C   UNL     1       5.299   6.904  -6.854  1.00  0.00     0.029 A 
ATOM     50  C   UNL     1       5.739   8.227  -6.456  1.00  0.00     0.049 A 
ATOM     51  H   UNL     1       4.645  10.010  -6.572  1.00  0.00     0.167 HD
ATOM     52  C   UNL     1       1.960  13.400  -5.952  1.00  0.00     0.031 A 
ATOM     53  C   UNL     1       6.948   8.619  -5.990  1.00  0.00     0.031 A 
ATOM     54  C   UNL     1       2.737  13.721  -7.119  1.00  0.00     0.049 A 
ATOM     55  C   UNL     1       7.085  10.057  -6.309  1.00  0.00     0.074 A 
ATOM     56  C   UNL     1       2.492  14.058  -8.431  1.00  0.00     0.029 A 
ATOM     57  N   UNL     1       4.043  13.310  -7.035  1.00  0.00    -0.354 N 
ATOM     58  N   UNL     1       7.107  10.515  -7.531  1.00  0.00    -0.248 NA
ATOM     59  C   UNL     1       6.857  11.053  -5.271  1.00  0.00     0.031 C 
ATOM     60  C   UNL     1       3.637  13.628  -9.167  1.00  0.00     0.029 A 
ATOM     61  C   UNL     1       4.567  13.086  -8.281  1.00  0.00     0.049 A 
ATOM     62  H   UNL     1       4.538  13.193  -6.192  1.00  0.00     0.167 HD
ATOM     63  C   UNL     1       6.478  11.741  -7.447  1.00  0.00     0.074 A 
ATOM     64  C   UNL     1       6.511  12.094  -6.033  1.00  0.00     0.031 C 
ATOM     65  C   UNL     1       5.711  12.215  -8.470  1.00  0.00     0.031 A 
BRANCH  52  66
ATOM     66  C   UNL     1       2.114  14.210  -4.687  1.00  0.00    -0.014 A 
ATOM     67  C   UNL     1       2.423  15.582  -4.781  1.00  0.00     0.010 A 
ATOM     68  C   UNL     1       2.239  13.611  -3.417  1.00  0.00     0.010 A 
ATOM     69  C   UNL     1       2.847  16.314  -3.660  1.00  0.00     0.020 A 
ATOM     70  C   UNL     1       2.627  14.338  -2.288  1.00  0.00     0.020 A 
ATOM     71  C   UNL     1       2.947  15.683  -2.420  1.00  0.00     0.054 A 
BRANCH  71  72
ATOM     72  S   UNL     1       3.545  16.624  -0.991  1.00  0.00     0.124 S 
ATOM     73  O   UNL     1       4.911  16.949  -1.388  1.00  0.00    -0.237 OA
ATOM     74  O   UNL     1       2.612  17.747  -0.950  1.00  0.00    -0.237 OA
ATOM     75  O   UNL     1       3.422  15.679   0.117  1.00  0.00    -0.744 OA
ENDBRANCH  71  72
ENDBRANCH  52  66
BRANCH  53  76
ATOM     76  C   UNL     1       7.840   7.924  -5.032  1.00  0.00    -0.014 A 
ATOM     77  C   UNL     1       9.156   8.382  -4.828  1.00  0.00     0.010 A 
ATOM     78  C   UNL     1       7.298   7.031  -4.085  1.00  0.00     0.010 A 
ATOM     79  C   UNL     1       9.863   8.047  -3.664  1.00  0.00     0.020 A 
ATOM     80  C   UNL     1       8.002   6.687  -2.924  1.00  0.00     0.020 A 
ATOM     81  C   UNL     1       9.267   7.228  -2.702  1.00  0.00     0.054 A 
BRANCH  81  82
ATOM     82  S   UNL     1      10.098   6.997  -1.101  1.00  0.00     0.124 S 
ATOM     83  O   UNL     1      11.268   6.205  -1.470  1.00  0.00    -0.237 OA
ATOM     84  O   UNL     1      10.370   8.371  -0.688  1.00  0.00    -0.237 OA
ATOM     85  O   UNL     1       9.102   6.295  -0.294  1.00  0.00    -0.744 OA
ENDBRANCH  81  82
ENDBRANCH  53  76
BRANCH  65  86
ATOM     86  C   UNL     1       5.974  11.691  -9.856  1.00  0.00    -0.014 A 
ATOM     87  C   UNL     1       5.735  10.367 -10.271  1.00  0.00     0.010 A 
ATOM     88  C   UNL     1       6.409  12.628 -10.809  1.00  0.00     0.010 A 
ATOM     89  C   UNL     1       5.937   9.995 -11.610  1.00  0.00     0.020 A 
ATOM     90  C   UNL     1       6.595  12.268 -12.143  1.00  0.00     0.020 A 
ATOM     91  C   UNL     1       6.364  10.951 -12.539  1.00  0.00     0.054 A 
BRANCH  91  92
ATOM     92  S   UNL     1       6.586  10.481 -14.277  1.00  0.00     0.124 S 
ATOM     93  O   UNL     1       7.705   9.545 -14.214  1.00  0.00    -0.237 OA
ATOM     94  O   UNL     1       5.293   9.893 -14.621  1.00  0.00    -0.237 OA
ATOM     95  O   UNL     1       6.879  11.748 -14.947  1.00  0.00    -0.744 OA
ENDBRANCH  91  92
ENDBRANCH  65  86
ENDBRANCH  39  40
ENDBRANCH  31  34
ENDBRANCH  29  30
ENDBRANCH  28  29
ENDBRANCH   1  28
TORSDOF 17
