REMARK SMILES CC1=C(C(=O)NCCCCNC(=O)c2ccc(-c3c4nc(c(-c5ccc(S(=O)(=O)[O-])cc5)c5ccc([nH]5)c(-c5ccc(S(=O)(=O)[O-])cc5)c5nc(c(-c6ccc(S(=O)(=O)[O-])cc6)c6ccc3[nH]6)C=C5)C=C4)cc2)N2C(=O)[C@@H](NC(=O)c3ccn(C)n3)[C@H]2SC1
REMARK SMILES IDX 9 1 8 2 7 3 6 4 4 5 5 6 3 8 1 9 2 10 89 11 74 12 88 13 75 14
REMARK SMILES IDX 87 15 76 16 77 17 78 18 79 19 80 21 81 22 82 23 86 24 83 25
REMARK SMILES IDX 84 26 85 27 10 28 11 29 12 30 13 32 14 33 15 34 73 35 16 36
REMARK SMILES IDX 72 37 17 38 18 39 19 40 66 41 20 42 71 43 65 44 67 45 21 46
REMARK SMILES IDX 70 47 64 48 63 49 22 51 52 52 33 53 51 54 34 55 37 56 50 57
REMARK SMILES IDX 68 58 35 59 36 60 49 62 69 63 38 64 23 65 24 66 32 67 25 68
REMARK SMILES IDX 31 69 26 70 27 71 28 72 29 73 30 74 53 75 54 76 62 77 55 78
REMARK SMILES IDX 61 79 56 80 57 81 58 82 59 83 60 84 39 85 40 86 48 87 41 88
REMARK SMILES IDX 47 89 42 90 43 91 44 92 45 93 46 94
REMARK H PARENT 6 7 78 20 11 31 67 50 37 61
REMARK Flexibility Score: inf
ROOT
ATOM      1  C   UNL     1       3.373  -5.328   2.213  1.00  0.00     0.023 C 
ENDROOT
BRANCH   1   2
ATOM      2  C   UNL     1       3.098  -3.845   2.444  1.00  0.00     0.023 C 
BRANCH   2   3
ATOM      3  C   UNL     1       2.701  -3.026   1.225  1.00  0.00     0.116 C 
BRANCH   3   4
ATOM      4  N   UNL     1       1.476  -3.404   0.552  1.00  0.00    -0.351 N 
ATOM      5  C   UNL     1       0.650  -2.635  -0.226  1.00  0.00     0.268 C 
ATOM      6  O   UNL     1      -0.223  -3.186  -0.898  1.00  0.00    -0.268 OA
ATOM      7  H   UNL     1       1.199  -4.342   0.670  1.00  0.00     0.163 HD
BRANCH   5   8
ATOM      8  C   UNL     1       0.761  -1.126  -0.233  1.00  0.00     0.110 C 
ATOM      9  C   UNL     1       3.180  -0.951  -0.963  1.00  0.00     0.043 C 
ATOM     10  C   UNL     1       1.888  -0.394  -0.426  1.00  0.00    -0.034 C 
ATOM     11  C   UNL     1       1.976   1.114  -0.175  1.00  0.00     0.104 C 
ATOM     12  N   UNL     1      -0.419  -0.447  -0.221  1.00  0.00    -0.290 N 
ATOM     13  S   UNL     1       0.406   1.948   0.248  1.00  0.00    -0.129 SA
ATOM     14  C   UNL     1      -1.723  -0.621   0.066  1.00  0.00     0.253 C 
ATOM     15  C   UNL     1      -0.537   0.856  -0.835  1.00  0.00     0.181 C 
ATOM     16  O   UNL     1      -2.350  -1.474   0.650  1.00  0.00    -0.272 OA
ATOM     17  C   UNL     1      -2.060   0.706  -0.675  1.00  0.00     0.206 C 
BRANCH  17  18
ATOM     18  N   UNL     1      -2.797   1.774   0.036  1.00  0.00    -0.336 N 
ATOM     19  C   UNL     1      -3.798   2.575  -0.485  1.00  0.00     0.272 C 
ATOM     20  H   UNL     1      -2.550   1.931   0.976  1.00  0.00     0.164 HD
ATOM     21  O   UNL     1      -4.181   3.550   0.161  1.00  0.00    -0.267 OA
BRANCH  19  22
ATOM     22  C   UNL     1      -4.342   2.225  -1.809  1.00  0.00     0.150 A 
ATOM     23  C   UNL     1      -4.863   0.967  -2.229  1.00  0.00     0.056 A 
ATOM     24  N   UNL     1      -4.365   3.106  -2.828  1.00  0.00    -0.168 NA
ATOM     25  C   UNL     1      -5.153   1.114  -3.563  1.00  0.00     0.109 A 
ATOM     26  N   UNL     1      -4.880   2.414  -3.860  1.00  0.00    -0.275 N 
ATOM     27  C   UNL     1      -5.071   3.052  -5.140  1.00  0.00     0.173 C 
ENDBRANCH  19  22
ENDBRANCH  17  18
ENDBRANCH   5   8
ENDBRANCH   3   4
ENDBRANCH   2   3
ENDBRANCH   1   2
BRANCH   1  28
ATOM     28  C   UNL     1       4.270  -5.682   1.030  1.00  0.00     0.116 C 
BRANCH  28  29
ATOM     29  N   UNL     1       5.622  -5.147   1.129  1.00  0.00    -0.352 N 
ATOM     30  C   UNL     1       6.828  -5.799   1.268  1.00  0.00     0.251 C 
ATOM     31  H   UNL     1       5.683  -4.165   1.089  1.00  0.00     0.163 HD
ATOM     32  O   UNL     1       7.856  -5.147   1.432  1.00  0.00    -0.269 OA
BRANCH  30  33
ATOM     33  C   UNL     1       6.881  -7.278   1.264  1.00  0.00     0.039 A 
ATOM     34  C   UNL     1       7.605  -7.936   2.261  1.00  0.00     0.014 A 
ATOM     35  C   UNL     1       6.190  -8.016   0.302  1.00  0.00     0.014 A 
ATOM     36  C   UNL     1       7.548  -9.330   2.353  1.00  0.00     0.010 A 
ATOM     37  C   UNL     1       6.052  -9.393   0.456  1.00  0.00     0.010 A 
ATOM     38  C   UNL     1       6.725 -10.067   1.485  1.00  0.00    -0.014 A 
BRANCH  38  39
ATOM     39  C   UNL     1       6.549 -11.537   1.641  1.00  0.00     0.031 A 
ATOM     40  C   UNL     1       6.934 -12.470   0.522  1.00  0.00     0.074 A 
ATOM     41  C   UNL     1       5.982 -12.031   2.762  1.00  0.00     0.049 A 
ATOM     42  N   UNL     1       6.802 -13.770   0.450  1.00  0.00    -0.248 NA
ATOM     43  C   UNL     1       7.520 -11.861  -0.684  1.00  0.00     0.031 C 
ATOM     44  C   UNL     1       5.523 -11.234   3.903  1.00  0.00     0.029 A 
ATOM     45  N   UNL     1       5.689 -13.323   3.126  1.00  0.00    -0.354 N 
ATOM     46  C   UNL     1       7.272 -14.130  -0.808  1.00  0.00     0.074 A 
ATOM     47  C   UNL     1       7.635 -12.907  -1.489  1.00  0.00     0.031 C 
ATOM     48  C   UNL     1       5.042 -12.056   4.851  1.00  0.00     0.029 A 
ATOM     49  C   UNL     1       5.107 -13.431   4.369  1.00  0.00     0.049 A 
ATOM     50  H   UNL     1       5.877 -14.100   2.551  1.00  0.00     0.167 HD
ATOM     51  C   UNL     1       7.413 -15.366  -1.342  1.00  0.00     0.031 A 
ATOM     52  C   UNL     1       4.666 -14.512   5.043  1.00  0.00     0.031 A 
ATOM     53  C   UNL     1       7.057 -16.582  -0.660  1.00  0.00     0.049 A 
ATOM     54  C   UNL     1       4.806 -15.874   4.416  1.00  0.00     0.074 A 
ATOM     55  C   UNL     1       7.212 -17.887  -1.095  1.00  0.00     0.029 A 
ATOM     56  N   UNL     1       6.472 -16.647   0.595  1.00  0.00    -0.354 N 
ATOM     57  N   UNL     1       5.324 -16.198   3.255  1.00  0.00    -0.248 NA
ATOM     58  C   UNL     1       4.313 -17.019   5.195  1.00  0.00     0.031 C 
ATOM     59  C   UNL     1       6.658 -18.736  -0.134  1.00  0.00     0.029 A 
ATOM     60  C   UNL     1       6.230 -17.967   0.936  1.00  0.00     0.049 A 
ATOM     61  H   UNL     1       6.260 -15.869   1.161  1.00  0.00     0.167 HD
ATOM     62  C   UNL     1       5.247 -17.585   3.179  1.00  0.00     0.074 A 
ATOM     63  C   UNL     1       4.651 -18.039   4.418  1.00  0.00     0.031 C 
ATOM     64  C   UNL     1       5.638 -18.407   2.175  1.00  0.00     0.031 A 
BRANCH  51  65
ATOM     65  C   UNL     1       7.973 -15.467  -2.738  1.00  0.00    -0.014 A 
ATOM     66  C   UNL     1       9.313 -15.133  -3.011  1.00  0.00     0.010 A 
ATOM     67  C   UNL     1       7.165 -15.951  -3.782  1.00  0.00     0.010 A 
ATOM     68  C   UNL     1       9.821 -15.244  -4.308  1.00  0.00     0.020 A 
ATOM     69  C   UNL     1       7.678 -16.096  -5.074  1.00  0.00     0.020 A 
ATOM     70  C   UNL     1       9.000 -15.726  -5.332  1.00  0.00     0.054 A 
BRANCH  70  71
ATOM     71  S   UNL     1       9.698 -15.890  -6.997  1.00  0.00     0.124 S 
ATOM     72  O   UNL     1       9.858 -14.493  -7.395  1.00  0.00    -0.237 OA
ATOM     73  O   UNL     1      10.940 -16.618  -6.751  1.00  0.00    -0.237 OA
ATOM     74  O   UNL     1       8.678 -16.632  -7.732  1.00  0.00    -0.744 OA
ENDBRANCH  70  71
ENDBRANCH  51  65
BRANCH  52  75
ATOM     75  C   UNL     1       4.053 -14.356   6.394  1.00  0.00    -0.014 A 
ATOM     76  C   UNL     1       4.698 -14.861   7.537  1.00  0.00     0.010 A 
ATOM     77  C   UNL     1       2.815 -13.705   6.544  1.00  0.00     0.010 A 
ATOM     78  C   UNL     1       4.105 -14.742   8.799  1.00  0.00     0.020 A 
ATOM     79  C   UNL     1       2.235 -13.553   7.807  1.00  0.00     0.020 A 
ATOM     80  C   UNL     1       2.878 -14.085   8.925  1.00  0.00     0.054 A 
BRANCH  80  81
ATOM     81  S   UNL     1       2.148 -13.908  10.577  1.00  0.00     0.124 S 
ATOM     82  O   UNL     1       1.748 -15.278  10.881  1.00  0.00    -0.237 OA
ATOM     83  O   UNL     1       3.266 -13.386  11.359  1.00  0.00    -0.237 OA
ATOM     84  O   UNL     1       1.050 -12.967  10.367  1.00  0.00    -0.744 OA
ENDBRANCH  80  81
ENDBRANCH  52  75
BRANCH  64  85
ATOM     85  C   UNL     1       5.476 -19.891   2.382  1.00  0.00    -0.014 A 
ATOM     86  C   UNL     1       4.207 -20.496   2.399  1.00  0.00     0.010 A 
ATOM     87  C   UNL     1       6.622 -20.702   2.495  1.00  0.00     0.010 A 
ATOM     88  C   UNL     1       4.086 -21.880   2.554  1.00  0.00     0.020 A 
ATOM     89  C   UNL     1       6.506 -22.088   2.615  1.00  0.00     0.020 A 
ATOM     90  C   UNL     1       5.237 -22.668   2.656  1.00  0.00     0.054 A 
BRANCH  90  91
ATOM     91  S   UNL     1       5.053 -24.466   2.800  1.00  0.00     0.124 S 
ATOM     92  O   UNL     1       4.514 -24.610   4.149  1.00  0.00    -0.237 OA
ATOM     93  O   UNL     1       4.125 -24.779   1.715  1.00  0.00    -0.237 OA
ATOM     94  O   UNL     1       6.411 -24.971   2.615  1.00  0.00    -0.744 OA
ENDBRANCH  90  91
ENDBRANCH  64  85
ENDBRANCH  38  39
ENDBRANCH  30  33
ENDBRANCH  28  29
ENDBRANCH   1  28
TORSDOF 16
