REMARK SMILES COc1ccc(-c2ccc(CCC(=O)NCCCCNC(=O)c3ccc(-c4c5nc(c(-c6ccc(S(=O)(=O)[O-])cc6)c6ccc([nH]6)c(-c6ccc(S(=O)(=O)[O-])cc6)c6nc(c(-c7ccc(S(=O)(=O)[O-])cc7)c7ccc4[nH]7)C=C6)C=C5)cc3)n2-c2ccc(C(C)=O)cc2)cc1
REMARK SMILES IDX 17 1 16 2 15 3 13 4 14 5 12 7 11 8 10 9 7 10 8 11 83 12 9 13
REMARK SMILES IDX 6 14 3 15 4 16 94 17 5 18 93 19 2 20 1 21 84 22 85 23 92 24
REMARK SMILES IDX 86 25 91 26 87 27 88 28 89 29 90 30 18 31 19 32 20 33 21 34
REMARK SMILES IDX 22 36 23 37 24 38 82 39 25 40 81 41 26 42 27 43 28 44 75 45
REMARK SMILES IDX 29 46 80 47 74 48 76 49 30 50 79 51 73 52 72 53 31 55 61 56
REMARK SMILES IDX 42 57 60 58 43 59 46 60 59 61 77 62 44 63 45 64 58 66 78 67
REMARK SMILES IDX 47 68 32 69 33 70 41 71 34 72 40 73 35 74 36 75 37 76 38 77
REMARK SMILES IDX 39 78 62 79 63 80 71 81 64 82 70 83 65 84 66 85 67 86 68 87
REMARK SMILES IDX 69 88 48 89 49 90 57 91 50 92 56 93 51 94 52 95 53 96 54 97
REMARK SMILES IDX 55 98
REMARK H PARENT 15 6 20 35 76 54 46 65
REMARK Flexibility Score: inf
ROOT
ATOM      1  C   UNL     1       4.531   5.391   6.187  1.00  0.00     0.023 C 
ENDROOT
BRANCH   1   2
ATOM      2  C   UNL     1       5.045   4.474   7.293  1.00  0.00     0.116 C 
BRANCH   2   3
ATOM      3  N   UNL     1       4.936   5.141   8.579  1.00  0.00    -0.356 N 
ATOM      4  C   UNL     1       3.890   5.152   9.454  1.00  0.00     0.220 C 
ATOM      5  O   UNL     1       3.873   6.004  10.346  1.00  0.00    -0.275 OA
ATOM      6  H   UNL     1       5.727   5.657   8.857  1.00  0.00     0.163 HD
BRANCH   4   7
ATOM      7  C   UNL     1       2.783   4.119   9.355  1.00  0.00     0.106 C 
BRANCH   7   8
ATOM      8  C   UNL     1       1.438   4.718   8.938  1.00  0.00     0.064 C 
BRANCH   8   9
ATOM      9  C   UNL     1       1.251   4.799   7.445  1.00  0.00     0.024 A 
ATOM     10  C   UNL     1       1.156   4.060   5.312  1.00  0.00     0.053 A 
ATOM     11  C   UNL     1       1.309   5.441   5.294  1.00  0.00     0.029 A 
ATOM     12  N   UNL     1       0.881   3.722   6.638  1.00  0.00    -0.314 N 
ATOM     13  C   UNL     1       1.337   5.905   6.624  1.00  0.00     0.024 A 
BRANCH  10  14
ATOM     14  C   UNL     1       0.984   3.206   4.137  1.00  0.00    -0.001 A 
ATOM     15  C   UNL     1       0.673   1.789   1.727  1.00  0.00     0.118 A 
ATOM     16  C   UNL     1      -0.389   2.517   2.263  1.00  0.00     0.047 A 
ATOM     17  C   UNL     1       1.898   1.772   2.396  1.00  0.00     0.047 A 
ATOM     18  C   UNL     1      -0.239   3.215   3.462  1.00  0.00     0.014 A 
ATOM     19  C   UNL     1       2.054   2.481   3.598  1.00  0.00     0.014 A 
BRANCH  15  20
ATOM     20  O   UNL     1       0.403   1.193   0.526  1.00  0.00    -0.497 OA
ATOM     21  C   UNL     1       1.200   0.065   0.192  1.00  0.00     0.278 C 
ENDBRANCH  15  20
ENDBRANCH  10  14
BRANCH  12  22
ATOM     22  C   UNL     1      -0.008   2.693   7.040  1.00  0.00     0.046 A 
ATOM     23  C   UNL     1      -1.190   3.096   7.675  1.00  0.00     0.027 A 
ATOM     24  C   UNL     1       0.197   1.357   6.709  1.00  0.00     0.027 A 
ATOM     25  C   UNL     1      -2.180   2.167   7.975  1.00  0.00     0.014 A 
ATOM     26  C   UNL     1      -0.794   0.421   7.037  1.00  0.00     0.014 A 
ATOM     27  C   UNL     1      -1.996   0.820   7.654  1.00  0.00     0.017 A 
BRANCH  27  28
ATOM     28  C   UNL     1      -3.042  -0.215   7.923  1.00  0.00     0.159 C 
ATOM     29  C   UNL     1      -4.409   0.174   8.434  1.00  0.00     0.093 C 
ATOM     30  O   UNL     1      -2.789  -1.400   7.704  1.00  0.00    -0.295 OA
ENDBRANCH  27  28
ENDBRANCH  12  22
ENDBRANCH   8   9
ENDBRANCH   7   8
ENDBRANCH   4   7
ENDBRANCH   2   3
ENDBRANCH   1   2
BRANCH   1  31
ATOM     31  C   UNL     1       5.562   6.284   5.503  1.00  0.00     0.023 C 
BRANCH  31  32
ATOM     32  C   UNL     1       6.420   5.536   4.495  1.00  0.00     0.116 C 
BRANCH  32  33
ATOM     33  N   UNL     1       5.626   4.953   3.416  1.00  0.00    -0.352 N 
ATOM     34  C   UNL     1       6.037   4.039   2.475  1.00  0.00     0.251 C 
ATOM     35  H   UNL     1       4.689   5.249   3.355  1.00  0.00     0.163 HD
ATOM     36  O   UNL     1       5.363   3.792   1.480  1.00  0.00    -0.269 OA
BRANCH  34  37
ATOM     37  C   UNL     1       7.338   3.385   2.675  1.00  0.00     0.039 A 
ATOM     38  C   UNL     1       8.348   3.591   1.733  1.00  0.00     0.014 A 
ATOM     39  C   UNL     1       7.571   2.665   3.852  1.00  0.00     0.014 A 
ATOM     40  C   UNL     1       9.636   3.162   2.028  1.00  0.00     0.010 A 
ATOM     41  C   UNL     1       8.862   2.272   4.164  1.00  0.00     0.010 A 
ATOM     42  C   UNL     1       9.898   2.548   3.263  1.00  0.00    -0.014 A 
BRANCH  42  43
ATOM     43  C   UNL     1      11.302   2.318   3.666  1.00  0.00     0.031 A 
ATOM     44  C   UNL     1      12.026   3.613   4.042  1.00  0.00     0.074 A 
ATOM     45  C   UNL     1      11.759   1.034   3.616  1.00  0.00     0.049 A 
ATOM     46  N   UNL     1      13.267   3.938   3.860  1.00  0.00    -0.248 NA
ATOM     47  C   UNL     1      11.248   4.751   4.601  1.00  0.00     0.031 C 
ATOM     48  C   UNL     1      10.924  -0.125   3.237  1.00  0.00     0.029 A 
ATOM     49  N   UNL     1      12.974   0.432   3.867  1.00  0.00    -0.354 N 
ATOM     50  C   UNL     1      13.463   5.228   4.403  1.00  0.00     0.074 A 
ATOM     51  C   UNL     1      12.160   5.720   4.743  1.00  0.00     0.031 C 
ATOM     52  C   UNL     1      11.654  -1.257   3.223  1.00  0.00     0.029 A 
ATOM     53  C   UNL     1      13.024  -0.955   3.585  1.00  0.00     0.049 A 
ATOM     54  H   UNL     1      13.749   0.929   4.215  1.00  0.00     0.167 HD
ATOM     55  C   UNL     1      14.702   5.745   4.664  1.00  0.00     0.031 A 
ATOM     56  C   UNL     1      14.093  -1.805   3.585  1.00  0.00     0.031 A 
ATOM     57  C   UNL     1      15.704   4.787   4.328  1.00  0.00     0.049 A 
ATOM     58  C   UNL     1      15.252  -1.044   4.081  1.00  0.00     0.074 A 
ATOM     59  C   UNL     1      16.161   4.274   3.142  1.00  0.00     0.029 A 
ATOM     60  N   UNL     1      16.111   3.971   5.359  1.00  0.00    -0.354 N 
ATOM     61  N   UNL     1      15.426  -0.652   5.306  1.00  0.00    -0.248 NA
ATOM     62  C   UNL     1      16.285  -0.625   3.122  1.00  0.00     0.031 C 
ATOM     63  C   UNL     1      16.392   2.914   3.447  1.00  0.00     0.029 A 
ATOM     64  C   UNL     1      16.257   2.717   4.827  1.00  0.00     0.049 A 
ATOM     65  H   UNL     1      16.266   4.237   6.294  1.00  0.00     0.167 HD
ATOM     66  C   UNL     1      16.336   0.367   5.162  1.00  0.00     0.074 A 
ATOM     67  C   UNL     1      17.040   0.125   3.921  1.00  0.00     0.031 C 
ATOM     68  C   UNL     1      16.052   1.582   5.697  1.00  0.00     0.031 A 
BRANCH  55  69
ATOM     69  C   UNL     1      15.161   6.931   5.477  1.00  0.00    -0.014 A 
ATOM     70  C   UNL     1      16.535   7.284   5.369  1.00  0.00     0.010 A 
ATOM     71  C   UNL     1      14.441   7.475   6.547  1.00  0.00     0.010 A 
ATOM     72  C   UNL     1      17.193   8.010   6.363  1.00  0.00     0.020 A 
ATOM     73  C   UNL     1      15.088   8.245   7.531  1.00  0.00     0.020 A 
ATOM     74  C   UNL     1      16.468   8.456   7.461  1.00  0.00     0.054 A 
BRANCH  74  75
ATOM     75  S   UNL     1      17.373   9.240   8.823  1.00  0.00     0.124 S 
ATOM     76  O   UNL     1      18.087   8.109   9.408  1.00  0.00    -0.237 OA
ATOM     77  O   UNL     1      18.211  10.216   8.127  1.00  0.00    -0.237 OA
ATOM     78  O   UNL     1      16.316   9.817   9.649  1.00  0.00    -0.744 OA
ENDBRANCH  74  75
ENDBRANCH  55  69
BRANCH  56  79
ATOM     79  C   UNL     1      14.380  -3.195   3.071  1.00  0.00    -0.014 A 
ATOM     80  C   UNL     1      13.461  -4.034   2.429  1.00  0.00     0.010 A 
ATOM     81  C   UNL     1      15.729  -3.645   3.078  1.00  0.00     0.010 A 
ATOM     82  C   UNL     1      13.892  -5.158   1.692  1.00  0.00     0.020 A 
ATOM     83  C   UNL     1      16.177  -4.720   2.308  1.00  0.00     0.020 A 
ATOM     84  C   UNL     1      15.252  -5.455   1.586  1.00  0.00     0.054 A 
BRANCH  84  85
ATOM     85  S   UNL     1      15.836  -6.688   0.391  1.00  0.00     0.124 S 
ATOM     86  O   UNL     1      15.722  -7.931   1.145  1.00  0.00    -0.237 OA
ATOM     87  O   UNL     1      14.896  -6.532  -0.718  1.00  0.00    -0.237 OA
ATOM     88  O   UNL     1      17.201  -6.254   0.097  1.00  0.00    -0.744 OA
ENDBRANCH  84  85
ENDBRANCH  56  79
BRANCH  68  89
ATOM     89  C   UNL     1      15.156   1.562   6.929  1.00  0.00    -0.014 A 
ATOM     90  C   UNL     1      15.545   0.817   8.059  1.00  0.00     0.010 A 
ATOM     91  C   UNL     1      13.898   2.195   6.978  1.00  0.00     0.010 A 
ATOM     92  C   UNL     1      14.715   0.697   9.183  1.00  0.00     0.020 A 
ATOM     93  C   UNL     1      13.058   2.085   8.103  1.00  0.00     0.020 A 
ATOM     94  C   UNL     1      13.473   1.333   9.201  1.00  0.00     0.054 A 
BRANCH  94  95
ATOM     95  S   UNL     1      12.418   1.150  10.670  1.00  0.00     0.124 S 
ATOM     96  O   UNL     1      12.232  -0.296  10.756  1.00  0.00    -0.237 OA
ATOM     97  O   UNL     1      13.240   1.737  11.725  1.00  0.00    -0.237 OA
ATOM     98  O   UNL     1      11.211   1.904  10.332  1.00  0.00    -0.744 OA
ENDBRANCH  94  95
ENDBRANCH  68  89
ENDBRANCH  42  43
ENDBRANCH  34  37
ENDBRANCH  32  33
ENDBRANCH  31  32
ENDBRANCH   1  31
TORSDOF 20
