REMARK SMILES COc1ccc(OC)c(Nc2c(-c3ccc(C(=O)NCCCCNC(=O)c4ccc(-c5c6nc(c(-c7ccc(S(=O)(=O)[O-])cc7)c7ccc([nH]7)c(-c7ccc(S(=O)(=O)[O-])cc7)c7nc(c(-c8ccc(S(=O)(=O)[O-])cc8)c8ccc5[nH]8)C=C7)C=C6)cc4)cc3)nc3cnccn23)c1
REMARK SMILES IDX 21 1 20 2 19 3 17 4 18 5 16 7 13 8 14 9 88 10 15 11 87 12
REMARK SMILES IDX 12 13 11 14 95 15 89 16 90 17 94 18 91 19 93 20 92 21 10 22
REMARK SMILES IDX 9 24 3 25 4 26 96 27 5 28 6 29 2 30 1 31 7 32 8 33 22 34
REMARK SMILES IDX 23 35 24 36 25 37 26 39 27 40 28 41 86 42 29 43 85 44 30 45
REMARK SMILES IDX 31 46 32 47 79 48 33 49 84 50 78 51 80 52 34 53 83 54 77 55
REMARK SMILES IDX 76 56 35 58 65 59 46 60 64 61 47 62 50 63 63 64 81 65 48 66
REMARK SMILES IDX 49 67 62 69 82 70 51 71 36 72 37 73 45 74 38 75 44 76 39 77
REMARK SMILES IDX 40 78 41 79 42 80 43 81 66 82 67 83 75 84 68 85 74 86 69 87
REMARK SMILES IDX 70 88 71 89 72 90 73 91 52 92 53 93 61 94 54 95 60 96 55 97
REMARK SMILES IDX 56 98 57 99 58 100 59 101
REMARK H PARENT 19 6 10 23 24 38 80 57 50 68
REMARK Flexibility Score: inf
ROOT
ATOM      1  C   UNL     1      11.298   0.552   5.308  1.00  0.00     0.023 C 
ENDROOT
BRANCH   1   2
ATOM      2  C   UNL     1      10.405   0.885   6.506  1.00  0.00     0.116 C 
BRANCH   2   3
ATOM      3  N   UNL     1       9.369   1.827   6.131  1.00  0.00    -0.352 N 
ATOM      4  C   UNL     1       8.067   1.639   5.742  1.00  0.00     0.251 C 
ATOM      5  O   UNL     1       7.380   2.638   5.527  1.00  0.00    -0.269 OA
ATOM      6  H   UNL     1       9.650   2.770   6.160  1.00  0.00     0.163 HD
BRANCH   4   7
ATOM      7  C   UNL     1       7.437   0.293   5.606  1.00  0.00     0.039 A 
ATOM      8  C   UNL     1       6.082  -2.172   5.373  1.00  0.00     0.004 A 
ATOM      9  C   UNL     1       5.373  -1.004   5.669  1.00  0.00     0.011 A 
ATOM     10  C   UNL     1       7.461  -2.100   5.175  1.00  0.00     0.011 A 
ATOM     11  C   UNL     1       6.048   0.217   5.789  1.00  0.00     0.014 A 
ATOM     12  C   UNL     1       8.123  -0.874   5.260  1.00  0.00     0.014 A 
BRANCH   8  13
ATOM     13  C   UNL     1       5.425  -3.454   5.231  1.00  0.00     0.114 A 
ATOM     14  C   UNL     1       4.340  -3.712   4.402  1.00  0.00     0.143 A 
ATOM     15  N   UNL     1       4.186  -5.080   4.467  1.00  0.00    -0.283 N 
ATOM     16  N   UNL     1       5.833  -4.582   5.906  1.00  0.00    -0.225 NA
ATOM     17  C   UNL     1       5.044  -5.524   5.445  1.00  0.00     0.157 A 
ATOM     18  C   UNL     1       3.384  -5.985   3.794  1.00  0.00     0.115 A 
ATOM     19  C   UNL     1       4.997  -6.909   5.819  1.00  0.00     0.158 A 
ATOM     20  C   UNL     1       3.429  -7.276   4.172  1.00  0.00     0.129 A 
ATOM     21  N   UNL     1       4.215  -7.760   5.208  1.00  0.00    -0.259 NA
BRANCH  14  22
ATOM     22  N   UNL     1       3.675  -2.911   3.541  1.00  0.00    -0.336 N 
ATOM     23  H   UNL     1       4.214  -2.624   2.768  1.00  0.00     0.168 HD
BRANCH  22  24
ATOM     24  C   UNL     1       2.345  -2.402   3.537  1.00  0.00     0.086 A 
ATOM     25  C   UNL     1       0.857  -1.001   2.103  1.00  0.00     0.121 A 
ATOM     26  C   UNL     1      -0.150  -1.125   3.039  1.00  0.00     0.050 A 
ATOM     27  C   UNL     1       2.073  -1.638   2.350  1.00  0.00     0.076 A 
ATOM     28  C   UNL     1       0.061  -1.902   4.173  1.00  0.00     0.052 A 
ATOM     29  C   UNL     1       1.284  -2.560   4.447  1.00  0.00     0.142 A 
BRANCH  25  30
ATOM     30  O   UNL     1       0.540  -0.227   1.024  1.00  0.00    -0.497 OA
ATOM     31  C   UNL     1       1.431  -0.247  -0.082  1.00  0.00     0.278 C 
ENDBRANCH  25  30
BRANCH  29  32
ATOM     32  O   UNL     1       1.108  -3.235   5.614  1.00  0.00    -0.495 OA
ATOM     33  C   UNL     1       2.131  -3.725   6.439  1.00  0.00     0.278 C 
ENDBRANCH  29  32
ENDBRANCH  22  24
ENDBRANCH  14  22
ENDBRANCH   8  13
ENDBRANCH   4   7
ENDBRANCH   2   3
ENDBRANCH   1   2
BRANCH   1  34
ATOM     34  C   UNL     1      12.383   1.588   5.017  1.00  0.00     0.023 C 
BRANCH  34  35
ATOM     35  C   UNL     1      13.428   1.741   6.114  1.00  0.00     0.116 C 
BRANCH  35  36
ATOM     36  N   UNL     1      14.120   0.501   6.428  1.00  0.00    -0.352 N 
ATOM     37  C   UNL     1      15.411   0.339   6.879  1.00  0.00     0.251 C 
ATOM     38  H   UNL     1      13.601  -0.327   6.302  1.00  0.00     0.163 HD
ATOM     39  O   UNL     1      15.890  -0.777   7.002  1.00  0.00    -0.269 OA
BRANCH  37  40
ATOM     40  C   UNL     1      16.217   1.545   7.165  1.00  0.00     0.039 A 
ATOM     41  C   UNL     1      17.481   1.661   6.584  1.00  0.00     0.014 A 
ATOM     42  C   UNL     1      15.699   2.575   7.954  1.00  0.00     0.014 A 
ATOM     43  C   UNL     1      18.202   2.846   6.742  1.00  0.00     0.010 A 
ATOM     44  C   UNL     1      16.386   3.779   8.049  1.00  0.00     0.010 A 
ATOM     45  C   UNL     1      17.644   3.926   7.445  1.00  0.00    -0.014 A 
BRANCH  45  46
ATOM     46  C   UNL     1      18.359   5.220   7.562  1.00  0.00     0.031 A 
ATOM     47  C   UNL     1      18.808   5.711   8.910  1.00  0.00     0.074 A 
ATOM     48  C   UNL     1      18.540   5.983   6.466  1.00  0.00     0.049 A 
ATOM     49  N   UNL     1      19.396   6.837   9.223  1.00  0.00    -0.248 NA
ATOM     50  C   UNL     1      18.536   4.834  10.061  1.00  0.00     0.031 C 
ATOM     51  C   UNL     1      18.107   5.638   5.110  1.00  0.00     0.029 A 
ATOM     52  N   UNL     1      19.130   7.213   6.322  1.00  0.00    -0.354 N 
ATOM     53  C   UNL     1      19.544   6.812  10.605  1.00  0.00     0.074 A 
ATOM     54  C   UNL     1      18.941   5.584  11.074  1.00  0.00     0.031 C 
ATOM     55  C   UNL     1      18.472   6.618   4.269  1.00  0.00     0.029 A 
ATOM     56  C   UNL     1      19.130   7.677   5.028  1.00  0.00     0.049 A 
ATOM     57  H   UNL     1      19.517   7.717   7.074  1.00  0.00     0.167 HD
ATOM     58  C   UNL     1      20.145   7.721  11.409  1.00  0.00     0.031 A 
ATOM     59  C   UNL     1      19.606   8.826   4.510  1.00  0.00     0.031 A 
ATOM     60  C   UNL     1      20.756   8.934  10.937  1.00  0.00     0.049 A 
ATOM     61  C   UNL     1      20.275   9.818   5.421  1.00  0.00     0.074 A 
ATOM     62  C   UNL     1      21.445   9.890  11.661  1.00  0.00     0.029 A 
ATOM     63  N   UNL     1      20.749   9.360   9.616  1.00  0.00    -0.354 N 
ATOM     64  N   UNL     1      20.468   9.746   6.716  1.00  0.00    -0.248 NA
ATOM     65  C   UNL     1      20.801  11.040   4.798  1.00  0.00     0.031 C 
ATOM     66  C   UNL     1      21.816  10.917  10.786  1.00  0.00     0.029 A 
ATOM     67  C   UNL     1      21.404  10.575   9.508  1.00  0.00     0.049 A 
ATOM     68  H   UNL     1      20.339   8.870   8.867  1.00  0.00     0.167 HD
ATOM     69  C   UNL     1      21.160  10.901   7.060  1.00  0.00     0.074 A 
ATOM     70  C   UNL     1      21.362  11.648   5.835  1.00  0.00     0.031 C 
ATOM     71  C   UNL     1      21.593  11.306   8.280  1.00  0.00     0.031 A 
BRANCH  58  72
ATOM     72  C   UNL     1      20.159   7.432  12.887  1.00  0.00    -0.014 A 
ATOM     73  C   UNL     1      20.941   6.388  13.416  1.00  0.00     0.010 A 
ATOM     74  C   UNL     1      19.389   8.220  13.761  1.00  0.00     0.010 A 
ATOM     75  C   UNL     1      20.910   6.104  14.783  1.00  0.00     0.020 A 
ATOM     76  C   UNL     1      19.378   7.957  15.134  1.00  0.00     0.020 A 
ATOM     77  C   UNL     1      20.122   6.885  15.633  1.00  0.00     0.054 A 
BRANCH  77  78
ATOM     78  S   UNL     1      20.099   6.495  17.404  1.00  0.00     0.124 S 
ATOM     79  O   UNL     1      19.264   5.296  17.435  1.00  0.00    -0.237 OA
ATOM     80  O   UNL     1      21.512   6.282  17.705  1.00  0.00    -0.237 OA
ATOM     81  O   UNL     1      19.507   7.683  18.013  1.00  0.00    -0.744 OA
ENDBRANCH  77  78
ENDBRANCH  58  72
BRANCH  59  82
ATOM     82  C   UNL     1      19.493   9.081   3.049  1.00  0.00    -0.014 A 
ATOM     83  C   UNL     1      20.631   9.010   2.226  1.00  0.00     0.010 A 
ATOM     84  C   UNL     1      18.244   9.366   2.467  1.00  0.00     0.010 A 
ATOM     85  C   UNL     1      20.525   9.230   0.850  1.00  0.00     0.020 A 
ATOM     86  C   UNL     1      18.131   9.562   1.087  1.00  0.00     0.020 A 
ATOM     87  C   UNL     1      19.274   9.501   0.288  1.00  0.00     0.054 A 
BRANCH  87  88
ATOM     88  S   UNL     1      19.151   9.716  -1.509  1.00  0.00     0.124 S 
ATOM     89  O   UNL     1      19.719  11.046  -1.696  1.00  0.00    -0.237 OA
ATOM     90  O   UNL     1      19.954   8.606  -2.016  1.00  0.00    -0.237 OA
ATOM     91  O   UNL     1      17.717   9.603  -1.768  1.00  0.00    -0.744 OA
ENDBRANCH  87  88
ENDBRANCH  59  82
BRANCH  71  92
ATOM     92  C   UNL     1      22.355  12.601   8.349  1.00  0.00    -0.014 A 
ATOM     93  C   UNL     1      21.701  13.838   8.211  1.00  0.00     0.010 A 
ATOM     94  C   UNL     1      23.736  12.579   8.613  1.00  0.00     0.010 A 
ATOM     95  C   UNL     1      22.423  15.031   8.308  1.00  0.00     0.020 A 
ATOM     96  C   UNL     1      24.456  13.769   8.737  1.00  0.00     0.020 A 
ATOM     97  C   UNL     1      23.796  14.989   8.570  1.00  0.00     0.054 A 
BRANCH  97  98
ATOM     98  S   UNL     1      24.703  16.551   8.739  1.00  0.00     0.124 S 
ATOM     99  O   UNL     1      24.812  16.990   7.351  1.00  0.00    -0.237 OA
ATOM    100  O   UNL     1      23.815  17.348   9.583  1.00  0.00    -0.237 OA
ATOM    101  O   UNL     1      25.960  16.154   9.370  1.00  0.00    -0.744 OA
ENDBRANCH  97  98
ENDBRANCH  71  92
ENDBRANCH  45  46
ENDBRANCH  37  40
ENDBRANCH  35  36
ENDBRANCH  34  35
ENDBRANCH   1  34
TORSDOF 19
