REMARK SMILES Cc1noc(C)c1[C@@H](C)NC(=O)N[C@H](CO)C(=O)NCCCCNC(=O)c1ccc(-c2c3nc(c(-c4ccc(S(=O)(=O)[O-])cc4)c4ccc([nH]4)c(-c4ccc(S(=O)(=O)[O-])cc4)c4nc(c(-c5ccc(S(=O)(=O)[O-])cc5)c5ccc2[nH]5)C=C4)C=C3)cc1
REMARK SMILES IDX 21 1 20 2 19 3 17 4 18 5 14 7 13 8 10 9 11 10 12 12 8 14
REMARK SMILES IDX 9 15 7 16 1 17 2 18 3 19 4 20 5 21 6 22 15 23 16 24 22 26
REMARK SMILES IDX 23 27 24 28 25 29 26 31 27 32 28 33 86 34 29 35 85 36 30 37
REMARK SMILES IDX 31 38 32 39 79 40 33 41 84 42 78 43 80 44 34 45 83 46 77 47
REMARK SMILES IDX 76 48 35 50 65 51 46 52 64 53 47 54 50 55 63 56 81 57 48 58
REMARK SMILES IDX 49 59 62 61 82 62 51 63 36 64 37 65 45 66 38 67 44 68 39 69
REMARK SMILES IDX 40 70 41 71 42 72 43 73 66 74 67 75 75 76 68 77 74 78 69 79
REMARK SMILES IDX 70 80 71 81 72 82 73 83 52 84 53 85 61 86 54 87 60 88 55 89
REMARK SMILES IDX 56 90 57 91 58 92 59 93
REMARK H PARENT 19 6 10 11 13 13 16 25 24 30 80 49 50 60
REMARK Flexibility Score: inf
ROOT
ATOM      1  C   UNL     1       5.435   5.289   2.193  1.00  0.00     0.023 C 
ENDROOT
BRANCH   1   2
ATOM      2  C   UNL     1       5.317   4.601   0.841  1.00  0.00     0.116 C 
BRANCH   2   3
ATOM      3  N   UNL     1       4.573   3.356   0.924  1.00  0.00    -0.354 N 
ATOM      4  C   UNL     1       3.248   3.075   0.782  1.00  0.00     0.245 C 
ATOM      5  O   UNL     1       2.945   1.874   0.790  1.00  0.00    -0.273 OA
ATOM      6  H   UNL     1       5.131   2.568   1.118  1.00  0.00     0.163 HD
BRANCH   4   7
ATOM      7  C   UNL     1       2.174   4.130   0.421  1.00  0.00     0.198 C 
BRANCH   7   8
ATOM      8  N   UNL     1       2.383   5.552   0.712  1.00  0.00    -0.324 N 
ATOM      9  N   UNL     1       2.353   5.986   3.045  1.00  0.00    -0.331 N 
ATOM     10  C   UNL     1       2.482   6.347   1.773  1.00  0.00     0.315 C 
ATOM     11  H   UNL     1       2.686   6.681   3.656  1.00  0.00     0.165 HD
ATOM     12  O   UNL     1       2.774   7.524   1.542  1.00  0.00    -0.249 OA
ATOM     13  H   UNL     1       2.476   6.068  -0.121  1.00  0.00     0.166 HD
BRANCH   9  14
ATOM     14  C   UNL     1       1.847   4.829   3.769  1.00  0.00     0.116 C 
ATOM     15  C   UNL     1       0.635   5.286   4.580  1.00  0.00     0.036 C 
BRANCH  14  16
ATOM     16  C   UNL     1       2.901   4.210   4.647  1.00  0.00     0.040 A 
ATOM     17  C   UNL     1       3.770   6.185   6.179  1.00  0.00     0.071 C 
ATOM     18  C   UNL     1       3.685   4.786   5.699  1.00  0.00     0.086 A 
ATOM     19  N   UNL     1       4.462   3.873   6.292  1.00  0.00    -0.085 NA
ATOM     20  O   UNL     1       4.244   2.697   5.624  1.00  0.00    -0.361 OA
ATOM     21  C   UNL     1       3.321   2.888   4.649  1.00  0.00     0.139 A 
ATOM     22  C   UNL     1       3.021   1.676   3.864  1.00  0.00     0.091 C 
ENDBRANCH  14  16
ENDBRANCH   9  14
ENDBRANCH   7   8
BRANCH   7  23
ATOM     23  C   UNL     1       0.746   3.615   0.726  1.00  0.00     0.191 C 
BRANCH  23  24
ATOM     24  O   UNL     1      -0.166   4.644   1.116  1.00  0.00    -0.394 OA
ATOM     25  H   UNL     1       0.145   5.057   1.937  1.00  0.00     0.210 HD
ENDBRANCH  23  24
ENDBRANCH   7  23
ENDBRANCH   4   7
ENDBRANCH   2   3
ENDBRANCH   1   2
BRANCH   1  26
ATOM     26  C   UNL     1       6.415   4.659   3.169  1.00  0.00     0.023 C 
BRANCH  26  27
ATOM     27  C   UNL     1       7.688   5.460   3.324  1.00  0.00     0.116 C 
BRANCH  27  28
ATOM     28  N   UNL     1       7.484   6.784   3.912  1.00  0.00    -0.352 N 
ATOM     29  C   UNL     1       8.248   7.450   4.848  1.00  0.00     0.251 C 
ATOM     30  H   UNL     1       6.688   7.269   3.594  1.00  0.00     0.163 HD
ATOM     31  O   UNL     1       7.874   8.523   5.299  1.00  0.00    -0.269 OA
BRANCH  29  32
ATOM     32  C   UNL     1       9.500   6.823   5.334  1.00  0.00     0.039 A 
ATOM     33  C   UNL     1       9.824   6.883   6.692  1.00  0.00     0.014 A 
ATOM     34  C   UNL     1      10.309   6.102   4.458  1.00  0.00     0.014 A 
ATOM     35  C   UNL     1      10.905   6.140   7.173  1.00  0.00     0.010 A 
ATOM     36  C   UNL     1      11.266   5.239   4.961  1.00  0.00     0.010 A 
ATOM     37  C   UNL     1      11.601   5.268   6.320  1.00  0.00    -0.014 A 
BRANCH  37  38
ATOM     38  C   UNL     1      12.713   4.403   6.794  1.00  0.00     0.031 A 
ATOM     39  C   UNL     1      14.059   4.494   6.115  1.00  0.00     0.074 A 
ATOM     40  C   UNL     1      12.490   3.479   7.750  1.00  0.00     0.049 A 
ATOM     41  N   UNL     1      15.119   3.746   6.278  1.00  0.00    -0.248 NA
ATOM     42  C   UNL     1      14.218   5.525   5.071  1.00  0.00     0.031 C 
ATOM     43  C   UNL     1      11.209   3.236   8.422  1.00  0.00     0.029 A 
ATOM     44  N   UNL     1      13.337   2.562   8.321  1.00  0.00    -0.354 N 
ATOM     45  C   UNL     1      16.038   4.183   5.330  1.00  0.00     0.074 A 
ATOM     46  C   UNL     1      15.392   5.209   4.548  1.00  0.00     0.031 C 
ATOM     47  C   UNL     1      11.368   2.270   9.342  1.00  0.00     0.029 A 
ATOM     48  C   UNL     1      12.745   1.792   9.296  1.00  0.00     0.049 A 
ATOM     49  H   UNL     1      14.280   2.465   8.058  1.00  0.00     0.167 HD
ATOM     50  C   UNL     1      17.320   3.792   5.149  1.00  0.00     0.031 A 
ATOM     51  C   UNL     1      13.257   0.811  10.064  1.00  0.00     0.031 A 
ATOM     52  C   UNL     1      17.978   2.826   5.983  1.00  0.00     0.049 A 
ATOM     53  C   UNL     1      14.707   0.446   9.893  1.00  0.00     0.074 A 
ATOM     54  C   UNL     1      19.303   2.431   5.961  1.00  0.00     0.029 A 
ATOM     55  N   UNL     1      17.361   2.119   7.004  1.00  0.00    -0.354 N 
ATOM     56  N   UNL     1      15.585   0.931   9.045  1.00  0.00    -0.248 NA
ATOM     57  C   UNL     1      15.242  -0.587  10.790  1.00  0.00     0.031 C 
ATOM     58  C   UNL     1      19.477   1.450   6.942  1.00  0.00     0.029 A 
ATOM     59  C   UNL     1      18.275   1.276   7.609  1.00  0.00     0.049 A 
ATOM     60  H   UNL     1      16.415   2.205   7.260  1.00  0.00     0.167 HD
ATOM     61  C   UNL     1      16.780   0.279   9.324  1.00  0.00     0.074 A 
ATOM     62  C   UNL     1      16.519  -0.616  10.433  1.00  0.00     0.031 C 
ATOM     63  C   UNL     1      17.986   0.403   8.717  1.00  0.00     0.031 A 
BRANCH  50  64
ATOM     64  C   UNL     1      18.101   4.427   4.027  1.00  0.00    -0.014 A 
ATOM     65  C   UNL     1      18.473   5.784   4.074  1.00  0.00     0.010 A 
ATOM     66  C   UNL     1      18.515   3.644   2.935  1.00  0.00     0.010 A 
ATOM     67  C   UNL     1      19.213   6.353   3.035  1.00  0.00     0.020 A 
ATOM     68  C   UNL     1      19.283   4.201   1.908  1.00  0.00     0.020 A 
ATOM     69  C   UNL     1      19.616   5.556   1.959  1.00  0.00     0.054 A 
BRANCH  69  70
ATOM     70  S   UNL     1      20.623   6.310   0.653  1.00  0.00     0.124 S 
ATOM     71  O   UNL     1      19.644   7.147  -0.037  1.00  0.00    -0.237 OA
ATOM     72  O   UNL     1      21.642   7.032   1.411  1.00  0.00    -0.237 OA
ATOM     73  O   UNL     1      21.113   5.166  -0.112  1.00  0.00    -0.744 OA
ENDBRANCH  69  70
ENDBRANCH  50  64
BRANCH  51  74
ATOM     74  C   UNL     1      12.406   0.123  11.076  1.00  0.00    -0.014 A 
ATOM     75  C   UNL     1      12.632   0.316  12.451  1.00  0.00     0.010 A 
ATOM     76  C   UNL     1      11.366  -0.734  10.672  1.00  0.00     0.010 A 
ATOM     77  C   UNL     1      11.859  -0.361  13.401  1.00  0.00     0.020 A 
ATOM     78  C   UNL     1      10.571  -1.388  11.618  1.00  0.00     0.020 A 
ATOM     79  C   UNL     1      10.834  -1.211  12.978  1.00  0.00     0.054 A 
BRANCH  79  80
ATOM     80  S   UNL     1       9.829  -2.061  14.227  1.00  0.00     0.124 S 
ATOM     81  O   UNL     1      10.751  -3.083  14.714  1.00  0.00    -0.237 OA
ATOM     82  O   UNL     1       9.520  -0.988  15.169  1.00  0.00    -0.237 OA
ATOM     83  O   UNL     1       8.686  -2.560  13.466  1.00  0.00    -0.744 OA
ENDBRANCH  79  80
ENDBRANCH  51  74
BRANCH  63  84
ATOM     84  C   UNL     1      19.119  -0.422   9.261  1.00  0.00    -0.014 A 
ATOM     85  C   UNL     1      19.171  -1.811   9.053  1.00  0.00     0.010 A 
ATOM     86  C   UNL     1      20.175   0.215   9.937  1.00  0.00     0.010 A 
ATOM     87  C   UNL     1      20.245  -2.555   9.545  1.00  0.00     0.020 A 
ATOM     88  C   UNL     1      21.265  -0.522  10.403  1.00  0.00     0.020 A 
ATOM     89  C   UNL     1      21.285  -1.905  10.218  1.00  0.00     0.054 A 
BRANCH  89  90
ATOM     90  S   UNL     1      22.687  -2.889  10.812  1.00  0.00     0.124 S 
ATOM     91  O   UNL     1      22.108  -3.576  11.963  1.00  0.00    -0.237 OA
ATOM     92  O   UNL     1      22.993  -3.737   9.663  1.00  0.00    -0.237 OA
ATOM     93  O   UNL     1      23.703  -1.888  11.129  1.00  0.00    -0.744 OA
ENDBRANCH  89  90
ENDBRANCH  63  84
ENDBRANCH  37  38
ENDBRANCH  29  32
ENDBRANCH  27  28
ENDBRANCH  26  27
ENDBRANCH   1  26
TORSDOF 19
