REMARK SMILES Cc1ccc(NC(=O)C[C@@H](C(=O)NCCCCNC(=O)c2ccc(-c3c4nc(c(-c5ccc(S(=O)(=O)[O-])cc5)c5ccc([nH]5)c(-c5ccc(S(=O)(=O)[O-])cc5)c5nc(c(-c6ccc(S(=O)(=O)[O-])cc6)c6ccc3[nH]6)C=C5)C=C4)cc2)[C@@H](C)c2ccccc2)cc1Br
REMARK SMILES IDX 15 1 14 2 13 3 11 4 12 5 10 7 9 8 7 9 6 10 8 12 5 13 1 14
REMARK SMILES IDX 2 15 3 16 90 17 4 18 89 19 91 20 81 21 82 22 83 23 84 24
REMARK SMILES IDX 88 25 85 26 87 27 86 28 16 29 17 30 18 31 19 32 20 34 21 35
REMARK SMILES IDX 22 36 80 37 23 38 79 39 24 40 25 41 26 42 73 43 27 44 78 45
REMARK SMILES IDX 72 46 74 47 28 48 77 49 71 50 70 51 29 53 59 54 40 55 58 56
REMARK SMILES IDX 41 57 44 58 57 59 75 60 42 61 43 62 56 64 76 65 45 66 30 67
REMARK SMILES IDX 31 68 39 69 32 70 38 71 33 72 34 73 35 74 36 75 37 76 60 77
REMARK SMILES IDX 61 78 69 79 62 80 68 81 63 82 64 83 65 84 66 85 67 86 46 87
REMARK SMILES IDX 47 88 55 89 48 90 54 91 49 92 50 93 51 94 52 95 53 96
REMARK H PARENT 13 6 6 11 18 33 74 52 44 63
REMARK Flexibility Score: inf
ROOT
ATOM      1  C   UNL     1       4.510   3.358  -0.653  1.00  0.00     0.023 C 
ENDROOT
BRANCH   1   2
ATOM      2  C   UNL     1       3.399   3.483  -1.706  1.00  0.00     0.116 C 
BRANCH   2   3
ATOM      3  N   UNL     1       2.517   2.332  -1.731  1.00  0.00    -0.356 N 
ATOM      4  C   UNL     1       1.178   2.176  -1.571  1.00  0.00     0.224 C 
ATOM      5  O   UNL     1       0.779   1.016  -1.671  1.00  0.00    -0.275 OA
ATOM      6  H   UNL     1       2.989   1.485  -1.899  1.00  0.00     0.163 HD
BRANCH   4   7
ATOM      7  C   UNL     1       0.246   3.355  -1.288  1.00  0.00     0.095 C 
BRANCH   7   8
ATOM      8  C   UNL     1       0.361   3.942   0.147  1.00  0.00     0.114 C 
BRANCH   8   9
ATOM      9  C   UNL     1       1.565   3.750   1.039  1.00  0.00     0.225 C 
ATOM     10  N   UNL     1       1.948   2.553   1.560  1.00  0.00    -0.326 N 
ATOM     11  H   UNL     1       2.750   2.603   2.128  1.00  0.00     0.169 HD
ATOM     12  O   UNL     1       2.253   4.741   1.317  1.00  0.00    -0.275 OA
BRANCH  10  13
ATOM     13  C   UNL     1       1.416   1.262   1.442  1.00  0.00     0.042 A 
ATOM     14  C   UNL     1       0.177  -2.699   0.281  1.00  0.00     0.045 C 
ATOM     15  C   UNL     1       0.570  -1.346   0.800  1.00  0.00    -0.037 A 
ATOM     16  C   UNL     1       1.924  -1.071   1.030  1.00  0.00     0.007 A 
ATOM     17  C   UNL     1      -0.362  -0.323   1.025  1.00  0.00     0.022 A 
ATOM     18  C   UNL     1       2.338   0.213   1.383  1.00  0.00     0.026 A 
ATOM     19  C   UNL     1       0.059   0.977   1.337  1.00  0.00     0.042 A 
ATOM     20  Br  UNL     1      -2.235  -0.628   0.897  1.00  0.00    -0.050 Br
ENDBRANCH  10  13
ENDBRANCH   8   9
ENDBRANCH   7   8
BRANCH   7  21
ATOM     21  C   UNL     1      -1.292   3.063  -1.546  1.00  0.00     0.029 C 
ATOM     22  C   UNL     1      -2.120   4.363  -1.375  1.00  0.00     0.013 C 
BRANCH  21  23
ATOM     23  C   UNL     1      -1.720   2.348  -2.831  1.00  0.00    -0.044 A 
ATOM     24  C   UNL     1      -2.171   3.020  -3.977  1.00  0.00     0.004 A 
ATOM     25  C   UNL     1      -1.808   0.944  -2.832  1.00  0.00     0.004 A 
ATOM     26  C   UNL     1      -2.711   2.313  -5.061  1.00  0.00     0.000 A 
ATOM     27  C   UNL     1      -2.311   0.235  -3.924  1.00  0.00     0.000 A 
ATOM     28  C   UNL     1      -2.777   0.922  -5.036  1.00  0.00     0.000 A 
ENDBRANCH  21  23
ENDBRANCH   7  21
ENDBRANCH   4   7
ENDBRANCH   2   3
ENDBRANCH   1   2
BRANCH   1  29
ATOM     29  C   UNL     1       5.233   2.011  -0.593  1.00  0.00     0.023 C 
BRANCH  29  30
ATOM     30  C   UNL     1       6.038   1.681  -1.838  1.00  0.00     0.116 C 
BRANCH  30  31
ATOM     31  N   UNL     1       7.151   2.602  -2.010  1.00  0.00    -0.352 N 
ATOM     32  C   UNL     1       8.496   2.395  -1.843  1.00  0.00     0.251 C 
ATOM     33  H   UNL     1       6.899   3.512  -2.289  1.00  0.00     0.163 HD
ATOM     34  O   UNL     1       9.252   3.366  -1.765  1.00  0.00    -0.269 OA
BRANCH  32  35
ATOM     35  C   UNL     1       9.042   1.024  -1.752  1.00  0.00     0.039 A 
ATOM     36  C   UNL     1      10.101   0.763  -0.877  1.00  0.00     0.014 A 
ATOM     37  C   UNL     1       8.539   0.001  -2.558  1.00  0.00     0.014 A 
ATOM     38  C   UNL     1      10.620  -0.531  -0.780  1.00  0.00     0.010 A 
ATOM     39  C   UNL     1       8.983  -1.304  -2.384  1.00  0.00     0.010 A 
ATOM     40  C   UNL     1      10.047  -1.582  -1.515  1.00  0.00    -0.014 A 
BRANCH  40  41
ATOM     41  C   UNL     1      10.574  -2.969  -1.440  1.00  0.00     0.031 A 
ATOM     42  C   UNL     1      11.110  -3.630  -2.686  1.00  0.00     0.074 A 
ATOM     43  C   UNL     1      10.505  -3.656  -0.283  1.00  0.00     0.049 A 
ATOM     44  N   UNL     1      11.517  -4.861  -2.859  1.00  0.00    -0.248 NA
ATOM     45  C   UNL     1      11.156  -2.809  -3.909  1.00  0.00     0.031 C 
ATOM     46  C   UNL     1       9.965  -3.143   0.979  1.00  0.00     0.029 A 
ATOM     47  N   UNL     1      10.886  -4.939   0.018  1.00  0.00    -0.354 N 
ATOM     48  C   UNL     1      11.830  -4.969  -4.210  1.00  0.00     0.074 A 
ATOM     49  C   UNL     1      11.514  -3.699  -4.822  1.00  0.00     0.031 C 
ATOM     50  C   UNL     1      10.079  -4.091   1.924  1.00  0.00     0.029 A 
ATOM     51  C   UNL     1      10.661  -5.290   1.329  1.00  0.00     0.049 A 
ATOM     52  H   UNL     1      11.284  -5.551  -0.642  1.00  0.00     0.167 HD
ATOM     53  C   UNL     1      12.359  -6.022  -4.878  1.00  0.00     0.031 A 
ATOM     54  C   UNL     1      10.894  -6.447   1.977  1.00  0.00     0.031 A 
ATOM     55  C   UNL     1      12.712  -7.268  -4.254  1.00  0.00     0.049 A 
ATOM     56  C   UNL     1      11.512  -7.593   1.223  1.00  0.00     0.074 A 
ATOM     57  C   UNL     1      13.317  -8.374  -4.822  1.00  0.00     0.029 A 
ATOM     58  N   UNL     1      12.502  -7.567  -2.916  1.00  0.00    -0.354 N 
ATOM     59  N   UNL     1      11.854  -7.656  -0.043  1.00  0.00    -0.248 NA
ATOM     60  C   UNL     1      11.790  -8.817   1.986  1.00  0.00     0.031 C 
ATOM     61  C   UNL     1      13.437  -9.359  -3.836  1.00  0.00     0.029 A 
ATOM     62  C   UNL     1      12.955  -8.845  -2.642  1.00  0.00     0.049 A 
ATOM     63  H   UNL     1      12.092  -6.959  -2.259  1.00  0.00     0.167 HD
ATOM     64  C   UNL     1      12.412  -8.917  -0.221  1.00  0.00     0.074 A 
ATOM     65  C   UNL     1      12.375  -9.577   1.069  1.00  0.00     0.031 C 
ATOM     66  C   UNL     1      12.913  -9.478  -1.349  1.00  0.00     0.031 A 
BRANCH  53  67
ATOM     67  C   UNL     1      12.593  -5.863  -6.358  1.00  0.00    -0.014 A 
ATOM     68  C   UNL     1      13.584  -4.993  -6.849  1.00  0.00     0.010 A 
ATOM     69  C   UNL     1      11.830  -6.612  -7.272  1.00  0.00     0.010 A 
ATOM     70  C   UNL     1      13.775  -4.839  -8.224  1.00  0.00     0.020 A 
ATOM     71  C   UNL     1      12.039  -6.484  -8.649  1.00  0.00     0.020 A 
ATOM     72  C   UNL     1      12.997  -5.583  -9.116  1.00  0.00     0.054 A 
BRANCH  72  73
ATOM     73  S   UNL     1      13.279  -5.377 -10.896  1.00  0.00     0.124 S 
ATOM     74  O   UNL     1      12.677  -4.069 -11.146  1.00  0.00    -0.237 OA
ATOM     75  O   UNL     1      14.736  -5.426 -10.998  1.00  0.00    -0.237 OA
ATOM     76  O   UNL     1      12.577  -6.510 -11.492  1.00  0.00    -0.744 OA
ENDBRANCH  72  73
ENDBRANCH  53  67
BRANCH  54  77
ATOM     77  C   UNL     1      10.570  -6.568   3.425  1.00  0.00    -0.014 A 
ATOM     78  C   UNL     1      11.598  -6.621   4.382  1.00  0.00     0.010 A 
ATOM     79  C   UNL     1       9.232  -6.612   3.856  1.00  0.00     0.010 A 
ATOM     80  C   UNL     1      11.296  -6.734   5.743  1.00  0.00     0.020 A 
ATOM     81  C   UNL     1       8.925  -6.697   5.218  1.00  0.00     0.020 A 
ATOM     82  C   UNL     1       9.960  -6.770   6.152  1.00  0.00     0.054 A 
BRANCH  82  83
ATOM     83  S   UNL     1       9.590  -6.864   7.926  1.00  0.00     0.124 S 
ATOM     84  O   UNL     1       9.913  -8.254   8.230  1.00  0.00    -0.237 OA
ATOM     85  O   UNL     1      10.494  -5.865   8.491  1.00  0.00    -0.237 OA
ATOM     86  O   UNL     1       8.172  -6.519   7.997  1.00  0.00    -0.744 OA
ENDBRANCH  82  83
ENDBRANCH  54  77
BRANCH  66  87
ATOM     87  C   UNL     1      13.498 -10.859  -1.234  1.00  0.00    -0.014 A 
ATOM     88  C   UNL     1      12.675 -11.988  -1.082  1.00  0.00     0.010 A 
ATOM     89  C   UNL     1      14.890 -11.031  -1.347  1.00  0.00     0.010 A 
ATOM     90  C   UNL     1      13.237 -13.265  -1.018  1.00  0.00     0.020 A 
ATOM     91  C   UNL     1      15.453 -12.309  -1.311  1.00  0.00     0.020 A 
ATOM     92  C   UNL     1      14.623 -13.417  -1.134  1.00  0.00     0.054 A 
BRANCH  92  93
ATOM     93  S   UNL     1      15.323 -15.090  -1.099  1.00  0.00     0.124 S 
ATOM     94  O   UNL     1      15.221 -15.432   0.316  1.00  0.00    -0.237 OA
ATOM     95  O   UNL     1      14.434 -15.829  -1.991  1.00  0.00    -0.237 OA
ATOM     96  O   UNL     1      16.684 -14.905  -1.599  1.00  0.00    -0.744 OA
ENDBRANCH  92  93
ENDBRANCH  66  87
ENDBRANCH  40  41
ENDBRANCH  32  35
ENDBRANCH  30  31
ENDBRANCH  29  30
ENDBRANCH   1  29
TORSDOF 19
