REMARK SMILES [NH3+][C@@H](Cc1cn(-c2nc(Cl)nc(N3CCOCC3)n2)c2ccccc12)C(=O)NCCCCNC(=O)c1ccc(-c2c3nc(c(-c4ccc(S(=O)(=O)[O-])cc4)c4ccc([nH]4)c(-c4ccc(S(=O)(=O)[O-])cc4)c4nc(c(-c5ccc(S(=O)(=O)[O-])cc5)c5ccc2[nH]5)C=C4)C=C3)cc1
REMARK SMILES IDX 30 1 29 2 28 3 26 4 27 5 2 7 1 8 3 12 4 13 5 14 25 15 6 16
REMARK SMILES IDX 20 17 24 18 21 19 23 20 22 21 7 22 8 23 19 24 9 25 12 26
REMARK SMILES IDX 10 27 11 28 13 29 14 30 18 31 15 32 17 33 16 34 31 35 32 36
REMARK SMILES IDX 33 37 34 38 35 40 36 41 37 42 95 43 38 44 94 45 39 46 40 47
REMARK SMILES IDX 41 48 88 49 42 50 93 51 87 52 89 53 43 54 92 55 86 56 85 57
REMARK SMILES IDX 44 59 74 60 55 61 73 62 56 63 59 64 72 65 90 66 57 67 58 68
REMARK SMILES IDX 71 70 91 71 60 72 45 73 46 74 54 75 47 76 53 77 48 78 49 79
REMARK SMILES IDX 50 80 51 81 52 82 75 83 76 84 84 85 77 86 83 87 78 88 79 89
REMARK SMILES IDX 80 90 81 91 82 92 61 93 62 94 70 95 63 96 69 97 64 98 65 99
REMARK SMILES IDX 66 100 67 101 68 102
REMARK H PARENT 28 6 1 9 1 10 1 11 33 39 89 58 59 69
REMARK Flexibility Score: inf
ROOT
ATOM      1  C   UNL     1      -1.035   2.239  -1.161  1.00  0.00     0.023 C 
ENDROOT
BRANCH   1   2
ATOM      2  C   UNL     1      -0.870   1.524   0.182  1.00  0.00     0.116 C 
BRANCH   2   3
ATOM      3  N   UNL     1      -1.329   0.154   0.222  1.00  0.00    -0.351 N 
ATOM      4  C   UNL     1      -0.872  -0.830   1.061  1.00  0.00     0.278 C 
ATOM      5  O   UNL     1      -1.651  -1.737   1.372  1.00  0.00    -0.268 OA
ATOM      6  H   UNL     1      -2.038  -0.096  -0.414  1.00  0.00     0.163 HD
BRANCH   4   7
ATOM      7  C   UNL     1       0.589  -0.839   1.578  1.00  0.00     0.275 C 
BRANCH   7   8
ATOM      8  N   UNL     1       1.567  -0.406   0.548  1.00  0.00    -0.347 N 
ATOM      9  H   UNL     1       2.508  -0.431   0.941  1.00  0.00     0.345 HD
ATOM     10  H   UNL     1       1.348   0.544   0.248  1.00  0.00     0.345 HD
ATOM     11  H   UNL     1       1.517  -1.035  -0.254  1.00  0.00     0.345 HD
ENDBRANCH   7   8
BRANCH   7  12
ATOM     12  C   UNL     1       0.802  -0.252   2.992  1.00  0.00     0.113 C 
BRANCH  12  13
ATOM     13  C   UNL     1       0.314   1.143   3.263  1.00  0.00    -0.015 A 
ATOM     14  C   UNL     1      -0.916   1.473   3.797  1.00  0.00     0.099 A 
ATOM     15  C   UNL     1       0.991   2.381   3.024  1.00  0.00     0.004 A 
ATOM     16  N   UNL     1      -1.078   2.850   3.810  1.00  0.00    -0.285 N 
ATOM     17  C   UNL     1       0.098   3.425   3.324  1.00  0.00     0.056 A 
ATOM     18  C   UNL     1       2.269   2.699   2.508  1.00  0.00     0.010 A 
ATOM     19  C   UNL     1       0.448   4.767   3.082  1.00  0.00     0.027 A 
ATOM     20  C   UNL     1       2.614   4.030   2.262  1.00  0.00     0.001 A 
ATOM     21  C   UNL     1       1.709   5.047   2.538  1.00  0.00     0.002 A 
BRANCH  16  22
ATOM     22  C   UNL     1      -2.383   3.447   3.838  1.00  0.00     0.240 A 
ATOM     23  N   UNL     1      -3.095   3.219   2.735  1.00  0.00    -0.181 NA
ATOM     24  N   UNL     1      -2.918   3.816   5.018  1.00  0.00    -0.176 NA
ATOM     25  C   UNL     1      -4.355   3.576   2.833  1.00  0.00     0.228 A 
ATOM     26  C   UNL     1      -4.228   4.101   4.994  1.00  0.00     0.231 A 
ATOM     27  Cl  UNL     1      -5.423   3.052   1.606  1.00  0.00    -0.041 Cl
ATOM     28  N   UNL     1      -4.955   4.052   3.892  1.00  0.00    -0.182 NA
BRANCH  26  29
ATOM     29  N   UNL     1      -4.957   4.358   6.137  1.00  0.00    -0.336 N 
ATOM     30  C   UNL     1      -4.376   4.269   7.471  1.00  0.00     0.148 C 
ATOM     31  C   UNL     1      -6.388   3.988   6.093  1.00  0.00     0.148 C 
ATOM     32  C   UNL     1      -4.672   2.889   8.090  1.00  0.00     0.181 C 
ATOM     33  C   UNL     1      -6.547   2.574   6.674  1.00  0.00     0.181 C 
ATOM     34  O   UNL     1      -6.070   2.540   8.032  1.00  0.00    -0.378 OA
ENDBRANCH  26  29
ENDBRANCH  16  22
ENDBRANCH  12  13
ENDBRANCH   7  12
ENDBRANCH   4   7
ENDBRANCH   2   3
ENDBRANCH   1   2
BRANCH   1  35
ATOM     35  C   UNL     1      -2.296   3.101  -1.274  1.00  0.00     0.023 C 
BRANCH  35  36
ATOM     36  C   UNL     1      -2.454   4.082  -0.120  1.00  0.00     0.116 C 
BRANCH  36  37
ATOM     37  N   UNL     1      -2.044   5.442  -0.325  1.00  0.00    -0.352 N 
ATOM     38  C   UNL     1      -2.398   6.355   0.662  1.00  0.00     0.251 C 
ATOM     39  H   UNL     1      -1.537   5.714  -1.124  1.00  0.00     0.163 HD
ATOM     40  O   UNL     1      -1.652   6.669   1.567  1.00  0.00    -0.269 OA
BRANCH  38  41
ATOM     41  C   UNL     1      -3.658   7.091   0.411  1.00  0.00     0.039 A 
ATOM     42  C   UNL     1      -4.739   6.479  -0.218  1.00  0.00     0.014 A 
ATOM     43  C   UNL     1      -3.605   8.482   0.557  1.00  0.00     0.014 A 
ATOM     44  C   UNL     1      -5.623   7.259  -0.927  1.00  0.00     0.010 A 
ATOM     45  C   UNL     1      -4.509   9.269  -0.143  1.00  0.00     0.010 A 
ATOM     46  C   UNL     1      -5.426   8.643  -0.987  1.00  0.00    -0.014 A 
BRANCH  46  47
ATOM     47  C   UNL     1      -6.082   9.308  -2.109  1.00  0.00     0.031 A 
ATOM     48  C   UNL     1      -7.540   9.071  -2.264  1.00  0.00     0.074 A 
ATOM     49  C   UNL     1      -5.399   9.964  -3.068  1.00  0.00     0.049 A 
ATOM     50  N   UNL     1      -8.147   8.409  -3.197  1.00  0.00    -0.248 NA
ATOM     51  C   UNL     1      -8.411   9.543  -1.183  1.00  0.00     0.031 C 
ATOM     52  C   UNL     1      -4.022  10.467  -3.048  1.00  0.00     0.029 A 
ATOM     53  N   UNL     1      -5.862  10.378  -4.280  1.00  0.00    -0.354 N 
ATOM     54  C   UNL     1      -9.503   8.489  -2.902  1.00  0.00     0.074 A 
ATOM     55  C   UNL     1      -9.602   9.120  -1.607  1.00  0.00     0.031 C 
ATOM     56  C   UNL     1      -3.847  11.319  -4.082  1.00  0.00     0.029 A 
ATOM     57  C   UNL     1      -5.032  11.279  -4.919  1.00  0.00     0.049 A 
ATOM     58  H   UNL     1      -6.712  10.063  -4.667  1.00  0.00     0.167 HD
ATOM     59  C   UNL     1     -10.480   8.146  -3.786  1.00  0.00     0.031 A 
ATOM     60  C   UNL     1      -5.332  12.007  -6.018  1.00  0.00     0.031 A 
ATOM     61  C   UNL     1     -10.000   7.323  -4.859  1.00  0.00     0.049 A 
ATOM     62  C   UNL     1      -6.401  11.291  -6.754  1.00  0.00     0.074 A 
ATOM     63  C   UNL     1      -9.502   6.040  -4.952  1.00  0.00     0.029 A 
ATOM     64  N   UNL     1      -9.718   7.926  -6.060  1.00  0.00    -0.354 N 
ATOM     65  N   UNL     1      -6.226  10.149  -7.357  1.00  0.00    -0.248 NA
ATOM     66  C   UNL     1      -7.787  11.669  -6.526  1.00  0.00     0.031 C 
ATOM     67  C   UNL     1      -8.565   6.075  -6.023  1.00  0.00     0.029 A 
ATOM     68  C   UNL     1      -8.551   7.377  -6.530  1.00  0.00     0.049 A 
ATOM     69  H   UNL     1     -10.254   8.624  -6.502  1.00  0.00     0.167 HD
ATOM     70  C   UNL     1      -7.437   9.486  -7.230  1.00  0.00     0.074 A 
ATOM     71  C   UNL     1      -8.388  10.515  -6.823  1.00  0.00     0.031 C 
ATOM     72  C   UNL     1      -7.506   8.122  -7.209  1.00  0.00     0.031 A 
BRANCH  59  73
ATOM     73  C   UNL     1     -11.848   8.775  -3.791  1.00  0.00    -0.014 A 
ATOM     74  C   UNL     1     -12.102  10.016  -3.171  1.00  0.00     0.010 A 
ATOM     75  C   UNL     1     -12.861   8.255  -4.622  1.00  0.00     0.010 A 
ATOM     76  C   UNL     1     -13.309  10.693  -3.336  1.00  0.00     0.020 A 
ATOM     77  C   UNL     1     -14.061   8.951  -4.832  1.00  0.00     0.020 A 
ATOM     78  C   UNL     1     -14.277  10.166  -4.181  1.00  0.00     0.054 A 
BRANCH  78  79
ATOM     79  S   UNL     1     -15.761  11.155  -4.490  1.00  0.00     0.124 S 
ATOM     80  O   UNL     1     -16.468  11.044  -3.217  1.00  0.00    -0.237 OA
ATOM     81  O   UNL     1     -15.203  12.472  -4.788  1.00  0.00    -0.237 OA
ATOM     82  O   UNL     1     -16.394  10.480  -5.620  1.00  0.00    -0.744 OA
ENDBRANCH  78  79
ENDBRANCH  59  73
BRANCH  60  83
ATOM     83  C   UNL     1      -5.099  13.464  -6.152  1.00  0.00    -0.014 A 
ATOM     84  C   UNL     1      -5.002  14.268  -4.996  1.00  0.00     0.010 A 
ATOM     85  C   UNL     1      -5.263  14.104  -7.392  1.00  0.00     0.010 A 
ATOM     86  C   UNL     1      -5.135  15.655  -5.062  1.00  0.00     0.020 A 
ATOM     87  C   UNL     1      -5.402  15.499  -7.465  1.00  0.00     0.020 A 
ATOM     88  C   UNL     1      -5.372  16.260  -6.294  1.00  0.00     0.054 A 
BRANCH  88  89
ATOM     89  S   UNL     1      -5.728  18.038  -6.314  1.00  0.00     0.124 S 
ATOM     90  O   UNL     1      -7.005  18.099  -5.607  1.00  0.00    -0.237 OA
ATOM     91  O   UNL     1      -4.586  18.595  -5.593  1.00  0.00    -0.237 OA
ATOM     92  O   UNL     1      -5.784  18.364  -7.736  1.00  0.00    -0.744 OA
ENDBRANCH  88  89
ENDBRANCH  60  83
BRANCH  72  93
ATOM     93  C   UNL     1      -6.283   7.324  -7.615  1.00  0.00    -0.014 A 
ATOM     94  C   UNL     1      -6.436   6.317  -8.587  1.00  0.00     0.010 A 
ATOM     95  C   UNL     1      -5.060   7.401  -6.919  1.00  0.00     0.010 A 
ATOM     96  C   UNL     1      -5.417   5.389  -8.828  1.00  0.00     0.020 A 
ATOM     97  C   UNL     1      -4.026   6.487  -7.172  1.00  0.00     0.020 A 
ATOM     98  C   UNL     1      -4.224   5.468  -8.105  1.00  0.00     0.054 A 
BRANCH  98  99
ATOM     99  S   UNL     1      -2.962   4.193  -8.376  1.00  0.00     0.124 S 
ATOM    100  O   UNL     1      -3.562   3.022  -7.740  1.00  0.00    -0.237 OA
ATOM    101  O   UNL     1      -2.869   4.131  -9.833  1.00  0.00    -0.237 OA
ATOM    102  O   UNL     1      -1.775   4.719  -7.704  1.00  0.00    -0.744 OA
ENDBRANCH  98  99
ENDBRANCH  72  93
ENDBRANCH  46  47
ENDBRANCH  38  41
ENDBRANCH  36  37
ENDBRANCH  35  36
ENDBRANCH   1  35
TORSDOF 19
