REMARK SMILES Cc1ccc(S(=O)(=O)N[C@@H](C)C(=O)Oc2csc(C(=O)NCCCCNC(=O)c3ccc(-c4c5nc(c(-c6ccc(S(=O)(=O)[O-])cc6)c6ccc([nH]6)c(-c6ccc(S(=O)(=O)[O-])cc6)c6nc(c(-c7ccc(S(=O)(=O)[O-])cc7)c7ccc4[nH]7)C=C6)C=C5)cc3)c2C)cc1
REMARK SMILES IDX 22 1 21 2 19 3 20 4 18 6 15 7 16 8 89 9 17 10 90 11 14 12
REMARK SMILES IDX 12 13 13 14 10 15 11 16 9 17 6 19 7 20 8 21 5 22 1 23 2 24
REMARK SMILES IDX 3 25 92 26 4 27 91 28 23 29 24 30 25 31 26 32 27 33 28 35
REMARK SMILES IDX 29 36 30 37 88 38 31 39 87 40 32 41 33 42 34 43 81 44 35 45
REMARK SMILES IDX 86 46 80 47 82 48 36 49 85 50 79 51 78 52 37 54 67 55 48 56
REMARK SMILES IDX 66 57 49 58 52 59 65 60 83 61 50 62 51 63 64 65 84 66 53 67
REMARK SMILES IDX 38 68 39 69 47 70 40 71 46 72 41 73 42 74 43 75 44 76 45 77
REMARK SMILES IDX 68 78 69 79 77 80 70 81 76 82 71 83 72 84 73 85 74 86 75 87
REMARK SMILES IDX 54 88 55 89 63 90 56 91 62 92 57 93 58 94 59 95 60 96 61 97
REMARK H PARENT 21 5 9 18 26 34 82 53 52 64
REMARK Flexibility Score: inf
ROOT
ATOM      1  C   UNL     1      -3.867   8.280  -4.097  1.00  0.00     0.116 C 
ENDROOT
BRANCH   1   2
ATOM      2  N   UNL     1      -5.055   8.903  -3.554  1.00  0.00    -0.351 N 
ATOM      3  C   UNL     1      -6.045   8.513  -2.689  1.00  0.00     0.261 C 
ATOM      4  O   UNL     1      -6.889   9.403  -2.510  1.00  0.00    -0.268 OA
ATOM      5  H   UNL     1      -5.182   9.822  -3.882  1.00  0.00     0.163 HD
BRANCH   3   6
ATOM      6  C   UNL     1      -6.128   7.212  -2.001  1.00  0.00     0.099 A 
ATOM      7  C   UNL     1      -6.005   5.045  -1.094  1.00  0.00     0.145 A 
ATOM      8  C   UNL     1      -6.969   5.573  -0.283  1.00  0.00     0.113 A 
ATOM      9  C   UNL     1      -5.591   5.931  -2.154  1.00  0.00     0.015 A 
ATOM     10  S   UNL     1      -7.257   7.202  -0.660  1.00  0.00    -0.134 S 
ATOM     11  C   UNL     1      -4.732   5.393  -3.241  1.00  0.00     0.050 C 
BRANCH   7  12
ATOM     12  O   UNL     1      -5.607   3.754  -0.966  1.00  0.00    -0.424 OA
BRANCH  12  13
ATOM     13  C   UNL     1      -4.254   3.554  -0.845  1.00  0.00     0.329 C 
ATOM     14  O   UNL     1      -3.452   4.372  -0.404  1.00  0.00    -0.250 OA
BRANCH  13  15
ATOM     15  C   UNL     1      -3.860   2.127  -1.226  1.00  0.00     0.177 C 
ATOM     16  C   UNL     1      -4.533   1.645  -2.501  1.00  0.00     0.038 C 
BRANCH  15  17
ATOM     17  N   UNL     1      -4.145   1.280  -0.064  1.00  0.00    -0.197 NA
ATOM     18  H   UNL     1      -3.826   1.811   0.747  1.00  0.00     0.142 HD
BRANCH  17  19
ATOM     19  S   UNL     1      -3.552  -0.254   0.145  1.00  0.00     0.241 S 
ATOM     20  O   UNL     1      -3.890  -1.017  -1.050  1.00  0.00    -0.207 OA
ATOM     21  O   UNL     1      -4.001  -0.671   1.440  1.00  0.00    -0.207 OA
BRANCH  19  22
ATOM     22  C   UNL     1      -1.785  -0.127   0.208  1.00  0.00     0.082 A 
ATOM     23  C   UNL     1       2.507   0.005   0.003  1.00  0.00     0.044 C 
ATOM     24  C   UNL     1       1.010  -0.033   0.091  1.00  0.00    -0.051 A 
ATOM     25  C   UNL     1       0.338  -1.252  -0.063  1.00  0.00     0.005 A 
ATOM     26  C   UNL     1       0.271   1.131   0.338  1.00  0.00     0.005 A 
ATOM     27  C   UNL     1      -1.055  -1.298  -0.018  1.00  0.00     0.022 A 
ATOM     28  C   UNL     1      -1.125   1.086   0.414  1.00  0.00     0.022 A 
ENDBRANCH  19  22
ENDBRANCH  17  19
ENDBRANCH  15  17
ENDBRANCH  13  15
ENDBRANCH  12  13
ENDBRANCH   7  12
ENDBRANCH   3   6
ENDBRANCH   1   2
BRANCH   1  29
ATOM     29  C   UNL     1      -4.154   7.615  -5.456  1.00  0.00     0.023 C 
BRANCH  29  30
ATOM     30  C   UNL     1      -4.156   8.538  -6.667  1.00  0.00     0.023 C 
BRANCH  30  31
ATOM     31  C   UNL     1      -2.773   9.041  -7.018  1.00  0.00     0.116 C 
BRANCH  31  32
ATOM     32  N   UNL     1      -2.062   8.307  -8.053  1.00  0.00    -0.352 N 
ATOM     33  C   UNL     1      -0.966   8.830  -8.739  1.00  0.00     0.251 C 
ATOM     34  H   UNL     1      -2.369   7.400  -8.280  1.00  0.00     0.163 HD
ATOM     35  O   UNL     1      -0.777   8.687  -9.939  1.00  0.00    -0.269 OA
BRANCH  33  36
ATOM     36  C   UNL     1       0.058   9.482  -7.891  1.00  0.00     0.039 A 
ATOM     37  C   UNL     1       1.279   8.825  -7.694  1.00  0.00     0.014 A 
ATOM     38  C   UNL     1      -0.342  10.521  -7.059  1.00  0.00     0.014 A 
ATOM     39  C   UNL     1       1.997   9.069  -6.530  1.00  0.00     0.010 A 
ATOM     40  C   UNL     1       0.257  10.624  -5.834  1.00  0.00     0.010 A 
ATOM     41  C   UNL     1       1.411   9.882  -5.569  1.00  0.00    -0.014 A 
BRANCH  41  42
ATOM     42  C   UNL     1       1.947  10.138  -4.251  1.00  0.00     0.031 A 
ATOM     43  C   UNL     1       2.649  11.417  -4.070  1.00  0.00     0.074 A 
ATOM     44  C   UNL     1       1.541   9.338  -3.244  1.00  0.00     0.049 A 
ATOM     45  N   UNL     1       3.366  11.721  -3.053  1.00  0.00    -0.248 NA
ATOM     46  C   UNL     1       2.616  12.477  -5.082  1.00  0.00     0.031 C 
ATOM     47  C   UNL     1       1.601   9.566  -1.806  1.00  0.00     0.029 A 
ATOM     48  N   UNL     1       1.170   8.000  -3.361  1.00  0.00    -0.354 N 
ATOM     49  C   UNL     1       3.569  13.084  -3.100  1.00  0.00     0.074 A 
ATOM     50  C   UNL     1       3.204  13.482  -4.433  1.00  0.00     0.031 C 
ATOM     51  C   UNL     1       1.568   8.374  -1.181  1.00  0.00     0.029 A 
ATOM     52  C   UNL     1       1.643   7.346  -2.212  1.00  0.00     0.049 A 
ATOM     53  H   UNL     1       0.672   7.592  -4.106  1.00  0.00     0.167 HD
ATOM     54  C   UNL     1       3.844  13.728  -1.933  1.00  0.00     0.031 A 
ATOM     55  C   UNL     1       2.684   6.468  -2.349  1.00  0.00     0.031 A 
ATOM     56  C   UNL     1       4.095  12.750  -0.872  1.00  0.00     0.049 A 
ATOM     57  C   UNL     1       3.959   6.995  -1.715  1.00  0.00     0.074 A 
ATOM     58  C   UNL     1       3.317  12.266   0.167  1.00  0.00     0.029 A 
ATOM     59  N   UNL     1       5.129  11.833  -1.047  1.00  0.00    -0.354 N 
ATOM     60  N   UNL     1       4.204   8.259  -1.481  1.00  0.00    -0.248 NA
ATOM     61  C   UNL     1       5.025   6.127  -1.226  1.00  0.00     0.031 C 
ATOM     62  C   UNL     1       3.818  10.978   0.517  1.00  0.00     0.029 A 
ATOM     63  C   UNL     1       4.917  10.701  -0.280  1.00  0.00     0.049 A 
ATOM     64  H   UNL     1       5.906  11.971  -1.636  1.00  0.00     0.167 HD
ATOM     65  C   UNL     1       5.379   8.387  -0.787  1.00  0.00     0.074 A 
ATOM     66  C   UNL     1       5.857   7.019  -0.660  1.00  0.00     0.031 C 
ATOM     67  C   UNL     1       5.862   9.588  -0.343  1.00  0.00     0.031 A 
BRANCH  54  68
ATOM     68  C   UNL     1       3.589  15.202  -1.696  1.00  0.00    -0.014 A 
ATOM     69  C   UNL     1       3.500  15.673  -0.371  1.00  0.00     0.010 A 
ATOM     70  C   UNL     1       3.345  16.158  -2.704  1.00  0.00     0.010 A 
ATOM     71  C   UNL     1       3.144  16.998  -0.069  1.00  0.00     0.020 A 
ATOM     72  C   UNL     1       2.979  17.483  -2.420  1.00  0.00     0.020 A 
ATOM     73  C   UNL     1       2.876  17.895  -1.099  1.00  0.00     0.054 A 
BRANCH  73  74
ATOM     74  S   UNL     1       2.412  19.597  -0.693  1.00  0.00     0.124 S 
ATOM     75  O   UNL     1       1.182  19.413   0.072  1.00  0.00    -0.237 OA
ATOM     76  O   UNL     1       3.567  20.063   0.069  1.00  0.00    -0.237 OA
ATOM     77  O   UNL     1       2.236  20.231  -1.999  1.00  0.00    -0.744 OA
ENDBRANCH  73  74
ENDBRANCH  54  68
BRANCH  55  78
ATOM     78  C   UNL     1       2.563   5.635  -3.595  1.00  0.00    -0.014 A 
ATOM     79  C   UNL     1       1.443   4.771  -3.672  1.00  0.00     0.010 A 
ATOM     80  C   UNL     1       3.192   6.012  -4.796  1.00  0.00     0.010 A 
ATOM     81  C   UNL     1       0.842   4.475  -4.901  1.00  0.00     0.020 A 
ATOM     82  C   UNL     1       2.602   5.691  -6.035  1.00  0.00     0.020 A 
ATOM     83  C   UNL     1       1.387   4.999  -6.070  1.00  0.00     0.054 A 
BRANCH  83  84
ATOM     84  S   UNL     1       0.377   4.928  -7.586  1.00  0.00     0.124 S 
ATOM     85  O   UNL     1       0.216   3.490  -7.784  1.00  0.00    -0.237 OA
ATOM     86  O   UNL     1      -0.838   5.648  -7.189  1.00  0.00    -0.237 OA
ATOM     87  O   UNL     1       1.203   5.607  -8.577  1.00  0.00    -0.744 OA
ENDBRANCH  83  84
ENDBRANCH  55  78
BRANCH  67  88
ATOM     88  C   UNL     1       7.269   9.841   0.160  1.00  0.00    -0.014 A 
ATOM     89  C   UNL     1       8.350   8.971  -0.046  1.00  0.00     0.010 A 
ATOM     90  C   UNL     1       7.569  11.089   0.763  1.00  0.00     0.010 A 
ATOM     91  C   UNL     1       9.640   9.293   0.397  1.00  0.00     0.020 A 
ATOM     92  C   UNL     1       8.861  11.450   1.145  1.00  0.00     0.020 A 
ATOM     93  C   UNL     1       9.887  10.530   0.991  1.00  0.00     0.054 A 
BRANCH  93  94
ATOM     94  S   UNL     1      11.566  10.941   1.513  1.00  0.00     0.124 S 
ATOM     95  O   UNL     1      11.659  10.242   2.792  1.00  0.00    -0.237 OA
ATOM     96  O   UNL     1      12.384  10.389   0.435  1.00  0.00    -0.237 OA
ATOM     97  O   UNL     1      11.556  12.399   1.595  1.00  0.00    -0.744 OA
ENDBRANCH  93  94
ENDBRANCH  67  88
ENDBRANCH  41  42
ENDBRANCH  33  36
ENDBRANCH  31  32
ENDBRANCH  30  31
ENDBRANCH  29  30
ENDBRANCH   1  29
TORSDOF 20
