REMARK SMILES O=C(NCCCCNC(=O)c1cc(F)c(F)cc1NS(=O)(=O)c1ccc2c(c1)CCC2)c1ccc(-c2c3nc(c(-c4ccc(S(=O)(=O)[O-])cc4)c4ccc([nH]4)c(-c4ccc(S(=O)(=O)[O-])cc4)c4nc(c(-c5ccc(S(=O)(=O)[O-])cc5)c5ccc2[nH]5)C=C4)C=C3)cc1
REMARK SMILES IDX 5 1 4 2 3 3 1 4 2 5 32 7 33 8 91 9 34 10 90 11 35 12 36 13
REMARK SMILES IDX 37 14 84 15 38 16 89 17 83 18 85 19 39 20 88 21 82 22 81 23
REMARK SMILES IDX 40 25 70 26 51 27 69 28 52 29 55 30 68 31 86 32 53 33 54 34
REMARK SMILES IDX 67 36 87 37 56 38 41 39 42 40 50 41 43 42 49 43 44 44 45 45
REMARK SMILES IDX 46 46 47 47 48 48 71 49 72 50 80 51 73 52 79 53 74 54 75 55
REMARK SMILES IDX 76 56 77 57 78 58 57 59 58 60 66 61 59 62 65 63 60 64 61 65
REMARK SMILES IDX 62 66 63 67 64 68 6 69 7 70 8 71 9 72 10 74 11 75 12 76
REMARK SMILES IDX 18 77 13 78 17 79 14 80 15 81 16 82 19 83 20 85 21 86 22 87
REMARK SMILES IDX 23 88 24 89 28 90 25 91 27 92 26 93 29 94 31 95 30 96
REMARK H PARENT 3 6 85 24 55 35 8 73 19 84
REMARK Flexibility Score: inf
ROOT
ATOM      1  C   UNL     1       5.008  -2.656   0.326  1.00  0.00     0.023 C 
ENDROOT
BRANCH   1   2
ATOM      2  C   UNL     1       4.651  -1.308  -0.286  1.00  0.00     0.116 C 
BRANCH   2   3
ATOM      3  N   UNL     1       3.218  -1.098  -0.441  1.00  0.00    -0.352 N 
ATOM      4  O   UNL     1       1.222  -0.086  -0.152  1.00  0.00    -0.269 OA
ATOM      5  C   UNL     1       2.442  -0.041  -0.019  1.00  0.00     0.251 C 
ATOM      6  H   UNL     1       2.735  -1.813  -0.913  1.00  0.00     0.163 HD
BRANCH   5   7
ATOM      7  C   UNL     1       3.080   1.125   0.632  1.00  0.00     0.039 A 
ATOM      8  C   UNL     1       4.237   1.693   0.098  1.00  0.00     0.014 A 
ATOM      9  C   UNL     1       2.537   1.627   1.818  1.00  0.00     0.014 A 
ATOM     10  C   UNL     1       4.954   2.622   0.843  1.00  0.00     0.010 A 
ATOM     11  C   UNL     1       3.210   2.634   2.518  1.00  0.00     0.010 A 
ATOM     12  C   UNL     1       4.454   3.101   2.066  1.00  0.00    -0.014 A 
BRANCH  12  13
ATOM     13  C   UNL     1       5.248   4.095   2.838  1.00  0.00     0.031 A 
ATOM     14  C   UNL     1       5.791   3.766   4.205  1.00  0.00     0.074 A 
ATOM     15  C   UNL     1       5.523   5.288   2.275  1.00  0.00     0.049 A 
ATOM     16  N   UNL     1       6.551   4.495   4.985  1.00  0.00    -0.248 NA
ATOM     17  C   UNL     1       5.432   2.459   4.777  1.00  0.00     0.031 C 
ATOM     18  C   UNL     1       5.057   5.726   0.957  1.00  0.00     0.029 A 
ATOM     19  N   UNL     1       6.285   6.338   2.722  1.00  0.00    -0.354 N 
ATOM     20  C   UNL     1       6.736   3.751   6.146  1.00  0.00     0.074 A 
ATOM     21  C   UNL     1       5.990   2.523   5.978  1.00  0.00     0.031 C 
ATOM     22  C   UNL     1       5.593   6.923   0.676  1.00  0.00     0.029 A 
ATOM     23  C   UNL     1       6.386   7.367   1.816  1.00  0.00     0.049 A 
ATOM     24  H   UNL     1       6.717   6.353   3.607  1.00  0.00     0.167 HD
ATOM     25  C   UNL     1       7.460   4.061   7.249  1.00  0.00     0.031 A 
ATOM     26  C   UNL     1       7.039   8.542   1.891  1.00  0.00     0.031 A 
ATOM     27  C   UNL     1       8.210   5.281   7.409  1.00  0.00     0.049 A 
ATOM     28  C   UNL     1       7.823   8.866   3.128  1.00  0.00     0.074 A 
ATOM     29  C   UNL     1       9.007   5.668   8.474  1.00  0.00     0.029 A 
ATOM     30  N   UNL     1       8.255   6.313   6.484  1.00  0.00    -0.354 N 
ATOM     31  N   UNL     1       8.009   8.134   4.201  1.00  0.00    -0.248 NA
ATOM     32  C   UNL     1       8.492  10.173   3.162  1.00  0.00     0.031 C 
ATOM     33  C   UNL     1       9.491   6.955   8.215  1.00  0.00     0.029 A 
ATOM     34  C   UNL     1       9.046   7.345   6.962  1.00  0.00     0.049 A 
ATOM     35  H   UNL     1       7.792   6.312   5.615  1.00  0.00     0.167 HD
ATOM     36  C   UNL     1       8.841   8.881   5.027  1.00  0.00     0.074 A 
ATOM     37  C   UNL     1       9.130  10.115   4.323  1.00  0.00     0.031 C 
ATOM     38  C   UNL     1       9.325   8.570   6.254  1.00  0.00     0.031 A 
BRANCH  25  39
ATOM     39  C   UNL     1       7.447   3.079   8.394  1.00  0.00    -0.014 A 
ATOM     40  C   UNL     1       8.109   1.841   8.309  1.00  0.00     0.010 A 
ATOM     41  C   UNL     1       6.790   3.420   9.591  1.00  0.00     0.010 A 
ATOM     42  C   UNL     1       8.071   0.943   9.381  1.00  0.00     0.020 A 
ATOM     43  C   UNL     1       6.773   2.536  10.675  1.00  0.00     0.020 A 
ATOM     44  C   UNL     1       7.397   1.294  10.555  1.00  0.00     0.054 A 
BRANCH  44  45
ATOM     45  S   UNL     1       7.364   0.111  11.931  1.00  0.00     0.124 S 
ATOM     46  O   UNL     1       6.416  -0.888  11.444  1.00  0.00    -0.237 OA
ATOM     47  O   UNL     1       8.754  -0.329  12.010  1.00  0.00    -0.237 OA
ATOM     48  O   UNL     1       6.900   0.909  13.063  1.00  0.00    -0.744 OA
ENDBRANCH  44  45
ENDBRANCH  25  39
BRANCH  26  49
ATOM     49  C   UNL     1       6.981   9.489   0.746  1.00  0.00    -0.014 A 
ATOM     50  C   UNL     1       8.119   9.720  -0.047  1.00  0.00     0.010 A 
ATOM     51  C   UNL     1       5.777  10.142   0.423  1.00  0.00     0.010 A 
ATOM     52  C   UNL     1       8.056  10.596  -1.135  1.00  0.00     0.020 A 
ATOM     53  C   UNL     1       5.703  10.995  -0.680  1.00  0.00     0.020 A 
ATOM     54  C   UNL     1       6.847  11.224  -1.447  1.00  0.00     0.054 A 
BRANCH  54  55
ATOM     55  S   UNL     1       6.774  12.309  -2.899  1.00  0.00     0.124 S 
ATOM     56  O   UNL     1       7.481  13.495  -2.427  1.00  0.00    -0.237 OA
ATOM     57  O   UNL     1       7.465  11.521  -3.917  1.00  0.00    -0.237 OA
ATOM     58  O   UNL     1       5.340  12.481  -3.123  1.00  0.00    -0.744 OA
ENDBRANCH  54  55
ENDBRANCH  26  49
BRANCH  38  59
ATOM     59  C   UNL     1      10.258   9.561   6.896  1.00  0.00    -0.014 A 
ATOM     60  C   UNL     1       9.794  10.790   7.396  1.00  0.00     0.010 A 
ATOM     61  C   UNL     1      11.623   9.240   7.023  1.00  0.00     0.010 A 
ATOM     62  C   UNL     1      10.686  11.700   7.973  1.00  0.00     0.020 A 
ATOM     63  C   UNL     1      12.512  10.134   7.624  1.00  0.00     0.020 A 
ATOM     64  C   UNL     1      12.040  11.367   8.078  1.00  0.00     0.054 A 
BRANCH  64  65
ATOM     65  S   UNL     1      13.176  12.552   8.851  1.00  0.00     0.124 S 
ATOM     66  O   UNL     1      13.331  13.553   7.798  1.00  0.00    -0.237 OA
ATOM     67  O   UNL     1      12.432  12.989  10.029  1.00  0.00    -0.237 OA
ATOM     68  O   UNL     1      14.367  11.755   9.134  1.00  0.00    -0.744 OA
ENDBRANCH  64  65
ENDBRANCH  38  59
ENDBRANCH  12  13
ENDBRANCH   5   7
ENDBRANCH   2   3
ENDBRANCH   1   2
BRANCH   1  69
ATOM     69  C   UNL     1       4.556  -3.878  -0.468  1.00  0.00     0.023 C 
BRANCH  69  70
ATOM     70  C   UNL     1       4.987  -3.896  -1.932  1.00  0.00     0.116 C 
BRANCH  70  71
ATOM     71  N   UNL     1       6.433  -4.004  -2.096  1.00  0.00    -0.352 N 
ATOM     72  C   UNL     1       7.174  -5.055  -2.587  1.00  0.00     0.253 C 
ATOM     73  H   UNL     1       6.951  -3.215  -1.816  1.00  0.00     0.163 HD
ATOM     74  O   UNL     1       8.392  -5.085  -2.474  1.00  0.00    -0.269 OA
BRANCH  72  75
ATOM     75  C   UNL     1       6.469  -6.201  -3.187  1.00  0.00     0.067 A 
ATOM     76  C   UNL     1       5.599  -5.951  -4.260  1.00  0.00     0.058 A 
ATOM     77  C   UNL     1       6.541  -7.473  -2.590  1.00  0.00     0.065 A 
ATOM     78  C   UNL     1       4.695  -6.933  -4.635  1.00  0.00     0.159 A 
ATOM     79  C   UNL     1       5.559  -8.409  -2.926  1.00  0.00     0.070 A 
ATOM     80  F   UNL     1       3.823  -6.683  -5.620  1.00  0.00    -0.204 F 
ATOM     81  C   UNL     1       4.651  -8.138  -3.948  1.00  0.00     0.160 A 
ATOM     82  F   UNL     1       3.736  -9.062  -4.271  1.00  0.00    -0.204 F 
BRANCH  77  83
ATOM     83  N   UNL     1       7.539  -7.838  -1.609  1.00  0.00    -0.279 N 
ATOM     84  H   UNL     1       7.483  -7.491  -0.689  1.00  0.00     0.180 HD
BRANCH  83  85
ATOM     85  S   UNL     1       8.830  -8.887  -2.068  1.00  0.00     0.261 S 
ATOM     86  O   UNL     1       9.655  -8.179  -3.019  1.00  0.00    -0.201 OA
ATOM     87  O   UNL     1       9.392  -9.381  -0.825  1.00  0.00    -0.201 OA
BRANCH  85  88
ATOM     88  C   UNL     1       8.141 -10.282  -2.936  1.00  0.00     0.088 A 
ATOM     89  C   UNL     1       7.679 -10.097  -4.255  1.00  0.00     0.022 A 
ATOM     90  C   UNL     1       8.143 -11.555  -2.352  1.00  0.00     0.026 A 
ATOM     91  C   UNL     1       7.047 -11.137  -4.935  1.00  0.00     0.005 A 
ATOM     92  C   UNL     1       7.604 -12.604  -3.084  1.00  0.00    -0.043 A 
ATOM     93  C   UNL     1       7.009 -12.381  -4.332  1.00  0.00    -0.045 A 
ATOM     94  C   UNL     1       7.535 -14.057  -2.721  1.00  0.00     0.036 C 
ATOM     95  C   UNL     1       6.359 -13.630  -4.839  1.00  0.00     0.036 C 
ATOM     96  C   UNL     1       7.154 -14.691  -4.072  1.00  0.00     0.010 C 
ENDBRANCH  85  88
ENDBRANCH  83  85
ENDBRANCH  77  83
ENDBRANCH  72  75
ENDBRANCH  70  71
ENDBRANCH  69  70
ENDBRANCH   1  69
TORSDOF 17
