REMARK SMILES COCc1nc2ccccc2n1CC(=O)NCCCCNC(=O)c1ccc(-c2c3nc(c(-c4ccc(S(=O)(=O)[O-])cc4)c4ccc([nH]4)c(-c4ccc(S(=O)(=O)[O-])cc4)c4nc(c(-c5ccc(S(=O)(=O)[O-])cc5)c5ccc2[nH]5)C=C4)C=C3)cc1
REMARK SMILES IDX 18 1 17 2 16 3 14 4 15 5 13 7 12 8 4 9 5 10 6 11 11 12 7 13
REMARK SMILES IDX 10 14 8 15 9 16 3 17 2 18 1 19 19 20 20 21 21 22 22 23 23 25
REMARK SMILES IDX 24 26 25 27 83 28 26 29 82 30 27 31 28 32 29 33 76 34 30 35
REMARK SMILES IDX 81 36 75 37 77 38 31 39 80 40 74 41 73 42 32 44 62 45 43 46
REMARK SMILES IDX 61 47 44 48 47 49 60 50 78 51 45 52 46 53 59 55 79 56 48 57
REMARK SMILES IDX 33 58 34 59 42 60 35 61 41 62 36 63 37 64 38 65 39 66 40 67
REMARK SMILES IDX 63 68 64 69 72 70 65 71 71 72 66 73 67 74 68 75 69 76 70 77
REMARK SMILES IDX 49 78 50 79 58 80 51 81 57 82 52 83 53 84 54 85 55 86 56 87
REMARK H PARENT 16 6 21 24 77 43 47 54
REMARK Flexibility Score: inf
ROOT
ATOM      1  C   UNL     1       3.667   3.610   2.911  1.00  0.00     0.023 C 
ENDROOT
BRANCH   1   2
ATOM      2  C   UNL     1       3.240   4.938   2.291  1.00  0.00     0.116 C 
BRANCH   2   3
ATOM      3  N   UNL     1       3.342   4.924   0.845  1.00  0.00    -0.355 N 
ATOM      4  C   UNL     1       2.344   4.971  -0.082  1.00  0.00     0.240 C 
ATOM      5  O   UNL     1       2.655   4.954  -1.276  1.00  0.00    -0.273 OA
ATOM      6  H   UNL     1       4.257   4.875   0.484  1.00  0.00     0.163 HD
BRANCH   4   7
ATOM      7  C   UNL     1       0.895   5.100   0.339  1.00  0.00     0.223 C 
BRANCH   7   8
ATOM      8  N   UNL     1       0.392   3.963   1.091  1.00  0.00    -0.316 N 
ATOM      9  C   UNL     1       0.390   2.641   0.682  1.00  0.00     0.136 A 
ATOM     10  N   UNL     1      -0.076   1.873   1.649  1.00  0.00    -0.231 NA
ATOM     11  C   UNL     1      -0.351   2.692   2.706  1.00  0.00     0.089 A 
ATOM     12  C   UNL     1      -0.113   4.020   2.378  1.00  0.00     0.069 A 
ATOM     13  C   UNL     1      -0.784   2.359   3.996  1.00  0.00     0.030 A 
ATOM     14  C   UNL     1      -0.320   5.064   3.294  1.00  0.00     0.028 A 
ATOM     15  C   UNL     1      -0.951   3.380   4.936  1.00  0.00     0.002 A 
ATOM     16  C   UNL     1      -0.724   4.711   4.587  1.00  0.00     0.002 A 
BRANCH   9  17
ATOM     17  C   UNL     1       0.939   2.176  -0.638  1.00  0.00     0.235 C 
BRANCH  17  18
ATOM     18  O   UNL     1       0.435   0.880  -0.970  1.00  0.00    -0.377 OA
ATOM     19  C   UNL     1       1.133  -0.172  -0.305  1.00  0.00     0.195 C 
ENDBRANCH  17  18
ENDBRANCH   9  17
ENDBRANCH   7   8
ENDBRANCH   4   7
ENDBRANCH   2   3
ENDBRANCH   1   2
BRANCH   1  20
ATOM     20  C   UNL     1       5.173   3.330   2.819  1.00  0.00     0.023 C 
BRANCH  20  21
ATOM     21  C   UNL     1       6.059   4.499   3.257  1.00  0.00     0.116 C 
BRANCH  21  22
ATOM     22  N   UNL     1       5.795   4.960   4.605  1.00  0.00    -0.352 N 
ATOM     23  C   UNL     1       6.314   4.662   5.835  1.00  0.00     0.251 C 
ATOM     24  H   UNL     1       5.082   5.638   4.645  1.00  0.00     0.163 HD
ATOM     25  O   UNL     1       5.960   5.394   6.763  1.00  0.00    -0.269 OA
BRANCH  23  26
ATOM     26  C   UNL     1       7.182   3.492   6.127  1.00  0.00     0.039 A 
ATOM     27  C   UNL     1       7.701   2.616   5.175  1.00  0.00     0.014 A 
ATOM     28  C   UNL     1       7.397   3.212   7.491  1.00  0.00     0.014 A 
ATOM     29  C   UNL     1       8.286   1.423   5.566  1.00  0.00     0.010 A 
ATOM     30  C   UNL     1       8.001   2.028   7.890  1.00  0.00     0.010 A 
ATOM     31  C   UNL     1       8.379   1.108   6.921  1.00  0.00    -0.014 A 
BRANCH  31  32
ATOM     32  C   UNL     1       8.936  -0.193   7.259  1.00  0.00     0.031 A 
ATOM     33  C   UNL     1      10.347  -0.397   6.831  1.00  0.00     0.074 A 
ATOM     34  C   UNL     1       8.247  -1.122   7.949  1.00  0.00     0.049 A 
ATOM     35  N   UNL     1      10.810  -1.250   5.979  1.00  0.00    -0.248 NA
ATOM     36  C   UNL     1      11.345   0.568   7.319  1.00  0.00     0.031 C 
ATOM     37  C   UNL     1       6.971  -0.969   8.654  1.00  0.00     0.029 A 
ATOM     38  N   UNL     1       8.616  -2.393   8.258  1.00  0.00    -0.354 N 
ATOM     39  C   UNL     1      12.189  -1.052   5.946  1.00  0.00     0.074 A 
ATOM     40  C   UNL     1      12.440   0.165   6.675  1.00  0.00     0.031 C 
ATOM     41  C   UNL     1       6.810  -2.006   9.508  1.00  0.00     0.029 A 
ATOM     42  C   UNL     1       7.881  -2.963   9.289  1.00  0.00     0.049 A 
ATOM     43  H   UNL     1       9.341  -2.868   7.791  1.00  0.00     0.167 HD
ATOM     44  C   UNL     1      13.050  -1.998   5.477  1.00  0.00     0.031 A 
ATOM     45  C   UNL     1       8.190  -4.099   9.962  1.00  0.00     0.031 A 
ATOM     46  C   UNL     1      12.376  -2.993   4.690  1.00  0.00     0.049 A 
ATOM     47  C   UNL     1       9.120  -4.876   9.105  1.00  0.00     0.074 A 
ATOM     48  C   UNL     1      11.697  -2.983   3.490  1.00  0.00     0.029 A 
ATOM     49  N   UNL     1      12.034  -4.167   5.316  1.00  0.00    -0.354 N 
ATOM     50  N   UNL     1       8.782  -5.400   7.960  1.00  0.00    -0.248 NA
ATOM     51  C   UNL     1      10.548  -4.700   9.316  1.00  0.00     0.031 C 
ATOM     52  C   UNL     1      10.630  -3.908   3.667  1.00  0.00     0.029 A 
ATOM     53  C   UNL     1      10.754  -4.476   4.938  1.00  0.00     0.049 A 
ATOM     54  H   UNL     1      12.605  -4.690   5.925  1.00  0.00     0.167 HD
ATOM     55  C   UNL     1       9.896  -5.231   7.150  1.00  0.00     0.074 A 
ATOM     56  C   UNL     1      10.979  -4.878   8.065  1.00  0.00     0.031 C 
ATOM     57  C   UNL     1       9.781  -5.127   5.794  1.00  0.00     0.031 A 
BRANCH  44  58
ATOM     58  C   UNL     1      14.448  -2.204   6.006  1.00  0.00    -0.014 A 
ATOM     59  C   UNL     1      14.913  -1.613   7.198  1.00  0.00     0.010 A 
ATOM     60  C   UNL     1      15.254  -3.216   5.443  1.00  0.00     0.010 A 
ATOM     61  C   UNL     1      16.112  -1.998   7.799  1.00  0.00     0.020 A 
ATOM     62  C   UNL     1      16.438  -3.643   6.062  1.00  0.00     0.020 A 
ATOM     63  C   UNL     1      16.859  -3.026   7.237  1.00  0.00     0.054 A 
BRANCH  63  64
ATOM     64  S   UNL     1      18.339  -3.579   8.118  1.00  0.00     0.124 S 
ATOM     65  O   UNL     1      19.227  -2.429   7.962  1.00  0.00    -0.237 OA
ATOM     66  O   UNL     1      17.832  -3.806   9.468  1.00  0.00    -0.237 OA
ATOM     67  O   UNL     1      18.741  -4.781   7.393  1.00  0.00    -0.744 OA
ENDBRANCH  63  64
ENDBRANCH  44  58
BRANCH  45  68
ATOM     68  C   UNL     1       8.132  -4.296  11.435  1.00  0.00    -0.014 A 
ATOM     69  C   UNL     1       8.255  -3.185  12.296  1.00  0.00     0.010 A 
ATOM     70  C   UNL     1       8.286  -5.580  11.992  1.00  0.00     0.010 A 
ATOM     71  C   UNL     1       8.603  -3.342  13.642  1.00  0.00     0.020 A 
ATOM     72  C   UNL     1       8.636  -5.745  13.344  1.00  0.00     0.020 A 
ATOM     73  C   UNL     1       8.831  -4.621  14.148  1.00  0.00     0.054 A 
BRANCH  73  74
ATOM     74  S   UNL     1       9.477  -4.767  15.839  1.00  0.00     0.124 S 
ATOM     75  O   UNL     1      10.808  -4.185  15.707  1.00  0.00    -0.237 OA
ATOM     76  O   UNL     1       8.521  -3.981  16.613  1.00  0.00    -0.237 OA
ATOM     77  O   UNL     1       9.447  -6.207  16.098  1.00  0.00    -0.744 OA
ENDBRANCH  73  74
ENDBRANCH  45  68
BRANCH  57  78
ATOM     78  C   UNL     1       8.460  -5.462   5.134  1.00  0.00    -0.014 A 
ATOM     79  C   UNL     1       8.495  -6.369   4.059  1.00  0.00     0.010 A 
ATOM     80  C   UNL     1       7.268  -4.748   5.372  1.00  0.00     0.010 A 
ATOM     81  C   UNL     1       7.400  -6.518   3.207  1.00  0.00     0.020 A 
ATOM     82  C   UNL     1       6.152  -4.915   4.534  1.00  0.00     0.020 A 
ATOM     83  C   UNL     1       6.241  -5.776   3.437  1.00  0.00     0.054 A 
BRANCH  83  84
ATOM     84  S   UNL     1       4.882  -5.931   2.245  1.00  0.00     0.124 S 
ATOM     85  O   UNL     1       5.416  -5.235   1.076  1.00  0.00    -0.237 OA
ATOM     86  O   UNL     1       4.744  -7.378   2.099  1.00  0.00    -0.237 OA
ATOM     87  O   UNL     1       3.758  -5.267   2.901  1.00  0.00    -0.744 OA
ENDBRANCH  83  84
ENDBRANCH  57  78
ENDBRANCH  31  32
ENDBRANCH  23  26
ENDBRANCH  21  22
ENDBRANCH  20  21
ENDBRANCH   1  20
TORSDOF 17
