REMARK SMILES O=C(NCCCCNC(=O)[C@H](CO)NC(=O)[C@H](CS)NC(=O)[C@H](Cc1c[nH]c2ccccc12)NC(=O)c1ccc(F)cc1)c1ccc(-c2c3nc(c(-c4ccc(S(=O)(=O)[O-])cc4)c4ccc([nH]4)c(-c4ccc(S(=O)(=O)[O-])cc4)c4nc(c(-c5ccc(S(=O)(=O)[O-])cc5)c5ccc2[nH]5)C=C4)C=C3)cc1
REMARK SMILES IDX 7 1 6 2 5 3 4 4 3 5 1 6 2 7 44 9 45 10 103 11 46 12 102 13
REMARK SMILES IDX 47 14 48 15 49 16 96 17 50 18 101 19 95 20 97 21 51 22
REMARK SMILES IDX 100 23 94 24 93 25 52 27 82 28 63 29 81 30 64 31 67 32 80 33
REMARK SMILES IDX 98 34 65 35 66 36 79 38 99 39 68 40 53 41 54 42 62 43 55 44
REMARK SMILES IDX 61 45 56 46 57 47 58 48 59 49 60 50 83 51 84 52 92 53 85 54
REMARK SMILES IDX 91 55 86 56 87 57 88 58 89 59 90 60 69 61 70 62 78 63 71 64
REMARK SMILES IDX 77 65 72 66 73 67 74 68 75 69 76 70 8 71 9 72 10 74 11 75
REMARK SMILES IDX 14 76 15 77 16 79 17 80 20 81 21 82 22 84 23 85 34 86 35 87
REMARK SMILES IDX 36 89 37 90 38 91 43 92 39 93 42 94 40 95 41 96 24 97 25 98
REMARK SMILES IDX 26 99 33 100 27 101 28 102 32 103 29 105 31 106 30 107
REMARK SMILES IDX 18 108 19 109 12 111 13 112
REMARK H PARENT 3 8 97 26 67 37 8 73 14 78 20 83 34 88 27 104 19 110 13 113
REMARK Flexibility Score: inf
ROOT
ATOM      1  C   UNL     1       0.144 -10.109 -13.230  1.00  0.00     0.116 C 
ENDROOT
BRANCH   1   2
ATOM      2  C   UNL     1       0.618 -11.479 -13.704  1.00  0.00     0.023 C 
BRANCH   2   3
ATOM      3  C   UNL     1      -0.457 -12.564 -13.736  1.00  0.00     0.023 C 
BRANCH   3   4
ATOM      4  C   UNL     1      -1.770 -12.169 -14.398  1.00  0.00     0.116 C 
BRANCH   4   5
ATOM      5  N   UNL     1      -1.619 -11.666 -15.755  1.00  0.00    -0.352 N 
ATOM      6  O   UNL     1      -2.146 -11.433 -17.940  1.00  0.00    -0.269 OA
ATOM      7  C   UNL     1      -2.443 -11.874 -16.839  1.00  0.00     0.251 C 
ATOM      8  H   UNL     1      -0.826 -11.107 -15.920  1.00  0.00     0.163 HD
BRANCH   7   9
ATOM      9  C   UNL     1      -3.667 -12.684 -16.655  1.00  0.00     0.039 A 
ATOM     10  C   UNL     1      -4.538 -12.412 -15.599  1.00  0.00     0.014 A 
ATOM     11  C   UNL     1      -3.890 -13.774 -17.498  1.00  0.00     0.014 A 
ATOM     12  C   UNL     1      -5.533 -13.328 -15.283  1.00  0.00     0.010 A 
ATOM     13  C   UNL     1      -4.947 -14.647 -17.228  1.00  0.00     0.010 A 
ATOM     14  C   UNL     1      -5.746 -14.460 -16.089  1.00  0.00    -0.014 A 
BRANCH  14  15
ATOM     15  C   UNL     1      -6.817 -15.420 -15.721  1.00  0.00     0.031 A 
ATOM     16  C   UNL     1      -6.491 -16.835 -15.319  1.00  0.00     0.074 A 
ATOM     17  C   UNL     1      -8.093 -14.989 -15.700  1.00  0.00     0.049 A 
ATOM     18  N   UNL     1      -7.302 -17.781 -14.914  1.00  0.00    -0.248 NA
ATOM     19  C   UNL     1      -5.080 -17.247 -15.386  1.00  0.00     0.031 C 
ATOM     20  C   UNL     1      -8.533 -13.640 -16.071  1.00  0.00     0.029 A 
ATOM     21  N   UNL     1      -9.249 -15.622 -15.323  1.00  0.00    -0.354 N 
ATOM     22  C   UNL     1      -6.508 -18.904 -14.709  1.00  0.00     0.074 A 
ATOM     23  C   UNL     1      -5.153 -18.528 -15.050  1.00  0.00     0.031 C 
ATOM     24  C   UNL     1      -9.849 -13.529 -15.842  1.00  0.00     0.029 A 
ATOM     25  C   UNL     1     -10.358 -14.811 -15.369  1.00  0.00     0.049 A 
ATOM     26  H   UNL     1      -9.282 -16.566 -15.047  1.00  0.00     0.167 HD
ATOM     27  C   UNL     1      -6.875 -20.135 -14.275  1.00  0.00     0.031 A 
ATOM     28  C   UNL     1     -11.644 -15.067 -15.069  1.00  0.00     0.031 A 
ATOM     29  C   UNL     1      -8.223 -20.501 -13.922  1.00  0.00     0.049 A 
ATOM     30  C   UNL     1     -12.022 -16.436 -14.585  1.00  0.00     0.074 A 
ATOM     31  C   UNL     1      -8.689 -21.712 -13.441  1.00  0.00     0.029 A 
ATOM     32  N   UNL     1      -9.321 -19.659 -14.011  1.00  0.00    -0.354 N 
ATOM     33  N   UNL     1     -11.251 -17.477 -14.377  1.00  0.00    -0.248 NA
ATOM     34  C   UNL     1     -13.442 -16.664 -14.293  1.00  0.00     0.031 C 
ATOM     35  C   UNL     1     -10.075 -21.616 -13.278  1.00  0.00     0.029 A 
ATOM     36  C   UNL     1     -10.465 -20.328 -13.609  1.00  0.00     0.049 A 
ATOM     37  H   UNL     1      -9.292 -18.723 -14.314  1.00  0.00     0.167 HD
ATOM     38  C   UNL     1     -12.091 -18.479 -13.909  1.00  0.00     0.074 A 
ATOM     39  C   UNL     1     -13.424 -17.913 -13.848  1.00  0.00     0.031 C 
ATOM     40  C   UNL     1     -11.785 -19.753 -13.559  1.00  0.00     0.031 A 
BRANCH  27  41
ATOM     41  C   UNL     1      -5.805 -21.194 -14.188  1.00  0.00    -0.014 A 
ATOM     42  C   UNL     1      -4.823 -21.163 -13.182  1.00  0.00     0.010 A 
ATOM     43  C   UNL     1      -5.810 -22.261 -15.105  1.00  0.00     0.010 A 
ATOM     44  C   UNL     1      -3.842 -22.158 -13.120  1.00  0.00     0.020 A 
ATOM     45  C   UNL     1      -4.845 -23.270 -15.032  1.00  0.00     0.020 A 
ATOM     46  C   UNL     1      -3.855 -23.202 -14.050  1.00  0.00     0.054 A 
BRANCH  46  47
ATOM     47  S   UNL     1      -2.579 -24.487 -13.941  1.00  0.00     0.124 S 
ATOM     48  O   UNL     1      -1.409 -23.794 -14.476  1.00  0.00    -0.237 OA
ATOM     49  O   UNL     1      -2.535 -24.778 -12.510  1.00  0.00    -0.237 OA
ATOM     50  O   UNL     1      -3.100 -25.566 -14.776  1.00  0.00    -0.744 OA
ENDBRANCH  46  47
ENDBRANCH  27  41
BRANCH  28  51
ATOM     51  C   UNL     1     -12.660 -13.991 -15.211  1.00  0.00    -0.014 A 
ATOM     52  C   UNL     1     -13.238 -13.400 -14.074  1.00  0.00     0.010 A 
ATOM     53  C   UNL     1     -13.027 -13.528 -16.488  1.00  0.00     0.010 A 
ATOM     54  C   UNL     1     -14.175 -12.373 -14.212  1.00  0.00     0.020 A 
ATOM     55  C   UNL     1     -13.942 -12.482 -16.628  1.00  0.00     0.020 A 
ATOM     56  C   UNL     1     -14.519 -11.918 -15.489  1.00  0.00     0.054 A 
BRANCH  56  57
ATOM     57  S   UNL     1     -15.689 -10.541 -15.645  1.00  0.00     0.124 S 
ATOM     58  O   UNL     1     -16.966 -11.200 -15.392  1.00  0.00    -0.237 OA
ATOM     59  O   UNL     1     -15.235  -9.619 -14.607  1.00  0.00    -0.237 OA
ATOM     60  O   UNL     1     -15.484 -10.074 -17.014  1.00  0.00    -0.744 OA
ENDBRANCH  56  57
ENDBRANCH  28  51
BRANCH  40  61
ATOM     61  C   UNL     1     -12.911 -20.607 -13.044  1.00  0.00    -0.014 A 
ATOM     62  C   UNL     1     -13.903 -21.105 -13.907  1.00  0.00     0.010 A 
ATOM     63  C   UNL     1     -12.962 -20.932 -11.677  1.00  0.00     0.010 A 
ATOM     64  C   UNL     1     -14.951 -21.879 -13.404  1.00  0.00     0.020 A 
ATOM     65  C   UNL     1     -13.995 -21.727 -11.174  1.00  0.00     0.020 A 
ATOM     66  C   UNL     1     -14.994 -22.179 -12.038  1.00  0.00     0.054 A 
BRANCH  66  67
ATOM     67  S   UNL     1     -16.354 -23.200 -11.407  1.00  0.00     0.124 S 
ATOM     68  O   UNL     1     -17.456 -22.244 -11.363  1.00  0.00    -0.237 OA
ATOM     69  O   UNL     1     -16.469 -24.247 -12.420  1.00  0.00    -0.237 OA
ATOM     70  O   UNL     1     -15.868 -23.654 -10.106  1.00  0.00    -0.744 OA
ENDBRANCH  66  67
ENDBRANCH  40  61
ENDBRANCH  14  15
ENDBRANCH   7   9
ENDBRANCH   4   5
ENDBRANCH   3   4
ENDBRANCH   2   3
ENDBRANCH   1   2
BRANCH   1  71
ATOM     71  N   UNL     1      -0.339 -10.119 -11.860  1.00  0.00    -0.354 N 
ATOM     72  C   UNL     1       0.101  -9.455 -10.751  1.00  0.00     0.244 C 
ATOM     73  H   UNL     1      -1.116 -10.703 -11.704  1.00  0.00     0.163 HD
ATOM     74  O   UNL     1      -0.657  -9.396  -9.781  1.00  0.00    -0.273 OA
BRANCH  72  75
ATOM     75  C   UNL     1       1.444  -8.703 -10.735  1.00  0.00     0.197 C 
BRANCH  75  76
ATOM     76  N   UNL     1       2.518  -9.605 -11.179  1.00  0.00    -0.340 N 
ATOM     77  C   UNL     1       3.337 -10.392 -10.429  1.00  0.00     0.244 C 
ATOM     78  H   UNL     1       2.665  -9.644 -12.152  1.00  0.00     0.164 HD
ATOM     79  O   UNL     1       3.518 -11.548 -10.821  1.00  0.00    -0.273 OA
BRANCH  77  80
ATOM     80  C   UNL     1       4.037  -9.892  -9.149  1.00  0.00     0.181 C 
BRANCH  80  81
ATOM     81  N   UNL     1       4.217  -8.440  -9.116  1.00  0.00    -0.342 N 
ATOM     82  C   UNL     1       5.358  -7.713  -9.261  1.00  0.00     0.243 C 
ATOM     83  H   UNL     1       3.397  -7.916  -8.968  1.00  0.00     0.164 HD
ATOM     84  O   UNL     1       5.214  -6.534  -9.598  1.00  0.00    -0.273 OA
BRANCH  82  85
ATOM     85  C   UNL     1       6.726  -8.303  -8.848  1.00  0.00     0.176 C 
BRANCH  85  86
ATOM     86  N   UNL     1       7.761  -7.637  -9.644  1.00  0.00    -0.340 N 
ATOM     87  C   UNL     1       8.332  -8.055 -10.822  1.00  0.00     0.251 C 
ATOM     88  H   UNL     1       8.089  -6.779  -9.289  1.00  0.00     0.164 HD
ATOM     89  O   UNL     1       9.222  -7.412 -11.368  1.00  0.00    -0.269 OA
BRANCH  87  90
ATOM     90  C   UNL     1       7.901  -9.338 -11.416  1.00  0.00     0.040 A 
ATOM     91  C   UNL     1       6.627  -9.473 -11.976  1.00  0.00     0.017 A 
ATOM     92  C   UNL     1       8.790 -10.421 -11.404  1.00  0.00     0.017 A 
ATOM     93  C   UNL     1       6.224 -10.718 -12.466  1.00  0.00     0.040 A 
ATOM     94  C   UNL     1       8.373 -11.667 -11.872  1.00  0.00     0.040 A 
ATOM     95  C   UNL     1       7.090 -11.806 -12.391  1.00  0.00     0.123 A 
ATOM     96  F   UNL     1       6.688 -13.003 -12.833  1.00  0.00    -0.207 F 
ENDBRANCH  87  90
ENDBRANCH  85  86
BRANCH  85  97
ATOM     97  C   UNL     1       6.819  -8.080  -7.325  1.00  0.00     0.072 C 
BRANCH  97  98
ATOM     98  C   UNL     1       8.155  -8.128  -6.642  1.00  0.00    -0.020 A 
ATOM     99  C   UNL     1       8.422  -7.444  -5.467  1.00  0.00     0.087 A 
ATOM    100  C   UNL     1       9.362  -8.821  -6.983  1.00  0.00     0.003 A 
ATOM    101  N   UNL     1       9.737  -7.619  -5.145  1.00  0.00    -0.361 N 
ATOM    102  C   UNL     1      10.349  -8.412  -6.083  1.00  0.00     0.046 A 
ATOM    103  C   UNL     1       9.738  -9.735  -7.987  1.00  0.00     0.010 A 
ATOM    104  H   UNL     1      10.181  -7.233  -4.355  1.00  0.00     0.166 HD
ATOM    105  C   UNL     1      11.692  -8.794  -6.193  1.00  0.00     0.026 A 
ATOM    106  C   UNL     1      11.078 -10.117  -8.125  1.00  0.00     0.001 A 
ATOM    107  C   UNL     1      12.043  -9.636  -7.249  1.00  0.00     0.002 A 
ENDBRANCH  97  98
ENDBRANCH  85  97
ENDBRANCH  82  85
ENDBRANCH  80  81
BRANCH  80 108
ATOM    108  C   UNL     1       3.466 -10.498  -7.863  1.00  0.00     0.101 C 
BRANCH 108 109
ATOM    109  S   UNL     1       1.987  -9.681  -7.194  1.00  0.00    -0.177 SA
ATOM    110  H   UNL     1       2.296  -8.405  -6.840  1.00  0.00     0.102 HD
ENDBRANCH 108 109
ENDBRANCH  80 108
ENDBRANCH  77  80
ENDBRANCH  75  76
BRANCH  75 111
ATOM    111  C   UNL     1       1.330  -7.399 -11.542  1.00  0.00     0.191 C 
BRANCH 111 112
ATOM    112  O   UNL     1       2.592  -6.945 -12.026  1.00  0.00    -0.394 OA
ATOM    113  H   UNL     1       3.179  -6.761 -11.276  1.00  0.00     0.210 HD
ENDBRANCH 111 112
ENDBRANCH  75 111
ENDBRANCH  72  75
ENDBRANCH   1  71
TORSDOF 26
