REMARK SMILES O=C(N[C@@H]1C=C[C@@H](C(=O)NCCCCNC(=O)c2ccc(-c3c4nc(c(-c5ccc(S(=O)(=O)[O-])cc5)c5ccc([nH]5)c(-c5ccc(S(=O)(=O)[O-])cc5)c5nc(c(-c6ccc(S(=O)(=O)[O-])cc6)c6ccc3[nH]6)C=C5)C=C4)cc2)C1)Oc1ccccc1
REMARK SMILES IDX 12 1 11 2 10 3 8 4 9 5 7 7 4 8 5 9 78 10 6 11 3 12 1 13 2 14
REMARK SMILES IDX 79 16 80 17 81 18 85 19 82 20 84 21 83 22 13 23 14 24 15 25
REMARK SMILES IDX 16 26 17 28 18 29 19 30 77 31 20 32 76 33 21 34 22 35 23 36
REMARK SMILES IDX 70 37 24 38 75 39 69 40 71 41 25 42 74 43 68 44 67 45 26 47
REMARK SMILES IDX 56 48 37 49 55 50 38 51 41 52 54 53 72 54 39 55 40 56 53 58
REMARK SMILES IDX 73 59 42 60 27 61 28 62 36 63 29 64 35 65 30 66 31 67 32 68
REMARK SMILES IDX 33 69 34 70 57 71 58 72 66 73 59 74 65 75 60 76 61 77 62 78
REMARK SMILES IDX 63 79 64 80 43 81 44 82 52 83 45 84 51 85 46 86 47 87 48 88
REMARK SMILES IDX 49 89 50 90
REMARK H PARENT 10 6 3 15 15 27 71 46 41 57
REMARK Flexibility Score: inf
ROOT
ATOM      1  C   UNL     1       3.183  -0.481  -4.084  1.00  0.00     0.023 C 
ENDROOT
BRANCH   1   2
ATOM      2  C   UNL     1       4.372  -1.277  -3.561  1.00  0.00     0.116 C 
BRANCH   2   3
ATOM      3  N   UNL     1       5.611  -0.865  -4.185  1.00  0.00    -0.356 N 
ATOM      4  C   UNL     1       6.657  -0.135  -3.712  1.00  0.00     0.227 C 
ATOM      5  O   UNL     1       7.604   0.050  -4.483  1.00  0.00    -0.274 OA
ATOM      6  H   UNL     1       5.716  -1.166  -5.117  1.00  0.00     0.163 HD
BRANCH   4   7
ATOM      7  C   UNL     1       6.707   0.455  -2.296  1.00  0.00     0.103 C 
ATOM      8  C   UNL     1       4.912   0.976  -0.689  1.00  0.00     0.109 C 
ATOM      9  C   UNL     1       5.683  -0.248  -0.303  1.00  0.00    -0.006 C 
ATOM     10  C   UNL     1       5.605   1.469  -1.967  1.00  0.00     0.047 C 
ATOM     11  C   UNL     1       6.637  -0.551  -1.190  1.00  0.00    -0.016 C 
BRANCH   8  12
ATOM     12  N   UNL     1       4.976   1.908   0.408  1.00  0.00    -0.315 N 
ATOM     13  O   UNL     1       4.664   3.779   1.593  1.00  0.00    -0.224 OA
ATOM     14  C   UNL     1       4.345   3.101   0.615  1.00  0.00     0.413 C 
ATOM     15  H   UNL     1       5.582   1.637   1.135  1.00  0.00     0.167 HD
BRANCH  14  16
ATOM     16  O   UNL     1       3.406   3.590  -0.305  1.00  0.00    -0.410 OA
BRANCH  16  17
ATOM     17  C   UNL     1       2.535   2.927  -1.204  1.00  0.00     0.132 A 
ATOM     18  C   UNL     1       2.486   3.416  -2.508  1.00  0.00     0.047 A 
ATOM     19  C   UNL     1       1.701   1.897  -0.777  1.00  0.00     0.047 A 
ATOM     20  C   UNL     1       1.625   2.817  -3.424  1.00  0.00     0.004 A 
ATOM     21  C   UNL     1       0.853   1.291  -1.705  1.00  0.00     0.004 A 
ATOM     22  C   UNL     1       0.815   1.751  -3.025  1.00  0.00     0.000 A 
ENDBRANCH  16  17
ENDBRANCH  14  16
ENDBRANCH   8  12
ENDBRANCH   4   7
ENDBRANCH   2   3
ENDBRANCH   1   2
BRANCH   1  23
ATOM     23  C   UNL     1       2.702  -0.869  -5.480  1.00  0.00     0.023 C 
BRANCH  23  24
ATOM     24  C   UNL     1       2.116  -2.271  -5.586  1.00  0.00     0.116 C 
BRANCH  24  25
ATOM     25  N   UNL     1       0.945  -2.481  -4.743  1.00  0.00    -0.352 N 
ATOM     26  C   UNL     1      -0.239  -3.116  -5.045  1.00  0.00     0.251 C 
ATOM     27  H   UNL     1       1.010  -2.117  -3.830  1.00  0.00     0.163 HD
ATOM     28  O   UNL     1      -1.161  -3.108  -4.236  1.00  0.00    -0.269 OA
BRANCH  26  29
ATOM     29  C   UNL     1      -0.403  -3.764  -6.365  1.00  0.00     0.039 A 
ATOM     30  C   UNL     1      -1.575  -3.542  -7.093  1.00  0.00     0.014 A 
ATOM     31  C   UNL     1       0.627  -4.532  -6.911  1.00  0.00     0.014 A 
ATOM     32  C   UNL     1      -1.670  -4.011  -8.406  1.00  0.00     0.010 A 
ATOM     33  C   UNL     1       0.573  -4.903  -8.249  1.00  0.00     0.010 A 
ATOM     34  C   UNL     1      -0.575  -4.647  -9.014  1.00  0.00    -0.014 A 
BRANCH  34  35
ATOM     35  C   UNL     1      -0.595  -5.048 -10.446  1.00  0.00     0.031 A 
ATOM     36  C   UNL     1      -0.403  -6.492 -10.826  1.00  0.00     0.074 A 
ATOM     37  C   UNL     1      -0.695  -4.105 -11.405  1.00  0.00     0.049 A 
ATOM     38  N   UNL     1      -0.308  -7.027 -12.016  1.00  0.00    -0.248 NA
ATOM     39  C   UNL     1      -0.266  -7.458  -9.723  1.00  0.00     0.031 C 
ATOM     40  C   UNL     1      -0.839  -2.665 -11.172  1.00  0.00     0.029 A 
ATOM     41  N   UNL     1      -0.688  -4.215 -12.774  1.00  0.00    -0.354 N 
ATOM     42  C   UNL     1      -0.070  -8.381 -11.804  1.00  0.00     0.074 A 
ATOM     43  C   UNL     1       0.023  -8.574 -10.374  1.00  0.00     0.031 C 
ATOM     44  C   UNL     1      -0.951  -2.035 -12.352  1.00  0.00     0.029 A 
ATOM     45  C   UNL     1      -0.836  -3.014 -13.428  1.00  0.00     0.049 A 
ATOM     46  H   UNL     1      -0.586  -5.075 -13.243  1.00  0.00     0.167 HD
ATOM     47  C   UNL     1       0.038  -9.379 -12.714  1.00  0.00     0.031 A 
ATOM     48  C   UNL     1      -0.872  -2.731 -14.745  1.00  0.00     0.031 A 
ATOM     49  C   UNL     1      -0.074  -9.183 -14.134  1.00  0.00     0.049 A 
ATOM     50  C   UNL     1      -0.736  -3.853 -15.738  1.00  0.00     0.074 A 
ATOM     51  C   UNL     1      -0.051 -10.136 -15.137  1.00  0.00     0.029 A 
ATOM     52  N   UNL     1      -0.225  -7.952 -14.754  1.00  0.00    -0.354 N 
ATOM     53  N   UNL     1      -0.589  -5.138 -15.515  1.00  0.00    -0.248 NA
ATOM     54  C   UNL     1      -0.781  -3.488 -17.160  1.00  0.00     0.031 C 
ATOM     55  C   UNL     1      -0.124  -9.474 -16.367  1.00  0.00     0.029 A 
ATOM     56  C   UNL     1      -0.265  -8.116 -16.128  1.00  0.00     0.049 A 
ATOM     57  H   UNL     1      -0.294  -7.088 -14.286  1.00  0.00     0.167 HD
ATOM     58  C   UNL     1      -0.558  -5.738 -16.770  1.00  0.00     0.074 A 
ATOM     59  C   UNL     1      -0.714  -4.677 -17.744  1.00  0.00     0.031 C 
ATOM     60  C   UNL     1      -0.419  -7.049 -17.086  1.00  0.00     0.031 A 
BRANCH  47  61
ATOM     61  C   UNL     1       0.305 -10.768 -12.193  1.00  0.00    -0.014 A 
ATOM     62  C   UNL     1      -0.656 -11.463 -11.434  1.00  0.00     0.010 A 
ATOM     63  C   UNL     1       1.530 -11.397 -12.481  1.00  0.00     0.010 A 
ATOM     64  C   UNL     1      -0.373 -12.733 -10.924  1.00  0.00     0.020 A 
ATOM     65  C   UNL     1       1.803 -12.681 -12.002  1.00  0.00     0.020 A 
ATOM     66  C   UNL     1       0.858 -13.332 -11.206  1.00  0.00     0.054 A 
BRANCH  66  67
ATOM     67  S   UNL     1       1.196 -14.980 -10.531  1.00  0.00     0.124 S 
ATOM     68  O   UNL     1       1.388 -14.690  -9.112  1.00  0.00    -0.237 OA
ATOM     69  O   UNL     1      -0.021 -15.717 -10.862  1.00  0.00    -0.237 OA
ATOM     70  O   UNL     1       2.396 -15.409 -11.246  1.00  0.00    -0.744 OA
ENDBRANCH  66  67
ENDBRANCH  47  61
BRANCH  48  71
ATOM     71  C   UNL     1      -1.080  -1.328 -15.203  1.00  0.00    -0.014 A 
ATOM     72  C   UNL     1      -2.288  -0.958 -15.821  1.00  0.00     0.010 A 
ATOM     73  C   UNL     1      -0.083  -0.353 -15.016  1.00  0.00     0.010 A 
ATOM     74  C   UNL     1      -2.489   0.355 -16.258  1.00  0.00     0.020 A 
ATOM     75  C   UNL     1      -0.292   0.967 -15.425  1.00  0.00     0.020 A 
ATOM     76  C   UNL     1      -1.490   1.310 -16.053  1.00  0.00     0.054 A 
BRANCH  76  77
ATOM     77  S   UNL     1      -1.798   3.019 -16.582  1.00  0.00     0.124 S 
ATOM     78  O   UNL     1      -1.734   2.904 -18.035  1.00  0.00    -0.237 OA
ATOM     79  O   UNL     1      -3.121   3.287 -16.024  1.00  0.00    -0.237 OA
ATOM     80  O   UNL     1      -0.707   3.769 -15.963  1.00  0.00    -0.744 OA
ENDBRANCH  76  77
ENDBRANCH  48  71
BRANCH  60  81
ATOM     81  C   UNL     1      -0.468  -7.421 -18.544  1.00  0.00    -0.014 A 
ATOM     82  C   UNL     1       0.582  -7.097 -19.420  1.00  0.00     0.010 A 
ATOM     83  C   UNL     1      -1.563  -8.160 -19.031  1.00  0.00     0.010 A 
ATOM     84  C   UNL     1       0.524  -7.477 -20.764  1.00  0.00     0.020 A 
ATOM     85  C   UNL     1      -1.609  -8.570 -20.366  1.00  0.00     0.020 A 
ATOM     86  C   UNL     1      -0.571  -8.214 -21.227  1.00  0.00     0.054 A 
BRANCH  86  87
ATOM     87  S   UNL     1      -0.599  -8.736 -22.963  1.00  0.00     0.124 S 
ATOM     88  O   UNL     1      -0.859  -7.477 -23.656  1.00  0.00    -0.237 OA
ATOM     89  O   UNL     1       0.739  -9.292 -23.151  1.00  0.00    -0.237 OA
ATOM     90  O   UNL     1      -1.685  -9.712 -23.015  1.00  0.00    -0.744 OA
ENDBRANCH  86  87
ENDBRANCH  60  81
ENDBRANCH  34  35
ENDBRANCH  26  29
ENDBRANCH  24  25
ENDBRANCH  23  24
ENDBRANCH   1  23
TORSDOF 17
