REMARK SMILES NS(=O)(=O)c1ccc(N2N=C(C(=O)NCCCCNC(=O)c3ccc(-c4c5nc(c(-c6ccc(S(=O)(=O)[O-])cc6)c6ccc([nH]6)c(-c6ccc(S(=O)(=O)[O-])cc6)c6nc(c(-c7ccc(S(=O)(=O)[O-])cc7)c7ccc4[nH]7)C=C6)C=C5)cc3)C[C@H]2c2cccs2)cc1
REMARK SMILES IDX 16 1 15 2 14 3 12 4 13 5 11 7 9 8 10 9 83 10 82 11 8 12 5 13
REMARK SMILES IDX 6 14 90 15 7 16 89 17 2 18 3 19 4 20 1 21 84 24 85 25 88 26
REMARK SMILES IDX 86 27 87 28 17 29 18 30 19 31 20 32 21 34 22 35 23 36 81 37
REMARK SMILES IDX 24 38 80 39 25 40 26 41 27 42 74 43 28 44 79 45 73 46 75 47
REMARK SMILES IDX 29 48 78 49 72 50 71 51 30 53 60 54 41 55 59 56 42 57 45 58
REMARK SMILES IDX 58 59 76 60 43 61 44 62 57 64 77 65 46 66 31 67 32 68 40 69
REMARK SMILES IDX 33 70 39 71 34 72 35 73 36 74 37 75 38 76 61 77 62 78 70 79
REMARK SMILES IDX 63 80 69 81 64 82 65 83 66 84 67 85 68 86 47 87 48 88 56 89
REMARK SMILES IDX 49 90 55 91 50 92 51 93 52 94 53 95 54 96
REMARK H PARENT 14 6 1 22 1 23 19 33 75 52 45 63
REMARK Flexibility Score: inf
ROOT
ATOM      1  C   UNL     1       5.500  11.082  -2.620  1.00  0.00     0.023 C 
ENDROOT
BRANCH   1   2
ATOM      2  C   UNL     1       4.126  10.644  -3.115  1.00  0.00     0.116 C 
BRANCH   2   3
ATOM      3  N   UNL     1       4.229   9.700  -4.210  1.00  0.00    -0.351 N 
ATOM      4  C   UNL     1       3.887   8.382  -4.379  1.00  0.00     0.267 C 
ATOM      5  O   UNL     1       4.193   7.848  -5.443  1.00  0.00    -0.268 OA
ATOM      6  H   UNL     1       4.636  10.095  -5.015  1.00  0.00     0.163 HD
BRANCH   4   7
ATOM      7  C   UNL     1       3.119   7.559  -3.355  1.00  0.00     0.128 C 
ATOM      8  N   UNL     1       1.940   5.949  -2.591  1.00  0.00    -0.256 N 
ATOM      9  N   UNL     1       2.713   6.355  -3.633  1.00  0.00    -0.171 NA
ATOM     10  C   UNL     1       1.930   6.883  -1.464  1.00  0.00     0.154 C 
ATOM     11  C   UNL     1       2.787   8.039  -1.983  1.00  0.00     0.097 C 
BRANCH   8  12
ATOM     12  C   UNL     1       1.648   4.600  -2.410  1.00  0.00     0.060 A 
ATOM     13  C   UNL     1       1.026   1.902  -1.949  1.00  0.00     0.082 A 
ATOM     14  C   UNL     1       2.338   2.268  -2.261  1.00  0.00     0.024 A 
ATOM     15  C   UNL     1       0.016   2.861  -1.901  1.00  0.00     0.024 A 
ATOM     16  C   UNL     1       2.640   3.613  -2.497  1.00  0.00     0.029 A 
ATOM     17  C   UNL     1       0.334   4.199  -2.131  1.00  0.00     0.029 A 
BRANCH  13  18
ATOM     18  S   UNL     1       0.633   0.205  -1.662  1.00  0.00     0.238 S 
ATOM     19  O   UNL     1       1.418  -0.626  -2.542  1.00  0.00    -0.207 OA
ATOM     20  O   UNL     1      -0.799   0.054  -1.523  1.00  0.00    -0.207 OA
BRANCH  18  21
ATOM     21  N   UNL     1       1.251  -0.040  -0.118  1.00  0.00    -0.225 NA
ATOM     22  H   UNL     1       1.082  -1.005   0.166  1.00  0.00     0.137 HD
ATOM     23  H   UNL     1       0.792   0.593   0.536  1.00  0.00     0.137 HD
ENDBRANCH  18  21
ENDBRANCH  13  18
ENDBRANCH   8  12
BRANCH  10  24
ATOM     24  C   UNL     1       0.568   7.308  -0.941  1.00  0.00     0.030 A 
ATOM     25  C   UNL     1      -0.131   6.738   0.112  1.00  0.00     0.017 A 
ATOM     26  S   UNL     1      -0.353   8.569  -1.662  1.00  0.00    -0.147 S 
ATOM     27  C   UNL     1      -1.389   7.364   0.344  1.00  0.00     0.012 A 
ATOM     28  C   UNL     1      -1.609   8.411  -0.519  1.00  0.00     0.065 A 
ENDBRANCH  10  24
ENDBRANCH   4   7
ENDBRANCH   2   3
ENDBRANCH   1   2
BRANCH   1  29
ATOM     29  C   UNL     1       6.190  12.105  -3.515  1.00  0.00     0.023 C 
BRANCH  29  30
ATOM     30  C   UNL     1       5.397  13.383  -3.762  1.00  0.00     0.116 C 
BRANCH  30  31
ATOM     31  N   UNL     1       4.997  14.067  -2.538  1.00  0.00    -0.352 N 
ATOM     32  C   UNL     1       5.040  15.417  -2.271  1.00  0.00     0.251 C 
ATOM     33  H   UNL     1       4.655  13.493  -1.814  1.00  0.00     0.163 HD
ATOM     34  O   UNL     1       4.765  15.849  -1.158  1.00  0.00    -0.269 OA
BRANCH  32  35
ATOM     35  C   UNL     1       5.467  16.323  -3.353  1.00  0.00     0.039 A 
ATOM     36  C   UNL     1       6.581  17.141  -3.159  1.00  0.00     0.014 A 
ATOM     37  C   UNL     1       4.835  16.253  -4.597  1.00  0.00     0.014 A 
ATOM     38  C   UNL     1       7.122  17.827  -4.247  1.00  0.00     0.010 A 
ATOM     39  C   UNL     1       5.423  16.872  -5.691  1.00  0.00     0.010 A 
ATOM     40  C   UNL     1       6.577  17.657  -5.530  1.00  0.00    -0.014 A 
BRANCH  40  41
ATOM     41  C   UNL     1       7.186  18.277  -6.734  1.00  0.00     0.031 A 
ATOM     42  C   UNL     1       6.384  19.259  -7.543  1.00  0.00     0.074 A 
ATOM     43  C   UNL     1       8.402  17.879  -7.159  1.00  0.00     0.049 A 
ATOM     44  N   UNL     1       6.657  19.785  -8.707  1.00  0.00    -0.248 NA
ATOM     45  C   UNL     1       5.088  19.675  -6.980  1.00  0.00     0.031 C 
ATOM     46  C   UNL     1       9.268  16.912  -6.479  1.00  0.00     0.029 A 
ATOM     47  N   UNL     1       9.114  18.226  -8.281  1.00  0.00    -0.354 N 
ATOM     48  C   UNL     1       5.555  20.567  -9.032  1.00  0.00     0.074 A 
ATOM     49  C   UNL     1       4.593  20.412  -7.963  1.00  0.00     0.031 C 
ATOM     50  C   UNL     1      10.397  16.755  -7.190  1.00  0.00     0.029 A 
ATOM     51  C   UNL     1      10.317  17.569  -8.399  1.00  0.00     0.049 A 
ATOM     52  H   UNL     1       8.793  18.884  -8.940  1.00  0.00     0.167 HD
ATOM     53  C   UNL     1       5.368  21.358 -10.114  1.00  0.00     0.031 A 
ATOM     54  C   UNL     1      11.241  17.601  -9.380  1.00  0.00     0.031 A 
ATOM     55  C   UNL     1       6.337  21.525 -11.163  1.00  0.00     0.049 A 
ATOM     56  C   UNL     1      11.006  18.476 -10.581  1.00  0.00     0.074 A 
ATOM     57  C   UNL     1       6.266  22.346 -12.274  1.00  0.00     0.029 A 
ATOM     58  N   UNL     1       7.553  20.862 -11.229  1.00  0.00    -0.354 N 
ATOM     59  N   UNL     1       9.980  19.250 -10.846  1.00  0.00    -0.248 NA
ATOM     60  C   UNL     1      12.052  18.488 -11.614  1.00  0.00     0.031 C 
ATOM     61  C   UNL     1       7.419  22.144 -13.038  1.00  0.00     0.029 A 
ATOM     62  C   UNL     1       8.234  21.241 -12.372  1.00  0.00     0.049 A 
ATOM     63  H   UNL     1       7.882  20.217 -10.562  1.00  0.00     0.167 HD
ATOM     64  C   UNL     1      10.274  19.867 -12.057  1.00  0.00     0.074 A 
ATOM     65  C   UNL     1      11.573  19.380 -12.472  1.00  0.00     0.031 C 
ATOM     66  C   UNL     1       9.536  20.760 -12.760  1.00  0.00     0.031 A 
BRANCH  53  67
ATOM     67  C   UNL     1       4.060  22.096 -10.219  1.00  0.00    -0.014 A 
ATOM     68  C   UNL     1       3.752  23.154  -9.345  1.00  0.00     0.010 A 
ATOM     69  C   UNL     1       3.140  21.748 -11.224  1.00  0.00     0.010 A 
ATOM     70  C   UNL     1       2.528  23.820  -9.444  1.00  0.00     0.020 A 
ATOM     71  C   UNL     1       1.927  22.431 -11.346  1.00  0.00     0.020 A 
ATOM     72  C   UNL     1       1.621  23.451 -10.443  1.00  0.00     0.054 A 
BRANCH  72  73
ATOM     73  S   UNL     1       0.048  24.344 -10.559  1.00  0.00     0.124 S 
ATOM     74  O   UNL     1      -0.678  23.824  -9.402  1.00  0.00    -0.237 OA
ATOM     75  O   UNL     1       0.464  25.741 -10.461  1.00  0.00    -0.237 OA
ATOM     76  O   UNL     1      -0.484  23.944 -11.859  1.00  0.00    -0.744 OA
ENDBRANCH  72  73
ENDBRANCH  53  67
BRANCH  54  77
ATOM     77  C   UNL     1      12.480  16.782  -9.264  1.00  0.00    -0.014 A 
ATOM     78  C   UNL     1      13.722  17.401  -9.038  1.00  0.00     0.010 A 
ATOM     79  C   UNL     1      12.425  15.380  -9.366  1.00  0.00     0.010 A 
ATOM     80  C   UNL     1      14.888  16.636  -8.934  1.00  0.00     0.020 A 
ATOM     81  C   UNL     1      13.585  14.610  -9.236  1.00  0.00     0.020 A 
ATOM     82  C   UNL     1      14.811  15.244  -9.031  1.00  0.00     0.054 A 
BRANCH  82  83
ATOM     83  S   UNL     1      16.330  14.269  -8.841  1.00  0.00     0.124 S 
ATOM     84  O   UNL     1      17.015  14.525 -10.104  1.00  0.00    -0.237 OA
ATOM     85  O   UNL     1      16.941  14.866  -7.657  1.00  0.00    -0.237 OA
ATOM     86  O   UNL     1      15.839  12.905  -8.659  1.00  0.00    -0.744 OA
ENDBRANCH  82  83
ENDBRANCH  54  77
BRANCH  66  87
ATOM     87  C   UNL     1      10.124  21.319 -14.027  1.00  0.00    -0.014 A 
ATOM     88  C   UNL     1      10.183  20.555 -15.204  1.00  0.00     0.010 A 
ATOM     89  C   UNL     1      10.524  22.668 -14.060  1.00  0.00     0.010 A 
ATOM     90  C   UNL     1      10.639  21.130 -16.394  1.00  0.00     0.020 A 
ATOM     91  C   UNL     1      10.956  23.253 -15.253  1.00  0.00     0.020 A 
ATOM     92  C   UNL     1      11.014  22.478 -16.412  1.00  0.00     0.054 A 
BRANCH  92  93
ATOM     93  S   UNL     1      11.515  23.223 -17.988  1.00  0.00     0.124 S 
ATOM     94  O   UNL     1      12.837  22.638 -18.195  1.00  0.00    -0.237 OA
ATOM     95  O   UNL     1      10.474  22.765 -18.904  1.00  0.00    -0.237 OA
ATOM     96  O   UNL     1      11.506  24.658 -17.712  1.00  0.00    -0.744 OA
ENDBRANCH  92  93
ENDBRANCH  66  87
ENDBRANCH  40  41
ENDBRANCH  32  35
ENDBRANCH  30  31
ENDBRANCH  29  30
ENDBRANCH   1  29
TORSDOF 18
