REMARK SMILES O=C(NCCCCNC(=O)c1ccc(S(=O)(=O)NCC[NH+]2CCCC2)c(F)c1)c1ccc(-c2c3nc(c(-c4ccc(S(=O)(=O)[O-])cc4)c4ccc([nH]4)c(-c4ccc(S(=O)(=O)[O-])cc4)c4nc(c(-c5ccc(S(=O)(=O)[O-])cc5)c5ccc2[nH]5)C=C4)C=C3)cc1
REMARK SMILES IDX 6 1 5 2 4 3 3 4 1 5 2 6 29 8 30 9 88 10 31 11 87 12 32 13
REMARK SMILES IDX 33 14 34 15 81 16 35 17 86 18 80 19 82 20 36 21 85 22 79 23
REMARK SMILES IDX 78 24 37 26 67 27 48 28 66 29 49 30 52 31 65 32 83 33 50 34
REMARK SMILES IDX 51 35 64 37 84 38 53 39 38 40 39 41 47 42 40 43 46 44 41 45
REMARK SMILES IDX 42 46 43 47 44 48 45 49 68 50 69 51 77 52 70 53 76 54 71 55
REMARK SMILES IDX 72 56 73 57 74 58 75 59 54 60 55 61 63 62 56 63 62 64 57 65
REMARK SMILES IDX 58 66 59 67 60 68 61 69 7 70 8 71 9 72 10 74 11 75 12 76
REMARK SMILES IDX 28 77 13 78 26 79 14 80 27 81 15 82 16 83 17 84 18 85 19 87
REMARK SMILES IDX 20 88 21 89 22 90 25 91 23 93 24 94
REMARK H PARENT 3 7 82 25 52 36 8 73 18 86 21 92
REMARK Flexibility Score: inf
ROOT
ATOM      1  C   UNL     1       4.580   3.953   0.797  1.00  0.00     0.023 C 
ENDROOT
BRANCH   1   2
ATOM      2  C   UNL     1       5.063   2.810  -0.095  1.00  0.00     0.023 C 
BRANCH   2   3
ATOM      3  C   UNL     1       4.711   1.406   0.381  1.00  0.00     0.116 C 
BRANCH   3   4
ATOM      4  N   UNL     1       3.279   1.167   0.434  1.00  0.00    -0.352 N 
ATOM      5  O   UNL     1       1.330   0.156  -0.063  1.00  0.00    -0.269 OA
ATOM      6  C   UNL     1       2.557   0.120  -0.090  1.00  0.00     0.251 C 
ATOM      7  H   UNL     1       2.753   1.849   0.910  1.00  0.00     0.163 HD
BRANCH   6   8
ATOM      8  C   UNL     1       3.254  -1.032  -0.706  1.00  0.00     0.039 A 
ATOM      9  C   UNL     1       4.349  -1.632  -0.078  1.00  0.00     0.014 A 
ATOM     10  C   UNL     1       2.784  -1.536  -1.923  1.00  0.00     0.014 A 
ATOM     11  C   UNL     1       5.037  -2.662  -0.715  1.00  0.00     0.010 A 
ATOM     12  C   UNL     1       3.437  -2.613  -2.531  1.00  0.00     0.010 A 
ATOM     13  C   UNL     1       4.579  -3.173  -1.940  1.00  0.00    -0.014 A 
BRANCH  13  14
ATOM     14  C   UNL     1       5.247  -4.360  -2.530  1.00  0.00     0.031 A 
ATOM     15  C   UNL     1       6.025  -4.266  -3.813  1.00  0.00     0.074 A 
ATOM     16  C   UNL     1       5.144  -5.538  -1.883  1.00  0.00     0.049 A 
ATOM     17  N   UNL     1       6.677  -5.209  -4.444  1.00  0.00    -0.248 NA
ATOM     18  C   UNL     1       6.076  -2.954  -4.477  1.00  0.00     0.031 C 
ATOM     19  C   UNL     1       4.393  -5.755  -0.642  1.00  0.00     0.029 A 
ATOM     20  N   UNL     1       5.675  -6.769  -2.169  1.00  0.00    -0.354 N 
ATOM     21  C   UNL     1       7.200  -4.615  -5.586  1.00  0.00     0.074 A 
ATOM     22  C   UNL     1       6.781  -3.229  -5.569  1.00  0.00     0.031 C 
ATOM     23  C   UNL     1       4.535  -7.033  -0.260  1.00  0.00     0.029 A 
ATOM     24  C   UNL     1       5.344  -7.736  -1.249  1.00  0.00     0.049 A 
ATOM     25  H   UNL     1       6.239  -6.944  -2.957  1.00  0.00     0.167 HD
ATOM     26  C   UNL     1       7.961  -5.176  -6.557  1.00  0.00     0.031 A 
ATOM     27  C   UNL     1       5.638  -9.048  -1.212  1.00  0.00     0.031 A 
ATOM     28  C   UNL     1       8.388  -6.552  -6.561  1.00  0.00     0.049 A 
ATOM     29  C   UNL     1       6.471  -9.642  -2.310  1.00  0.00     0.074 A 
ATOM     30  C   UNL     1       9.219  -7.190  -7.467  1.00  0.00     0.029 A 
ATOM     31  N   UNL     1       8.010  -7.503  -5.628  1.00  0.00    -0.354 N 
ATOM     32  N   UNL     1       7.008  -9.045  -3.346  1.00  0.00    -0.248 NA
ATOM     33  C   UNL     1       6.730 -11.086  -2.236  1.00  0.00     0.031 C 
ATOM     34  C   UNL     1       9.306  -8.539  -7.106  1.00  0.00     0.029 A 
ATOM     35  C   UNL     1       8.562  -8.731  -5.955  1.00  0.00     0.049 A 
ATOM     36  H   UNL     1       7.435  -7.332  -4.847  1.00  0.00     0.167 HD
ATOM     37  C   UNL     1       7.668 -10.043  -4.051  1.00  0.00     0.074 A 
ATOM     38  C   UNL     1       7.487 -11.274  -3.309  1.00  0.00     0.031 C 
ATOM     39  C   UNL     1       8.355  -9.948  -5.215  1.00  0.00     0.031 A 
BRANCH  26  40
ATOM     40  C   UNL     1       8.379  -4.314  -7.716  1.00  0.00    -0.014 A 
ATOM     41  C   UNL     1       9.435  -3.395  -7.592  1.00  0.00     0.010 A 
ATOM     42  C   UNL     1       7.774  -4.499  -8.973  1.00  0.00     0.010 A 
ATOM     43  C   UNL     1       9.871  -2.666  -8.703  1.00  0.00     0.020 A 
ATOM     44  C   UNL     1       8.217  -3.783 -10.089  1.00  0.00     0.020 A 
ATOM     45  C   UNL     1       9.259  -2.865  -9.945  1.00  0.00     0.054 A 
BRANCH  45  46
ATOM     46  S   UNL     1       9.881  -1.948 -11.383  1.00  0.00     0.124 S 
ATOM     47  O   UNL     1       9.336  -0.614 -11.147  1.00  0.00    -0.237 OA
ATOM     48  O   UNL     1      11.330  -2.068 -11.239  1.00  0.00    -0.237 OA
ATOM     49  O   UNL     1       9.311  -2.663 -12.522  1.00  0.00    -0.744 OA
ENDBRANCH  45  46
ENDBRANCH  26  40
BRANCH  27  50
ATOM     50  C   UNL     1       5.103  -9.893  -0.114  1.00  0.00    -0.014 A 
ATOM     51  C   UNL     1       5.950 -10.380   0.895  1.00  0.00     0.010 A 
ATOM     52  C   UNL     1       3.731 -10.200  -0.069  1.00  0.00     0.010 A 
ATOM     53  C   UNL     1       5.436 -11.174   1.924  1.00  0.00     0.020 A 
ATOM     54  C   UNL     1       3.210 -10.972   0.970  1.00  0.00     0.020 A 
ATOM     55  C   UNL     1       4.069 -11.467   1.954  1.00  0.00     0.054 A 
BRANCH  55  56
ATOM     56  S   UNL     1       3.403 -12.455   3.322  1.00  0.00     0.124 S 
ATOM     57  O   UNL     1       3.696 -13.815   2.881  1.00  0.00    -0.237 OA
ATOM     58  O   UNL     1       4.175 -11.980   4.468  1.00  0.00    -0.237 OA
ATOM     59  O   UNL     1       1.988 -12.091   3.343  1.00  0.00    -0.744 OA
ENDBRANCH  55  56
ENDBRANCH  27  50
BRANCH  39  60
ATOM     60  C   UNL     1       8.952 -11.216  -5.757  1.00  0.00    -0.014 A 
ATOM     61  C   UNL     1       8.140 -12.175  -6.388  1.00  0.00     0.010 A 
ATOM     62  C   UNL     1      10.336 -11.437  -5.661  1.00  0.00     0.010 A 
ATOM     63  C   UNL     1       8.701 -13.351  -6.890  1.00  0.00     0.020 A 
ATOM     64  C   UNL     1      10.903 -12.604  -6.180  1.00  0.00     0.020 A 
ATOM     65  C   UNL     1      10.079 -13.561  -6.778  1.00  0.00     0.054 A 
BRANCH  65  66
ATOM     66  S   UNL     1      10.794 -15.079  -7.467  1.00  0.00     0.124 S 
ATOM     67  O   UNL     1      10.473 -16.060  -6.434  1.00  0.00    -0.237 OA
ATOM     68  O   UNL     1      10.073 -15.235  -8.728  1.00  0.00    -0.237 OA
ATOM     69  O   UNL     1      12.213 -14.759  -7.605  1.00  0.00    -0.744 OA
ENDBRANCH  65  66
ENDBRANCH  39  60
ENDBRANCH  13  14
ENDBRANCH   6   8
ENDBRANCH   3   4
ENDBRANCH   2   3
ENDBRANCH   1   2
BRANCH   1  70
ATOM     70  C   UNL     1       4.940   3.844   2.277  1.00  0.00     0.116 C 
BRANCH  70  71
ATOM     71  N   UNL     1       6.369   3.704   2.517  1.00  0.00    -0.352 N 
ATOM     72  C   UNL     1       7.211   4.419   3.332  1.00  0.00     0.251 C 
ATOM     73  H   UNL     1       6.802   2.978   2.012  1.00  0.00     0.163 HD
ATOM     74  O   UNL     1       8.418   4.202   3.316  1.00  0.00    -0.269 OA
BRANCH  72  75
ATOM     75  C   UNL     1       6.686   5.496   4.198  1.00  0.00     0.042 A 
ATOM     76  C   UNL     1       5.552   5.314   4.992  1.00  0.00     0.015 A 
ATOM     77  C   UNL     1       7.357   6.723   4.205  1.00  0.00     0.054 A 
ATOM     78  C   UNL     1       4.998   6.406   5.659  1.00  0.00     0.026 A 
ATOM     79  C   UNL     1       6.823   7.800   4.909  1.00  0.00     0.144 A 
ATOM     80  C   UNL     1       5.617   7.663   5.580  1.00  0.00     0.118 A 
ATOM     81  F   UNL     1       7.488   8.961   4.866  1.00  0.00    -0.205 F 
BRANCH  80  82
ATOM     82  S   UNL     1       4.700   9.037   6.197  1.00  0.00     0.243 S 
ATOM     83  O   UNL     1       3.368   8.917   5.645  1.00  0.00    -0.207 OA
ATOM     84  O   UNL     1       4.916   9.071   7.628  1.00  0.00    -0.207 OA
BRANCH  82  85
ATOM     85  N   UNL     1       5.378  10.435   5.588  1.00  0.00    -0.205 NA
ATOM     86  H   UNL     1       6.364  10.414   5.848  1.00  0.00     0.141 HD
BRANCH  85  87
ATOM     87  C   UNL     1       5.334  10.748   4.154  1.00  0.00     0.160 C 
BRANCH  87  88
ATOM     88  C   UNL     1       3.999  11.333   3.669  1.00  0.00     0.278 C 
BRANCH  88  89
ATOM     89  N   UNL     1       3.348  12.347   4.521  1.00  0.00    -0.334 N 
ATOM     90  C   UNL     1       2.162  12.888   3.829  1.00  0.00     0.262 C 
ATOM     91  C   UNL     1       4.171  13.522   4.828  1.00  0.00     0.262 C 
ATOM     92  H   UNL     1       3.143  11.850   5.388  1.00  0.00     0.348 HD
ATOM     93  C   UNL     1       2.696  14.032   2.982  1.00  0.00     0.067 C 
ATOM     94  C   UNL     1       3.807  14.617   3.833  1.00  0.00     0.067 C 
ENDBRANCH  88  89
ENDBRANCH  87  88
ENDBRANCH  85  87
ENDBRANCH  82  85
ENDBRANCH  80  82
ENDBRANCH  72  75
ENDBRANCH  70  71
ENDBRANCH   1  70
TORSDOF 19
