REMARK SMILES C[C@@H](Oc1ccc(-c2ccccc2)cc1)C(=O)N1CCC[C@H](C(=O)NCCCCNC(=O)c2ccc(-c3c4nc(c(-c5ccc(S(=O)(=O)[O-])cc5)c5ccc([nH]5)c(-c5ccc(S(=O)(=O)[O-])cc5)c5nc(c(-c6ccc(S(=O)(=O)[O-])cc6)c6ccc3[nH]6)C=C5)C=C4)cc2)C1
REMARK SMILES IDX 26 1 25 2 23 3 24 4 22 6 18 7 19 8 93 9 20 10 21 11 16 12
REMARK SMILES IDX 17 13 2 14 1 15 3 16 4 17 5 18 15 19 6 20 14 21 7 22 8 23
REMARK SMILES IDX 9 24 13 25 10 26 12 27 11 28 27 29 28 30 29 31 30 32 31 33
REMARK SMILES IDX 32 35 33 36 34 37 92 38 35 39 91 40 36 41 37 42 38 43 85 44
REMARK SMILES IDX 39 45 90 46 84 47 86 48 40 49 89 50 83 51 82 52 41 54 71 55
REMARK SMILES IDX 52 56 70 57 53 58 56 59 69 60 87 61 54 62 55 63 68 65 88 66
REMARK SMILES IDX 57 67 42 68 43 69 51 70 44 71 50 72 45 73 46 74 47 75 48 76
REMARK SMILES IDX 49 77 72 78 73 79 81 80 74 81 80 82 75 83 76 84 77 85 78 86
REMARK SMILES IDX 79 87 58 88 59 89 67 90 60 91 66 92 61 93 62 94 63 95 64 96
REMARK SMILES IDX 65 97
REMARK H PARENT 25 5 30 34 86 53 56 64
REMARK Flexibility Score: inf
ROOT
ATOM      1  C   UNL     1      -3.511   0.878   0.650  1.00  0.00     0.116 C 
ENDROOT
BRANCH   1   2
ATOM      2  N   UNL     1      -3.463  -0.461   1.194  1.00  0.00    -0.356 N 
ATOM      3  C   UNL     1      -3.054  -1.637   0.657  1.00  0.00     0.224 C 
ATOM      4  O   UNL     1      -2.942  -2.585   1.445  1.00  0.00    -0.275 OA
ATOM      5  H   UNL     1      -3.784  -0.531   2.121  1.00  0.00     0.163 HD
BRANCH   3   6
ATOM      6  C   UNL     1      -2.749  -1.872  -0.830  1.00  0.00     0.098 C 
ATOM      7  N   UNL     1      -1.649   0.075  -1.939  1.00  0.00    -0.339 N 
ATOM      8  C   UNL     1      -2.691   0.156  -2.961  1.00  0.00     0.119 C 
ATOM      9  C   UNL     1      -1.453  -1.242  -1.349  1.00  0.00     0.133 C 
ATOM     10  C   UNL     1      -4.039  -0.385  -2.499  1.00  0.00     0.022 C 
ATOM     11  C   UNL     1      -3.949  -1.718  -1.768  1.00  0.00     0.017 C 
BRANCH   7  12
ATOM     12  C   UNL     1      -0.910   1.218  -1.642  1.00  0.00     0.263 C 
ATOM     13  O   UNL     1      -1.397   2.340  -1.831  1.00  0.00    -0.271 OA
BRANCH  12  14
ATOM     14  C   UNL     1       0.544   1.109  -1.137  1.00  0.00     0.259 C 
ATOM     15  C   UNL     1       0.719   0.570   0.279  1.00  0.00     0.064 C 
BRANCH  14  16
ATOM     16  O   UNL     1       1.229   0.286  -2.091  1.00  0.00    -0.481 OA
BRANCH  16  17
ATOM     17  C   UNL     1       2.532   0.653  -2.266  1.00  0.00     0.120 A 
ATOM     18  C   UNL     1       2.886   1.657  -3.166  1.00  0.00     0.047 A 
ATOM     19  C   UNL     1       3.507  -0.110  -1.639  1.00  0.00     0.047 A 
ATOM     20  C   UNL     1       4.239   1.877  -3.458  1.00  0.00     0.012 A 
ATOM     21  C   UNL     1       4.851   0.118  -1.926  1.00  0.00     0.012 A 
ATOM     22  C   UNL     1       5.241   1.088  -2.868  1.00  0.00    -0.018 A 
BRANCH  22  23
ATOM     23  C   UNL     1       6.655   1.192  -3.265  1.00  0.00    -0.018 A 
ATOM     24  C   UNL     1       7.356   2.405  -3.233  1.00  0.00     0.009 A 
ATOM     25  C   UNL     1       7.349   0.039  -3.682  1.00  0.00     0.009 A 
ATOM     26  C   UNL     1       8.709   2.458  -3.588  1.00  0.00     0.001 A 
ATOM     27  C   UNL     1       8.698   0.090  -4.035  1.00  0.00     0.001 A 
ATOM     28  C   UNL     1       9.379   1.301  -3.984  1.00  0.00     0.000 A 
ENDBRANCH  22  23
ENDBRANCH  16  17
ENDBRANCH  14  16
ENDBRANCH  12  14
ENDBRANCH   7  12
ENDBRANCH   3   6
ENDBRANCH   1   2
BRANCH   1  29
ATOM     29  C   UNL     1      -4.920   1.460   0.570  1.00  0.00     0.023 C 
BRANCH  29  30
ATOM     30  C   UNL     1      -5.274   2.435   1.687  1.00  0.00     0.023 C 
BRANCH  30  31
ATOM     31  C   UNL     1      -4.335   3.630   1.841  1.00  0.00     0.116 C 
BRANCH  31  32
ATOM     32  N   UNL     1      -4.174   4.440   0.641  1.00  0.00    -0.352 N 
ATOM     33  C   UNL     1      -4.028   5.811   0.563  1.00  0.00     0.251 C 
ATOM     34  H   UNL     1      -4.169   3.952  -0.214  1.00  0.00     0.163 HD
ATOM     35  O   UNL     1      -3.988   6.382  -0.515  1.00  0.00    -0.269 OA
BRANCH  33  36
ATOM     36  C   UNL     1      -3.967   6.585   1.824  1.00  0.00     0.039 A 
ATOM     37  C   UNL     1      -4.850   7.649   2.012  1.00  0.00     0.014 A 
ATOM     38  C   UNL     1      -3.099   6.193   2.846  1.00  0.00     0.014 A 
ATOM     39  C   UNL     1      -4.926   8.262   3.265  1.00  0.00     0.010 A 
ATOM     40  C   UNL     1      -3.237   6.748   4.114  1.00  0.00     0.010 A 
ATOM     41  C   UNL     1      -4.156   7.785   4.339  1.00  0.00    -0.014 A 
BRANCH  41  42
ATOM     42  C   UNL     1      -4.301   8.347   5.706  1.00  0.00     0.031 A 
ATOM     43  C   UNL     1      -3.130   9.018   6.373  1.00  0.00     0.074 A 
ATOM     44  C   UNL     1      -5.459   8.186   6.378  1.00  0.00     0.049 A 
ATOM     45  N   UNL     1      -3.042   9.514   7.581  1.00  0.00    -0.248 NA
ATOM     46  C   UNL     1      -1.885   9.114   5.593  1.00  0.00     0.031 C 
ATOM     47  C   UNL     1      -6.650   7.498   5.870  1.00  0.00     0.029 A 
ATOM     48  N   UNL     1      -5.824   8.587   7.640  1.00  0.00    -0.354 N 
ATOM     49  C   UNL     1      -1.731   9.956   7.712  1.00  0.00     0.074 A 
ATOM     50  C   UNL     1      -1.046   9.622   6.483  1.00  0.00     0.031 C 
ATOM     51  C   UNL     1      -7.621   7.556   6.796  1.00  0.00     0.029 A 
ATOM     52  C   UNL     1      -7.116   8.253   7.974  1.00  0.00     0.049 A 
ATOM     53  H   UNL     1      -5.218   9.068   8.248  1.00  0.00     0.167 HD
ATOM     54  C   UNL     1      -1.153  10.605   8.751  1.00  0.00     0.031 A 
ATOM     55  C   UNL     1      -7.818   8.486   9.101  1.00  0.00     0.031 A 
ATOM     56  C   UNL     1      -1.842  10.963   9.961  1.00  0.00     0.049 A 
ATOM     57  C   UNL     1      -7.168   9.244  10.226  1.00  0.00     0.074 A 
ATOM     58  C   UNL     1      -1.363  11.675  11.047  1.00  0.00     0.029 A 
ATOM     59  N   UNL     1      -3.162  10.645  10.242  1.00  0.00    -0.354 N 
ATOM     60  N   UNL     1      -5.944   9.711  10.305  1.00  0.00    -0.248 NA
ATOM     61  C   UNL     1      -7.998   9.521  11.406  1.00  0.00     0.031 C 
ATOM     62  C   UNL     1      -2.384  11.758  11.999  1.00  0.00     0.029 A 
ATOM     63  C   UNL     1      -3.513  11.139  11.486  1.00  0.00     0.049 A 
ATOM     64  H   UNL     1      -3.761  10.141   9.644  1.00  0.00     0.167 HD
ATOM     65  C   UNL     1      -5.869  10.365  11.530  1.00  0.00     0.074 A 
ATOM     66  C   UNL     1      -7.171  10.241  12.152  1.00  0.00     0.031 C 
ATOM     67  C   UNL     1      -4.816  11.012  12.087  1.00  0.00     0.031 A 
BRANCH  54  68
ATOM     68  C   UNL     1       0.300  10.973   8.612  1.00  0.00    -0.014 A 
ATOM     69  C   UNL     1       0.710  11.975   7.713  1.00  0.00     0.010 A 
ATOM     70  C   UNL     1       1.266  10.325   9.402  1.00  0.00     0.010 A 
ATOM     71  C   UNL     1       2.064  12.287   7.570  1.00  0.00     0.020 A 
ATOM     72  C   UNL     1       2.620  10.655   9.283  1.00  0.00     0.020 A 
ATOM     73  C   UNL     1       3.011  11.620   8.352  1.00  0.00     0.054 A 
BRANCH  73  74
ATOM     74  S   UNL     1       4.762  12.052   8.155  1.00  0.00     0.124 S 
ATOM     75  O   UNL     1       5.093  11.393   6.894  1.00  0.00    -0.237 OA
ATOM     76  O   UNL     1       4.731  13.512   8.111  1.00  0.00    -0.237 OA
ATOM     77  O   UNL     1       5.395  11.481   9.341  1.00  0.00    -0.744 OA
ENDBRANCH  73  74
ENDBRANCH  54  68
BRANCH  55  78
ATOM     78  C   UNL     1      -9.232   8.034   9.204  1.00  0.00    -0.014 A 
ATOM     79  C   UNL     1     -10.282   8.968   9.144  1.00  0.00     0.010 A 
ATOM     80  C   UNL     1      -9.538   6.669   9.349  1.00  0.00     0.010 A 
ATOM     81  C   UNL     1     -11.611   8.548   9.246  1.00  0.00     0.020 A 
ATOM     82  C   UNL     1     -10.868   6.243   9.427  1.00  0.00     0.020 A 
ATOM     83  C   UNL     1     -11.896   7.187   9.387  1.00  0.00     0.054 A 
BRANCH  83  84
ATOM     84  S   UNL     1     -13.630   6.658   9.464  1.00  0.00     0.124 S 
ATOM     85  O   UNL     1     -14.000   7.028  10.826  1.00  0.00    -0.237 OA
ATOM     86  O   UNL     1     -14.251   7.447   8.403  1.00  0.00    -0.237 OA
ATOM     87  O   UNL     1     -13.559   5.222   9.201  1.00  0.00    -0.744 OA
ENDBRANCH  83  84
ENDBRANCH  55  78
BRANCH  67  88
ATOM     88  C   UNL     1      -5.039  11.676  13.418  1.00  0.00    -0.014 A 
ATOM     89  C   UNL     1      -5.150  10.923  14.600  1.00  0.00     0.010 A 
ATOM     90  C   UNL     1      -5.088  13.080  13.490  1.00  0.00     0.010 A 
ATOM     91  C   UNL     1      -5.340  11.563  15.828  1.00  0.00     0.020 A 
ATOM     92  C   UNL     1      -5.253  13.724  14.719  1.00  0.00     0.020 A 
ATOM     93  C   UNL     1      -5.393  12.960  15.879  1.00  0.00     0.054 A 
BRANCH  93  94
ATOM     94  S   UNL     1      -5.601  13.770  17.488  1.00  0.00     0.124 S 
ATOM     95  O   UNL     1      -7.023  13.566  17.748  1.00  0.00    -0.237 OA
ATOM     96  O   UNL     1      -4.690  13.019  18.348  1.00  0.00    -0.237 OA
ATOM     97  O   UNL     1      -5.206  15.153  17.231  1.00  0.00    -0.744 OA
ENDBRANCH  93  94
ENDBRANCH  67  88
ENDBRANCH  41  42
ENDBRANCH  33  36
ENDBRANCH  31  32
ENDBRANCH  30  31
ENDBRANCH  29  30
ENDBRANCH   1  29
TORSDOF 19
