REMARK SMILES COc1cccc(-c2ccc(=O)n(CC(=O)N[C@@H](C(=O)NCCCCNC(=O)c3ccc(-c4c5nc(c(-c6ccc(S(=O)(=O)[O-])cc6)c6ccc([nH]6)c(-c6ccc(S(=O)(=O)[O-])cc6)c6nc(c(-c7ccc(S(=O)(=O)[O-])cc7)c7ccc4[nH]7)C=C6)C=C5)cc3)C(C)C)n2)c1
REMARK SMILES IDX 22 1 21 2 19 3 20 4 18 6 17 7 15 8 16 9 14 11 13 12 8 13
REMARK SMILES IDX 9 14 92 15 10 16 11 17 12 18 7 19 3 20 4 21 93 22 5 23 6 24
REMARK SMILES IDX 2 25 1 26 89 27 90 28 91 29 23 30 24 31 25 32 26 33 27 34
REMARK SMILES IDX 28 36 29 37 30 38 88 39 31 40 87 41 32 42 33 43 34 44 81 45
REMARK SMILES IDX 35 46 86 47 80 48 82 49 36 50 85 51 79 52 78 53 37 55 67 56
REMARK SMILES IDX 48 57 66 58 49 59 52 60 65 61 83 62 50 63 51 64 64 66 84 67
REMARK SMILES IDX 53 68 38 69 39 70 47 71 40 72 46 73 41 74 42 75 43 76 44 77
REMARK SMILES IDX 45 78 68 79 69 80 77 81 70 82 76 83 71 84 72 85 73 86 74 87
REMARK SMILES IDX 75 88 54 89 55 90 63 91 56 92 62 93 57 94 58 95 59 96 60 97
REMARK SMILES IDX 61 98
REMARK H PARENT 21 5 17 10 26 35 82 54 52 65
REMARK Flexibility Score: inf
ROOT
ATOM      1  C   UNL     1       6.159   6.486   2.420  1.00  0.00     0.116 C 
ENDROOT
BRANCH   1   2
ATOM      2  N   UNL     1       5.655   7.647   1.724  1.00  0.00    -0.354 N 
ATOM      3  C   UNL     1       5.414   7.806   0.386  1.00  0.00     0.242 C 
ATOM      4  O   UNL     1       4.821   8.835   0.051  1.00  0.00    -0.273 OA
ATOM      5  H   UNL     1       5.457   8.429   2.288  1.00  0.00     0.163 HD
BRANCH   3   6
ATOM      6  C   UNL     1       5.780   6.678  -0.637  1.00  0.00     0.173 C 
BRANCH   6   7
ATOM      7  N   UNL     1       7.206   6.355  -0.499  1.00  0.00    -0.342 N 
ATOM      8  C   UNL     1       7.853   5.155  -0.424  1.00  0.00     0.242 C 
ATOM      9  O   UNL     1       9.088   5.199  -0.414  1.00  0.00    -0.273 OA
ATOM     10  H   UNL     1       7.798   7.141  -0.454  1.00  0.00     0.164 HD
BRANCH   8  11
ATOM     11  C   UNL     1       7.119   3.805  -0.486  1.00  0.00     0.248 C 
BRANCH  11  12
ATOM     12  N   UNL     1       6.185   3.534   0.605  1.00  0.00    -0.220 N 
ATOM     13  C   UNL     1       4.002   3.392   1.260  1.00  0.00     0.091 A 
ATOM     14  C   UNL     1       4.355   3.074   2.653  1.00  0.00     0.036 A 
ATOM     15  N   UNL     1       4.844   3.600   0.300  1.00  0.00    -0.169 NA
ATOM     16  C   UNL     1       5.657   2.926   2.907  1.00  0.00     0.075 A 
ATOM     17  C   UNL     1       6.672   3.146   1.850  1.00  0.00     0.267 A 
ATOM     18  O   UNL     1       7.860   3.043   2.137  1.00  0.00    -0.268 OA
BRANCH  13  19
ATOM     19  C   UNL     1       2.566   3.410   0.957  1.00  0.00     0.006 A 
ATOM     20  C   UNL     1       0.645   2.204   0.148  1.00  0.00     0.119 A 
ATOM     21  C   UNL     1      -0.111   3.374   0.271  1.00  0.00     0.046 A 
ATOM     22  C   UNL     1       1.996   2.228   0.479  1.00  0.00     0.056 A 
ATOM     23  C   UNL     1       0.469   4.556   0.745  1.00  0.00     0.005 A 
ATOM     24  C   UNL     1       1.818   4.580   1.092  1.00  0.00     0.011 A 
BRANCH  20  25
ATOM     25  O   UNL     1      -0.028   1.113  -0.329  1.00  0.00    -0.497 OA
ATOM     26  C   UNL     1       0.586  -0.150  -0.088  1.00  0.00     0.278 C 
ENDBRANCH  20  25
ENDBRANCH  13  19
ENDBRANCH  11  12
ENDBRANCH   8  11
ENDBRANCH   6   7
BRANCH   6  27
ATOM     27  C   UNL     1       5.427   7.115  -2.089  1.00  0.00     0.015 C 
ATOM     28  C   UNL     1       6.147   6.309  -3.176  1.00  0.00     0.010 C 
ATOM     29  C   UNL     1       3.913   7.011  -2.336  1.00  0.00     0.010 C 
ENDBRANCH   6  27
ENDBRANCH   3   6
ENDBRANCH   1   2
BRANCH   1  30
ATOM     30  C   UNL     1       7.398   6.774   3.260  1.00  0.00     0.023 C 
BRANCH  30  31
ATOM     31  C   UNL     1       7.097   7.268   4.675  1.00  0.00     0.023 C 
BRANCH  31  32
ATOM     32  C   UNL     1       6.288   6.312   5.551  1.00  0.00     0.116 C 
BRANCH  32  33
ATOM     33  N   UNL     1       6.891   5.000   5.722  1.00  0.00    -0.352 N 
ATOM     34  C   UNL     1       6.835   4.167   6.819  1.00  0.00     0.251 C 
ATOM     35  H   UNL     1       7.406   4.662   4.954  1.00  0.00     0.163 HD
ATOM     36  O   UNL     1       7.418   3.091   6.806  1.00  0.00    -0.269 OA
BRANCH  34  37
ATOM     37  C   UNL     1       6.102   4.600   8.031  1.00  0.00     0.039 A 
ATOM     38  C   UNL     1       6.758   4.538   9.263  1.00  0.00     0.014 A 
ATOM     39  C   UNL     1       4.799   5.098   7.954  1.00  0.00     0.014 A 
ATOM     40  C   UNL     1       6.137   5.050  10.404  1.00  0.00     0.010 A 
ATOM     41  C   UNL     1       4.207   5.668   9.081  1.00  0.00     0.010 A 
ATOM     42  C   UNL     1       4.873   5.659  10.315  1.00  0.00    -0.014 A 
BRANCH  42  43
ATOM     43  C   UNL     1       4.267   6.320  11.501  1.00  0.00     0.031 A 
ATOM     44  C   UNL     1       3.000   5.790  12.115  1.00  0.00     0.074 A 
ATOM     45  C   UNL     1       4.843   7.431  12.004  1.00  0.00     0.049 A 
ATOM     46  N   UNL     1       2.350   6.225  13.165  1.00  0.00    -0.248 NA
ATOM     47  C   UNL     1       2.368   4.639  11.453  1.00  0.00     0.031 C 
ATOM     48  C   UNL     1       6.040   8.083  11.464  1.00  0.00     0.029 A 
ATOM     49  N   UNL     1       4.503   8.207  13.084  1.00  0.00    -0.354 N 
ATOM     50  C   UNL     1       1.234   5.407  13.287  1.00  0.00     0.074 A 
ATOM     51  C   UNL     1       1.266   4.484  12.172  1.00  0.00     0.031 C 
ATOM     52  C   UNL     1       6.355   9.133  12.239  1.00  0.00     0.029 A 
ATOM     53  C   UNL     1       5.372   9.248  13.311  1.00  0.00     0.049 A 
ATOM     54  H   UNL     1       3.712   8.033  13.644  1.00  0.00     0.167 HD
ATOM     55  C   UNL     1       0.280   5.407  14.250  1.00  0.00     0.031 A 
ATOM     56  C   UNL     1       5.385  10.186  14.278  1.00  0.00     0.031 A 
ATOM     57  C   UNL     1       0.250   6.322  15.361  1.00  0.00     0.049 A 
ATOM     58  C   UNL     1       4.326  10.154  15.345  1.00  0.00     0.074 A 
ATOM     59  C   UNL     1      -0.645   6.367  16.416  1.00  0.00     0.029 A 
ATOM     60  N   UNL     1       1.154   7.354  15.561  1.00  0.00    -0.354 N 
ATOM     61  N   UNL     1       3.320   9.324  15.484  1.00  0.00    -0.248 NA
ATOM     62  C   UNL     1       4.417  11.176  16.398  1.00  0.00     0.031 C 
ATOM     63  C   UNL     1      -0.308   7.454  17.230  1.00  0.00     0.029 A 
ATOM     64  C   UNL     1       0.828   8.053  16.712  1.00  0.00     0.049 A 
ATOM     65  H   UNL     1       1.915   7.560  14.972  1.00  0.00     0.167 HD
ATOM     66  C   UNL     1       2.672   9.708  16.653  1.00  0.00     0.074 A 
ATOM     67  C   UNL     1       3.412  10.832  17.191  1.00  0.00     0.031 C 
ATOM     68  C   UNL     1       1.565   9.178  17.230  1.00  0.00     0.031 A 
BRANCH  55  69
ATOM     69  C   UNL     1      -0.813   4.377  14.140  1.00  0.00    -0.014 A 
ATOM     70  C   UNL     1      -0.548   3.013  14.361  1.00  0.00     0.010 A 
ATOM     71  C   UNL     1      -2.128   4.777  13.841  1.00  0.00     0.010 A 
ATOM     72  C   UNL     1      -1.566   2.063  14.241  1.00  0.00     0.020 A 
ATOM     73  C   UNL     1      -3.156   3.833  13.747  1.00  0.00     0.020 A 
ATOM     74  C   UNL     1      -2.863   2.480  13.928  1.00  0.00     0.054 A 
BRANCH  74  75
ATOM     75  S   UNL     1      -4.168   1.228  13.787  1.00  0.00     0.124 S 
ATOM     76  O   UNL     1      -3.849   0.607  12.504  1.00  0.00    -0.237 OA
ATOM     77  O   UNL     1      -3.940   0.392  14.963  1.00  0.00    -0.237 OA
ATOM     78  O   UNL     1      -5.402   2.009  13.812  1.00  0.00    -0.744 OA
ENDBRANCH  74  75
ENDBRANCH  55  69
BRANCH  56  79
ATOM     79  C   UNL     1       6.461  11.213  14.303  1.00  0.00    -0.014 A 
ATOM     80  C   UNL     1       7.471  11.164  15.281  1.00  0.00     0.010 A 
ATOM     81  C   UNL     1       6.489  12.239  13.341  1.00  0.00     0.010 A 
ATOM     82  C   UNL     1       8.478  12.132  15.309  1.00  0.00     0.020 A 
ATOM     83  C   UNL     1       7.510  13.194  13.350  1.00  0.00     0.020 A 
ATOM     84  C   UNL     1       8.492  13.141  14.342  1.00  0.00     0.054 A 
BRANCH  84  85
ATOM     85  S   UNL     1       9.838  14.358  14.363  1.00  0.00     0.124 S 
ATOM     86  O   UNL     1       9.454  15.215  15.479  1.00  0.00    -0.237 OA
ATOM     87  O   UNL     1      11.016  13.523  14.581  1.00  0.00    -0.237 OA
ATOM     88  O   UNL     1       9.758  14.975  13.041  1.00  0.00    -0.744 OA
ENDBRANCH  84  85
ENDBRANCH  56  79
BRANCH  68  89
ATOM     89  C   UNL     1       1.104   9.795  18.523  1.00  0.00    -0.014 A 
ATOM     90  C   UNL     1       0.515  11.072  18.553  1.00  0.00     0.010 A 
ATOM     91  C   UNL     1       1.248   9.078  19.725  1.00  0.00     0.010 A 
ATOM     92  C   UNL     1       0.125  11.641  19.768  1.00  0.00     0.020 A 
ATOM     93  C   UNL     1       0.834   9.633  20.938  1.00  0.00     0.020 A 
ATOM     94  C   UNL     1       0.294  10.921  20.954  1.00  0.00     0.054 A 
BRANCH  94  95
ATOM     95  S   UNL     1      -0.229  11.674  22.519  1.00  0.00     0.124 S 
ATOM     96  O   UNL     1       0.851  12.624  22.773  1.00  0.00    -0.237 OA
ATOM     97  O   UNL     1      -1.520  12.267  22.177  1.00  0.00    -0.237 OA
ATOM     98  O   UNL     1      -0.295  10.543  23.442  1.00  0.00    -0.744 OA
ENDBRANCH  94  95
ENDBRANCH  68  89
ENDBRANCH  42  43
ENDBRANCH  34  37
ENDBRANCH  32  33
ENDBRANCH  31  32
ENDBRANCH  30  31
ENDBRANCH   1  30
TORSDOF 20
