REMARK SMILES CCCc1cc(OC(F)(F)F)cc2c1O[C@H](C(F)(F)F)C(C(=O)NCCCCNC(=O)c1ccc(-c3c4nc(c(-c5ccc(S(=O)(=O)[O-])cc5)c5ccc([nH]5)c(-c5ccc(S(=O)(=O)[O-])cc5)c5nc(c(-c6ccc(S(=O)(=O)[O-])cc6)c6ccc3[nH]6)C=C5)C=C4)cc1)=C2
REMARK SMILES IDX 27 1 26 2 25 3 24 4 22 5 23 6 21 8 4 9 5 10 14 11 6 12 13 13
REMARK SMILES IDX 15 14 12 15 92 16 16 17 3 18 2 19 1 20 7 21 8 22 9 23 10 24
REMARK SMILES IDX 11 25 17 26 18 27 19 28 20 29 28 30 29 31 30 32 31 34 32 35
REMARK SMILES IDX 33 36 91 37 34 38 90 39 35 40 36 41 37 42 84 43 38 44 89 45
REMARK SMILES IDX 83 46 85 47 39 48 88 49 82 50 81 51 40 53 70 54 51 55 69 56
REMARK SMILES IDX 52 57 55 58 68 59 86 60 53 61 54 62 67 64 87 65 56 66 41 67
REMARK SMILES IDX 42 68 50 69 43 70 49 71 44 72 45 73 46 74 47 75 48 76 71 77
REMARK SMILES IDX 72 78 80 79 73 80 79 81 74 82 75 83 76 84 77 85 78 86 57 87
REMARK SMILES IDX 58 88 66 89 59 90 65 91 60 92 61 93 62 94 63 95 64 96
REMARK H PARENT 24 7 29 33 85 52 55 63
REMARK Flexibility Score: inf
ROOT
ATOM      1  C   UNL     1      -0.974  -8.834   6.576  1.00  0.00     0.023 C 
ENDROOT
BRANCH   1   2
ATOM      2  C   UNL     1      -0.587  -7.575   5.796  1.00  0.00     0.023 C 
BRANCH   2   3
ATOM      3  C   UNL     1       0.816  -7.619   5.184  1.00  0.00     0.116 C 
BRANCH   3   4
ATOM      4  N   UNL     1       0.805  -8.296   3.902  1.00  0.00    -0.352 N 
ATOM      5  C   UNL     1       0.631  -7.854   2.631  1.00  0.00     0.251 C 
ATOM      6  O   UNL     1       0.762  -8.676   1.724  1.00  0.00    -0.270 OA
ATOM      7  H   UNL     1       0.953  -9.267   3.967  1.00  0.00     0.163 HD
BRANCH   5   8
ATOM      8  C   UNL     1       0.379  -6.425   2.275  1.00  0.00     0.067 C 
ATOM      9  C   UNL     1       0.360  -2.460   0.844  1.00  0.00    -0.002 A 
ATOM     10  C   UNL     1      -0.213  -1.468   1.661  1.00  0.00     0.054 A 
ATOM     11  C   UNL     1       0.391  -3.780   1.329  1.00  0.00     0.131 A 
ATOM     12  C   UNL     1      -0.698  -1.763   2.937  1.00  0.00     0.130 A 
ATOM     13  C   UNL     1      -0.137  -4.093   2.585  1.00  0.00     0.021 A 
ATOM     14  O   UNL     1       1.004  -4.735   0.555  1.00  0.00    -0.475 OA
ATOM     15  C   UNL     1      -0.672  -3.082   3.386  1.00  0.00     0.058 A 
ATOM     16  C   UNL     1      -0.049  -5.455   3.094  1.00  0.00     0.025 C 
ATOM     17  C   UNL     1       0.604  -6.116   0.803  1.00  0.00     0.314 C 
BRANCH   9  18
ATOM     18  C   UNL     1       0.950  -2.160  -0.523  1.00  0.00     0.039 C 
BRANCH  18  19
ATOM     19  C   UNL     1       0.699  -0.776  -1.139  1.00  0.00     0.001 C 
ATOM     20  C   UNL     1       1.619   0.313  -0.599  1.00  0.00     0.004 C 
ENDBRANCH  18  19
ENDBRANCH   9  18
BRANCH  12  21
ATOM     21  O   UNL     1      -1.212  -0.870   3.834  1.00  0.00    -0.406 OA
BRANCH  21  22
ATOM     22  C   UNL     1      -1.043   0.510   3.558  1.00  0.00     0.573 C 
ATOM     23  F   UNL     1       0.252   0.816   3.328  1.00  0.00    -0.132 F 
ATOM     24  F   UNL     1      -1.789   0.883   2.496  1.00  0.00    -0.132 F 
ATOM     25  F   UNL     1      -1.456   1.222   4.631  1.00  0.00    -0.132 F 
ENDBRANCH  21  22
ENDBRANCH  12  21
BRANCH  17  26
ATOM     26  C   UNL     1      -0.612  -6.474  -0.077  1.00  0.00     0.429 C 
ATOM     27  F   UNL     1      -1.634  -5.597   0.091  1.00  0.00    -0.167 F 
ATOM     28  F   UNL     1      -0.278  -6.437  -1.393  1.00  0.00    -0.167 F 
ATOM     29  F   UNL     1      -1.116  -7.702   0.164  1.00  0.00    -0.167 F 
ENDBRANCH  17  26
ENDBRANCH   5   8
ENDBRANCH   3   4
ENDBRANCH   2   3
ENDBRANCH   1   2
BRANCH   1  30
ATOM     30  C   UNL     1      -0.114  -9.116   7.804  1.00  0.00     0.116 C 
BRANCH  30  31
ATOM     31  N   UNL     1      -0.087  -8.017   8.755  1.00  0.00    -0.352 N 
ATOM     32  C   UNL     1       0.141  -8.067  10.112  1.00  0.00     0.251 C 
ATOM     33  H   UNL     1      -0.255  -7.121   8.382  1.00  0.00     0.163 HD
ATOM     34  O   UNL     1       0.028  -7.059  10.792  1.00  0.00    -0.269 OA
BRANCH  32  35
ATOM     35  C   UNL     1       0.474  -9.366  10.736  1.00  0.00     0.039 A 
ATOM     36  C   UNL     1      -0.244  -9.768  11.863  1.00  0.00     0.014 A 
ATOM     37  C   UNL     1       1.456 -10.197  10.190  1.00  0.00     0.014 A 
ATOM     38  C   UNL     1      -0.022 -11.035  12.404  1.00  0.00     0.010 A 
ATOM     39  C   UNL     1       1.624 -11.486  10.685  1.00  0.00     0.010 A 
ATOM     40  C   UNL     1       0.887 -11.918  11.797  1.00  0.00    -0.014 A 
BRANCH  40  41
ATOM     41  C   UNL     1       1.058 -13.301  12.309  1.00  0.00     0.031 A 
ATOM     42  C   UNL     1       2.374 -13.741  12.891  1.00  0.00     0.074 A 
ATOM     43  C   UNL     1       0.037 -14.174  12.206  1.00  0.00     0.049 A 
ATOM     44  N   UNL     1       2.701 -14.902  13.397  1.00  0.00    -0.248 NA
ATOM     45  C   UNL     1       3.472 -12.761  12.880  1.00  0.00     0.031 C 
ATOM     46  C   UNL     1      -1.267 -13.885  11.602  1.00  0.00     0.029 A 
ATOM     47  N   UNL     1      -0.067 -15.482  12.607  1.00  0.00    -0.354 N 
ATOM     48  C   UNL     1       4.040 -14.796  13.755  1.00  0.00     0.074 A 
ATOM     49  C   UNL     1       4.479 -13.477  13.357  1.00  0.00     0.031 C 
ATOM     50  C   UNL     1      -2.051 -14.970  11.709  1.00  0.00     0.029 A 
ATOM     51  C   UNL     1      -1.300 -16.038  12.359  1.00  0.00     0.049 A 
ATOM     52  H   UNL     1       0.671 -15.975  13.033  1.00  0.00     0.167 HD
ATOM     53  C   UNL     1       4.826 -15.706  14.378  1.00  0.00     0.031 A 
ATOM     54  C   UNL     1      -1.777 -17.268  12.633  1.00  0.00     0.031 A 
ATOM     55  C   UNL     1       4.382 -17.014  14.781  1.00  0.00     0.049 A 
ATOM     56  C   UNL     1      -0.893 -18.252  13.349  1.00  0.00     0.074 A 
ATOM     57  C   UNL     1       5.084 -17.988  15.469  1.00  0.00     0.029 A 
ATOM     58  N   UNL     1       3.119 -17.531  14.534  1.00  0.00    -0.354 N 
ATOM     59  N   UNL     1       0.348 -18.105  13.748  1.00  0.00    -0.248 NA
ATOM     60  C   UNL     1      -1.483 -19.558  13.672  1.00  0.00     0.031 C 
ATOM     61  C   UNL     1       4.260 -19.111  15.599  1.00  0.00     0.029 A 
ATOM     62  C   UNL     1       3.026 -18.816  15.042  1.00  0.00     0.049 A 
ATOM     63  H   UNL     1       2.395 -17.055  14.065  1.00  0.00     0.167 HD
ATOM     64  C   UNL     1       0.678 -19.290  14.396  1.00  0.00     0.074 A 
ATOM     65  C   UNL     1      -0.498 -20.135  14.348  1.00  0.00     0.031 C 
ATOM     66  C   UNL     1       1.848 -19.644  14.984  1.00  0.00     0.031 A 
BRANCH  53  67
ATOM     67  C   UNL     1       6.252 -15.312  14.662  1.00  0.00    -0.014 A 
ATOM     68  C   UNL     1       6.555 -14.332  15.626  1.00  0.00     0.010 A 
ATOM     69  C   UNL     1       7.305 -15.950  13.983  1.00  0.00     0.010 A 
ATOM     70  C   UNL     1       7.881 -13.966  15.872  1.00  0.00     0.020 A 
ATOM     71  C   UNL     1       8.635 -15.607  14.247  1.00  0.00     0.020 A 
ATOM     72  C   UNL     1       8.913 -14.603  15.177  1.00  0.00     0.054 A 
BRANCH  72  73
ATOM     73  S   UNL     1      10.625 -14.121  15.529  1.00  0.00     0.124 S 
ATOM     74  O   UNL     1      10.712 -12.820  14.870  1.00  0.00    -0.237 OA
ATOM     75  O   UNL     1      10.656 -14.088  16.989  1.00  0.00    -0.237 OA
ATOM     76  O   UNL     1      11.418 -15.184  14.916  1.00  0.00    -0.744 OA
ENDBRANCH  72  73
ENDBRANCH  53  67
BRANCH  54  77
ATOM     77  C   UNL     1      -3.175 -17.620  12.264  1.00  0.00    -0.014 A 
ATOM     78  C   UNL     1      -4.161 -17.759  13.257  1.00  0.00     0.010 A 
ATOM     79  C   UNL     1      -3.533 -17.798  10.916  1.00  0.00     0.010 A 
ATOM     80  C   UNL     1      -5.475 -18.087  12.911  1.00  0.00     0.020 A 
ATOM     81  C   UNL     1      -4.851 -18.100  10.563  1.00  0.00     0.020 A 
ATOM     82  C   UNL     1      -5.812 -18.254  11.565  1.00  0.00     0.054 A 
BRANCH  82  83
ATOM     83  S   UNL     1      -7.535 -18.625  11.133  1.00  0.00     0.124 S 
ATOM     84  O   UNL     1      -7.647 -20.029  11.516  1.00  0.00    -0.237 OA
ATOM     85  O   UNL     1      -8.279 -17.681  11.962  1.00  0.00    -0.237 OA
ATOM     86  O   UNL     1      -7.591 -18.359   9.697  1.00  0.00    -0.744 OA
ENDBRANCH  82  83
ENDBRANCH  54  77
BRANCH  66  87
ATOM     87  C   UNL     1       1.901 -20.989  15.658  1.00  0.00    -0.014 A 
ATOM     88  C   UNL     1       1.923 -22.181  14.913  1.00  0.00     0.010 A 
ATOM     89  C   UNL     1       1.967 -21.055  17.062  1.00  0.00     0.010 A 
ATOM     90  C   UNL     1       1.967 -23.418  15.563  1.00  0.00     0.020 A 
ATOM     91  C   UNL     1       2.040 -22.288  17.713  1.00  0.00     0.020 A 
ATOM     92  C   UNL     1       2.021 -23.463  16.959  1.00  0.00     0.054 A 
BRANCH  92  93
ATOM     93  S   UNL     1       2.102 -25.078  17.780  1.00  0.00     0.124 S 
ATOM     94  O   UNL     1       0.727 -25.553  17.652  1.00  0.00    -0.237 OA
ATOM     95  O   UNL     1       3.092 -25.796  16.981  1.00  0.00    -0.237 OA
ATOM     96  O   UNL     1       2.526 -24.754  19.141  1.00  0.00    -0.744 OA
ENDBRANCH  92  93
ENDBRANCH  66  87
ENDBRANCH  40  41
ENDBRANCH  32  35
ENDBRANCH  30  31
ENDBRANCH   1  30
TORSDOF 19
