REMARK SMILES Cc1c(C(=O)NCCCCNC(=O)c2ccc(-c3c4nc(c(-c5ccc(S(=O)(=O)[O-])cc5)c5ccc([nH]5)c(-c5ccc(S(=O)(=O)[O-])cc5)c5nc(c(-c6ccc(S(=O)(=O)[O-])cc6)c6ccc3[nH]6)C=C5)C=C4)cc2)cccc1N1[C@@H](C)C=C(/C=C(\C#N)C(=O)NCCc2c[nH]c3ccccc23)[C@@H]1C
REMARK SMILES IDX 7 1 6 2 4 3 5 4 3 6 1 7 2 8 77 9 74 10 76 11 75 12 78 13
REMARK SMILES IDX 79 14 101 15 81 16 80 17 82 18 102 19 83 20 84 21 85 22
REMARK SMILES IDX 86 23 87 24 88 25 89 26 90 28 91 29 92 30 93 31 100 32 94 33
REMARK SMILES IDX 95 34 99 35 96 37 98 38 97 39 8 40 9 41 10 42 11 43 12 44
REMARK SMILES IDX 13 46 14 47 15 48 73 49 16 50 72 51 17 52 18 53 19 54 66 55
REMARK SMILES IDX 20 56 71 57 65 58 67 59 21 60 70 61 64 62 63 63 22 65 52 66
REMARK SMILES IDX 33 67 51 68 34 69 37 70 50 71 68 72 35 73 36 74 49 76 69 77
REMARK SMILES IDX 38 78 23 79 24 80 32 81 25 82 31 83 26 84 27 85 28 86 29 87
REMARK SMILES IDX 30 88 53 89 54 90 62 91 55 92 61 93 56 94 57 95 58 96 59 97
REMARK SMILES IDX 60 98 39 99 40 100 48 101 41 102 47 103 42 104 43 105 44 106
REMARK SMILES IDX 45 107 46 108
REMARK H PARENT 6 5 89 27 94 36 11 45 67 64 37 75
REMARK Flexibility Score: inf
ROOT
ATOM      1  C   UNL     1       3.451  -2.104  -0.063  1.00  0.00     0.116 C 
ENDROOT
BRANCH   1   2
ATOM      2  N   UNL     1       2.172  -2.743   0.117  1.00  0.00    -0.352 N 
ATOM      3  C   UNL     1       0.871  -2.339   0.159  1.00  0.00     0.251 C 
ATOM      4  O   UNL     1       0.086  -3.286   0.321  1.00  0.00    -0.269 OA
ATOM      5  H   UNL     1       2.260  -3.716   0.241  1.00  0.00     0.163 HD
BRANCH   3   6
ATOM      6  C   UNL     1       0.285  -0.947  -0.004  1.00  0.00     0.044 A 
ATOM      7  C   UNL     1       2.277   0.625   0.457  1.00  0.00     0.047 C 
ATOM      8  C   UNL     1       0.869   0.350   0.025  1.00  0.00    -0.015 A 
ATOM      9  C   UNL     1       0.063   1.507  -0.203  1.00  0.00     0.041 A 
ATOM     10  C   UNL     1      -1.128  -1.004  -0.124  1.00  0.00     0.014 A 
ATOM     11  C   UNL     1      -1.327   1.369  -0.307  1.00  0.00     0.026 A 
ATOM     12  C   UNL     1      -1.927   0.127  -0.241  1.00  0.00     0.003 A 
BRANCH   9  13
ATOM     13  N   UNL     1       0.570   2.793  -0.150  1.00  0.00    -0.358 N 
ATOM     14  C   UNL     1       0.301   3.623   1.029  1.00  0.00     0.103 C 
ATOM     15  C   UNL     1       1.696   3.295  -0.963  1.00  0.00     0.110 C 
ATOM     16  C   UNL     1       1.444   4.580   0.979  1.00  0.00     0.003 C 
ATOM     17  C   UNL     1       0.372   2.881   2.369  1.00  0.00     0.035 C 
ATOM     18  C   UNL     1       2.297   4.327  -0.024  1.00  0.00    -0.026 C 
ATOM     19  C   UNL     1       1.153   3.927  -2.247  1.00  0.00     0.036 C 
BRANCH  18  20
ATOM     20  C   UNL     1       3.606   4.918  -0.237  1.00  0.00     0.031 C 
ATOM     21  C   UNL     1       4.354   5.639   0.630  1.00  0.00     0.117 C 
BRANCH  21  22
ATOM     22  C   UNL     1       3.943   5.940   1.962  1.00  0.00     0.105 C 
ATOM     23  N   UNL     1       3.578   6.244   3.012  1.00  0.00    -0.192 NA
ENDBRANCH  21  22
BRANCH  21  24
ATOM     24  C   UNL     1       5.476   6.421   0.035  1.00  0.00     0.261 C 
ATOM     25  O   UNL     1       5.635   6.474  -1.188  1.00  0.00    -0.268 OA
ATOM     26  N   UNL     1       6.144   7.335   0.792  1.00  0.00    -0.351 N 
ATOM     27  H   UNL     1       6.249   8.205   0.344  1.00  0.00     0.163 HD
BRANCH  26  28
ATOM     28  C   UNL     1       6.744   7.300   2.137  1.00  0.00     0.121 C 
BRANCH  28  29
ATOM     29  C   UNL     1       8.144   6.618   2.253  1.00  0.00     0.059 C 
BRANCH  29  30
ATOM     30  C   UNL     1       9.271   7.333   1.501  1.00  0.00    -0.021 A 
ATOM     31  C   UNL     1       9.252   8.700   1.216  1.00  0.00     0.087 A 
ATOM     32  C   UNL     1       9.902   6.850   0.308  1.00  0.00     0.003 A 
ATOM     33  N   UNL     1       8.643   8.615  -0.043  1.00  0.00    -0.361 N 
ATOM     34  C   UNL     1       9.208   7.539  -0.690  1.00  0.00     0.046 A 
ATOM     35  C   UNL     1      10.832   5.872  -0.082  1.00  0.00     0.010 A 
ATOM     36  H   UNL     1       7.944   9.212  -0.398  1.00  0.00     0.166 HD
ATOM     37  C   UNL     1       9.174   7.136  -2.021  1.00  0.00     0.026 A 
ATOM     38  C   UNL     1      10.982   5.609  -1.454  1.00  0.00     0.001 A 
ATOM     39  C   UNL     1      10.111   6.171  -2.392  1.00  0.00     0.002 A 
ENDBRANCH  29  30
ENDBRANCH  28  29
ENDBRANCH  26  28
ENDBRANCH  21  24
ENDBRANCH  18  20
ENDBRANCH   9  13
ENDBRANCH   3   6
ENDBRANCH   1   2
BRANCH   1  40
ATOM     40  C   UNL     1       4.096  -1.759   1.294  1.00  0.00     0.023 C 
BRANCH  40  41
ATOM     41  C   UNL     1       4.969  -2.846   1.904  1.00  0.00     0.023 C 
BRANCH  41  42
ATOM     42  C   UNL     1       6.189  -3.127   1.064  1.00  0.00     0.116 C 
BRANCH  42  43
ATOM     43  N   UNL     1       7.365  -2.326   1.336  1.00  0.00    -0.352 N 
ATOM     44  C   UNL     1       8.638  -2.688   0.893  1.00  0.00     0.251 C 
ATOM     45  H   UNL     1       7.263  -1.495   1.853  1.00  0.00     0.163 HD
ATOM     46  O   UNL     1       9.639  -2.663   1.596  1.00  0.00    -0.269 OA
BRANCH  44  47
ATOM     47  C   UNL     1       8.747  -2.999  -0.552  1.00  0.00     0.039 A 
ATOM     48  C   UNL     1       9.555  -2.195  -1.365  1.00  0.00     0.014 A 
ATOM     49  C   UNL     1       7.822  -3.872  -1.109  1.00  0.00     0.014 A 
ATOM     50  C   UNL     1       9.265  -2.110  -2.719  1.00  0.00     0.010 A 
ATOM     51  C   UNL     1       7.375  -3.609  -2.366  1.00  0.00     0.010 A 
ATOM     52  C   UNL     1       8.098  -2.722  -3.160  1.00  0.00    -0.014 A 
BRANCH  52  53
ATOM     53  C   UNL     1       7.626  -2.759  -4.519  1.00  0.00     0.031 A 
ATOM     54  C   UNL     1       8.151  -3.902  -5.287  1.00  0.00     0.074 A 
ATOM     55  C   UNL     1       6.564  -1.970  -4.794  1.00  0.00     0.049 A 
ATOM     56  N   UNL     1       8.050  -4.029  -6.551  1.00  0.00    -0.248 NA
ATOM     57  C   UNL     1       8.879  -5.026  -4.672  1.00  0.00     0.031 C 
ATOM     58  C   UNL     1       5.613  -1.981  -5.897  1.00  0.00     0.029 A 
ATOM     59  N   UNL     1       6.291  -0.760  -4.147  1.00  0.00    -0.354 N 
ATOM     60  C   UNL     1       8.327  -5.349  -6.848  1.00  0.00     0.074 A 
ATOM     61  C   UNL     1       8.973  -5.890  -5.687  1.00  0.00     0.031 C 
ATOM     62  C   UNL     1       5.148  -0.724  -6.071  1.00  0.00     0.029 A 
ATOM     63  C   UNL     1       5.880   0.139  -5.149  1.00  0.00     0.049 A 
ATOM     64  H   UNL     1       6.371  -0.575  -3.183  1.00  0.00     0.167 HD
ATOM     65  C   UNL     1       7.803  -5.847  -7.998  1.00  0.00     0.031 A 
ATOM     66  C   UNL     1       6.782   1.105  -5.513  1.00  0.00     0.031 A 
ATOM     67  C   UNL     1       7.127  -4.767  -8.719  1.00  0.00     0.049 A 
ATOM     68  C   UNL     1       7.417   0.796  -6.864  1.00  0.00     0.074 A 
ATOM     69  C   UNL     1       5.813  -4.338  -8.778  1.00  0.00     0.029 A 
ATOM     70  N   UNL     1       7.903  -3.690  -9.102  1.00  0.00    -0.354 N 
ATOM     71  N   UNL     1       7.345  -0.368  -7.457  1.00  0.00    -0.248 NA
ATOM     72  C   UNL     1       8.161   1.768  -7.662  1.00  0.00     0.031 C 
ATOM     73  C   UNL     1       5.830  -2.949  -9.133  1.00  0.00     0.029 A 
ATOM     74  C   UNL     1       7.147  -2.552  -9.291  1.00  0.00     0.049 A 
ATOM     75  H   UNL     1       8.879  -3.729  -9.224  1.00  0.00     0.167 HD
ATOM     76  C   UNL     1       7.911  -0.305  -8.697  1.00  0.00     0.074 A 
ATOM     77  C   UNL     1       8.481   1.035  -8.746  1.00  0.00     0.031 C 
ATOM     78  C   UNL     1       7.854  -1.321  -9.613  1.00  0.00     0.031 A 
BRANCH  65  79
ATOM     79  C   UNL     1       7.706  -7.293  -8.399  1.00  0.00    -0.014 A 
ATOM     80  C   UNL     1       6.849  -7.605  -9.475  1.00  0.00     0.010 A 
ATOM     81  C   UNL     1       8.376  -8.377  -7.796  1.00  0.00     0.010 A 
ATOM     82  C   UNL     1       6.649  -8.915  -9.917  1.00  0.00     0.020 A 
ATOM     83  C   UNL     1       8.181  -9.703  -8.230  1.00  0.00     0.020 A 
ATOM     84  C   UNL     1       7.317  -9.960  -9.292  1.00  0.00     0.054 A 
BRANCH  84  85
ATOM     85  S   UNL     1       7.043 -11.639  -9.912  1.00  0.00     0.124 S 
ATOM     86  O   UNL     1       5.606 -11.815  -9.711  1.00  0.00    -0.237 OA
ATOM     87  O   UNL     1       7.474 -11.532 -11.303  1.00  0.00    -0.237 OA
ATOM     88  O   UNL     1       7.893 -12.469  -9.061  1.00  0.00    -0.744 OA
ENDBRANCH  84  85
ENDBRANCH  65  79
BRANCH  66  89
ATOM     89  C   UNL     1       7.450   1.692  -4.291  1.00  0.00    -0.014 A 
ATOM     90  C   UNL     1       6.593   2.292  -3.330  1.00  0.00     0.010 A 
ATOM     91  C   UNL     1       8.710   1.247  -3.858  1.00  0.00     0.010 A 
ATOM     92  C   UNL     1       6.889   2.246  -1.961  1.00  0.00     0.020 A 
ATOM     93  C   UNL     1       9.027   1.241  -2.483  1.00  0.00     0.020 A 
ATOM     94  C   UNL     1       8.085   1.671  -1.542  1.00  0.00     0.054 A 
BRANCH  94  95
ATOM     95  S   UNL     1       8.312   1.362   0.238  1.00  0.00     0.124 S 
ATOM     96  O   UNL     1       8.219   2.703   0.808  1.00  0.00    -0.237 OA
ATOM     97  O   UNL     1       7.188   0.474   0.556  1.00  0.00    -0.237 OA
ATOM     98  O   UNL     1       9.626   0.735   0.310  1.00  0.00    -0.744 OA
ENDBRANCH  94  95
ENDBRANCH  66  89
BRANCH  78  99
ATOM     99  C   UNL     1       8.537  -1.236 -10.945  1.00  0.00    -0.014 A 
ATOM    100  C   UNL     1       8.493  -0.078 -11.728  1.00  0.00     0.010 A 
ATOM    101  C   UNL     1       9.198  -2.364 -11.483  1.00  0.00     0.010 A 
ATOM    102  C   UNL     1       9.215  -0.001 -12.920  1.00  0.00     0.020 A 
ATOM    103  C   UNL     1       9.883  -2.315 -12.690  1.00  0.00     0.020 A 
ATOM    104  C   UNL     1       9.926  -1.113 -13.377  1.00  0.00     0.054 A 
BRANCH 104 105
ATOM    105  S   UNL     1      10.905  -0.976 -14.883  1.00  0.00     0.124 S 
ATOM    106  O   UNL     1       9.983  -0.310 -15.799  1.00  0.00    -0.237 OA
ATOM    107  O   UNL     1      12.034  -0.170 -14.428  1.00  0.00    -0.237 OA
ATOM    108  O   UNL     1      11.223  -2.361 -15.220  1.00  0.00    -0.744 OA
ENDBRANCH 104 105
ENDBRANCH  78  99
ENDBRANCH  52  53
ENDBRANCH  44  47
ENDBRANCH  42  43
ENDBRANCH  41  42
ENDBRANCH  40  41
ENDBRANCH   1  40
TORSDOF 21
