REMARK SMILES CC[C@](C)(NC(=O)[C@H]1C[NH2+]Cc2ccccc21)C(=O)NCCCCNC(=O)c1ccc(-c2c3nc(c(-c4ccc(S(=O)(=O)[O-])cc4)c4ccc([nH]4)c(-c4ccc(S(=O)(=O)[O-])cc4)c4nc(c(-c5ccc(S(=O)(=O)[O-])cc5)c5ccc2[nH]5)C=C4)C=C3)cc1
REMARK SMILES IDX 23 1 22 2 21 3 20 4 18 5 19 6 3 8 4 9 2 10 1 11 5 12 6 13
REMARK SMILES IDX 7 15 8 16 9 17 17 18 10 19 12 20 16 21 11 22 13 25 15 26
REMARK SMILES IDX 14 27 24 28 25 29 26 30 27 32 28 33 29 34 87 35 30 36 86 37
REMARK SMILES IDX 31 38 32 39 33 40 80 41 34 42 85 43 79 44 81 45 35 46 84 47
REMARK SMILES IDX 78 48 77 49 36 51 66 52 47 53 65 54 48 55 51 56 64 57 82 58
REMARK SMILES IDX 49 59 50 60 63 62 83 63 52 64 37 65 38 66 46 67 39 68 45 69
REMARK SMILES IDX 40 70 41 71 42 72 43 73 44 74 67 75 68 76 76 77 69 78 75 79
REMARK SMILES IDX 70 80 71 81 72 82 73 83 74 84 53 85 54 86 62 87 55 88 61 89
REMARK SMILES IDX 56 90 57 91 58 92 59 93 60 94
REMARK H PARENT 20 7 5 14 10 23 10 24 25 31 81 50 51 61
REMARK Flexibility Score: inf
ROOT
ATOM      1  C   UNL     1       0.234   3.425   1.319  1.00  0.00     0.023 C 
ENDROOT
BRANCH   1   2
ATOM      2  C   UNL     1       0.495   3.301  -0.176  1.00  0.00     0.023 C 
BRANCH   2   3
ATOM      3  C   UNL     1       0.171   4.526  -1.028  1.00  0.00     0.116 C 
BRANCH   3   4
ATOM      4  N   UNL     1       0.650   5.816  -0.555  1.00  0.00    -0.354 N 
ATOM      5  C   UNL     1       1.521   6.711  -1.121  1.00  0.00     0.245 C 
ATOM      6  O   UNL     1       1.406   7.888  -0.763  1.00  0.00    -0.272 OA
ATOM      7  H   UNL     1       0.288   6.093   0.318  1.00  0.00     0.163 HD
BRANCH   5   8
ATOM      8  C   UNL     1       2.494   6.309  -2.261  1.00  0.00     0.116 C 
ATOM      9  C   UNL     1       3.744   7.223  -2.309  1.00  0.00     0.045 C 
BRANCH   8  10
ATOM     10  C   UNL     1       1.767   6.614  -3.621  1.00  0.00     0.035 C 
ATOM     11  C   UNL     1       0.422   5.966  -3.915  1.00  0.00     0.007 C 
ENDBRANCH   8  10
BRANCH   8  12
ATOM     12  N   UNL     1       2.967   4.916  -2.182  1.00  0.00    -0.341 N 
ATOM     13  C   UNL     1       3.698   4.272  -1.214  1.00  0.00     0.234 C 
ATOM     14  H   UNL     1       2.717   4.353  -2.950  1.00  0.00     0.164 HD
ATOM     15  O   UNL     1       4.320   3.283  -1.624  1.00  0.00    -0.274 OA
BRANCH  13  16
ATOM     16  C   UNL     1       3.632   4.617   0.297  1.00  0.00     0.164 C 
ATOM     17  C   UNL     1       4.141   3.412   1.136  1.00  0.00     0.279 C 
ATOM     18  C   UNL     1       4.388   5.830   0.782  1.00  0.00    -0.021 A 
ATOM     19  N   UNL     1       5.601   3.268   1.313  1.00  0.00    -0.342 N 
ATOM     20  C   UNL     1       5.775   5.708   0.945  1.00  0.00     0.010 A 
ATOM     21  C   UNL     1       3.749   7.004   1.198  1.00  0.00     0.005 A 
ATOM     22  C   UNL     1       6.391   4.351   0.713  1.00  0.00     0.297 C 
ATOM     23  H   UNL     1       5.889   2.388   0.887  1.00  0.00     0.346 HD
ATOM     24  H   UNL     1       5.777   3.299   2.317  1.00  0.00     0.346 HD
ATOM     25  C   UNL     1       6.522   6.819   1.348  1.00  0.00     0.010 A 
ATOM     26  C   UNL     1       4.494   8.103   1.614  1.00  0.00     0.000 A 
ATOM     27  C   UNL     1       5.882   8.020   1.661  1.00  0.00     0.001 A 
ENDBRANCH  13  16
ENDBRANCH   8  12
ENDBRANCH   5   8
ENDBRANCH   3   4
ENDBRANCH   2   3
ENDBRANCH   1   2
BRANCH   1  28
ATOM     28  C   UNL     1      -1.149   3.938   1.667  1.00  0.00     0.116 C 
BRANCH  28  29
ATOM     29  N   UNL     1      -2.199   3.147   1.044  1.00  0.00    -0.352 N 
ATOM     30  C   UNL     1      -3.215   2.443   1.634  1.00  0.00     0.251 C 
ATOM     31  H   UNL     1      -2.176   3.113   0.060  1.00  0.00     0.163 HD
ATOM     32  O   UNL     1      -3.883   1.654   0.969  1.00  0.00    -0.269 OA
BRANCH  30  33
ATOM     33  C   UNL     1      -3.480   2.631   3.071  1.00  0.00     0.039 A 
ATOM     34  C   UNL     1      -3.711   1.514   3.873  1.00  0.00     0.014 A 
ATOM     35  C   UNL     1      -3.463   3.914   3.627  1.00  0.00     0.014 A 
ATOM     36  C   UNL     1      -3.872   1.682   5.247  1.00  0.00     0.010 A 
ATOM     37  C   UNL     1      -3.513   4.067   5.004  1.00  0.00     0.010 A 
ATOM     38  C   UNL     1      -3.739   2.955   5.827  1.00  0.00    -0.014 A 
BRANCH  38  39
ATOM     39  C   UNL     1      -3.863   3.155   7.290  1.00  0.00     0.031 A 
ATOM     40  C   UNL     1      -4.957   4.035   7.833  1.00  0.00     0.074 A 
ATOM     41  C   UNL     1      -2.960   2.594   8.119  1.00  0.00     0.049 A 
ATOM     42  N   UNL     1      -5.197   4.381   9.070  1.00  0.00    -0.248 NA
ATOM     43  C   UNL     1      -5.883   4.630   6.854  1.00  0.00     0.031 C 
ATOM     44  C   UNL     1      -1.828   1.761   7.703  1.00  0.00     0.029 A 
ATOM     45  N   UNL     1      -2.850   2.644   9.485  1.00  0.00    -0.354 N 
ATOM     46  C   UNL     1      -6.287   5.241   9.016  1.00  0.00     0.074 A 
ATOM     47  C   UNL     1      -6.620   5.419   7.621  1.00  0.00     0.031 C 
ATOM     48  C   UNL     1      -1.159   1.352   8.793  1.00  0.00     0.029 A 
ATOM     49  C   UNL     1      -1.784   1.930   9.978  1.00  0.00     0.049 A 
ATOM     50  H   UNL     1      -3.475   3.143  10.058  1.00  0.00     0.167 HD
ATOM     51  C   UNL     1      -6.970   5.810  10.037  1.00  0.00     0.031 A 
ATOM     52  C   UNL     1      -1.352   1.766  11.244  1.00  0.00     0.031 A 
ATOM     53  C   UNL     1      -6.637   5.619  11.423  1.00  0.00     0.049 A 
ATOM     54  C   UNL     1      -2.118   2.419  12.362  1.00  0.00     0.074 A 
ATOM     55  C   UNL     1      -7.291   6.109  12.539  1.00  0.00     0.029 A 
ATOM     56  N   UNL     1      -5.557   4.880  11.882  1.00  0.00    -0.354 N 
ATOM     57  N   UNL     1      -3.189   3.175  12.295  1.00  0.00    -0.248 NA
ATOM     58  C   UNL     1      -1.627   2.187  13.726  1.00  0.00     0.031 C 
ATOM     59  C   UNL     1      -6.573   5.715  13.671  1.00  0.00     0.029 A 
ATOM     60  C   UNL     1      -5.512   4.920  13.265  1.00  0.00     0.049 A 
ATOM     61  H   UNL     1      -4.918   4.398  11.309  1.00  0.00     0.167 HD
ATOM     62  C   UNL     1      -3.516   3.485  13.611  1.00  0.00     0.074 A 
ATOM     63  C   UNL     1      -2.540   2.819  14.450  1.00  0.00     0.031 C 
ATOM     64  C   UNL     1      -4.531   4.250  14.082  1.00  0.00     0.031 A 
BRANCH  51  65
ATOM     65  C   UNL     1      -8.141   6.691   9.688  1.00  0.00    -0.014 A 
ATOM     66  C   UNL     1      -9.312   6.153   9.120  1.00  0.00     0.010 A 
ATOM     67  C   UNL     1      -8.088   8.069   9.962  1.00  0.00     0.010 A 
ATOM     68  C   UNL     1     -10.388   6.982   8.794  1.00  0.00     0.020 A 
ATOM     69  C   UNL     1      -9.175   8.898   9.668  1.00  0.00     0.020 A 
ATOM     70  C   UNL     1     -10.312   8.351   9.071  1.00  0.00     0.054 A 
BRANCH  70  71
ATOM     71  S   UNL     1     -11.736   9.396   8.662  1.00  0.00     0.124 S 
ATOM     72  O   UNL     1     -11.684   9.420   7.203  1.00  0.00    -0.237 OA
ATOM     73  O   UNL     1     -12.854   8.653   9.238  1.00  0.00    -0.237 OA
ATOM     74  O   UNL     1     -11.433  10.667   9.316  1.00  0.00    -0.744 OA
ENDBRANCH  70  71
ENDBRANCH  51  65
BRANCH  52  75
ATOM     75  C   UNL     1      -0.143   0.941  11.517  1.00  0.00    -0.014 A 
ATOM     76  C   UNL     1      -0.252  -0.296  12.177  1.00  0.00     0.010 A 
ATOM     77  C   UNL     1       1.127   1.383  11.104  1.00  0.00     0.010 A 
ATOM     78  C   UNL     1       0.888  -1.062  12.440  1.00  0.00     0.020 A 
ATOM     79  C   UNL     1       2.265   0.606  11.336  1.00  0.00     0.020 A 
ATOM     80  C   UNL     1       2.139  -0.607  12.015  1.00  0.00     0.054 A 
BRANCH  80  81
ATOM     81  S   UNL     1       3.598  -1.640  12.329  1.00  0.00     0.124 S 
ATOM     82  O   UNL     1       3.764  -1.501  13.772  1.00  0.00    -0.237 OA
ATOM     83  O   UNL     1       3.158  -2.954  11.865  1.00  0.00    -0.237 OA
ATOM     84  O   UNL     1       4.640  -1.018  11.515  1.00  0.00    -0.744 OA
ENDBRANCH  80  81
ENDBRANCH  52  75
BRANCH  64  85
ATOM     85  C   UNL     1      -4.665   4.380  15.577  1.00  0.00    -0.014 A 
ATOM     86  C   UNL     1      -3.743   5.126  16.332  1.00  0.00     0.010 A 
ATOM     87  C   UNL     1      -5.768   3.794  16.225  1.00  0.00     0.010 A 
ATOM     88  C   UNL     1      -3.905   5.255  17.714  1.00  0.00     0.020 A 
ATOM     89  C   UNL     1      -5.951   3.948  17.600  1.00  0.00     0.020 A 
ATOM     90  C   UNL     1      -5.009   4.666  18.339  1.00  0.00     0.054 A 
BRANCH  90  91
ATOM     91  S   UNL     1      -5.219   4.887  20.126  1.00  0.00     0.124 S 
ATOM     92  O   UNL     1      -4.159   4.039  20.664  1.00  0.00    -0.237 OA
ATOM     93  O   UNL     1      -5.021   6.325  20.296  1.00  0.00    -0.237 OA
ATOM     94  O   UNL     1      -6.580   4.418  20.377  1.00  0.00    -0.744 OA
ENDBRANCH  90  91
ENDBRANCH  64  85
ENDBRANCH  38  39
ENDBRANCH  30  33
ENDBRANCH  28  29
ENDBRANCH   1  28
TORSDOF 17
