REMARK SMILES COCCCC(=O)N1CCCC[C@@H]1CCC(=O)NCCCCNC(=O)c1ccc(-c2c3nc(c(-c4ccc(S(=O)(=O)[O-])cc4)c4ccc([nH]4)c(-c4ccc(S(=O)(=O)[O-])cc4)c4nc(c(-c5ccc(S(=O)(=O)[O-])cc5)c5ccc2[nH]5)C=C4)C=C3)cc1
REMARK SMILES IDX 16 1 17 2 18 3 15 5 14 6 13 7 8 8 9 9 10 10 12 11 11 12 6 13
REMARK SMILES IDX 7 14 5 15 4 16 3 17 2 18 1 19 19 20 20 21 21 22 22 23 23 24
REMARK SMILES IDX 24 25 25 27 26 28 27 29 85 30 28 31 84 32 29 33 30 34 31 35
REMARK SMILES IDX 78 36 32 37 83 38 77 39 79 40 33 41 82 42 76 43 75 44 34 46
REMARK SMILES IDX 64 47 45 48 63 49 46 50 49 51 62 52 80 53 47 54 48 55 61 57
REMARK SMILES IDX 81 58 50 59 35 60 36 61 44 62 37 63 43 64 38 65 39 66 40 67
REMARK SMILES IDX 41 68 42 69 65 70 66 71 74 72 67 73 73 74 68 75 69 76 70 77
REMARK SMILES IDX 71 78 72 79 51 80 52 81 60 82 53 83 59 84 54 85 55 86 56 87
REMARK SMILES IDX 57 88 58 89
REMARK H PARENT 18 4 23 26 79 45 49 56
REMARK Flexibility Score: inf
ROOT
ATOM      1  C   UNL     1       1.280   0.509   4.148  1.00  0.00     0.220 C 
ATOM      2  O   UNL     1       0.090   0.252   4.341  1.00  0.00    -0.275 OA
ATOM      3  N   UNL     1       1.585   1.673   3.511  1.00  0.00    -0.356 N 
ATOM      4  H   UNL     1       0.809   2.250   3.330  1.00  0.00     0.163 HD
ENDROOT
BRANCH   1   5
ATOM      5  C   UNL     1       2.358  -0.465   4.597  1.00  0.00     0.102 C 
BRANCH   5   6
ATOM      6  C   UNL     1       2.578  -1.604   3.592  1.00  0.00     0.035 C 
BRANCH   6   7
ATOM      7  C   UNL     1       3.575  -1.219   2.488  1.00  0.00     0.085 C 
ATOM      8  N   UNL     1       3.338  -1.780   1.160  1.00  0.00    -0.340 N 
ATOM      9  C   UNL     1       4.181  -1.262   0.083  1.00  0.00     0.120 C 
ATOM     10  C   UNL     1       5.668  -1.299   0.468  1.00  0.00     0.022 C 
ATOM     11  C   UNL     1       5.035  -1.374   2.907  1.00  0.00     0.025 C 
ATOM     12  C   UNL     1       5.939  -0.723   1.860  1.00  0.00     0.004 C 
BRANCH   8  13
ATOM     13  C   UNL     1       2.644  -2.963   0.993  1.00  0.00     0.222 C 
ATOM     14  O   UNL     1       2.822  -3.947   1.706  1.00  0.00    -0.275 OA
BRANCH  13  15
ATOM     15  C   UNL     1       1.477  -2.874   0.021  1.00  0.00     0.102 C 
BRANCH  15  16
ATOM     16  C   UNL     1       0.189  -2.531   0.787  1.00  0.00     0.038 C 
BRANCH  16  17
ATOM     17  C   UNL     1      -0.045  -1.034   1.012  1.00  0.00     0.160 C 
BRANCH  17  18
ATOM     18  O   UNL     1      -0.625  -0.464  -0.157  1.00  0.00    -0.385 OA
ATOM     19  C   UNL     1       0.266   0.314  -0.939  1.00  0.00     0.194 C 
ENDBRANCH  17  18
ENDBRANCH  16  17
ENDBRANCH  15  16
ENDBRANCH  13  15
ENDBRANCH   8  13
ENDBRANCH   6   7
ENDBRANCH   5   6
ENDBRANCH   1   5
BRANCH   3  20
ATOM     20  C   UNL     1       2.853   2.216   3.052  1.00  0.00     0.116 C 
BRANCH  20  21
ATOM     21  C   UNL     1       2.983   2.075   1.530  1.00  0.00     0.023 C 
BRANCH  21  22
ATOM     22  C   UNL     1       2.847   3.358   0.728  1.00  0.00     0.023 C 
BRANCH  22  23
ATOM     23  C   UNL     1       3.955   4.373   0.976  1.00  0.00     0.116 C 
BRANCH  23  24
ATOM     24  N   UNL     1       5.297   3.878   0.708  1.00  0.00    -0.352 N 
ATOM     25  C   UNL     1       6.383   4.578   0.208  1.00  0.00     0.251 C 
ATOM     26  H   UNL     1       5.452   2.926   0.907  1.00  0.00     0.163 HD
ATOM     27  O   UNL     1       7.441   4.007  -0.011  1.00  0.00    -0.269 OA
BRANCH  25  28
ATOM     28  C   UNL     1       6.209   6.011  -0.108  1.00  0.00     0.039 A 
ATOM     29  C   UNL     1       6.543   6.465  -1.385  1.00  0.00     0.014 A 
ATOM     30  C   UNL     1       5.594   6.862   0.810  1.00  0.00     0.014 A 
ATOM     31  C   UNL     1       6.152   7.746  -1.780  1.00  0.00     0.010 A 
ATOM     32  C   UNL     1       5.118   8.095   0.384  1.00  0.00     0.010 A 
ATOM     33  C   UNL     1       5.377   8.543  -0.920  1.00  0.00    -0.014 A 
BRANCH  33  34
ATOM     34  C   UNL     1       4.787   9.829  -1.370  1.00  0.00     0.031 A 
ATOM     35  C   UNL     1       5.130  11.108  -0.657  1.00  0.00     0.074 A 
ATOM     36  C   UNL     1       3.854   9.829  -2.344  1.00  0.00     0.049 A 
ATOM     37  N   UNL     1       4.643  12.308  -0.837  1.00  0.00    -0.248 NA
ATOM     38  C   UNL     1       6.119  11.016   0.430  1.00  0.00     0.031 C 
ATOM     39  C   UNL     1       3.372   8.644  -3.060  1.00  0.00     0.029 A 
ATOM     40  N   UNL     1       3.130  10.860  -2.889  1.00  0.00    -0.354 N 
ATOM     41  C   UNL     1       5.236  13.104   0.135  1.00  0.00     0.074 A 
ATOM     42  C   UNL     1       6.081  12.241   0.931  1.00  0.00     0.031 C 
ATOM     43  C   UNL     1       2.455   9.019  -3.966  1.00  0.00     0.029 A 
ATOM     44  C   UNL     1       2.255  10.461  -3.872  1.00  0.00     0.049 A 
ATOM     45  H   UNL     1       3.228  11.797  -2.604  1.00  0.00     0.167 HD
ATOM     46  C   UNL     1       5.106  14.437   0.336  1.00  0.00     0.031 A 
ATOM     47  C   UNL     1       1.383  11.172  -4.612  1.00  0.00     0.031 A 
ATOM     48  C   UNL     1       4.291  15.297  -0.478  1.00  0.00     0.049 A 
ATOM     49  C   UNL     1       1.290  12.657  -4.408  1.00  0.00     0.074 A 
ATOM     50  C   UNL     1       4.168  16.674  -0.421  1.00  0.00     0.029 A 
ATOM     51  N   UNL     1       3.455  14.861  -1.496  1.00  0.00    -0.354 N 
ATOM     52  N   UNL     1       1.932  13.409  -3.546  1.00  0.00    -0.248 NA
ATOM     53  C   UNL     1       0.364  13.391  -5.281  1.00  0.00     0.031 C 
ATOM     54  C   UNL     1       3.225  17.066  -1.378  1.00  0.00     0.029 A 
ATOM     55  C   UNL     1       2.794  15.939  -2.059  1.00  0.00     0.049 A 
ATOM     56  H   UNL     1       3.349  13.923  -1.776  1.00  0.00     0.167 HD
ATOM     57  C   UNL     1       1.495  14.708  -3.779  1.00  0.00     0.074 A 
ATOM     58  C   UNL     1       0.550  14.641  -4.876  1.00  0.00     0.031 C 
ATOM     59  C   UNL     1       1.845  15.851  -3.140  1.00  0.00     0.031 A 
BRANCH  46  60
ATOM     60  C   UNL     1       5.866  15.034   1.490  1.00  0.00    -0.014 A 
ATOM     61  C   UNL     1       7.270  15.127   1.467  1.00  0.00     0.010 A 
ATOM     62  C   UNL     1       5.168  15.502   2.617  1.00  0.00     0.010 A 
ATOM     63  C   UNL     1       7.965  15.614   2.576  1.00  0.00     0.020 A 
ATOM     64  C   UNL     1       5.859  16.018   3.718  1.00  0.00     0.020 A 
ATOM     65  C   UNL     1       7.255  16.046   3.699  1.00  0.00     0.054 A 
BRANCH  65  66
ATOM     66  S   UNL     1       8.181  16.659   5.133  1.00  0.00     0.124 S 
ATOM     67  O   UNL     1       8.659  15.416   5.733  1.00  0.00    -0.237 OA
ATOM     68  O   UNL     1       9.209  17.496   4.520  1.00  0.00    -0.237 OA
ATOM     69  O   UNL     1       7.176  17.381   5.910  1.00  0.00    -0.744 OA
ENDBRANCH  65  66
ENDBRANCH  46  60
BRANCH  47  70
ATOM     70  C   UNL     1       0.553  10.480  -5.634  1.00  0.00    -0.014 A 
ATOM     71  C   UNL     1       0.870  10.590  -6.998  1.00  0.00     0.010 A 
ATOM     72  C   UNL     1      -0.521   9.659  -5.243  1.00  0.00     0.010 A 
ATOM     73  C   UNL     1       0.132   9.888  -7.956  1.00  0.00     0.020 A 
ATOM     74  C   UNL     1      -1.248   8.939  -6.196  1.00  0.00     0.020 A 
ATOM     75  C   UNL     1      -0.918   9.061  -7.548  1.00  0.00     0.054 A 
BRANCH  75  76
ATOM     76  S   UNL     1      -1.800   8.083  -8.798  1.00  0.00     0.124 S 
ATOM     77  O   UNL     1      -2.647   9.090  -9.428  1.00  0.00    -0.237 OA
ATOM     78  O   UNL     1      -0.709   7.566  -9.621  1.00  0.00    -0.237 OA
ATOM     79  O   UNL     1      -2.502   7.075  -8.007  1.00  0.00    -0.744 OA
ENDBRANCH  75  76
ENDBRANCH  47  70
BRANCH  59  80
ATOM     80  C   UNL     1       1.204  17.127  -3.612  1.00  0.00    -0.014 A 
ATOM     81  C   UNL     1      -0.136  17.419  -3.302  1.00  0.00     0.010 A 
ATOM     82  C   UNL     1       1.967  18.070  -4.324  1.00  0.00     0.010 A 
ATOM     83  C   UNL     1      -0.710  18.623  -3.717  1.00  0.00     0.020 A 
ATOM     84  C   UNL     1       1.404  19.285  -4.720  1.00  0.00     0.020 A 
ATOM     85  C   UNL     1       0.064  19.548  -4.425  1.00  0.00     0.054 A 
BRANCH  85  86
ATOM     86  S   UNL     1      -0.687  21.126  -4.911  1.00  0.00     0.124 S 
ATOM     87  O   UNL     1      -1.516  20.730  -6.047  1.00  0.00    -0.237 OA
ATOM     88  O   UNL     1      -1.416  21.520  -3.708  1.00  0.00    -0.237 OA
ATOM     89  O   UNL     1       0.461  21.968  -5.240  1.00  0.00    -0.744 OA
ENDBRANCH  85  86
ENDBRANCH  59  80
ENDBRANCH  33  34
ENDBRANCH  25  28
ENDBRANCH  23  24
ENDBRANCH  22  23
ENDBRANCH  21  22
ENDBRANCH  20  21
ENDBRANCH   3  20
TORSDOF 21
