REMARK SMILES COc1ccc(/C=N/Nc2cccc(C(=O)NCCCCNC(=O)c3ccc(-c4c5nc(c(-c6ccc(S(=O)(=O)[O-])cc6)c6ccc([nH]6)c(-c6ccc(S(=O)(=O)[O-])cc6)c6nc(c(-c7ccc(S(=O)(=O)[O-])cc7)c7ccc4[nH]7)C=C6)C=C5)cc3)c2)cc1O
REMARK SMILES IDX 19 1 18 2 17 3 15 4 16 5 14 7 10 8 11 9 85 10 12 11 13 12
REMARK SMILES IDX 9 13 8 15 7 16 6 17 3 18 4 19 87 20 5 21 86 22 2 23 1 24
REMARK SMILES IDX 88 25 20 27 21 28 22 29 23 30 24 32 25 33 26 34 84 35 27 36
REMARK SMILES IDX 83 37 28 38 29 39 30 40 77 41 31 42 82 43 76 44 78 45 32 46
REMARK SMILES IDX 81 47 75 48 74 49 33 51 63 52 44 53 62 54 45 55 48 56 61 57
REMARK SMILES IDX 79 58 46 59 47 60 60 62 80 63 49 64 34 65 35 66 43 67 36 68
REMARK SMILES IDX 42 69 37 70 38 71 39 72 40 73 41 74 64 75 65 76 73 77 66 78
REMARK SMILES IDX 72 79 67 80 68 81 69 82 70 83 71 84 50 85 51 86 59 87 52 88
REMARK SMILES IDX 58 89 53 90 54 91 55 92 56 93 57 94
REMARK H PARENT 17 6 9 14 88 26 22 31 78 50 48 61
REMARK Flexibility Score: inf
ROOT
ATOM      1  C   UNL     1      -4.676  -3.677  -3.803  1.00  0.00     0.023 C 
ENDROOT
BRANCH   1   2
ATOM      2  C   UNL     1      -3.689  -4.812  -3.517  1.00  0.00     0.116 C 
BRANCH   2   3
ATOM      3  N   UNL     1      -4.235  -6.089  -3.932  1.00  0.00    -0.352 N 
ATOM      4  C   UNL     1      -4.132  -6.802  -5.100  1.00  0.00     0.251 C 
ATOM      5  O   UNL     1      -4.695  -7.897  -5.144  1.00  0.00    -0.269 OA
ATOM      6  H   UNL     1      -4.786  -6.528  -3.244  1.00  0.00     0.163 HD
BRANCH   4   7
ATOM      7  C   UNL     1      -3.338  -6.356  -6.284  1.00  0.00     0.041 A 
ATOM      8  C   UNL     1      -2.157  -4.694  -7.636  1.00  0.00     0.057 A 
ATOM      9  C   UNL     1      -1.752  -5.706  -8.511  1.00  0.00     0.028 A 
ATOM     10  C   UNL     1      -2.991  -5.032  -6.562  1.00  0.00     0.041 A 
ATOM     11  C   UNL     1      -2.142  -7.027  -8.295  1.00  0.00     0.003 A 
ATOM     12  C   UNL     1      -2.916  -7.350  -7.179  1.00  0.00     0.014 A 
BRANCH   8  13
ATOM     13  N   UNL     1      -1.610  -3.402  -7.778  1.00  0.00    -0.278 N 
ATOM     14  H   UNL     1      -1.275  -3.140  -8.666  1.00  0.00     0.190 HD
BRANCH  13  15
ATOM     15  N   UNL     1      -1.516  -2.492  -6.767  1.00  0.00    -0.183 NA
ATOM     16  C   UNL     1      -0.896  -2.902  -5.701  1.00  0.00     0.141 C 
BRANCH  16  17
ATOM     17  C   UNL     1      -0.658  -2.037  -4.531  1.00  0.00    -0.002 A 
ATOM     18  C   UNL     1      -0.037  -0.443  -2.287  1.00  0.00     0.160 A 
ATOM     19  C   UNL     1      -0.436   0.128  -3.510  1.00  0.00     0.051 A 
ATOM     20  C   UNL     1       0.021  -1.837  -2.204  1.00  0.00     0.158 A 
ATOM     21  C   UNL     1      -0.750  -0.654  -4.625  1.00  0.00     0.014 A 
ATOM     22  C   UNL     1      -0.281  -2.628  -3.323  1.00  0.00     0.060 A 
BRANCH  18  23
ATOM     23  O   UNL     1       0.252   0.520  -1.367  1.00  0.00    -0.493 OA
ATOM     24  C   UNL     1       0.753   0.205  -0.083  1.00  0.00     0.278 C 
ENDBRANCH  18  23
BRANCH  20  25
ATOM     25  O   UNL     1       0.372  -2.573  -1.109  1.00  0.00    -0.504 OA
ATOM     26  H   UNL     1       0.594  -2.142  -0.307  1.00  0.00     0.293 HD
ENDBRANCH  20  25
ENDBRANCH  16  17
ENDBRANCH  13  15
ENDBRANCH   8  13
ENDBRANCH   4   7
ENDBRANCH   2   3
ENDBRANCH   1   2
BRANCH   1  27
ATOM     27  C   UNL     1      -5.746  -3.493  -2.726  1.00  0.00     0.023 C 
BRANCH  27  28
ATOM     28  C   UNL     1      -5.211  -3.065  -1.364  1.00  0.00     0.116 C 
BRANCH  28  29
ATOM     29  N   UNL     1      -4.462  -1.817  -1.398  1.00  0.00    -0.352 N 
ATOM     30  C   UNL     1      -4.339  -0.878  -0.402  1.00  0.00     0.251 C 
ATOM     31  H   UNL     1      -3.986  -1.621  -2.237  1.00  0.00     0.163 HD
ATOM     32  O   UNL     1      -3.744   0.176  -0.605  1.00  0.00    -0.269 OA
BRANCH  30  33
ATOM     33  C   UNL     1      -4.966  -1.138   0.910  1.00  0.00     0.039 A 
ATOM     34  C   UNL     1      -5.807  -0.168   1.459  1.00  0.00     0.014 A 
ATOM     35  C   UNL     1      -4.758  -2.353   1.568  1.00  0.00     0.014 A 
ATOM     36  C   UNL     1      -6.494  -0.446   2.642  1.00  0.00     0.010 A 
ATOM     37  C   UNL     1      -5.497  -2.654   2.706  1.00  0.00     0.010 A 
ATOM     38  C   UNL     1      -6.372  -1.704   3.255  1.00  0.00    -0.014 A 
BRANCH  38  39
ATOM     39  C   UNL     1      -7.163  -2.048   4.462  1.00  0.00     0.031 A 
ATOM     40  C   UNL     1      -6.471  -2.330   5.767  1.00  0.00     0.074 A 
ATOM     41  C   UNL     1      -8.500  -2.180   4.364  1.00  0.00     0.049 A 
ATOM     42  N   UNL     1      -6.989  -2.680   6.915  1.00  0.00    -0.248 NA
ATOM     43  C   UNL     1      -5.002  -2.236   5.773  1.00  0.00     0.031 C 
ATOM     44  C   UNL     1      -9.282  -1.996   3.139  1.00  0.00     0.029 A 
ATOM     45  N   UNL     1      -9.438  -2.510   5.310  1.00  0.00    -0.354 N 
ATOM     46  C   UNL     1      -5.913  -2.871   7.773  1.00  0.00     0.074 A 
ATOM     47  C   UNL     1      -4.712  -2.643   7.000  1.00  0.00     0.031 C 
ATOM     48  C   UNL     1     -10.581  -2.193   3.414  1.00  0.00     0.029 A 
ATOM     49  C   UNL     1     -10.722  -2.547   4.823  1.00  0.00     0.049 A 
ATOM     50  H   UNL     1      -9.212  -2.701   6.249  1.00  0.00     0.167 HD
ATOM     51  C   UNL     1      -5.923  -3.189   9.090  1.00  0.00     0.031 A 
ATOM     52  C   UNL     1     -11.885  -2.835   5.438  1.00  0.00     0.031 A 
ATOM     53  C   UNL     1      -7.121  -3.402   9.858  1.00  0.00     0.049 A 
ATOM     54  C   UNL     1     -11.878  -3.156   6.906  1.00  0.00     0.074 A 
ATOM     55  C   UNL     1      -7.241  -3.651  11.214  1.00  0.00     0.029 A 
ATOM     56  N   UNL     1      -8.406  -3.399   9.336  1.00  0.00    -0.354 N 
ATOM     57  N   UNL     1     -10.855  -3.242   7.724  1.00  0.00    -0.248 NA
ATOM     58  C   UNL     1     -13.181  -3.403   7.538  1.00  0.00     0.031 C 
ATOM     59  C   UNL     1      -8.597  -3.846  11.502  1.00  0.00     0.029 A 
ATOM     60  C   UNL     1      -9.325  -3.667  10.336  1.00  0.00     0.049 A 
ATOM     61  H   UNL     1      -8.631  -3.231   8.392  1.00  0.00     0.167 HD
ATOM     62  C   UNL     1     -11.393  -3.536   8.972  1.00  0.00     0.074 A 
ATOM     63  C   UNL     1     -12.831  -3.595   8.803  1.00  0.00     0.031 C 
ATOM     64  C   UNL     1     -10.753  -3.736  10.150  1.00  0.00     0.031 A 
BRANCH  51  65
ATOM     65  C   UNL     1      -4.588  -3.338   9.772  1.00  0.00    -0.014 A 
ATOM     66  C   UNL     1      -3.758  -2.225  10.000  1.00  0.00     0.010 A 
ATOM     67  C   UNL     1      -4.158  -4.609  10.194  1.00  0.00     0.010 A 
ATOM     68  C   UNL     1      -2.497  -2.388  10.579  1.00  0.00     0.020 A 
ATOM     69  C   UNL     1      -2.909  -4.773  10.800  1.00  0.00     0.020 A 
ATOM     70  C   UNL     1      -2.076  -3.664  10.966  1.00  0.00     0.054 A 
BRANCH  70  71
ATOM     71  S   UNL     1      -0.429  -3.852  11.701  1.00  0.00     0.124 S 
ATOM     72  O   UNL     1       0.436  -3.730  10.530  1.00  0.00    -0.237 OA
ATOM     73  O   UNL     1      -0.368  -2.739  12.645  1.00  0.00    -0.237 OA
ATOM     74  O   UNL     1      -0.471  -5.179  12.310  1.00  0.00    -0.744 OA
ENDBRANCH  70  71
ENDBRANCH  51  65
BRANCH  52  75
ATOM     75  C   UNL     1     -13.153  -2.798   4.662  1.00  0.00    -0.014 A 
ATOM     76  C   UNL     1     -14.058  -1.735   4.825  1.00  0.00     0.010 A 
ATOM     77  C   UNL     1     -13.435  -3.799   3.714  1.00  0.00     0.010 A 
ATOM     78  C   UNL     1     -15.223  -1.673   4.055  1.00  0.00     0.020 A 
ATOM     79  C   UNL     1     -14.588  -3.728   2.926  1.00  0.00     0.020 A 
ATOM     80  C   UNL     1     -15.477  -2.667   3.105  1.00  0.00     0.054 A 
BRANCH  80  81
ATOM     81  S   UNL     1     -16.951  -2.518   2.057  1.00  0.00     0.124 S 
ATOM     82  O   UNL     1     -18.019  -2.888   2.980  1.00  0.00    -0.237 OA
ATOM     83  O   UNL     1     -16.916  -1.113   1.660  1.00  0.00    -0.237 OA
ATOM     84  O   UNL     1     -16.698  -3.469   0.976  1.00  0.00    -0.744 OA
ENDBRANCH  80  81
ENDBRANCH  52  75
BRANCH  64  85
ATOM     85  C   UNL     1     -11.604  -4.023  11.357  1.00  0.00    -0.014 A 
ATOM     86  C   UNL     1     -12.241  -5.266  11.519  1.00  0.00     0.010 A 
ATOM     87  C   UNL     1     -11.728  -3.051  12.367  1.00  0.00     0.010 A 
ATOM     88  C   UNL     1     -13.012  -5.521  12.656  1.00  0.00     0.020 A 
ATOM     89  C   UNL     1     -12.478  -3.312  13.517  1.00  0.00     0.020 A 
ATOM     90  C   UNL     1     -13.128  -4.541  13.647  1.00  0.00     0.054 A 
BRANCH  90  91
ATOM     91  S   UNL     1     -14.103  -4.909  15.131  1.00  0.00     0.124 S 
ATOM     92  O   UNL     1     -15.471  -4.795  14.632  1.00  0.00    -0.237 OA
ATOM     93  O   UNL     1     -13.669  -6.261  15.475  1.00  0.00    -0.237 OA
ATOM     94  O   UNL     1     -13.697  -3.872  16.078  1.00  0.00    -0.744 OA
ENDBRANCH  90  91
ENDBRANCH  64  85
ENDBRANCH  38  39
ENDBRANCH  30  33
ENDBRANCH  28  29
ENDBRANCH  27  28
ENDBRANCH   1  27
TORSDOF 19
