REMARK SMILES CN(C(=O)CCCCC(=O)NCCCCNC(=O)c1ccc(-c2c3nc(c(-c4ccc(S(=O)(=O)[O-])cc4)c4ccc([nH]4)c(-c4ccc(S(=O)(=O)[O-])cc4)c4nc(c(-c5ccc(S(=O)(=O)[O-])cc5)c5ccc2[nH]5)C=C4)C=C3)cc1)C1CC[NH+](C)CC1
REMARK SMILES IDX 12 1 11 2 9 3 10 4 8 6 7 7 6 8 5 9 3 10 4 11 2 12 1 13 79 14
REMARK SMILES IDX 83 15 82 16 81 17 84 18 80 20 85 21 13 22 14 23 15 24 16 25
REMARK SMILES IDX 17 26 18 28 19 29 20 30 78 31 21 32 77 33 22 34 23 35 24 36
REMARK SMILES IDX 71 37 25 38 76 39 70 40 72 41 26 42 75 43 69 44 68 45 27 47
REMARK SMILES IDX 57 48 38 49 56 50 39 51 42 52 55 53 73 54 40 55 41 56 54 58
REMARK SMILES IDX 74 59 43 60 28 61 29 62 37 63 30 64 36 65 31 66 32 67 33 68
REMARK SMILES IDX 34 69 35 70 58 71 59 72 67 73 60 74 66 75 61 76 62 77 63 78
REMARK SMILES IDX 64 79 65 80 44 81 45 82 53 83 46 84 52 85 47 86 48 87 49 88
REMARK SMILES IDX 50 89 51 90
REMARK H PARENT 11 5 82 19 16 27 72 46 42 57
REMARK Flexibility Score: inf
ROOT
ATOM      1  C   UNL     1       8.096   0.062   2.358  1.00  0.00     0.116 C 
ENDROOT
BRANCH   1   2
ATOM      2  N   UNL     1       8.865  -0.346   1.202  1.00  0.00    -0.356 N 
ATOM      3  C   UNL     1       8.428  -0.646  -0.052  1.00  0.00     0.219 C 
ATOM      4  O   UNL     1       9.233  -1.074  -0.880  1.00  0.00    -0.275 OA
ATOM      5  H   UNL     1       9.837  -0.414   1.341  1.00  0.00     0.163 HD
BRANCH   3   6
ATOM      6  C   UNL     1       6.977  -0.417  -0.425  1.00  0.00     0.100 C 
BRANCH   6   7
ATOM      7  C   UNL     1       6.046  -1.599  -0.146  1.00  0.00     0.010 C 
BRANCH   7   8
ATOM      8  C   UNL     1       5.108  -1.567   1.073  1.00  0.00     0.010 C 
BRANCH   8   9
ATOM      9  C   UNL     1       4.558  -0.227   1.566  1.00  0.00     0.100 C 
BRANCH   9  10
ATOM     10  C   UNL     1       3.080  -0.066   1.281  1.00  0.00     0.222 C 
ATOM     11  O   UNL     1       2.284  -0.190   2.212  1.00  0.00    -0.275 OA
BRANCH  10  12
ATOM     12  N   UNL     1       2.687   0.173  -0.030  1.00  0.00    -0.342 N 
ATOM     13  C   UNL     1       3.588   0.645  -1.072  1.00  0.00     0.147 C 
BRANCH  12  14
ATOM     14  C   UNL     1       1.263   0.095  -0.398  1.00  0.00     0.095 C 
ATOM     15  C   UNL     1      -3.011  -0.068  -0.244  1.00  0.00     0.332 C 
ATOM     16  N   UNL     1      -1.595  -0.029   0.105  1.00  0.00    -0.337 N 
ATOM     17  C   UNL     1      -0.978   1.223  -0.347  1.00  0.00     0.264 C 
ATOM     18  C   UNL     1      -0.891  -1.205  -0.420  1.00  0.00     0.264 C 
ATOM     19  H   UNL     1      -1.515  -0.057   1.122  1.00  0.00     0.347 HD
ATOM     20  C   UNL     1       0.479   1.311   0.098  1.00  0.00     0.086 C 
ATOM     21  C   UNL     1       0.575  -1.214   0.013  1.00  0.00     0.086 C 
ENDBRANCH  12  14
ENDBRANCH  10  12
ENDBRANCH   9  10
ENDBRANCH   8   9
ENDBRANCH   7   8
ENDBRANCH   6   7
ENDBRANCH   3   6
ENDBRANCH   1   2
BRANCH   1  22
ATOM     22  C   UNL     1       7.734  -1.145   3.220  1.00  0.00     0.023 C 
BRANCH  22  23
ATOM     23  C   UNL     1       8.793  -1.538   4.241  1.00  0.00     0.023 C 
BRANCH  23  24
ATOM     24  C   UNL     1       9.018  -0.508   5.335  1.00  0.00     0.116 C 
BRANCH  24  25
ATOM     25  N   UNL     1       7.845  -0.255   6.163  1.00  0.00    -0.352 N 
ATOM     26  C   UNL     1       7.833   0.097   7.495  1.00  0.00     0.251 C 
ATOM     27  H   UNL     1       6.969  -0.344   5.724  1.00  0.00     0.163 HD
ATOM     28  O   UNL     1       6.781   0.218   8.113  1.00  0.00    -0.269 OA
BRANCH  26  29
ATOM     29  C   UNL     1       9.133   0.267   8.173  1.00  0.00     0.039 A 
ATOM     30  C   UNL     1       9.432  -0.536   9.274  1.00  0.00     0.014 A 
ATOM     31  C   UNL     1      10.100   1.107   7.614  1.00  0.00     0.014 A 
ATOM     32  C   UNL     1      10.738  -0.561   9.765  1.00  0.00     0.010 A 
ATOM     33  C   UNL     1      11.415   1.013   8.047  1.00  0.00     0.010 A 
ATOM     34  C   UNL     1      11.749   0.175   9.123  1.00  0.00    -0.014 A 
BRANCH  34  35
ATOM     35  C   UNL     1      13.166   0.087   9.556  1.00  0.00     0.031 A 
ATOM     36  C   UNL     1      13.869   1.319  10.057  1.00  0.00     0.074 A 
ATOM     37  C   UNL     1      13.842  -1.071   9.419  1.00  0.00     0.049 A 
ATOM     38  N   UNL     1      15.122   1.473  10.396  1.00  0.00    -0.248 NA
ATOM     39  C   UNL     1      13.065   2.550  10.152  1.00  0.00     0.031 C 
ATOM     40  C   UNL     1      13.292  -2.322   8.889  1.00  0.00     0.029 A 
ATOM     41  N   UNL     1      15.147  -1.383   9.708  1.00  0.00    -0.354 N 
ATOM     42  C   UNL     1      15.264   2.820  10.709  1.00  0.00     0.074 A 
ATOM     43  C   UNL     1      13.983   3.448  10.472  1.00  0.00     0.031 C 
ATOM     44  C   UNL     1      14.241  -3.272   8.926  1.00  0.00     0.029 A 
ATOM     45  C   UNL     1      15.475  -2.693   9.445  1.00  0.00     0.049 A 
ATOM     46  H   UNL     1      15.789  -0.730  10.070  1.00  0.00     0.167 HD
ATOM     47  C   UNL     1      16.355   3.473  11.173  1.00  0.00     0.031 A 
ATOM     48  C   UNL     1      16.639  -3.352   9.608  1.00  0.00     0.031 A 
ATOM     49  C   UNL     1      17.614   2.838  11.449  1.00  0.00     0.049 A 
ATOM     50  C   UNL     1      17.825  -2.617  10.168  1.00  0.00     0.074 A 
ATOM     51  C   UNL     1      18.757   3.393  11.995  1.00  0.00     0.029 A 
ATOM     52  N   UNL     1      17.892   1.501  11.208  1.00  0.00    -0.354 N 
ATOM     53  N   UNL     1      17.920  -1.357  10.521  1.00  0.00    -0.248 NA
ATOM     54  C   UNL     1      19.057  -3.394  10.361  1.00  0.00     0.031 C 
ATOM     55  C   UNL     1      19.738   2.398  12.056  1.00  0.00     0.029 A 
ATOM     56  C   UNL     1      19.192   1.215  11.584  1.00  0.00     0.049 A 
ATOM     57  H   UNL     1      17.258   0.852  10.826  1.00  0.00     0.167 HD
ATOM     58  C   UNL     1      19.215  -1.197  11.003  1.00  0.00     0.074 A 
ATOM     59  C   UNL     1      19.861  -2.490  10.906  1.00  0.00     0.031 C 
ATOM     60  C   UNL     1      19.814  -0.081  11.484  1.00  0.00     0.031 A 
BRANCH  47  61
ATOM     61  C   UNL     1      16.222   4.952  11.415  1.00  0.00    -0.014 A 
ATOM     62  C   UNL     1      15.442   5.446  12.476  1.00  0.00     0.010 A 
ATOM     63  C   UNL     1      16.890   5.860  10.575  1.00  0.00     0.010 A 
ATOM     64  C   UNL     1      15.290   6.822  12.662  1.00  0.00     0.020 A 
ATOM     65  C   UNL     1      16.764   7.238  10.774  1.00  0.00     0.020 A 
ATOM     66  C   UNL     1      15.946   7.709  11.804  1.00  0.00     0.054 A 
BRANCH  66  67
ATOM     67  S   UNL     1      15.737   9.491  12.067  1.00  0.00     0.124 S 
ATOM     68  O   UNL     1      14.404   9.721  11.516  1.00  0.00    -0.237 OA
ATOM     69  O   UNL     1      15.846   9.618  13.518  1.00  0.00    -0.237 OA
ATOM     70  O   UNL     1      16.837  10.084  11.310  1.00  0.00    -0.744 OA
ENDBRANCH  66  67
ENDBRANCH  47  61
BRANCH  48  71
ATOM     71  C   UNL     1      16.728  -4.800   9.274  1.00  0.00    -0.014 A 
ATOM     72  C   UNL     1      16.788  -5.759  10.300  1.00  0.00     0.010 A 
ATOM     73  C   UNL     1      16.743  -5.228   7.935  1.00  0.00     0.010 A 
ATOM     74  C   UNL     1      16.879  -7.120   9.994  1.00  0.00     0.020 A 
ATOM     75  C   UNL     1      16.811  -6.590   7.625  1.00  0.00     0.020 A 
ATOM     76  C   UNL     1      16.890  -7.527   8.658  1.00  0.00     0.054 A 
BRANCH  76  77
ATOM     77  S   UNL     1      16.955  -9.302   8.282  1.00  0.00     0.124 S 
ATOM     78  O   UNL     1      18.360  -9.612   8.526  1.00  0.00    -0.237 OA
ATOM     79  O   UNL     1      16.006  -9.864   9.239  1.00  0.00    -0.237 OA
ATOM     80  O   UNL     1      16.530  -9.368   6.885  1.00  0.00    -0.744 OA
ENDBRANCH  76  77
ENDBRANCH  48  71
BRANCH  60  81
ATOM     81  C   UNL     1      21.229  -0.213  11.974  1.00  0.00    -0.014 A 
ATOM     82  C   UNL     1      22.301  -0.321  11.072  1.00  0.00     0.010 A 
ATOM     83  C   UNL     1      21.491  -0.165  13.355  1.00  0.00     0.010 A 
ATOM     84  C   UNL     1      23.613  -0.404  11.546  1.00  0.00     0.020 A 
ATOM     85  C   UNL     1      22.802  -0.225  13.831  1.00  0.00     0.020 A 
ATOM     86  C   UNL     1      23.855  -0.356  12.923  1.00  0.00     0.054 A 
BRANCH  86  87
ATOM     87  S   UNL     1      25.569  -0.412  13.513  1.00  0.00     0.124 S 
ATOM     88  O   UNL     1      25.889  -1.831  13.379  1.00  0.00    -0.237 OA
ATOM     89  O   UNL     1      26.260   0.478  12.584  1.00  0.00    -0.237 OA
ATOM     90  O   UNL     1      25.477   0.080  14.886  1.00  0.00    -0.744 OA
ENDBRANCH  86  87
ENDBRANCH  60  81
ENDBRANCH  34  35
ENDBRANCH  26  29
ENDBRANCH  24  25
ENDBRANCH  23  24
ENDBRANCH  22  23
ENDBRANCH   1  22
TORSDOF 20
