REMARK SMILES CC(=O)Nc1ccc(/C=C2/CCc3oc(C(=O)NCCCCNC(=O)c4ccc(-c5c6nc(c(-c7ccc(S(=O)(=O)[O-])cc7)c7ccc([nH]7)c(-c7ccc(S(=O)(=O)[O-])cc7)c7nc(c(-c8ccc(S(=O)(=O)[O-])cc8)c8ccc5[nH]8)C=C7)C=C6)cc4)c(C)c3C2=O)cc1
REMARK SMILES IDX 21 1 20 2 19 3 18 4 16 5 17 6 15 8 9 9 10 10 11 11 89 12
REMARK SMILES IDX 12 13 88 14 90 15 13 16 86 17 14 18 87 19 8 20 5 21 6 22
REMARK SMILES IDX 92 23 7 24 91 25 4 26 1 27 2 28 3 29 22 31 23 32 24 33 25 35
REMARK SMILES IDX 26 36 27 37 85 38 28 39 84 40 29 41 30 42 31 43 78 44 32 45
REMARK SMILES IDX 83 46 77 47 79 48 33 49 82 50 76 51 75 52 34 54 64 55 45 56
REMARK SMILES IDX 63 57 46 58 49 59 62 60 80 61 47 62 48 63 61 65 81 66 50 67
REMARK SMILES IDX 35 68 36 69 44 70 37 71 43 72 38 73 39 74 40 75 41 76 42 77
REMARK SMILES IDX 65 78 66 79 74 80 67 81 73 82 68 83 69 84 70 85 71 86 72 87
REMARK SMILES IDX 51 88 52 89 60 90 53 91 59 92 54 93 55 94 56 95 57 96 58 97
REMARK H PARENT 18 7 4 30 23 34 79 53 49 64
REMARK Flexibility Score: inf
ROOT
ATOM      1  C   UNL     1       1.421  -7.548 -12.870  1.00  0.00     0.023 C 
ENDROOT
BRANCH   1   2
ATOM      2  C   UNL     1       2.052  -6.927 -11.613  1.00  0.00     0.023 C 
BRANCH   2   3
ATOM      3  C   UNL     1       1.184  -5.892 -10.889  1.00  0.00     0.116 C 
BRANCH   3   4
ATOM      4  N   UNL     1       0.081  -6.502 -10.165  1.00  0.00    -0.349 N 
ATOM      5  C   UNL     1      -0.115  -6.774  -8.827  1.00  0.00     0.287 C 
ATOM      6  O   UNL     1      -1.184  -7.324  -8.550  1.00  0.00    -0.266 OA
ATOM      7  H   UNL     1      -0.671  -6.772 -10.740  1.00  0.00     0.163 HD
BRANCH   5   8
ATOM      8  C   UNL     1       0.882  -6.447  -7.816  1.00  0.00     0.195 A 
ATOM      9  C   UNL     1       4.031  -4.077  -3.721  1.00  0.00     0.016 C 
ATOM     10  C   UNL     1       3.890  -5.053  -4.640  1.00  0.00     0.001 C 
ATOM     11  C   UNL     1       4.826  -5.157  -5.841  1.00  0.00     0.048 C 
ATOM     12  C   UNL     1       2.780  -6.077  -4.662  1.00  0.00     0.192 C 
ATOM     13  C   UNL     1       4.069  -4.923  -7.162  1.00  0.00     0.081 C 
ATOM     14  C   UNL     1       2.148  -6.132  -5.968  1.00  0.00     0.067 A 
ATOM     15  O   UNL     1       2.521  -6.820  -3.737  1.00  0.00    -0.289 OA
ATOM     16  C   UNL     1       2.772  -5.627  -7.079  1.00  0.00     0.116 A 
ATOM     17  C   UNL     1       0.892  -6.637  -6.426  1.00  0.00     0.012 A 
ATOM     18  O   UNL     1       2.049  -5.832  -8.189  1.00  0.00    -0.455 OA
ATOM     19  C   UNL     1      -0.174  -7.206  -5.557  1.00  0.00     0.049 C 
BRANCH   9  20
ATOM     20  C   UNL     1       3.204  -3.651  -2.569  1.00  0.00    -0.025 A 
ATOM     21  C   UNL     1       1.682  -2.603  -0.414  1.00  0.00     0.041 A 
ATOM     22  C   UNL     1       1.274  -3.753  -1.080  1.00  0.00     0.027 A 
ATOM     23  C   UNL     1       2.879  -2.000  -0.788  1.00  0.00     0.027 A 
ATOM     24  C   UNL     1       2.007  -4.245  -2.166  1.00  0.00     0.010 A 
ATOM     25  C   UNL     1       3.634  -2.525  -1.846  1.00  0.00     0.010 A 
BRANCH  21  26
ATOM     26  N   UNL     1       0.873  -2.148   0.636  1.00  0.00    -0.326 N 
ATOM     27  C   UNL     1       1.051   0.295   0.243  1.00  0.00     0.114 C 
ATOM     28  C   UNL     1       0.653  -0.881   1.095  1.00  0.00     0.221 C 
ATOM     29  O   UNL     1       0.066  -0.721   2.166  1.00  0.00    -0.275 OA
ATOM     30  H   UNL     1       0.387  -2.854   1.119  1.00  0.00     0.169 HD
ENDBRANCH  21  26
ENDBRANCH   9  20
ENDBRANCH   5   8
ENDBRANCH   3   4
ENDBRANCH   2   3
ENDBRANCH   1   2
BRANCH   1  31
ATOM     31  C   UNL     1       1.117  -6.560 -13.993  1.00  0.00     0.116 C 
BRANCH  31  32
ATOM     32  N   UNL     1       2.312  -5.904 -14.527  1.00  0.00    -0.352 N 
ATOM     33  C   UNL     1       2.372  -4.866 -15.442  1.00  0.00     0.251 C 
ATOM     34  H   UNL     1       3.176  -6.241 -14.197  1.00  0.00     0.163 HD
ATOM     35  O   UNL     1       3.388  -4.662 -16.095  1.00  0.00    -0.269 OA
BRANCH  33  36
ATOM     36  C   UNL     1       1.186  -4.007 -15.608  1.00  0.00     0.039 A 
ATOM     37  C   UNL     1       0.720  -3.627 -16.870  1.00  0.00     0.014 A 
ATOM     38  C   UNL     1       0.509  -3.625 -14.454  1.00  0.00     0.014 A 
ATOM     39  C   UNL     1      -0.492  -2.943 -16.963  1.00  0.00     0.010 A 
ATOM     40  C   UNL     1      -0.749  -3.087 -14.555  1.00  0.00     0.010 A 
ATOM     41  C   UNL     1      -1.237  -2.697 -15.800  1.00  0.00    -0.014 A 
BRANCH  41  42
ATOM     42  C   UNL     1      -2.582  -2.127 -15.866  1.00  0.00     0.031 A 
ATOM     43  C   UNL     1      -3.559  -2.887 -16.696  1.00  0.00     0.074 A 
ATOM     44  C   UNL     1      -2.993  -1.147 -15.031  1.00  0.00     0.049 A 
ATOM     45  N   UNL     1      -4.141  -2.509 -17.786  1.00  0.00    -0.248 NA
ATOM     46  C   UNL     1      -3.842  -4.286 -16.329  1.00  0.00     0.031 C 
ATOM     47  C   UNL     1      -2.247  -0.533 -13.924  1.00  0.00     0.029 A 
ATOM     48  N   UNL     1      -4.228  -0.594 -14.896  1.00  0.00    -0.354 N 
ATOM     49  C   UNL     1      -5.026  -3.530 -18.128  1.00  0.00     0.074 A 
ATOM     50  C   UNL     1      -4.665  -4.661 -17.311  1.00  0.00     0.031 C 
ATOM     51  C   UNL     1      -3.107   0.086 -13.087  1.00  0.00     0.029 A 
ATOM     52  C   UNL     1      -4.425   0.076 -13.694  1.00  0.00     0.049 A 
ATOM     53  H   UNL     1      -4.924  -0.662 -15.590  1.00  0.00     0.167 HD
ATOM     54  C   UNL     1      -6.140  -3.295 -18.879  1.00  0.00     0.031 A 
ATOM     55  C   UNL     1      -5.592   0.563 -13.206  1.00  0.00     0.031 A 
ATOM     56  C   UNL     1      -6.109  -1.987 -19.479  1.00  0.00     0.049 A 
ATOM     57  C   UNL     1      -6.519   0.697 -14.355  1.00  0.00     0.074 A 
ATOM     58  C   UNL     1      -5.264  -1.333 -20.352  1.00  0.00     0.029 A 
ATOM     59  N   UNL     1      -6.858  -1.008 -18.866  1.00  0.00    -0.354 N 
ATOM     60  N   UNL     1      -6.320   1.524 -15.344  1.00  0.00    -0.248 NA
ATOM     61  C   UNL     1      -7.427  -0.403 -14.638  1.00  0.00     0.031 C 
ATOM     62  C   UNL     1      -5.210   0.007 -19.870  1.00  0.00     0.029 A 
ATOM     63  C   UNL     1      -6.080   0.115 -18.782  1.00  0.00     0.049 A 
ATOM     64  H   UNL     1      -7.785  -1.100 -18.546  1.00  0.00     0.167 HD
ATOM     65  C   UNL     1      -6.712   0.824 -16.477  1.00  0.00     0.074 A 
ATOM     66  C   UNL     1      -7.482  -0.310 -15.970  1.00  0.00     0.031 C 
ATOM     67  C   UNL     1      -6.142   1.071 -17.694  1.00  0.00     0.031 A 
BRANCH  54  68
ATOM     68  C   UNL     1      -7.436  -4.064 -18.750  1.00  0.00    -0.014 A 
ATOM     69  C   UNL     1      -8.504  -3.746 -19.617  1.00  0.00     0.010 A 
ATOM     70  C   UNL     1      -7.740  -4.875 -17.639  1.00  0.00     0.010 A 
ATOM     71  C   UNL     1      -9.817  -4.147 -19.337  1.00  0.00     0.020 A 
ATOM     72  C   UNL     1      -9.038  -5.319 -17.375  1.00  0.00     0.020 A 
ATOM     73  C   UNL     1     -10.076  -4.918 -18.205  1.00  0.00     0.054 A 
BRANCH  73  74
ATOM     74  S   UNL     1     -11.787  -5.330 -17.782  1.00  0.00     0.124 S 
ATOM     75  O   UNL     1     -12.337  -4.019 -17.452  1.00  0.00    -0.237 OA
ATOM     76  O   UNL     1     -12.276  -5.930 -19.020  1.00  0.00    -0.237 OA
ATOM     77  O   UNL     1     -11.648  -6.254 -16.659  1.00  0.00    -0.744 OA
ENDBRANCH  73  74
ENDBRANCH  54  68
BRANCH  55  78
ATOM     78  C   UNL     1      -6.026   0.636 -11.789  1.00  0.00    -0.014 A 
ATOM     79  C   UNL     1      -7.099   1.453 -11.390  1.00  0.00     0.010 A 
ATOM     80  C   UNL     1      -5.543  -0.310 -10.859  1.00  0.00     0.010 A 
ATOM     81  C   UNL     1      -7.696   1.297 -10.125  1.00  0.00     0.020 A 
ATOM     82  C   UNL     1      -6.128  -0.468  -9.597  1.00  0.00     0.020 A 
ATOM     83  C   UNL     1      -7.217   0.324  -9.243  1.00  0.00     0.054 A 
BRANCH  83  84
ATOM     84  S   UNL     1      -8.092   0.022  -7.678  1.00  0.00     0.124 S 
ATOM     85  O   UNL     1      -7.794   1.231  -6.917  1.00  0.00    -0.237 OA
ATOM     86  O   UNL     1      -9.478  -0.126  -8.113  1.00  0.00    -0.237 OA
ATOM     87  O   UNL     1      -7.473  -1.200  -7.167  1.00  0.00    -0.744 OA
ENDBRANCH  83  84
ENDBRANCH  55  78
BRANCH  67  88
ATOM     88  C   UNL     1      -5.312   2.322 -17.870  1.00  0.00    -0.014 A 
ATOM     89  C   UNL     1      -4.119   2.582 -17.168  1.00  0.00     0.010 A 
ATOM     90  C   UNL     1      -5.669   3.180 -18.926  1.00  0.00     0.010 A 
ATOM     91  C   UNL     1      -3.313   3.681 -17.509  1.00  0.00     0.020 A 
ATOM     92  C   UNL     1      -4.863   4.263 -19.281  1.00  0.00     0.020 A 
ATOM     93  C   UNL     1      -3.692   4.513 -18.568  1.00  0.00     0.054 A 
BRANCH  93  94
ATOM     94  S   UNL     1      -2.617   5.894 -19.051  1.00  0.00     0.124 S 
ATOM     95  O   UNL     1      -2.758   6.814 -17.927  1.00  0.00    -0.237 OA
ATOM     96  O   UNL     1      -1.308   5.258 -19.184  1.00  0.00    -0.237 OA
ATOM     97  O   UNL     1      -3.197   6.363 -20.310  1.00  0.00    -0.744 OA
ENDBRANCH  93  94
ENDBRANCH  67  88
ENDBRANCH  41  42
ENDBRANCH  33  36
ENDBRANCH  31  32
ENDBRANCH   1  31
TORSDOF 16
