REMARK SMILES C/C(=N\Nc1nc(-c2ccc(Cl)cc2)cs1)c1nnn(-c2ccc(C(=O)NCCCCNC(=O)c3ccc(-c4c5nc(c(-c6ccc(S(=O)(=O)[O-])cc6)c6ccc([nH]6)c(-c6ccc(S(=O)(=O)[O-])cc6)c6nc(c(-c7ccc(S(=O)(=O)[O-])cc7)c7ccc4[nH]7)C=C6)C=C5)cc3)cc2)c1C
REMARK SMILES IDX 28 1 27 2 25 3 26 4 24 6 21 7 22 8 96 9 23 10 95 11 20 12
REMARK SMILES IDX 17 13 18 14 97 15 19 16 98 17 2 18 1 19 3 20 4 21 5 23 6 24
REMARK SMILES IDX 16 25 7 26 15 27 8 28 9 29 14 30 10 31 13 32 11 33 12 34
REMARK SMILES IDX 29 35 30 36 31 37 32 38 33 39 34 41 35 42 36 43 94 44 37 45
REMARK SMILES IDX 93 46 38 47 39 48 40 49 87 50 41 51 92 52 86 53 88 54 42 55
REMARK SMILES IDX 91 56 85 57 84 58 43 60 73 61 54 62 72 63 55 64 58 65 71 66
REMARK SMILES IDX 89 67 56 68 57 69 70 71 90 72 59 73 44 74 45 75 53 76 46 77
REMARK SMILES IDX 52 78 47 79 48 80 49 81 50 82 51 83 74 84 75 85 83 86 76 87
REMARK SMILES IDX 82 88 77 89 78 90 79 91 80 92 81 93 60 94 61 95 69 96 62 97
REMARK SMILES IDX 68 98 63 99 64 100 65 101 66 102 67 103
REMARK H PARENT 27 5 4 22 32 40 88 59 58 70
REMARK Flexibility Score: inf
ROOT
ATOM      1  C   UNL     1       8.323  -1.259  -6.052  1.00  0.00     0.116 C 
ENDROOT
BRANCH   1   2
ATOM      2  N   UNL     1       7.945  -0.236  -7.013  1.00  0.00    -0.352 N 
ATOM      3  C   UNL     1       6.746   0.353  -7.338  1.00  0.00     0.251 C 
ATOM      4  O   UNL     1       6.759   1.235  -8.197  1.00  0.00    -0.269 OA
ATOM      5  H   UNL     1       8.704   0.107  -7.538  1.00  0.00     0.163 HD
BRANCH   3   6
ATOM      6  C   UNL     1       5.451   0.019  -6.677  1.00  0.00     0.039 A 
ATOM      7  C   UNL     1       3.074  -0.378  -5.261  1.00  0.00     0.067 A 
ATOM      8  C   UNL     1       3.238   0.804  -5.980  1.00  0.00     0.029 A 
ATOM      9  C   UNL     1       4.022  -1.399  -5.334  1.00  0.00     0.029 A 
ATOM     10  C   UNL     1       4.442   1.005  -6.668  1.00  0.00     0.016 A 
ATOM     11  C   UNL     1       5.185  -1.210  -6.073  1.00  0.00     0.016 A 
BRANCH   7  12
ATOM     12  N   UNL     1       2.042  -0.498  -4.318  1.00  0.00    -0.217 N 
ATOM     13  C   UNL     1       0.902  -0.717  -2.481  1.00  0.00     0.132 A 
ATOM     14  N   UNL     1       0.028  -0.615  -3.531  1.00  0.00    -0.128 NA
ATOM     15  C   UNL     1       2.202  -0.655  -2.957  1.00  0.00     0.071 A 
ATOM     16  N   UNL     1       0.737  -0.397  -4.636  1.00  0.00    -0.061 NA
ATOM     17  C   UNL     1       3.510  -0.577  -2.252  1.00  0.00     0.069 C 
BRANCH  13  18
ATOM     18  C   UNL     1       0.514  -0.714  -1.077  1.00  0.00     0.087 C 
ATOM     19  C   UNL     1       1.137   0.393  -0.264  1.00  0.00     0.071 C 
ATOM     20  N   UNL     1      -0.254  -1.692  -0.683  1.00  0.00    -0.176 NA
BRANCH  20  21
ATOM     21  N   UNL     1      -0.582  -1.942   0.634  1.00  0.00    -0.252 N 
ATOM     22  H   UNL     1      -1.054  -2.792   0.787  1.00  0.00     0.193 HD
BRANCH  21  23
ATOM     23  C   UNL     1      -0.360  -1.206   1.754  1.00  0.00     0.203 A 
ATOM     24  N   UNL     1      -0.564   0.084   1.882  1.00  0.00    -0.219 NA
ATOM     25  S   UNL     1       0.349  -1.934   3.154  1.00  0.00    -0.103 S 
ATOM     26  C   UNL     1       0.184   0.584   2.928  1.00  0.00     0.084 A 
ATOM     27  C   UNL     1       0.757  -0.369   3.742  1.00  0.00     0.097 A 
BRANCH  26  28
ATOM     28  C   UNL     1       0.414   2.013   3.021  1.00  0.00     0.001 A 
ATOM     29  C   UNL     1      -0.676   2.891   3.007  1.00  0.00     0.012 A 
ATOM     30  C   UNL     1       1.717   2.533   2.977  1.00  0.00     0.012 A 
ATOM     31  C   UNL     1      -0.470   4.272   2.985  1.00  0.00     0.021 A 
ATOM     32  C   UNL     1       1.923   3.915   2.941  1.00  0.00     0.021 A 
ATOM     33  C   UNL     1       0.829   4.778   2.953  1.00  0.00     0.041 A 
ATOM     34  Cl  UNL     1       1.078   6.480   2.911  1.00  0.00    -0.084 Cl
ENDBRANCH  26  28
ENDBRANCH  21  23
ENDBRANCH  20  21
ENDBRANCH  13  18
ENDBRANCH   7  12
ENDBRANCH   3   6
ENDBRANCH   1   2
BRANCH   1  35
ATOM     35  C   UNL     1       8.384  -2.649  -6.702  1.00  0.00     0.023 C 
BRANCH  35  36
ATOM     36  C   UNL     1       9.604  -2.907  -7.597  1.00  0.00     0.023 C 
BRANCH  36  37
ATOM     37  C   UNL     1      10.935  -2.985  -6.859  1.00  0.00     0.116 C 
BRANCH  37  38
ATOM     38  N   UNL     1      10.991  -4.087  -5.896  1.00  0.00    -0.352 N 
ATOM     39  C   UNL     1      11.945  -4.312  -4.919  1.00  0.00     0.251 C 
ATOM     40  H   UNL     1      10.262  -4.746  -5.951  1.00  0.00     0.163 HD
ATOM     41  O   UNL     1      12.128  -5.432  -4.466  1.00  0.00    -0.269 OA
BRANCH  39  42
ATOM     42  C   UNL     1      12.719  -3.161  -4.420  1.00  0.00     0.039 A 
ATOM     43  C   UNL     1      14.097  -3.236  -4.198  1.00  0.00     0.014 A 
ATOM     44  C   UNL     1      12.026  -1.971  -4.218  1.00  0.00     0.014 A 
ATOM     45  C   UNL     1      14.782  -2.072  -3.852  1.00  0.00     0.010 A 
ATOM     46  C   UNL     1      12.720  -0.804  -4.031  1.00  0.00     0.010 A 
ATOM     47  C   UNL     1      14.088  -0.852  -3.790  1.00  0.00    -0.014 A 
BRANCH  47  48
ATOM     48  C   UNL     1      14.794   0.416  -3.622  1.00  0.00     0.031 A 
ATOM     49  C   UNL     1      15.857   0.660  -4.636  1.00  0.00     0.074 A 
ATOM     50  C   UNL     1      14.362   1.395  -2.795  1.00  0.00     0.049 A 
ATOM     51  N   UNL     1      17.134   0.694  -4.450  1.00  0.00    -0.248 NA
ATOM     52  C   UNL     1      15.462   0.723  -6.056  1.00  0.00     0.031 C 
ATOM     53  C   UNL     1      13.141   1.426  -1.978  1.00  0.00     0.029 A 
ATOM     54  N   UNL     1      14.867   2.643  -2.604  1.00  0.00    -0.354 N 
ATOM     55  C   UNL     1      17.689   1.025  -5.682  1.00  0.00     0.074 A 
ATOM     56  C   UNL     1      16.648   0.820  -6.658  1.00  0.00     0.031 C 
ATOM     57  C   UNL     1      12.880   2.696  -1.593  1.00  0.00     0.029 A 
ATOM     58  C   UNL     1      14.001   3.534  -1.974  1.00  0.00     0.049 A 
ATOM     59  H   UNL     1      15.775   2.897  -2.889  1.00  0.00     0.167 HD
ATOM     60  C   UNL     1      18.867   1.705  -5.774  1.00  0.00     0.031 A 
ATOM     61  C   UNL     1      14.189   4.868  -1.797  1.00  0.00     0.031 A 
ATOM     62  C   UNL     1      19.584   1.698  -4.524  1.00  0.00     0.049 A 
ATOM     63  C   UNL     1      15.642   5.118  -1.948  1.00  0.00     0.074 A 
ATOM     64  C   UNL     1      20.063   0.708  -3.688  1.00  0.00     0.029 A 
ATOM     65  N   UNL     1      19.512   2.836  -3.754  1.00  0.00    -0.354 N 
ATOM     66  N   UNL     1      16.536   4.657  -1.120  1.00  0.00    -0.248 NA
ATOM     67  C   UNL     1      16.135   5.479  -3.266  1.00  0.00     0.031 C 
ATOM     68  C   UNL     1      19.765   1.167  -2.371  1.00  0.00     0.029 A 
ATOM     69  C   UNL     1      19.215   2.447  -2.471  1.00  0.00     0.049 A 
ATOM     70  H   UNL     1      19.648   3.760  -4.065  1.00  0.00     0.167 HD
ATOM     71  C   UNL     1      17.585   4.248  -1.929  1.00  0.00     0.074 A 
ATOM     72  C   UNL     1      17.320   4.863  -3.230  1.00  0.00     0.031 C 
ATOM     73  C   UNL     1      18.413   3.228  -1.552  1.00  0.00     0.031 A 
BRANCH  60  74
ATOM     74  C   UNL     1      19.158   2.708  -6.866  1.00  0.00    -0.014 A 
ATOM     75  C   UNL     1      20.435   3.300  -6.936  1.00  0.00     0.010 A 
ATOM     76  C   UNL     1      18.146   3.281  -7.665  1.00  0.00     0.010 A 
ATOM     77  C   UNL     1      20.670   4.431  -7.734  1.00  0.00     0.020 A 
ATOM     78  C   UNL     1      18.379   4.378  -8.496  1.00  0.00     0.020 A 
ATOM     79  C   UNL     1      19.636   4.963  -8.505  1.00  0.00     0.054 A 
BRANCH  79  80
ATOM     80  S   UNL     1      19.929   6.457  -9.482  1.00  0.00     0.124 S 
ATOM     81  O   UNL     1      20.151   7.458  -8.443  1.00  0.00    -0.237 OA
ATOM     82  O   UNL     1      21.103   6.085 -10.268  1.00  0.00    -0.237 OA
ATOM     83  O   UNL     1      18.696   6.611 -10.251  1.00  0.00    -0.744 OA
ENDBRANCH  79  80
ENDBRANCH  60  74
BRANCH  61  84
ATOM     84  C   UNL     1      13.200   5.978  -1.809  1.00  0.00    -0.014 A 
ATOM     85  C   UNL     1      13.563   7.267  -1.371  1.00  0.00     0.010 A 
ATOM     86  C   UNL     1      12.008   5.852  -2.551  1.00  0.00     0.010 A 
ATOM     87  C   UNL     1      12.812   8.398  -1.735  1.00  0.00     0.020 A 
ATOM     88  C   UNL     1      11.251   6.975  -2.914  1.00  0.00     0.020 A 
ATOM     89  C   UNL     1      11.674   8.247  -2.530  1.00  0.00     0.054 A 
BRANCH  89  90
ATOM     90  S   UNL     1      10.832   9.726  -3.174  1.00  0.00     0.124 S 
ATOM     91  O   UNL     1      10.215  10.281  -1.973  1.00  0.00    -0.237 OA
ATOM     92  O   UNL     1      11.935  10.501  -3.734  1.00  0.00    -0.237 OA
ATOM     93  O   UNL     1       9.896   9.186  -4.159  1.00  0.00    -0.744 OA
ENDBRANCH  89  90
ENDBRANCH  61  84
BRANCH  73  94
ATOM     94  C   UNL     1      18.350   2.742  -0.118  1.00  0.00    -0.014 A 
ATOM     95  C   UNL     1      17.191   2.233   0.505  1.00  0.00     0.010 A 
ATOM     96  C   UNL     1      19.560   2.697   0.596  1.00  0.00     0.010 A 
ATOM     97  C   UNL     1      17.239   1.739   1.821  1.00  0.00     0.020 A 
ATOM     98  C   UNL     1      19.619   2.189   1.896  1.00  0.00     0.020 A 
ATOM     99  C   UNL     1      18.455   1.729   2.510  1.00  0.00     0.054 A 
BRANCH  99 100
ATOM    100  S   UNL     1      18.519   1.098   4.212  1.00  0.00     0.124 S 
ATOM    101  O   UNL     1      17.740   2.089   4.948  1.00  0.00    -0.237 OA
ATOM    102  O   UNL     1      17.906  -0.223   4.093  1.00  0.00    -0.237 OA
ATOM    103  O   UNL     1      19.948   1.081   4.523  1.00  0.00    -0.744 OA
ENDBRANCH  99 100
ENDBRANCH  73  94
ENDBRANCH  47  48
ENDBRANCH  39  42
ENDBRANCH  37  38
ENDBRANCH  36  37
ENDBRANCH  35  36
ENDBRANCH   1  35
TORSDOF 19
