REMARK SMILES C#CC[N@H+](CC(=O)NCCCCNC(=O)c1ccc(-c2c3nc(c(-c4ccc(S(=O)(=O)[O-])cc4)c4ccc([nH]4)c(-c4ccc(S(=O)(=O)[O-])cc4)c4nc(c(-c5ccc(S(=O)(=O)[O-])cc5)c5ccc2[nH]5)C=C4)C=C3)cc1)[C@H](C)C(=O)NCCC
REMARK SMILES IDX 9 1 8 2 6 3 7 4 5 6 4 7 3 9 2 10 1 11 76 12 77 13 78 14
REMARK SMILES IDX 79 15 80 16 81 18 82 19 83 20 10 21 11 22 12 23 13 24 14 25
REMARK SMILES IDX 15 27 16 28 17 29 75 30 18 31 74 32 19 33 20 34 21 35 68 36
REMARK SMILES IDX 22 37 73 38 67 39 69 40 23 41 72 42 66 43 65 44 24 46 54 47
REMARK SMILES IDX 35 48 53 49 36 50 39 51 52 52 70 53 37 54 38 55 51 57 71 58
REMARK SMILES IDX 40 59 25 60 26 61 34 62 27 63 33 64 28 65 29 66 30 67 31 68
REMARK SMILES IDX 32 69 55 70 56 71 64 72 57 73 63 74 58 75 59 76 60 77 61 78
REMARK SMILES IDX 62 79 41 80 42 81 50 82 43 83 49 84 44 85 45 86 46 87 47 88
REMARK SMILES IDX 48 89
REMARK H PARENT 8 5 4 8 80 17 13 26 69 45 39 56
REMARK Flexibility Score: inf
ROOT
ATOM      1  C   UNL     1      -3.384  -1.408   3.151  1.00  0.00     0.116 C 
ENDROOT
BRANCH   1   2
ATOM      2  N   UNL     1      -4.021  -0.367   3.944  1.00  0.00    -0.351 N 
ATOM      3  C   UNL     1      -4.127   0.987   3.724  1.00  0.00     0.275 C 
ATOM      4  O   UNL     1      -4.673   1.672   4.590  1.00  0.00    -0.269 OA
ATOM      5  H   UNL     1      -4.446  -0.683   4.774  1.00  0.00     0.163 HD
BRANCH   3   6
ATOM      6  C   UNL     1      -3.608   1.602   2.408  1.00  0.00     0.364 C 
BRANCH   6   7
ATOM      7  N   UNL     1      -2.160   1.996   2.365  1.00  0.00    -0.307 N 
ATOM      8  H   UNL     1      -2.037   2.909   2.803  1.00  0.00     0.350 HD
BRANCH   7   9
ATOM      9  C   UNL     1      -1.345   1.131   3.200  1.00  0.00     0.355 C 
BRANCH   9  10
ATOM     10  C   UNL     1       0.072   1.404   3.458  1.00  0.00    -0.047 C 
ATOM     11  C   UNL     1       1.248   1.354   3.687  1.00  0.00     0.010 C 
ENDBRANCH   9  10
ENDBRANCH   7   9
BRANCH   7  12
ATOM     12  C   UNL     1      -1.696   2.239   0.958  1.00  0.00     0.272 C 
ATOM     13  C   UNL     1      -2.485   1.643  -0.223  1.00  0.00     0.086 C 
BRANCH  12  14
ATOM     14  C   UNL     1      -0.178   2.099   0.696  1.00  0.00     0.278 C 
ATOM     15  O   UNL     1       0.552   3.097   0.667  1.00  0.00    -0.268 OA
ATOM     16  N   UNL     1       0.416   0.894   0.436  1.00  0.00    -0.351 N 
ATOM     17  H   UNL     1       1.339   0.963   0.101  1.00  0.00     0.163 HD
BRANCH  16  18
ATOM     18  C   UNL     1      -0.070  -0.469   0.566  1.00  0.00     0.116 C 
BRANCH  18  19
ATOM     19  C   UNL     1       0.493  -1.399  -0.502  1.00  0.00     0.018 C 
ATOM     20  C   UNL     1       1.957  -1.734  -0.258  1.00  0.00     0.006 C 
ENDBRANCH  18  19
ENDBRANCH  16  18
ENDBRANCH  12  14
ENDBRANCH   7  12
ENDBRANCH   6   7
ENDBRANCH   3   6
ENDBRANCH   1   2
BRANCH   1  21
ATOM     21  C   UNL     1      -2.082  -1.912   3.793  1.00  0.00     0.023 C 
BRANCH  21  22
ATOM     22  C   UNL     1      -2.246  -2.804   5.005  1.00  0.00     0.023 C 
BRANCH  22  23
ATOM     23  C   UNL     1      -2.906  -4.122   4.691  1.00  0.00     0.116 C 
BRANCH  23  24
ATOM     24  N   UNL     1      -2.171  -4.892   3.695  1.00  0.00    -0.352 N 
ATOM     25  C   UNL     1      -1.799  -6.213   3.747  1.00  0.00     0.251 C 
ATOM     26  H   UNL     1      -1.907  -4.403   2.882  1.00  0.00     0.163 HD
ATOM     27  O   UNL     1      -1.026  -6.670   2.913  1.00  0.00    -0.269 OA
BRANCH  25  28
ATOM     28  C   UNL     1      -2.332  -7.051   4.837  1.00  0.00     0.039 A 
ATOM     29  C   UNL     1      -1.482  -7.936   5.498  1.00  0.00     0.014 A 
ATOM     30  C   UNL     1      -3.663  -6.911   5.238  1.00  0.00     0.014 A 
ATOM     31  C   UNL     1      -1.969  -8.654   6.588  1.00  0.00     0.010 A 
ATOM     32  C   UNL     1      -4.096  -7.509   6.408  1.00  0.00     0.010 A 
ATOM     33  C   UNL     1      -3.272  -8.428   7.065  1.00  0.00    -0.014 A 
BRANCH  33  34
ATOM     34  C   UNL     1      -3.819  -9.202   8.203  1.00  0.00     0.031 A 
ATOM     35  C   UNL     1      -5.035 -10.069   7.994  1.00  0.00     0.074 A 
ATOM     36  C   UNL     1      -3.239  -9.110   9.415  1.00  0.00     0.049 A 
ATOM     37  N   UNL     1      -5.653 -10.837   8.852  1.00  0.00    -0.248 NA
ATOM     38  C   UNL     1      -5.658 -10.052   6.657  1.00  0.00     0.031 C 
ATOM     39  C   UNL     1      -2.093  -8.259   9.747  1.00  0.00     0.029 A 
ATOM     40  N   UNL     1      -3.527  -9.750  10.592  1.00  0.00    -0.354 N 
ATOM     41  C   UNL     1      -6.735 -11.376   8.165  1.00  0.00     0.074 A 
ATOM     42  C   UNL     1      -6.739 -10.791   6.846  1.00  0.00     0.031 C 
ATOM     43  C   UNL     1      -1.743  -8.472  11.025  1.00  0.00     0.029 A 
ATOM     44  C   UNL     1      -2.666  -9.434  11.616  1.00  0.00     0.049 A 
ATOM     45  H   UNL     1      -4.279 -10.377  10.694  1.00  0.00     0.167 HD
ATOM     46  C   UNL     1      -7.628 -12.301   8.582  1.00  0.00     0.031 A 
ATOM     47  C   UNL     1      -2.626  -9.876  12.888  1.00  0.00     0.031 A 
ATOM     48  C   UNL     1      -7.609 -12.890   9.893  1.00  0.00     0.049 A 
ATOM     49  C   UNL     1      -3.634 -10.903  13.328  1.00  0.00     0.074 A 
ATOM     50  C   UNL     1      -8.432 -13.877  10.403  1.00  0.00     0.029 A 
ATOM     51  N   UNL     1      -6.722 -12.544  10.901  1.00  0.00    -0.354 N 
ATOM     52  N   UNL     1      -4.606 -11.456  12.640  1.00  0.00    -0.248 NA
ATOM     53  C   UNL     1      -3.523 -11.384  14.710  1.00  0.00     0.031 C 
ATOM     54  C   UNL     1      -8.090 -14.076  11.743  1.00  0.00     0.029 A 
ATOM     55  C   UNL     1      -6.995 -13.279  12.041  1.00  0.00     0.049 A 
ATOM     56  H   UNL     1      -6.004 -11.876  10.818  1.00  0.00     0.167 HD
ATOM     57  C   UNL     1      -5.196 -12.380  13.495  1.00  0.00     0.074 A 
ATOM     58  C   UNL     1      -4.457 -12.324  14.740  1.00  0.00     0.031 C 
ATOM     59  C   UNL     1      -6.250 -13.206  13.272  1.00  0.00     0.031 A 
BRANCH  46  60
ATOM     60  C   UNL     1      -8.702 -12.728   7.615  1.00  0.00    -0.014 A 
ATOM     61  C   UNL     1      -8.394 -13.456   6.450  1.00  0.00     0.010 A 
ATOM     62  C   UNL     1     -10.049 -12.438   7.901  1.00  0.00     0.010 A 
ATOM     63  C   UNL     1      -9.408 -13.858   5.577  1.00  0.00     0.020 A 
ATOM     64  C   UNL     1     -11.068 -12.870   7.049  1.00  0.00     0.020 A 
ATOM     65  C   UNL     1     -10.740 -13.568   5.885  1.00  0.00     0.054 A 
BRANCH  65  66
ATOM     66  S   UNL     1     -12.037 -14.150   4.761  1.00  0.00     0.124 S 
ATOM     67  O   UNL     1     -11.816 -13.312   3.585  1.00  0.00    -0.237 OA
ATOM     68  O   UNL     1     -11.703 -15.563   4.596  1.00  0.00    -0.237 OA
ATOM     69  O   UNL     1     -13.275 -13.885   5.490  1.00  0.00    -0.744 OA
ENDBRANCH  65  66
ENDBRANCH  46  60
BRANCH  47  70
ATOM     70  C   UNL     1      -1.590  -9.362  13.828  1.00  0.00    -0.014 A 
ATOM     71  C   UNL     1      -0.587 -10.209  14.334  1.00  0.00     0.010 A 
ATOM     72  C   UNL     1      -1.612  -8.015  14.233  1.00  0.00     0.010 A 
ATOM     73  C   UNL     1       0.349  -9.728  15.255  1.00  0.00     0.020 A 
ATOM     74  C   UNL     1      -0.655  -7.521  15.123  1.00  0.00     0.020 A 
ATOM     75  C   UNL     1       0.310  -8.386  15.642  1.00  0.00     0.054 A 
BRANCH  75  76
ATOM     76  S   UNL     1       1.551  -7.778  16.817  1.00  0.00     0.124 S 
ATOM     77  O   UNL     1       1.147  -8.437  18.054  1.00  0.00    -0.237 OA
ATOM     78  O   UNL     1       2.800  -8.250  16.224  1.00  0.00    -0.237 OA
ATOM     79  O   UNL     1       1.366  -6.328  16.789  1.00  0.00    -0.744 OA
ENDBRANCH  75  76
ENDBRANCH  47  70
BRANCH  59  80
ATOM     80  C   UNL     1      -6.623 -14.162  14.377  1.00  0.00    -0.014 A 
ATOM     81  C   UNL     1      -7.143 -13.713  15.604  1.00  0.00     0.010 A 
ATOM     82  C   UNL     1      -6.459 -15.544  14.168  1.00  0.00     0.010 A 
ATOM     83  C   UNL     1      -7.424 -14.624  16.625  1.00  0.00     0.020 A 
ATOM     84  C   UNL     1      -6.780 -16.461  15.170  1.00  0.00     0.020 A 
ATOM     85  C   UNL     1      -7.235 -15.992  16.403  1.00  0.00     0.054 A 
BRANCH  85  86
ATOM     86  S   UNL     1      -7.599 -17.153  17.746  1.00  0.00     0.124 S 
ATOM     87  O   UNL     1      -6.507 -16.889  18.679  1.00  0.00    -0.237 OA
ATOM     88  O   UNL     1      -8.923 -16.723  18.188  1.00  0.00    -0.237 OA
ATOM     89  O   UNL     1      -7.559 -18.460  17.095  1.00  0.00    -0.744 OA
ENDBRANCH  85  86
ENDBRANCH  59  80
ENDBRANCH  33  34
ENDBRANCH  25  28
ENDBRANCH  23  24
ENDBRANCH  22  23
ENDBRANCH  21  22
ENDBRANCH   1  21
TORSDOF 21
