REMARK SMILES O=C(NCCCCNC(=O)[C@@H]1CCCN(c2cnnc(O)c2Cl)C1)c1ccc(-c2c3nc(c(-c4ccc(S(=O)(=O)[O-])cc4)c4ccc([nH]4)c(-c4ccc(S(=O)(=O)[O-])cc4)c4nc(c(-c5ccc(S(=O)(=O)[O-])cc5)c5ccc2[nH]5)C=C4)C=C3)cc1
REMARK SMILES IDX 5 1 4 2 3 3 1 4 2 5 25 7 26 8 84 9 27 10 83 11 28 12 29 13
REMARK SMILES IDX 30 14 77 15 31 16 82 17 76 18 78 19 32 20 81 21 75 22 74 23
REMARK SMILES IDX 33 25 63 26 44 27 62 28 45 29 48 30 61 31 79 32 46 33 47 34
REMARK SMILES IDX 60 36 80 37 49 38 34 39 35 40 43 41 36 42 42 43 37 44 38 45
REMARK SMILES IDX 39 46 40 47 41 48 64 49 65 50 73 51 66 52 72 53 67 54 68 55
REMARK SMILES IDX 69 56 70 57 71 58 50 59 51 60 59 61 52 62 58 63 53 64 54 65
REMARK SMILES IDX 55 66 56 67 57 68 6 69 7 70 8 71 9 72 10 74 11 75 12 76
REMARK SMILES IDX 24 77 13 78 15 79 14 80 16 81 17 82 22 83 18 84 20 85 23 86
REMARK SMILES IDX 19 87 21 88
REMARK H PARENT 3 6 78 24 48 35 8 73 21 89
REMARK Flexibility Score: inf
ROOT
ATOM      1  C   UNL     1       5.360   0.303  -1.368  1.00  0.00     0.023 C 
ENDROOT
BRANCH   1   2
ATOM      2  C   UNL     1       4.601   1.037  -0.274  1.00  0.00     0.116 C 
BRANCH   2   3
ATOM      3  N   UNL     1       3.151   0.944  -0.430  1.00  0.00    -0.352 N 
ATOM      4  O   UNL     1       1.079   0.112  -0.067  1.00  0.00    -0.269 OA
ATOM      5  C   UNL     1       2.241   0.223   0.310  1.00  0.00     0.251 C 
ATOM      6  H   UNL     1       2.771   1.473  -1.169  1.00  0.00     0.163 HD
BRANCH   5   7
ATOM      7  C   UNL     1       2.701  -0.427   1.553  1.00  0.00     0.039 A 
ATOM      8  C   UNL     1       3.493   0.300   2.441  1.00  0.00     0.014 A 
ATOM      9  C   UNL     1       2.414  -1.772   1.796  1.00  0.00     0.014 A 
ATOM     10  C   UNL     1       4.178  -0.367   3.441  1.00  0.00     0.010 A 
ATOM     11  C   UNL     1       3.001  -2.413   2.892  1.00  0.00     0.010 A 
ATOM     12  C   UNL     1       3.922  -1.725   3.696  1.00  0.00    -0.014 A 
BRANCH  12  13
ATOM     13  C   UNL     1       4.578  -2.340   4.874  1.00  0.00     0.031 A 
ATOM     14  C   UNL     1       5.580  -3.449   4.735  1.00  0.00     0.074 A 
ATOM     15  C   UNL     1       4.313  -1.800   6.081  1.00  0.00     0.049 A 
ATOM     16  N   UNL     1       6.329  -3.987   5.664  1.00  0.00    -0.248 NA
ATOM     17  C   UNL     1       5.770  -4.035   3.399  1.00  0.00     0.031 C 
ATOM     18  C   UNL     1       3.347  -0.721   6.317  1.00  0.00     0.029 A 
ATOM     19  N   UNL     1       4.859  -2.030   7.315  1.00  0.00    -0.354 N 
ATOM     20  C   UNL     1       7.053  -4.993   5.036  1.00  0.00     0.074 A 
ATOM     21  C   UNL     1       6.653  -4.996   3.646  1.00  0.00     0.031 C 
ATOM     22  C   UNL     1       3.438  -0.320   7.590  1.00  0.00     0.029 A 
ATOM     23  C   UNL     1       4.403  -1.165   8.281  1.00  0.00     0.049 A 
ATOM     24  H   UNL     1       5.513  -2.745   7.492  1.00  0.00     0.167 HD
ATOM     25  C   UNL     1       7.963  -5.836   5.579  1.00  0.00     0.031 A 
ATOM     26  C   UNL     1       4.714  -1.060   9.586  1.00  0.00     0.031 A 
ATOM     27  C   UNL     1       8.358  -5.807   6.963  1.00  0.00     0.049 A 
ATOM     28  C   UNL     1       5.722  -2.002  10.162  1.00  0.00     0.074 A 
ATOM     29  C   UNL     1       9.307  -6.587   7.600  1.00  0.00     0.029 A 
ATOM     30  N   UNL     1       7.822  -4.962   7.925  1.00  0.00    -0.354 N 
ATOM     31  N   UNL     1       6.418  -2.926   9.544  1.00  0.00    -0.248 NA
ATOM     32  C   UNL     1       5.981  -1.905  11.603  1.00  0.00     0.031 C 
ATOM     33  C   UNL     1       9.305  -6.252   8.957  1.00  0.00     0.029 A 
ATOM     34  C   UNL     1       8.395  -5.226   9.157  1.00  0.00     0.049 A 
ATOM     35  H   UNL     1       7.136  -4.277   7.755  1.00  0.00     0.167 HD
ATOM     36  C   UNL     1       7.196  -3.528  10.521  1.00  0.00     0.074 A 
ATOM     37  C   UNL     1       6.897  -2.852  11.769  1.00  0.00     0.031 C 
ATOM     38  C   UNL     1       8.075  -4.550  10.390  1.00  0.00     0.031 A 
BRANCH  25  39
ATOM     39  C   UNL     1       8.573  -6.890   4.693  1.00  0.00    -0.014 A 
ATOM     40  C   UNL     1       9.556  -6.571   3.740  1.00  0.00     0.010 A 
ATOM     41  C   UNL     1       8.210  -8.238   4.876  1.00  0.00     0.010 A 
ATOM     42  C   UNL     1      10.146  -7.578   2.970  1.00  0.00     0.020 A 
ATOM     43  C   UNL     1       8.812  -9.249   4.122  1.00  0.00     0.020 A 
ATOM     44  C   UNL     1       9.773  -8.912   3.169  1.00  0.00     0.054 A 
BRANCH  44  45
ATOM     45  S   UNL     1      10.572 -10.195   2.165  1.00  0.00     0.124 S 
ATOM     46  O   UNL     1      10.192  -9.804   0.810  1.00  0.00    -0.237 OA
ATOM     47  O   UNL     1      11.983 -10.020   2.497  1.00  0.00    -0.237 OA
ATOM     48  O   UNL     1       9.969 -11.438   2.642  1.00  0.00    -0.744 OA
ENDBRANCH  44  45
ENDBRANCH  25  39
BRANCH  26  49
ATOM     49  C   UNL     1       4.030  -0.018  10.394  1.00  0.00    -0.014 A 
ATOM     50  C   UNL     1       4.690   1.177  10.724  1.00  0.00     0.010 A 
ATOM     51  C   UNL     1       2.661  -0.154  10.693  1.00  0.00     0.010 A 
ATOM     52  C   UNL     1       3.982   2.233  11.307  1.00  0.00     0.020 A 
ATOM     53  C   UNL     1       1.946   0.906  11.254  1.00  0.00     0.020 A 
ATOM     54  C   UNL     1       2.610   2.098  11.547  1.00  0.00     0.054 A 
BRANCH  54  55
ATOM     55  S   UNL     1       1.694   3.529  12.184  1.00  0.00     0.124 S 
ATOM     56  O   UNL     1       2.335   3.755  13.476  1.00  0.00    -0.237 OA
ATOM     57  O   UNL     1       1.955   4.540  11.163  1.00  0.00    -0.237 OA
ATOM     58  O   UNL     1       0.313   3.056  12.246  1.00  0.00    -0.744 OA
ENDBRANCH  54  55
ENDBRANCH  26  49
BRANCH  38  59
ATOM     59  C   UNL     1       8.787  -5.018  11.625  1.00  0.00    -0.014 A 
ATOM     60  C   UNL     1       8.146  -5.870  12.540  1.00  0.00     0.010 A 
ATOM     61  C   UNL     1      10.149  -4.711  11.798  1.00  0.00     0.010 A 
ATOM     62  C   UNL     1       8.863  -6.419  13.606  1.00  0.00     0.020 A 
ATOM     63  C   UNL     1      10.872  -5.273  12.852  1.00  0.00     0.020 A 
ATOM     64  C   UNL     1      10.224  -6.129  13.746  1.00  0.00     0.054 A 
BRANCH  64  65
ATOM     65  S   UNL     1      11.145  -6.928  15.088  1.00  0.00     0.124 S 
ATOM     66  O   UNL     1      10.457  -6.425  16.275  1.00  0.00    -0.237 OA
ATOM     67  O   UNL     1      10.948  -8.346  14.802  1.00  0.00    -0.237 OA
ATOM     68  O   UNL     1      12.511  -6.441  14.912  1.00  0.00    -0.744 OA
ENDBRANCH  64  65
ENDBRANCH  38  59
ENDBRANCH  12  13
ENDBRANCH   5   7
ENDBRANCH   2   3
ENDBRANCH   1   2
BRANCH   1  69
ATOM     69  C   UNL     1       5.190   0.936  -2.737  1.00  0.00     0.023 C 
BRANCH  69  70
ATOM     70  C   UNL     1       5.782   2.336  -2.877  1.00  0.00     0.116 C 
BRANCH  70  71
ATOM     71  N   UNL     1       7.022   2.326  -3.621  1.00  0.00    -0.356 N 
ATOM     72  C   UNL     1       7.353   2.757  -4.860  1.00  0.00     0.224 C 
ATOM     73  H   UNL     1       7.774   1.927  -3.128  1.00  0.00     0.163 HD
ATOM     74  O   UNL     1       8.515   2.521  -5.218  1.00  0.00    -0.275 OA
BRANCH  72  75
ATOM     75  C   UNL     1       6.422   3.477  -5.840  1.00  0.00     0.098 C 
ATOM     76  C   UNL     1       5.713   4.739  -5.372  1.00  0.00     0.017 C 
ATOM     77  C   UNL     1       5.507   2.556  -6.629  1.00  0.00     0.130 C 
ATOM     78  C   UNL     1       4.233   4.603  -5.024  1.00  0.00     0.022 C 
ATOM     79  N   UNL     1       4.306   2.207  -5.860  1.00  0.00    -0.368 N 
ATOM     80  C   UNL     1       3.465   3.357  -5.499  1.00  0.00     0.116 C 
BRANCH  79  81
ATOM     81  C   UNL     1       3.908   0.866  -5.729  1.00  0.00     0.082 A 
ATOM     82  C   UNL     1       4.846  -0.176  -5.862  1.00  0.00     0.163 A 
ATOM     83  C   UNL     1       2.636   0.381  -5.357  1.00  0.00     0.129 A 
ATOM     84  N   UNL     1       4.635  -1.498  -5.627  1.00  0.00    -0.153 NA
ATOM     85  C   UNL     1       2.469  -0.979  -5.054  1.00  0.00     0.252 A 
ATOM     86  Cl  UNL     1       1.185   1.338  -5.294  1.00  0.00    -0.076 Cl
ATOM     87  N   UNL     1       3.437  -1.897  -5.189  1.00  0.00    -0.111 NA
BRANCH  85  88
ATOM     88  O   UNL     1       1.287  -1.473  -4.564  1.00  0.00    -0.491 OA
ATOM     89  H   UNL     1       1.205  -2.386  -4.371  1.00  0.00     0.295 HD
ENDBRANCH  85  88
ENDBRANCH  79  81
ENDBRANCH  72  75
ENDBRANCH  70  71
ENDBRANCH  69  70
ENDBRANCH   1  69
TORSDOF 16
