REMARK SMILES C[C@@H](Nc1ncnc2c1CCCCC2)C(=O)NCCCCNC(=O)c1ccc(-c2c3nc(c(-c4ccc(S(=O)(=O)[O-])cc4)c4ccc([nH]4)c(-c4ccc(S(=O)(=O)[O-])cc4)c4nc(c(-c5ccc(S(=O)(=O)[O-])cc5)c5ccc2[nH]5)C=C4)C=C3)cc1
REMARK SMILES IDX 18 1 17 2 15 3 16 4 2 6 1 7 3 8 4 10 5 11 9 12 6 13 8 14
REMARK SMILES IDX 7 15 10 16 11 17 12 18 13 19 14 21 19 23 20 24 21 25 22 26
REMARK SMILES IDX 23 27 24 29 25 30 26 31 84 32 27 33 83 34 28 35 29 36 30 37
REMARK SMILES IDX 77 38 31 39 82 40 76 41 78 42 32 43 81 44 75 45 74 46 33 48
REMARK SMILES IDX 63 49 44 50 62 51 45 52 48 53 61 54 79 55 46 56 47 57 60 59
REMARK SMILES IDX 80 60 49 61 34 62 35 63 43 64 36 65 42 66 37 67 38 68 39 69
REMARK SMILES IDX 40 70 41 71 64 72 65 73 73 74 66 75 72 76 67 77 68 78 69 79
REMARK SMILES IDX 70 80 71 81 50 82 51 83 59 84 52 85 58 86 53 87 54 88 55 89
REMARK SMILES IDX 56 90 57 91
REMARK H PARENT 17 5 3 9 22 28 78 47 48 58
REMARK Flexibility Score: 80.00
ROOT
ATOM      1  C   UNL     1      -0.905   1.853  -0.819  1.00  0.00     0.116 C 
ENDROOT
BRANCH   1   2
ATOM      2  N   UNL     1      -1.437   0.785   0.005  1.00  0.00    -0.354 N 
ATOM      3  C   UNL     1      -0.842   0.058   0.989  1.00  0.00     0.242 C 
ATOM      4  O   UNL     1      -1.530  -0.802   1.551  1.00  0.00    -0.273 OA
ATOM      5  H   UNL     1      -2.376   0.550  -0.176  1.00  0.00     0.163 HD
BRANCH   3   6
ATOM      6  C   UNL     1       0.636   0.246   1.384  1.00  0.00     0.167 C 
ATOM      7  C   UNL     1       1.549  -0.299   0.285  1.00  0.00     0.041 C 
BRANCH   6   8
ATOM      8  N   UNL     1       1.033   1.614   1.748  1.00  0.00    -0.358 N 
ATOM      9  H   UNL     1       1.990   1.834   1.670  1.00  0.00     0.162 HD
BRANCH   8  10
ATOM     10  C   UNL     1       0.202   2.615   2.183  1.00  0.00     0.133 A 
ATOM     11  N   UNL     1       0.485   3.778   1.566  1.00  0.00    -0.219 NA
ATOM     12  C   UNL     1      -0.846   2.500   3.092  1.00  0.00     0.016 A 
ATOM     13  C   UNL     1      -0.343   4.804   1.783  1.00  0.00     0.224 A 
ATOM     14  C   UNL     1      -1.687   3.610   3.180  1.00  0.00     0.049 A 
ATOM     15  N   UNL     1      -1.441   4.769   2.534  1.00  0.00    -0.241 NA
BRANCH  12  16
ATOM     16  C   UNL     1      -1.077   1.294   3.963  1.00  0.00     0.041 C 
BRANCH  16  17
ATOM     17  C   UNL     1      -1.055   1.603   5.465  1.00  0.00     0.005 C 
BRANCH  17  18
ATOM     18  C   UNL     1      -2.365   2.166   6.009  1.00  0.00     0.001 C 
BRANCH  18  19
ATOM     19  C   UNL     1      -2.718   3.555   5.489  1.00  0.00     0.006 CG0
ATOM     20  G   UNL     1      -2.961   3.590   3.985  1.00  0.00     0.000 G0
ENDBRANCH  18  19
ENDBRANCH  17  18
ENDBRANCH  16  17
ENDBRANCH  12  16
BRANCH  14  21
ATOM     21  C   UNL     1      -2.961   3.590   3.985  1.00  0.00     0.057 CG0
ATOM     22  G   UNL     1      -2.718   3.555   5.489  1.00  0.00     0.000 G0
ENDBRANCH  14  21
ENDBRANCH   8  10
ENDBRANCH   6   8
ENDBRANCH   3   6
ENDBRANCH   1   2
BRANCH   1  23
ATOM     23  C   UNL     1      -1.205   1.613  -2.295  1.00  0.00     0.023 C 
BRANCH  23  24
ATOM     24  C   UNL     1      -2.688   1.708  -2.663  1.00  0.00     0.023 C 
BRANCH  24  25
ATOM     25  C   UNL     1      -3.356   3.036  -2.320  1.00  0.00     0.116 C 
BRANCH  25  26
ATOM     26  N   UNL     1      -2.719   4.167  -2.977  1.00  0.00    -0.352 N 
ATOM     27  C   UNL     1      -3.296   5.158  -3.732  1.00  0.00     0.251 C 
ATOM     28  H   UNL     1      -1.742   4.230  -2.865  1.00  0.00     0.163 HD
ATOM     29  O   UNL     1      -2.596   5.955  -4.350  1.00  0.00    -0.269 OA
BRANCH  27  30
ATOM     30  C   UNL     1      -4.768   5.237  -3.812  1.00  0.00     0.039 A 
ATOM     31  C   UNL     1      -5.377   5.294  -5.067  1.00  0.00     0.014 A 
ATOM     32  C   UNL     1      -5.540   5.225  -2.646  1.00  0.00     0.014 A 
ATOM     33  C   UNL     1      -6.770   5.274  -5.156  1.00  0.00     0.010 A 
ATOM     34  C   UNL     1      -6.926   5.148  -2.739  1.00  0.00     0.010 A 
ATOM     35  C   UNL     1      -7.553   5.171  -3.994  1.00  0.00    -0.014 A 
BRANCH  35  36
ATOM     36  C   UNL     1      -9.033   5.095  -4.074  1.00  0.00     0.031 A 
ATOM     37  C   UNL     1      -9.870   6.226  -3.545  1.00  0.00     0.074 A 
ATOM     38  C   UNL     1      -9.620   3.994  -4.581  1.00  0.00     0.049 A 
ATOM     39  N   UNL     1     -11.173   6.324  -3.480  1.00  0.00    -0.248 NA
ATOM     40  C   UNL     1      -9.151   7.390  -3.002  1.00  0.00     0.031 C 
ATOM     41  C   UNL     1      -8.916   2.819  -5.101  1.00  0.00     0.029 A 
ATOM     42  N   UNL     1     -10.947   3.682  -4.742  1.00  0.00    -0.354 N 
ATOM     43  C   UNL     1     -11.429   7.553  -2.884  1.00  0.00     0.074 A 
ATOM     44  C   UNL     1     -10.149   8.145  -2.563  1.00  0.00     0.031 C 
ATOM     45  C   UNL     1      -9.817   1.930  -5.552  1.00  0.00     0.029 A 
ATOM     46  C   UNL     1     -11.160   2.454  -5.322  1.00  0.00     0.049 A 
ATOM     47  H   UNL     1     -11.678   4.282  -4.468  1.00  0.00     0.167 HD
ATOM     48  C   UNL     1     -12.622   8.146  -2.647  1.00  0.00     0.031 A 
ATOM     49  C   UNL     1     -12.307   1.821  -5.634  1.00  0.00     0.031 A 
ATOM     50  C   UNL     1     -13.894   7.565  -2.979  1.00  0.00     0.049 A 
ATOM     51  C   UNL     1     -13.620   2.493  -5.342  1.00  0.00     0.074 A 
ATOM     52  C   UNL     1     -15.157   8.104  -2.808  1.00  0.00     0.029 A 
ATOM     53  N   UNL     1     -14.065   6.316  -3.556  1.00  0.00    -0.354 N 
ATOM     54  N   UNL     1     -13.840   3.671  -4.809  1.00  0.00    -0.248 NA
ATOM     55  C   UNL     1     -14.839   1.753  -5.699  1.00  0.00     0.031 C 
ATOM     56  C   UNL     1     -16.095   7.166  -3.251  1.00  0.00     0.029 A 
ATOM     57  C   UNL     1     -15.413   6.061  -3.736  1.00  0.00     0.049 A 
ATOM     58  H   UNL     1     -13.336   5.702  -3.801  1.00  0.00     0.167 HD
ATOM     59  C   UNL     1     -15.222   3.821  -4.782  1.00  0.00     0.074 A 
ATOM     60  C   UNL     1     -15.786   2.621  -5.365  1.00  0.00     0.031 C 
ATOM     61  C   UNL     1     -15.956   4.860  -4.316  1.00  0.00     0.031 A 
BRANCH  48  62
ATOM     62  C   UNL     1     -12.604   9.506  -2.005  1.00  0.00    -0.014 A 
ATOM     63  C   UNL     1     -12.207  10.639  -2.737  1.00  0.00     0.010 A 
ATOM     64  C   UNL     1     -13.034   9.663  -0.675  1.00  0.00     0.010 A 
ATOM     65  C   UNL     1     -12.210  11.903  -2.142  1.00  0.00     0.020 A 
ATOM     66  C   UNL     1     -13.062  10.929  -0.083  1.00  0.00     0.020 A 
ATOM     67  C   UNL     1     -12.637  12.039  -0.817  1.00  0.00     0.054 A 
BRANCH  67  68
ATOM     68  S   UNL     1     -12.664  13.697  -0.082  1.00  0.00     0.124 S 
ATOM     69  O   UNL     1     -11.241  13.961   0.118  1.00  0.00    -0.237 OA
ATOM     70  O   UNL     1     -13.311  14.497  -1.118  1.00  0.00    -0.237 OA
ATOM     71  O   UNL     1     -13.442  13.521   1.142  1.00  0.00    -0.744 OA
ENDBRANCH  67  68
ENDBRANCH  48  62
BRANCH  49  72
ATOM     72  C   UNL     1     -12.265   0.483  -6.283  1.00  0.00    -0.014 A 
ATOM     73  C   UNL     1     -12.589   0.346  -7.644  1.00  0.00     0.010 A 
ATOM     74  C   UNL     1     -11.889  -0.657  -5.549  1.00  0.00     0.010 A 
ATOM     75  C   UNL     1     -12.551  -0.909  -8.258  1.00  0.00     0.020 A 
ATOM     76  C   UNL     1     -11.829  -1.910  -6.165  1.00  0.00     0.020 A 
ATOM     77  C   UNL     1     -12.170  -2.030  -7.514  1.00  0.00     0.054 A 
BRANCH  77  78
ATOM     78  S   UNL     1     -12.075  -3.640  -8.346  1.00  0.00     0.124 S 
ATOM     79  O   UNL     1     -13.484  -3.990  -8.492  1.00  0.00    -0.237 OA
ATOM     80  O   UNL     1     -11.372  -3.315  -9.585  1.00  0.00    -0.237 OA
ATOM     81  O   UNL     1     -11.317  -4.464  -7.407  1.00  0.00    -0.744 OA
ENDBRANCH  77  78
ENDBRANCH  49  72
BRANCH  61  82
ATOM     82  C   UNL     1     -17.452   4.759  -4.430  1.00  0.00    -0.014 A 
ATOM     83  C   UNL     1     -18.188   3.944  -3.552  1.00  0.00     0.010 A 
ATOM     84  C   UNL     1     -18.134   5.548  -5.374  1.00  0.00     0.010 A 
ATOM     85  C   UNL     1     -19.582   3.908  -3.627  1.00  0.00     0.020 A 
ATOM     86  C   UNL     1     -19.529   5.530  -5.437  1.00  0.00     0.020 A 
ATOM     87  C   UNL     1     -20.244   4.704  -4.568  1.00  0.00     0.054 A 
BRANCH  87  88
ATOM     88  S   UNL     1     -22.058   4.687  -4.602  1.00  0.00     0.124 S 
ATOM     89  O   UNL     1     -22.338   3.395  -5.224  1.00  0.00    -0.237 OA
ATOM     90  O   UNL     1     -22.407   4.792  -3.187  1.00  0.00    -0.237 OA
ATOM     91  O   UNL     1     -22.400   5.855  -5.410  1.00  0.00    -0.744 OA
ENDBRANCH  87  88
ENDBRANCH  61  82
ENDBRANCH  35  36
ENDBRANCH  27  30
ENDBRANCH  25  26
ENDBRANCH  24  25
ENDBRANCH  23  24
ENDBRANCH   1  23
TORSDOF 16
