REMARK SMILES C=C[C@@H]1[C@@H](O)C[C@H]2[C@]3(CC[C@]4(C)[C@@H]([C@H](C)CCC=C(C)C)CC[C@]24C)C[C@]13CCC(=O)NCCCCNC(=O)c1ccc(-c2c3nc(c(-c4ccc(S(=O)(=O)[O-])cc4)c4ccc([nH]4)c(-c4ccc(S(=O)(=O)[O-])cc4)c4nc(c(-c5ccc(S(=O)(=O)[O-])cc5)c5ccc2[nH]5)C=C4)C=C3)cc1
REMARK SMILES IDX 33 1 32 2 30 3 31 4 29 6 28 7 27 8 3 9 4 10 6 11 8 12 26 13
REMARK SMILES IDX 7 14 9 15 24 16 10 17 11 18 23 19 25 20 13 21 12 22 22 23
REMARK SMILES IDX 2 24 1 25 5 26 14 28 15 29 16 30 17 31 18 32 19 33 20 34
REMARK SMILES IDX 21 35 34 36 35 37 36 38 37 39 38 40 39 42 40 43 41 44 99 45
REMARK SMILES IDX 42 46 98 47 43 48 44 49 45 50 92 51 46 52 97 53 91 54 93 55
REMARK SMILES IDX 47 56 96 57 90 58 89 59 48 61 78 62 59 63 77 64 60 65 63 66
REMARK SMILES IDX 76 67 94 68 61 69 62 70 75 72 95 73 64 74 49 75 50 76 58 77
REMARK SMILES IDX 51 78 57 79 52 80 53 81 54 82 55 83 56 84 79 85 80 86 88 87
REMARK SMILES IDX 81 88 87 89 82 90 83 91 84 92 85 93 86 94 65 95 66 96 74 97
REMARK SMILES IDX 67 98 73 99 68 100 69 101 70 102 71 103 72 104
REMARK H PARENT 32 5 5 27 37 41 93 60 63 71
REMARK Flexibility Score: inf
ROOT
ATOM      1  C   UNL     1      -2.349  -0.180   1.371  1.00  0.00     0.116 C 
ENDROOT
BRANCH   1   2
ATOM      2  N   UNL     1      -3.261  -0.639   0.248  1.00  0.00    -0.356 N 
ATOM      3  C   UNL     1      -4.041  -1.759   0.179  1.00  0.00     0.220 C 
ATOM      4  O   UNL     1      -4.908  -1.876  -0.682  1.00  0.00    -0.275 OA
ATOM      5  H   UNL     1      -3.295  -0.049  -0.539  1.00  0.00     0.163 HD
BRANCH   3   6
ATOM      6  C   UNL     1      -3.768  -2.831   1.198  1.00  0.00     0.100 C 
BRANCH   6   7
ATOM      7  C   UNL     1      -2.303  -3.256   1.166  1.00  0.00     0.018 C 
BRANCH   7   8
ATOM      8  C   UNL     1      -1.326  -2.114   1.473  1.00  0.00    -0.014 C 
ATOM      9  C   UNL     1      -0.964  -1.102  -0.157  1.00  0.00     0.047 C 
ATOM     10  C   UNL     1      -1.193   0.870  -0.051  1.00  0.00     0.122 C 
ATOM     11  C   UNL     1      -1.369   1.722   1.740  1.00  0.00     0.037 C 
ATOM     12  C   UNL     1      -1.428  -1.318   3.166  1.00  0.00    -0.019 C 
ATOM     13  C   UNL     1      -0.345  -2.319   2.676  1.00  0.00     0.016 C 
ATOM     14  C   UNL     1      -1.602   0.585   3.314  1.00  0.00     0.005 C 
ATOM     15  C   UNL     1      -2.214  -1.893   4.330  1.00  0.00     0.008 C 
ATOM     16  C   UNL     1      -1.058   1.039   4.722  1.00  0.00    -0.023 C 
ATOM     17  C   UNL     1      -1.590  -1.401   5.632  1.00  0.00     0.008 C 
ATOM     18  C   UNL     1      -1.648   0.132   5.900  1.00  0.00    -0.024 C 
ATOM     19  C   UNL     1      -1.664   2.424   5.066  1.00  0.00     0.008 C 
ATOM     20  C   UNL     1       0.470   1.107   4.746  1.00  0.00     0.012 C 
ATOM     21  C   UNL     1      -3.132   0.665   5.966  1.00  0.00    -0.002 C 
ATOM     22  C   UNL     1      -0.806   0.325   7.177  1.00  0.00     0.012 C 
ATOM     23  C   UNL     1      -3.100   2.150   5.536  1.00  0.00     0.005 C 
BRANCH   9  24
ATOM     24  C   UNL     1       0.281  -1.746  -0.797  1.00  0.00    -0.028 C 
ATOM     25  C   UNL     1       1.097  -1.249  -1.734  1.00  0.00     0.004 C 
ENDBRANCH   9  24
BRANCH  10  26
ATOM     26  O   UNL     1      -2.304   1.338  -0.859  1.00  0.00    -0.392 OA
ATOM     27  H   UNL     1      -3.138   1.026  -0.473  1.00  0.00     0.210 HD
ENDBRANCH  10  26
BRANCH  21  28
ATOM     28  C   UNL     1      -4.251   0.126   6.910  1.00  0.00    -0.010 C 
ATOM     29  C   UNL     1      -5.620   0.453   6.239  1.00  0.00     0.008 C 
BRANCH  28  30
ATOM     30  C   UNL     1      -4.457   0.457   8.415  1.00  0.00     0.008 C 
BRANCH  30  31
ATOM     31  C   UNL     1      -3.301   0.747   9.366  1.00  0.00     0.027 C 
BRANCH  31  32
ATOM     32  C   UNL     1      -2.675   2.060   9.032  1.00  0.00    -0.028 C 
ATOM     33  C   UNL     1      -1.753   2.772   9.697  1.00  0.00    -0.080 C 
ATOM     34  C   UNL     1      -1.151   3.988   9.040  1.00  0.00     0.039 C 
ATOM     35  C   UNL     1      -1.238   2.407  11.051  1.00  0.00     0.039 C 
ENDBRANCH  31  32
ENDBRANCH  30  31
ENDBRANCH  28  30
ENDBRANCH  21  28
ENDBRANCH   7   8
ENDBRANCH   6   7
ENDBRANCH   3   6
ENDBRANCH   1   2
BRANCH   1  36
ATOM     36  C   UNL     1      -0.264  -0.024   1.597  1.00  0.00     0.023 C 
BRANCH  36  37
ATOM     37  C   UNL     1       1.115   0.869   1.001  1.00  0.00     0.023 C 
BRANCH  37  38
ATOM     38  C   UNL     1       1.338   2.376   0.751  1.00  0.00     0.116 C 
BRANCH  38  39
ATOM     39  N   UNL     1       1.876   3.098   1.889  1.00  0.00    -0.352 N 
ATOM     40  C   UNL     1       2.646   4.232   1.886  1.00  0.00     0.251 C 
ATOM     41  H   UNL     1       1.660   2.727   2.774  1.00  0.00     0.163 HD
ATOM     42  O   UNL     1       3.163   4.634   2.919  1.00  0.00    -0.269 OA
BRANCH  40  43
ATOM     43  C   UNL     1       2.870   4.932   0.610  1.00  0.00     0.039 A 
ATOM     44  C   UNL     1       4.177   5.245   0.242  1.00  0.00     0.014 A 
ATOM     45  C   UNL     1       1.791   5.263  -0.215  1.00  0.00     0.014 A 
ATOM     46  C   UNL     1       4.403   5.902  -0.964  1.00  0.00     0.010 A 
ATOM     47  C   UNL     1       2.027   5.837  -1.456  1.00  0.00     0.010 A 
ATOM     48  C   UNL     1       3.330   6.202  -1.820  1.00  0.00    -0.014 A 
BRANCH  48  49
ATOM     49  C   UNL     1       3.566   6.979  -3.058  1.00  0.00     0.031 A 
ATOM     50  C   UNL     1       2.993   8.363  -3.188  1.00  0.00     0.074 A 
ATOM     51  C   UNL     1       4.297   6.439  -4.050  1.00  0.00     0.049 A 
ATOM     52  N   UNL     1       3.147   9.232  -4.153  1.00  0.00    -0.248 NA
ATOM     53  C   UNL     1       2.104   8.823  -2.107  1.00  0.00     0.031 C 
ATOM     54  C   UNL     1       4.849   5.082  -4.049  1.00  0.00     0.029 A 
ATOM     55  N   UNL     1       4.713   6.969  -5.242  1.00  0.00    -0.354 N 
ATOM     56  C   UNL     1       2.364  10.326  -3.804  1.00  0.00     0.074 A 
ATOM     57  C   UNL     1       1.682   9.986  -2.577  1.00  0.00     0.031 C 
ATOM     58  C   UNL     1       5.569   4.902  -5.167  1.00  0.00     0.029 A 
ATOM     59  C   UNL     1       5.503   6.117  -5.975  1.00  0.00     0.049 A 
ATOM     60  H   UNL     1       4.470   7.874  -5.545  1.00  0.00     0.167 HD
ATOM     61  C   UNL     1       2.243  11.518  -4.435  1.00  0.00     0.031 A 
ATOM     62  C   UNL     1       6.115   6.299  -7.161  1.00  0.00     0.031 A 
ATOM     63  C   UNL     1       2.936  11.841  -5.653  1.00  0.00     0.049 A 
ATOM     64  C   UNL     1       6.001   7.639  -7.831  1.00  0.00     0.074 A 
ATOM     65  C   UNL     1       2.944  13.034  -6.351  1.00  0.00     0.029 A 
ATOM     66  N   UNL     1       3.741  10.956  -6.358  1.00  0.00    -0.354 N 
ATOM     67  N   UNL     1       5.327   8.697  -7.444  1.00  0.00    -0.248 NA
ATOM     68  C   UNL     1       6.747   7.819  -9.081  1.00  0.00     0.031 C 
ATOM     69  C   UNL     1       3.703  12.850  -7.513  1.00  0.00     0.029 A 
ATOM     70  C   UNL     1       4.228  11.566  -7.501  1.00  0.00     0.049 A 
ATOM     71  H   UNL     1       3.936  10.030  -6.086  1.00  0.00     0.167 HD
ATOM     72  C   UNL     1       5.582   9.679  -8.394  1.00  0.00     0.074 A 
ATOM     73  C   UNL     1       6.489   9.090  -9.362  1.00  0.00     0.031 C 
ATOM     74  C   UNL     1       5.115  10.952  -8.459  1.00  0.00     0.031 A 
BRANCH  61  75
ATOM     75  C   UNL     1       1.305  12.530  -3.825  1.00  0.00    -0.014 A 
ATOM     76  C   UNL     1       1.558  13.106  -2.565  1.00  0.00     0.010 A 
ATOM     77  C   UNL     1       0.133  12.892  -4.513  1.00  0.00     0.010 A 
ATOM     78  C   UNL     1       0.623  13.960  -1.973  1.00  0.00     0.020 A 
ATOM     79  C   UNL     1      -0.788  13.776  -3.941  1.00  0.00     0.020 A 
ATOM     80  C   UNL     1      -0.550  14.280  -2.661  1.00  0.00     0.054 A 
BRANCH  80  81
ATOM     81  S   UNL     1      -1.762  15.365  -1.859  1.00  0.00     0.124 S 
ATOM     82  O   UNL     1      -2.327  14.483  -0.841  1.00  0.00    -0.237 OA
ATOM     83  O   UNL     1      -0.931  16.455  -1.353  1.00  0.00    -0.237 OA
ATOM     84  O   UNL     1      -2.672  15.730  -2.941  1.00  0.00    -0.744 OA
ENDBRANCH  80  81
ENDBRANCH  61  75
BRANCH  62  85
ATOM     85  C   UNL     1       6.908   5.185  -7.748  1.00  0.00    -0.014 A 
ATOM     86  C   UNL     1       8.313   5.227  -7.765  1.00  0.00     0.010 A 
ATOM     87  C   UNL     1       6.253   4.032  -8.220  1.00  0.00     0.010 A 
ATOM     88  C   UNL     1       9.048   4.133  -8.236  1.00  0.00     0.020 A 
ATOM     89  C   UNL     1       6.984   2.927  -8.665  1.00  0.00     0.020 A 
ATOM     90  C   UNL     1       8.378   2.985  -8.672  1.00  0.00     0.054 A 
BRANCH  90  91
ATOM     91  S   UNL     1       9.354   1.541  -9.179  1.00  0.00     0.124 S 
ATOM     92  O   UNL     1       9.913   1.982 -10.453  1.00  0.00    -0.237 OA
ATOM     93  O   UNL     1      10.307   1.405  -8.081  1.00  0.00    -0.237 OA
ATOM     94  O   UNL     1       8.361   0.472  -9.267  1.00  0.00    -0.744 OA
ENDBRANCH  90  91
ENDBRANCH  62  85
BRANCH  74  95
ATOM     95  C   UNL     1       5.596  11.803  -9.604  1.00  0.00    -0.014 A 
ATOM     96  C   UNL     1       5.176  11.560 -10.924  1.00  0.00     0.010 A 
ATOM     97  C   UNL     1       6.444  12.894  -9.343  1.00  0.00     0.010 A 
ATOM     98  C   UNL     1       5.631  12.370 -11.968  1.00  0.00     0.020 A 
ATOM     99  C   UNL     1       6.875  13.725 -10.379  1.00  0.00     0.020 A 
ATOM    100  C   UNL     1       6.479  13.446 -11.688  1.00  0.00     0.054 A 
BRANCH 100 101
ATOM    101  S   UNL     1       7.036  14.497 -13.056  1.00  0.00     0.124 S 
ATOM    102  O   UNL     1       7.995  13.630 -13.734  1.00  0.00    -0.237 OA
ATOM    103  O   UNL     1       5.796  14.756 -13.785  1.00  0.00    -0.237 OA
ATOM    104  O   UNL     1       7.613  15.661 -12.387  1.00  0.00    -0.744 OA
ENDBRANCH 100 101
ENDBRANCH  74  95
ENDBRANCH  48  49
ENDBRANCH  40  43
ENDBRANCH  38  39
ENDBRANCH  37  38
ENDBRANCH  36  37
ENDBRANCH   1  36
TORSDOF 22
