REMARK SMILES O=C(Cc1ccccc1Nc1c(Cl)cccc1Cl)NCCCCNC(=O)c1ccc(-c2c3nc(c(-c4ccc(S(=O)(=O)[O-])cc4)c4ccc([nH]4)c(-c4ccc(S(=O)(=O)[O-])cc4)c4nc(c(-c5ccc(S(=O)(=O)[O-])cc5)c5ccc2[nH]5)C=C4)C=C3)cc1
REMARK SMILES IDX 21 1 20 2 19 3 1 4 2 5 3 7 4 8 5 9 9 10 6 11 8 12 7 13 10 14
REMARK SMILES IDX 11 16 12 17 17 18 13 19 14 20 16 21 18 22 15 23 22 24 23 25
REMARK SMILES IDX 24 26 25 27 26 29 27 30 28 31 86 32 29 33 85 34 30 35 31 36
REMARK SMILES IDX 32 37 79 38 33 39 84 40 78 41 80 42 34 43 83 44 77 45 76 46
REMARK SMILES IDX 35 48 65 49 46 50 64 51 47 52 50 53 63 54 81 55 48 56 49 57
REMARK SMILES IDX 62 59 82 60 51 61 36 62 37 63 45 64 38 65 44 66 39 67 40 68
REMARK SMILES IDX 41 69 42 70 43 71 66 72 67 73 75 74 68 75 74 76 69 77 70 78
REMARK SMILES IDX 71 79 72 80 73 81 52 82 53 83 61 84 54 85 60 86 55 87 56 88
REMARK SMILES IDX 57 89 58 90 59 91
REMARK H PARENT 19 6 10 15 24 28 80 47 50 58
REMARK Flexibility Score: inf
ROOT
ATOM      1  C   UNL     1       2.445  -2.456   2.435  1.00  0.00     0.023 C 
ENDROOT
BRANCH   1   2
ATOM      2  C   UNL     1       2.066  -1.019   2.074  1.00  0.00     0.116 C 
BRANCH   2   3
ATOM      3  N   UNL     1       2.813  -0.533   0.932  1.00  0.00    -0.356 N 
ATOM      4  O   UNL     1       1.021   0.016  -0.408  1.00  0.00    -0.275 OA
ATOM      5  C   UNL     1       2.233  -0.048  -0.223  1.00  0.00     0.224 C 
ATOM      6  H   UNL     1       3.796  -0.550   0.983  1.00  0.00     0.163 HD
BRANCH   5   7
ATOM      7  C   UNL     1       3.236   0.385  -1.286  1.00  0.00     0.137 C 
BRANCH   7   8
ATOM      8  C   UNL     1       3.994   1.630  -0.878  1.00  0.00    -0.015 A 
ATOM      9  C   UNL     1       5.221   1.466  -0.201  1.00  0.00     0.006 A 
ATOM     10  C   UNL     1       3.487   2.929  -1.098  1.00  0.00     0.042 A 
ATOM     11  C   UNL     1       5.922   2.562   0.292  1.00  0.00     0.000 A 
ATOM     12  C   UNL     1       4.218   4.018  -0.593  1.00  0.00     0.026 A 
ATOM     13  C   UNL     1       5.415   3.840   0.103  1.00  0.00     0.002 A 
BRANCH  10  14
ATOM     14  N   UNL     1       2.309   3.129  -1.853  1.00  0.00    -0.353 N 
ATOM     15  H   UNL     1       1.760   2.323  -1.991  1.00  0.00     0.167 HD
BRANCH  14  16
ATOM     16  C   UNL     1       1.797   4.314  -2.442  1.00  0.00     0.076 A 
ATOM     17  C   UNL     1       0.474   4.709  -2.147  1.00  0.00     0.066 A 
ATOM     18  C   UNL     1       2.561   5.190  -3.243  1.00  0.00     0.066 A 
ATOM     19  Cl  UNL     1      -0.567   3.688  -1.212  1.00  0.00    -0.082 Cl
ATOM     20  C   UNL     1      -0.045   5.935  -2.582  1.00  0.00     0.023 A 
ATOM     21  C   UNL     1       2.042   6.422  -3.671  1.00  0.00     0.023 A 
ATOM     22  Cl  UNL     1       4.134   4.773  -3.841  1.00  0.00    -0.082 Cl
ATOM     23  C   UNL     1       0.746   6.800  -3.331  1.00  0.00     0.003 A 
ENDBRANCH  14  16
ENDBRANCH  10  14
ENDBRANCH   7   8
ENDBRANCH   5   7
ENDBRANCH   2   3
ENDBRANCH   1   2
BRANCH   1  24
ATOM     24  C   UNL     1       3.930  -2.690   2.739  1.00  0.00     0.023 C 
BRANCH  24  25
ATOM     25  C   UNL     1       4.511  -1.864   3.883  1.00  0.00     0.116 C 
BRANCH  25  26
ATOM     26  N   UNL     1       3.924  -2.193   5.172  1.00  0.00    -0.352 N 
ATOM     27  C   UNL     1       4.535  -2.553   6.350  1.00  0.00     0.251 C 
ATOM     28  H   UNL     1       2.941  -2.152   5.207  1.00  0.00     0.163 HD
ATOM     29  O   UNL     1       3.848  -2.942   7.293  1.00  0.00    -0.269 OA
BRANCH  27  30
ATOM     30  C   UNL     1       6.010  -2.506   6.484  1.00  0.00     0.039 A 
ATOM     31  C   UNL     1       6.664  -3.567   7.118  1.00  0.00     0.014 A 
ATOM     32  C   UNL     1       6.752  -1.423   6.004  1.00  0.00     0.014 A 
ATOM     33  C   UNL     1       8.059  -3.576   7.205  1.00  0.00     0.010 A 
ATOM     34  C   UNL     1       8.146  -1.469   6.024  1.00  0.00     0.010 A 
ATOM     35  C   UNL     1       8.817  -2.547   6.622  1.00  0.00    -0.014 A 
BRANCH  35  36
ATOM     36  C   UNL     1      10.305  -2.592   6.614  1.00  0.00     0.031 A 
ATOM     37  C   UNL     1      11.107  -1.530   7.320  1.00  0.00     0.074 A 
ATOM     38  C   UNL     1      10.940  -3.559   5.920  1.00  0.00     0.049 A 
ATOM     39  N   UNL     1      12.406  -1.375   7.370  1.00  0.00    -0.248 NA
ATOM     40  C   UNL     1      10.351  -0.496   8.043  1.00  0.00     0.031 C 
ATOM     41  C   UNL     1      10.284  -4.627   5.162  1.00  0.00     0.029 A 
ATOM     42  N   UNL     1      12.280  -3.796   5.730  1.00  0.00    -0.354 N 
ATOM     43  C   UNL     1      12.623  -0.224   8.119  1.00  0.00     0.074 A 
ATOM     44  C   UNL     1      11.320   0.310   8.455  1.00  0.00     0.031 C 
ATOM     45  C   UNL     1      11.221  -5.417   4.612  1.00  0.00     0.029 A 
ATOM     46  C   UNL     1      12.542  -4.888   4.936  1.00  0.00     0.049 A 
ATOM     47  H   UNL     1      12.987  -3.236   6.126  1.00  0.00     0.167 HD
ATOM     48  C   UNL     1      13.796   0.330   8.510  1.00  0.00     0.031 A 
ATOM     49  C   UNL     1      13.710  -5.403   4.503  1.00  0.00     0.031 A 
ATOM     50  C   UNL     1      15.092  -0.201   8.174  1.00  0.00     0.049 A 
ATOM     51  C   UNL     1      15.001  -4.755   4.926  1.00  0.00     0.074 A 
ATOM     52  C   UNL     1      16.338   0.264   8.560  1.00  0.00     0.029 A 
ATOM     53  N   UNL     1      15.312  -1.309   7.370  1.00  0.00    -0.354 N 
ATOM     54  N   UNL     1      15.184  -3.702   5.686  1.00  0.00    -0.248 NA
ATOM     55  C   UNL     1      16.244  -5.373   4.444  1.00  0.00     0.031 C 
ATOM     56  C   UNL     1      17.311  -0.526   7.940  1.00  0.00     0.029 A 
ATOM     57  C   UNL     1      16.673  -1.527   7.226  1.00  0.00     0.049 A 
ATOM     58  H   UNL     1      14.606  -1.861   6.962  1.00  0.00     0.167 HD
ATOM     59  C   UNL     1      16.562  -3.549   5.796  1.00  0.00     0.074 A 
ATOM     60  C   UNL     1      17.164  -4.627   5.039  1.00  0.00     0.031 C 
ATOM     61  C   UNL     1      17.264  -2.601   6.467  1.00  0.00     0.031 A 
BRANCH  48  62
ATOM     62  C   UNL     1      13.732   1.586   9.342  1.00  0.00    -0.014 A 
ATOM     63  C   UNL     1      13.242   1.561  10.661  1.00  0.00     0.010 A 
ATOM     64  C   UNL     1      14.207   2.801   8.815  1.00  0.00     0.010 A 
ATOM     65  C   UNL     1      13.183   2.734  11.419  1.00  0.00     0.020 A 
ATOM     66  C   UNL     1      14.181   3.971   9.582  1.00  0.00     0.020 A 
ATOM     67  C   UNL     1      13.651   3.932  10.873  1.00  0.00     0.054 A 
BRANCH  67  68
ATOM     68  S   UNL     1      13.578   5.434  11.886  1.00  0.00     0.124 S 
ATOM     69  O   UNL     1      12.143   5.706  11.918  1.00  0.00    -0.237 OA
ATOM     70  O   UNL     1      14.162   4.995  13.151  1.00  0.00    -0.237 OA
ATOM     71  O   UNL     1      14.376   6.400  11.136  1.00  0.00    -0.744 OA
ENDBRANCH  67  68
ENDBRANCH  48  62
BRANCH  49  72
ATOM     72  C   UNL     1      13.711  -6.602   3.618  1.00  0.00    -0.014 A 
ATOM     73  C   UNL     1      14.183  -7.840   4.087  1.00  0.00     0.010 A 
ATOM     74  C   UNL     1      13.224  -6.511   2.301  1.00  0.00     0.010 A 
ATOM     75  C   UNL     1      14.185  -8.961   3.251  1.00  0.00     0.020 A 
ATOM     76  C   UNL     1      13.194  -7.636   1.472  1.00  0.00     0.020 A 
ATOM     77  C   UNL     1      13.686  -8.852   1.949  1.00  0.00     0.054 A 
BRANCH  77  78
ATOM     78  S   UNL     1      13.647 -10.333   0.901  1.00  0.00     0.124 S 
ATOM     79  O   UNL     1      15.061 -10.528   0.598  1.00  0.00    -0.237 OA
ATOM     80  O   UNL     1      13.045 -11.328   1.784  1.00  0.00    -0.237 OA
ATOM     81  O   UNL     1      12.814  -9.929  -0.230  1.00  0.00    -0.744 OA
ENDBRANCH  77  78
ENDBRANCH  49  72
BRANCH  61  82
ATOM     82  C   UNL     1      18.767  -2.703   6.446  1.00  0.00    -0.014 A 
ATOM     83  C   UNL     1      19.506  -2.435   5.279  1.00  0.00     0.010 A 
ATOM     84  C   UNL     1      19.456  -3.020   7.632  1.00  0.00     0.010 A 
ATOM     85  C   UNL     1      20.901  -2.514   5.292  1.00  0.00     0.020 A 
ATOM     86  C   UNL     1      20.852  -3.068   7.657  1.00  0.00     0.020 A 
ATOM     87  C   UNL     1      21.566  -2.828   6.482  1.00  0.00     0.054 A 
BRANCH  87  88
ATOM     88  S   UNL     1      23.379  -2.878   6.482  1.00  0.00     0.124 S 
ATOM     89  O   UNL     1      23.649  -4.099   5.726  1.00  0.00    -0.237 OA
ATOM     90  O   UNL     1      23.733  -1.631   5.808  1.00  0.00    -0.237 OA
ATOM     91  O   UNL     1      23.725  -2.934   7.900  1.00  0.00    -0.744 OA
ENDBRANCH  87  88
ENDBRANCH  61  82
ENDBRANCH  35  36
ENDBRANCH  27  30
ENDBRANCH  25  26
ENDBRANCH  24  25
ENDBRANCH   1  24
TORSDOF 17
