REMARK SMILES CN1C(=O)/C(=C(\SC2=[NH+][C@@H]3N=c4ccccc4=C3N=N2)C(=O)NCCCCNC(=O)c2ccc(-c3c4nc(c(-c5ccc(S(=O)(=O)[O-])cc5)c5ccc([nH]5)c(-c5ccc(S(=O)(=O)[O-])cc5)c5nc(c(-c6ccc(S(=O)(=O)[O-])cc6)c6ccc3[nH]6)C=C5)C=C4)cc2)c2ccccc21
REMARK SMILES IDX 26 1 25 2 24 3 23 4 21 5 22 6 6 8 1 9 2 10 3 11 96 12 4 13
REMARK SMILES IDX 5 14 91 15 95 16 92 17 94 18 93 19 7 20 8 21 9 22 20 23
REMARK SMILES IDX 10 24 19 26 11 27 18 28 12 29 17 30 13 31 16 32 14 33 15 34
REMARK SMILES IDX 27 35 28 36 29 37 30 39 31 40 32 41 90 42 33 43 89 44 34 45
REMARK SMILES IDX 35 46 36 47 83 48 37 49 88 50 82 51 84 52 38 53 87 54 81 55
REMARK SMILES IDX 80 56 39 58 69 59 50 60 68 61 51 62 54 63 67 64 85 65 52 66
REMARK SMILES IDX 53 67 66 69 86 70 55 71 40 72 41 73 49 74 42 75 48 76 43 77
REMARK SMILES IDX 44 78 45 79 46 80 47 81 70 82 71 83 79 84 72 85 78 86 73 87
REMARK SMILES IDX 74 88 75 89 76 90 77 91 56 92 57 93 65 94 58 95 64 96 59 97
REMARK SMILES IDX 60 98 61 99 62 100 63 101
REMARK H PARENT 23 7 9 25 28 38 84 57 54 68
REMARK Flexibility Score: inf
ROOT
ATOM      1  C   UNL     1       2.365   7.060  -1.993  1.00  0.00     0.023 C 
ENDROOT
BRANCH   1   2
ATOM      2  C   UNL     1       3.171   5.773  -1.794  1.00  0.00     0.023 C 
BRANCH   2   3
ATOM      3  C   UNL     1       2.866   4.973  -0.522  1.00  0.00     0.116 C 
BRANCH   3   4
ATOM      4  N   UNL     1       1.520   4.427  -0.570  1.00  0.00    -0.352 N 
ATOM      5  C   UNL     1       0.914   3.234  -0.346  1.00  0.00     0.259 C 
ATOM      6  O   UNL     1      -0.224   3.220  -0.824  1.00  0.00    -0.269 OA
ATOM      7  H   UNL     1       0.867   5.112  -0.840  1.00  0.00     0.163 HD
BRANCH   5   8
ATOM      8  C   UNL     1       1.464   2.033   0.418  1.00  0.00     0.098 C 
ATOM      9  C   UNL     1       0.764  -2.662   0.868  1.00  0.00     0.153 C 
ATOM     10  N   UNL     1       0.414  -1.273   0.775  1.00  0.00    -0.311 N 
ATOM     11  C   UNL     1       1.071  -0.239   1.427  1.00  0.00     0.260 C 
ATOM     12  C   UNL     1      -0.743  -0.771   0.166  1.00  0.00     0.052 A 
ATOM     13  O   UNL     1       1.770  -0.302   2.426  1.00  0.00    -0.269 OA
ATOM     14  C   UNL     1       0.619   1.004   0.714  1.00  0.00     0.069 C 
ATOM     15  C   UNL     1      -0.743   0.630   0.245  1.00  0.00     0.012 A 
ATOM     16  C   UNL     1      -1.835  -1.500  -0.279  1.00  0.00     0.027 A 
ATOM     17  C   UNL     1      -1.936   1.306   0.041  1.00  0.00     0.011 A 
ATOM     18  C   UNL     1      -3.009  -0.802  -0.558  1.00  0.00     0.002 A 
ATOM     19  C   UNL     1      -3.066   0.587  -0.372  1.00  0.00     0.001 A 
BRANCH   8  20
ATOM     20  S   UNL     1       3.118   2.153   0.976  1.00  0.00     0.011 SA
BRANCH  20  21
ATOM     21  C   UNL     1       4.085   0.770   0.400  1.00  0.00     0.386 C 
ATOM     22  N   UNL     1       5.072   1.012  -0.411  1.00  0.00    -0.235 N 
ATOM     23  N   UNL     1       3.843  -0.430   1.037  1.00  0.00     0.088 NA
ATOM     24  C   UNL     1       6.087  -0.043  -0.374  1.00  0.00     0.348 C 
ATOM     25  H   UNL     1       5.131   1.811  -0.983  1.00  0.00     0.308 HD
ATOM     26  N   UNL     1       4.489  -1.468   0.793  1.00  0.00    -0.033 NA
ATOM     27  N   UNL     1       6.866  -0.238  -1.623  1.00  0.00    -0.232 NA
ATOM     28  C   UNL     1       5.507  -1.371  -0.080  1.00  0.00     0.165 C 
ATOM     29  C   UNL     1       6.883  -1.538  -1.739  1.00  0.00     0.072 A 
ATOM     30  C   UNL     1       6.062  -2.327  -0.806  1.00  0.00     0.032 A 
ATOM     31  C   UNL     1       7.609  -2.337  -2.758  1.00  0.00     0.029 A 
ATOM     32  C   UNL     1       5.914  -3.743  -0.892  1.00  0.00     0.012 A 
ATOM     33  C   UNL     1       7.461  -3.676  -2.775  1.00  0.00     0.002 A 
ATOM     34  C   UNL     1       6.605  -4.394  -1.842  1.00  0.00     0.001 A 
ENDBRANCH  20  21
ENDBRANCH   8  20
ENDBRANCH   5   8
ENDBRANCH   3   4
ENDBRANCH   2   3
ENDBRANCH   1   2
BRANCH   1  35
ATOM     35  C   UNL     1       2.520   8.115  -0.903  1.00  0.00     0.116 C 
BRANCH  35  36
ATOM     36  N   UNL     1       3.897   8.547  -0.711  1.00  0.00    -0.352 N 
ATOM     37  C   UNL     1       4.408   9.820  -0.604  1.00  0.00     0.251 C 
ATOM     38  H   UNL     1       4.560   7.822  -0.648  1.00  0.00     0.163 HD
ATOM     39  O   UNL     1       5.622   9.992  -0.548  1.00  0.00    -0.269 OA
BRANCH  37  40
ATOM     40  C   UNL     1       3.493  10.983  -0.602  1.00  0.00     0.039 A 
ATOM     41  C   UNL     1       2.347  10.989   0.196  1.00  0.00     0.014 A 
ATOM     42  C   UNL     1       3.772  12.069  -1.438  1.00  0.00     0.014 A 
ATOM     43  C   UNL     1       1.401  11.996   0.032  1.00  0.00     0.010 A 
ATOM     44  C   UNL     1       2.853  13.117  -1.546  1.00  0.00     0.010 A 
ATOM     45  C   UNL     1       1.635  13.062  -0.853  1.00  0.00    -0.014 A 
BRANCH  45  46
ATOM     46  C   UNL     1       0.582  14.092  -1.051  1.00  0.00     0.031 A 
ATOM     47  C   UNL     1      -0.129  14.217  -2.373  1.00  0.00     0.074 A 
ATOM     48  C   UNL     1       0.213  14.867  -0.012  1.00  0.00     0.049 A 
ATOM     49  N   UNL     1      -1.098  15.031  -2.709  1.00  0.00    -0.248 NA
ATOM     50  C   UNL     1       0.294  13.315  -3.457  1.00  0.00     0.031 C 
ATOM     51  C   UNL     1       0.810  14.820   1.324  1.00  0.00     0.029 A 
ATOM     52  N   UNL     1      -0.771  15.818   0.096  1.00  0.00    -0.354 N 
ATOM     53  C   UNL     1      -1.393  14.747  -4.037  1.00  0.00     0.074 A 
ATOM     54  C   UNL     1      -0.483  13.706  -4.459  1.00  0.00     0.031 C 
ATOM     55  C   UNL     1       0.142  15.656   2.132  1.00  0.00     0.029 A 
ATOM     56  C   UNL     1      -0.889  16.344   1.361  1.00  0.00     0.049 A 
ATOM     57  H   UNL     1      -1.337  16.096  -0.659  1.00  0.00     0.167 HD
ATOM     58  C   UNL     1      -2.345  15.295  -4.827  1.00  0.00     0.031 A 
ATOM     59  C   UNL     1      -1.728  17.279   1.852  1.00  0.00     0.031 A 
ATOM     60  C   UNL     1      -3.259  16.322  -4.400  1.00  0.00     0.049 A 
ATOM     61  C   UNL     1      -2.748  17.901   0.944  1.00  0.00     0.074 A 
ATOM     62  C   UNL     1      -4.257  16.938  -5.136  1.00  0.00     0.029 A 
ATOM     63  N   UNL     1      -3.300  16.873  -3.129  1.00  0.00    -0.354 N 
ATOM     64  N   UNL     1      -2.995  17.631  -0.315  1.00  0.00    -0.248 NA
ATOM     65  C   UNL     1      -3.597  18.956   1.515  1.00  0.00     0.031 C 
ATOM     66  C   UNL     1      -4.870  17.896  -4.324  1.00  0.00     0.029 A 
ATOM     67  C   UNL     1      -4.293  17.836  -3.066  1.00  0.00     0.049 A 
ATOM     68  H   UNL     1      -2.710  16.619  -2.383  1.00  0.00     0.167 HD
ATOM     69  C   UNL     1      -4.028  18.482  -0.688  1.00  0.00     0.074 A 
ATOM     70  C   UNL     1      -4.377  19.259   0.484  1.00  0.00     0.031 C 
ATOM     71  C   UNL     1      -4.626  18.610  -1.897  1.00  0.00     0.031 A 
BRANCH  58  72
ATOM     72  C   UNL     1      -2.469  14.805  -6.246  1.00  0.00    -0.014 A 
ATOM     73  C   UNL     1      -2.105  15.648  -7.311  1.00  0.00     0.010 A 
ATOM     74  C   UNL     1      -3.069  13.565  -6.527  1.00  0.00     0.010 A 
ATOM     75  C   UNL     1      -2.366  15.276  -8.633  1.00  0.00     0.020 A 
ATOM     76  C   UNL     1      -3.312  13.179  -7.849  1.00  0.00     0.020 A 
ATOM     77  C   UNL     1      -2.980  14.048  -8.892  1.00  0.00     0.054 A 
BRANCH  77  78
ATOM     78  S   UNL     1      -3.342  13.592 -10.611  1.00  0.00     0.124 S 
ATOM     79  O   UNL     1      -4.531  14.388 -10.898  1.00  0.00    -0.237 OA
ATOM     80  O   UNL     1      -2.126  13.996 -11.313  1.00  0.00    -0.237 OA
ATOM     81  O   UNL     1      -3.557  12.148 -10.542  1.00  0.00    -0.744 OA
ENDBRANCH  77  78
ENDBRANCH  58  72
BRANCH  59  82
ATOM     82  C   UNL     1      -1.622  17.661   3.286  1.00  0.00    -0.014 A 
ATOM     83  C   UNL     1      -0.493  18.362   3.750  1.00  0.00     0.010 A 
ATOM     84  C   UNL     1      -2.601  17.251   4.207  1.00  0.00     0.010 A 
ATOM     85  C   UNL     1      -0.316  18.596   5.115  1.00  0.00     0.020 A 
ATOM     86  C   UNL     1      -2.440  17.509   5.573  1.00  0.00     0.020 A 
ATOM     87  C   UNL     1      -1.283  18.152   6.020  1.00  0.00     0.054 A 
BRANCH  87  88
ATOM     88  S   UNL     1      -1.013  18.421   7.793  1.00  0.00     0.124 S 
ATOM     89  O   UNL     1      -0.119  17.317   8.130  1.00  0.00    -0.237 OA
ATOM     90  O   UNL     1      -0.411  19.752   7.832  1.00  0.00    -0.237 OA
ATOM     91  O   UNL     1      -2.358  18.334   8.357  1.00  0.00    -0.744 OA
ENDBRANCH  87  88
ENDBRANCH  59  82
BRANCH  71  92
ATOM     92  C   UNL     1      -5.719  19.633  -2.043  1.00  0.00    -0.014 A 
ATOM     93  C   UNL     1      -7.051  19.214  -2.214  1.00  0.00     0.010 A 
ATOM     94  C   UNL     1      -5.409  21.000  -2.146  1.00  0.00     0.010 A 
ATOM     95  C   UNL     1      -8.050  20.140  -2.519  1.00  0.00     0.020 A 
ATOM     96  C   UNL     1      -6.410  21.933  -2.429  1.00  0.00     0.020 A 
ATOM     97  C   UNL     1      -7.721  21.493  -2.638  1.00  0.00     0.054 A 
BRANCH  97  98
ATOM     98  S   UNL     1      -9.023  22.680  -3.069  1.00  0.00     0.124 S 
ATOM     99  O   UNL     1      -9.143  22.494  -4.512  1.00  0.00    -0.237 OA
ATOM    100  O   UNL     1     -10.160  22.215  -2.277  1.00  0.00    -0.237 OA
ATOM    101  O   UNL     1      -8.466  23.964  -2.648  1.00  0.00    -0.744 OA
ENDBRANCH  97  98
ENDBRANCH  71  92
ENDBRANCH  45  46
ENDBRANCH  37  40
ENDBRANCH  35  36
ENDBRANCH   1  35
TORSDOF 16
