REMARK SMILES O=C(NCCCCNC(=O)[C@@H]1[C@H](C(=O)Nc2ccccc2OC(F)F)[C@@H]2C=C[C@H]1C2)c1ccc(-c2c3nc(c(-c4ccc(S(=O)(=O)[O-])cc4)c4ccc([nH]4)c(-c4ccc(S(=O)(=O)[O-])cc4)c4nc(c(-c5ccc(S(=O)(=O)[O-])cc5)c5ccc2[nH]5)C=C4)C=C3)cc1
REMARK SMILES IDX 6 1 5 2 4 3 3 4 1 5 2 6 31 8 32 9 90 10 33 11 89 12 34 13
REMARK SMILES IDX 35 14 36 15 83 16 37 17 88 18 82 19 84 20 38 21 87 22 81 23
REMARK SMILES IDX 80 24 39 26 69 27 50 28 68 29 51 30 54 31 67 32 85 33 52 34
REMARK SMILES IDX 53 35 66 37 86 38 55 39 40 40 41 41 49 42 42 43 48 44 43 45
REMARK SMILES IDX 44 46 45 47 46 48 47 49 70 50 71 51 79 52 72 53 78 54 73 55
REMARK SMILES IDX 74 56 75 57 76 58 77 59 56 60 57 61 65 62 58 63 64 64 59 65
REMARK SMILES IDX 60 66 61 67 62 68 63 69 7 70 8 71 9 72 10 74 11 75 12 76
REMARK SMILES IDX 29 77 26 78 28 79 30 80 27 81 13 82 14 83 15 84 16 86 17 87
REMARK SMILES IDX 21 88 18 89 20 90 19 91 22 92 23 93 24 94 25 95
REMARK H PARENT 3 7 84 25 54 36 8 73 15 85
REMARK Flexibility Score: inf
ROOT
ATOM      1  C   UNL     1       4.308  -3.126   2.057  1.00  0.00     0.023 C 
ENDROOT
BRANCH   1   2
ATOM      2  C   UNL     1       4.967  -1.778   1.777  1.00  0.00     0.023 C 
BRANCH   2   3
ATOM      3  C   UNL     1       4.617  -1.143   0.434  1.00  0.00     0.116 C 
BRANCH   3   4
ATOM      4  N   UNL     1       3.181  -1.018   0.212  1.00  0.00    -0.352 N 
ATOM      5  O   UNL     1       1.179   0.003   0.046  1.00  0.00    -0.269 OA
ATOM      6  C   UNL     1       2.394   0.107   0.095  1.00  0.00     0.251 C 
ATOM      7  H   UNL     1       2.699  -1.872   0.133  1.00  0.00     0.163 HD
BRANCH   6   8
ATOM      8  C   UNL     1       3.034   1.438   0.058  1.00  0.00     0.039 A 
ATOM      9  C   UNL     1       4.130   1.666  -0.775  1.00  0.00     0.014 A 
ATOM     10  C   UNL     1       2.545   2.458   0.878  1.00  0.00     0.014 A 
ATOM     11  C   UNL     1       4.844   2.850  -0.657  1.00  0.00     0.010 A 
ATOM     12  C   UNL     1       3.211   3.686   0.923  1.00  0.00     0.010 A 
ATOM     13  C   UNL     1       4.389   3.877   0.186  1.00  0.00    -0.014 A 
BRANCH  13  14
ATOM     14  C   UNL     1       5.136   5.159   0.227  1.00  0.00     0.031 A 
ATOM     15  C   UNL     1       5.819   5.628   1.483  1.00  0.00     0.074 A 
ATOM     16  C   UNL     1       5.231   5.879  -0.908  1.00  0.00     0.049 A 
ATOM     17  N   UNL     1       6.536   6.706   1.671  1.00  0.00    -0.248 NA
ATOM     18  C   UNL     1       5.676   4.786   2.681  1.00  0.00     0.031 C 
ATOM     19  C   UNL     1       4.609   5.519  -2.187  1.00  0.00     0.029 A 
ATOM     20  N   UNL     1       5.904   7.040  -1.184  1.00  0.00    -0.354 N 
ATOM     21  C   UNL     1       6.909   6.689   3.011  1.00  0.00     0.074 A 
ATOM     22  C   UNL     1       6.324   5.499   3.593  1.00  0.00     0.031 C 
ATOM     23  C   UNL     1       4.978   6.405  -3.121  1.00  0.00     0.029 A 
ATOM     24  C   UNL     1       5.799   7.435  -2.496  1.00  0.00     0.049 A 
ATOM     25  H   UNL     1       6.412   7.543  -0.507  1.00  0.00     0.167 HD
ATOM     26  C   UNL     1       7.668   7.584   3.690  1.00  0.00     0.031 A 
ATOM     27  C   UNL     1       6.290   8.516  -3.129  1.00  0.00     0.031 A 
ATOM     28  C   UNL     1       8.245   8.764   3.099  1.00  0.00     0.049 A 
ATOM     29  C   UNL     1       7.106   9.502  -2.348  1.00  0.00     0.074 A 
ATOM     30  C   UNL     1       9.049   9.721   3.695  1.00  0.00     0.029 A 
ATOM     31  N   UNL     1       8.077   9.153   1.778  1.00  0.00    -0.354 N 
ATOM     32  N   UNL     1       7.460   9.457  -1.086  1.00  0.00    -0.248 NA
ATOM     33  C   UNL     1       7.583  10.685  -3.073  1.00  0.00     0.031 C 
ATOM     34  C   UNL     1       9.326  10.713   2.748  1.00  0.00     0.029 A 
ATOM     35  C   UNL     1       8.740  10.347   1.546  1.00  0.00     0.049 A 
ATOM     36  H   UNL     1       7.562   8.654   1.104  1.00  0.00     0.167 HD
ATOM     37  C   UNL     1       8.208  10.606  -0.865  1.00  0.00     0.074 A 
ATOM     38  C   UNL     1       8.276  11.310  -2.131  1.00  0.00     0.031 C 
ATOM     39  C   UNL     1       8.782  11.041   0.283  1.00  0.00     0.031 A 
BRANCH  26  40
ATOM     40  C   UNL     1       7.888   7.341   5.161  1.00  0.00    -0.014 A 
ATOM     41  C   UNL     1       8.736   6.314   5.615  1.00  0.00     0.010 A 
ATOM     42  C   UNL     1       7.271   8.183   6.105  1.00  0.00     0.010 A 
ATOM     43  C   UNL     1       8.928   6.109   6.985  1.00  0.00     0.020 A 
ATOM     44  C   UNL     1       7.480   7.996   7.475  1.00  0.00     0.020 A 
ATOM     45  C   UNL     1       8.293   6.947   7.907  1.00  0.00     0.054 A 
BRANCH  45  46
ATOM     46  S   UNL     1       8.568   6.665   9.678  1.00  0.00     0.124 S 
ATOM     47  O   UNL     1       7.765   5.468   9.918  1.00  0.00    -0.237 OA
ATOM     48  O   UNL     1      10.014   6.475   9.754  1.00  0.00    -0.237 OA
ATOM     49  O   UNL     1       8.069   7.885  10.306  1.00  0.00    -0.744 OA
ENDBRANCH  45  46
ENDBRANCH  26  40
BRANCH  27  50
ATOM     50  C   UNL     1       5.996   8.715  -4.572  1.00  0.00    -0.014 A 
ATOM     51  C   UNL     1       7.004   8.560  -5.537  1.00  0.00     0.010 A 
ATOM     52  C   UNL     1       4.683   9.003  -4.990  1.00  0.00     0.010 A 
ATOM     53  C   UNL     1       6.705   8.692  -6.897  1.00  0.00     0.020 A 
ATOM     54  C   UNL     1       4.375   9.107  -6.348  1.00  0.00     0.020 A 
ATOM     55  C   UNL     1       5.391   8.958  -7.293  1.00  0.00     0.054 A 
BRANCH  55  56
ATOM     56  S   UNL     1       5.009   9.046  -9.064  1.00  0.00     0.124 S 
ATOM     57  O   UNL     1       5.534  10.360  -9.422  1.00  0.00    -0.237 OA
ATOM     58  O   UNL     1       5.741   7.902  -9.604  1.00  0.00    -0.237 OA
ATOM     59  O   UNL     1       3.554   8.918  -9.105  1.00  0.00    -0.744 OA
ENDBRANCH  55  56
ENDBRANCH  27  50
BRANCH  39  60
ATOM     60  C   UNL     1       9.546  12.334   0.214  1.00  0.00    -0.014 A 
ATOM     61  C   UNL     1       8.875  13.566   0.112  1.00  0.00     0.010 A 
ATOM     62  C   UNL     1      10.950  12.318   0.281  1.00  0.00     0.010 A 
ATOM     63  C   UNL     1       9.599  14.758   0.044  1.00  0.00     0.020 A 
ATOM     64  C   UNL     1      11.676  13.510   0.240  1.00  0.00     0.020 A 
ATOM     65  C   UNL     1      10.996  14.722   0.105  1.00  0.00     0.054 A 
BRANCH  65  66
ATOM     66  S   UNL     1      11.913  16.285   0.049  1.00  0.00     0.124 S 
ATOM     67  O   UNL     1      11.825  16.638  -1.366  1.00  0.00    -0.237 OA
ATOM     68  O   UNL     1      11.153  17.139   0.958  1.00  0.00    -0.237 OA
ATOM     69  O   UNL     1      13.248  15.919   0.518  1.00  0.00    -0.744 OA
ENDBRANCH  65  66
ENDBRANCH  39  60
ENDBRANCH  13  14
ENDBRANCH   6   8
ENDBRANCH   3   4
ENDBRANCH   2   3
ENDBRANCH   1   2
BRANCH   1  70
ATOM     70  C   UNL     1       4.483  -4.185   0.971  1.00  0.00     0.116 C 
BRANCH  70  71
ATOM     71  N   UNL     1       5.804  -4.772   0.934  1.00  0.00    -0.356 N 
ATOM     72  C   UNL     1       6.149  -6.029   0.525  1.00  0.00     0.224 C 
ATOM     73  H   UNL     1       6.543  -4.197   1.239  1.00  0.00     0.163 HD
ATOM     74  O   UNL     1       7.133  -6.537   1.067  1.00  0.00    -0.275 OA
BRANCH  72  75
ATOM     75  C   UNL     1       5.243  -6.877  -0.341  1.00  0.00     0.098 C 
ATOM     76  C   UNL     1       5.843  -7.980  -1.284  1.00  0.00     0.099 C 
ATOM     77  C   UNL     1       4.129  -6.268  -1.224  1.00  0.00     0.025 C 
ATOM     78  C   UNL     1       4.907  -7.900  -2.534  1.00  0.00     0.025 C 
ATOM     79  C   UNL     1       4.702  -5.612  -2.449  1.00  0.00    -0.027 C 
ATOM     80  C   UNL     1       3.574  -7.547  -1.879  1.00  0.00     0.017 C 
ATOM     81  C   UNL     1       5.116  -6.596  -3.259  1.00  0.00    -0.027 C 
BRANCH  76  82
ATOM     82  C   UNL     1       7.269  -8.333  -1.734  1.00  0.00     0.229 C 
ATOM     83  O   UNL     1       7.584  -9.539  -1.697  1.00  0.00    -0.274 OA
ATOM     84  N   UNL     1       8.142  -7.551  -2.422  1.00  0.00    -0.323 N 
ATOM     85  H   UNL     1       8.823  -8.064  -2.915  1.00  0.00     0.170 HD
BRANCH  84  86
ATOM     86  C   UNL     1       8.272  -6.172  -2.574  1.00  0.00     0.084 A 
ATOM     87  C   UNL     1       8.194  -5.671  -3.882  1.00  0.00     0.030 A 
ATOM     88  C   UNL     1       8.615  -5.300  -1.541  1.00  0.00     0.149 A 
ATOM     89  C   UNL     1       8.221  -4.296  -4.123  1.00  0.00     0.002 A 
ATOM     90  C   UNL     1       8.592  -3.918  -1.778  1.00  0.00     0.049 A 
ATOM     91  C   UNL     1       8.376  -3.415  -3.060  1.00  0.00     0.004 A 
BRANCH  88  92
ATOM     92  O   UNL     1       9.049  -5.622  -0.291  1.00  0.00    -0.433 OA
BRANCH  92  93
ATOM     93  C   UNL     1       9.890  -6.759  -0.115  1.00  0.00     0.542 C 
ATOM     94  F   UNL     1       9.165  -7.886   0.052  1.00  0.00    -0.167 F 
ATOM     95  F   UNL     1      10.707  -6.935  -1.183  1.00  0.00    -0.167 F 
ENDBRANCH  92  93
ENDBRANCH  88  92
ENDBRANCH  84  86
ENDBRANCH  76  82
ENDBRANCH  72  75
ENDBRANCH  70  71
ENDBRANCH   1  70
TORSDOF 18
