REMARK SMILES CCc1nsc(NC[C@H](CC(C)C)C(=O)NCCCCNC(=O)c2ccc(-c3c4nc(c(-c5ccc(S(=O)(=O)[O-])cc5)c5ccc([nH]5)c(-c5ccc(S(=O)(=O)[O-])cc5)c5nc(c(-c6ccc(S(=O)(=O)[O-])cc6)c6ccc3[nH]6)C=C5)C=C4)cc2)n1
REMARK SMILES IDX 18 1 17 2 16 3 14 4 15 5 9 7 8 8 7 9 6 11 3 12 4 13 84 14
REMARK SMILES IDX 5 15 2 16 1 17 10 18 11 19 12 20 13 21 19 22 20 23 21 24
REMARK SMILES IDX 22 25 23 27 24 28 25 29 83 30 26 31 82 32 27 33 28 34 29 35
REMARK SMILES IDX 76 36 30 37 81 38 75 39 77 40 31 41 80 42 74 43 73 44 32 46
REMARK SMILES IDX 62 47 43 48 61 49 44 50 47 51 60 52 78 53 45 54 46 55 59 57
REMARK SMILES IDX 79 58 48 59 33 60 34 61 42 62 35 63 41 64 36 65 37 66 38 67
REMARK SMILES IDX 39 68 40 69 63 70 64 71 72 72 65 73 71 74 66 75 67 76 68 77
REMARK SMILES IDX 69 78 70 79 49 80 50 81 58 82 51 83 57 84 52 85 53 86 54 87
REMARK SMILES IDX 55 88 56 89
REMARK H PARENT 16 6 7 10 21 26 77 45 47 56
REMARK Flexibility Score: inf
ROOT
ATOM      1  C   UNL     1      -0.744   7.278   6.369  1.00  0.00     0.023 C 
ENDROOT
BRANCH   1   2
ATOM      2  C   UNL     1      -0.035   7.907   5.173  1.00  0.00     0.116 C 
BRANCH   2   3
ATOM      3  N   UNL     1       1.409   7.857   5.326  1.00  0.00    -0.356 N 
ATOM      4  C   UNL     1       2.351   7.162   4.631  1.00  0.00     0.224 C 
ATOM      5  O   UNL     1       3.530   7.308   4.958  1.00  0.00    -0.275 OA
ATOM      6  H   UNL     1       1.764   8.419   6.052  1.00  0.00     0.163 HD
BRANCH   4   7
ATOM      7  C   UNL     1       1.977   6.270   3.451  1.00  0.00     0.098 C 
BRANCH   7   8
ATOM      8  C   UNL     1       1.401   7.168   2.336  1.00  0.00     0.128 C 
BRANCH   8   9
ATOM      9  N   UNL     1       2.390   7.388   1.302  1.00  0.00    -0.359 N 
ATOM     10  H   UNL     1       3.262   7.748   1.582  1.00  0.00     0.162 HD
BRANCH   9  11
ATOM     11  C   UNL     1       2.219   7.140  -0.011  1.00  0.00     0.202 A 
ATOM     12  C   UNL     1       2.664   7.145  -2.168  1.00  0.00     0.144 A 
ATOM     13  N   UNL     1       1.536   6.444  -2.297  1.00  0.00    -0.174 NA
ATOM     14  N   UNL     1       3.081   7.554  -0.910  1.00  0.00    -0.204 NA
ATOM     15  S   UNL     1       0.926   6.264  -0.755  1.00  0.00     0.004 S 
BRANCH  12  16
ATOM     16  C   UNL     1       3.485   7.495  -3.360  1.00  0.00     0.075 C 
ATOM     17  C   UNL     1       4.902   6.951  -3.258  1.00  0.00     0.012 C 
ENDBRANCH  12  16
ENDBRANCH   9  11
ENDBRANCH   8   9
ENDBRANCH   7   8
BRANCH   7  18
ATOM     18  C   UNL     1       1.034   5.110   3.842  1.00  0.00     0.018 C 
BRANCH  18  19
ATOM     19  C   UNL     1       1.724   3.810   4.306  1.00  0.00    -0.017 C 
ATOM     20  C   UNL     1       2.712   4.008   5.454  1.00  0.00     0.007 C 
ATOM     21  C   UNL     1       0.649   2.801   4.729  1.00  0.00     0.007 C 
ENDBRANCH  18  19
ENDBRANCH   7  18
ENDBRANCH   4   7
ENDBRANCH   2   3
ENDBRANCH   1   2
BRANCH   1  22
ATOM     22  C   UNL     1      -0.619   8.081   7.662  1.00  0.00     0.023 C 
BRANCH  22  23
ATOM     23  C   UNL     1      -1.081   9.527   7.559  1.00  0.00     0.116 C 
BRANCH  23  24
ATOM     24  N   UNL     1      -2.454   9.645   7.094  1.00  0.00    -0.352 N 
ATOM     25  C   UNL     1      -3.459  10.443   7.577  1.00  0.00     0.251 C 
ATOM     26  H   UNL     1      -2.695   9.075   6.328  1.00  0.00     0.163 HD
ATOM     27  O   UNL     1      -4.608  10.293   7.165  1.00  0.00    -0.269 OA
BRANCH  25  28
ATOM     28  C   UNL     1      -3.158  11.459   8.606  1.00  0.00     0.039 A 
ATOM     29  C   UNL     1      -4.038  11.616   9.678  1.00  0.00     0.014 A 
ATOM     30  C   UNL     1      -2.012  12.254   8.515  1.00  0.00     0.014 A 
ATOM     31  C   UNL     1      -3.750  12.548  10.674  1.00  0.00     0.010 A 
ATOM     32  C   UNL     1      -1.677  13.111   9.558  1.00  0.00     0.010 A 
ATOM     33  C   UNL     1      -2.557  13.291  10.633  1.00  0.00    -0.014 A 
BRANCH  33  34
ATOM     34  C   UNL     1      -2.251  14.296  11.681  1.00  0.00     0.031 A 
ATOM     35  C   UNL     1      -2.134  15.754  11.316  1.00  0.00     0.074 A 
ATOM     36  C   UNL     1      -2.063  13.899  12.955  1.00  0.00     0.049 A 
ATOM     37  N   UNL     1      -1.898  16.781  12.091  1.00  0.00    -0.248 NA
ATOM     38  C   UNL     1      -2.273  16.101   9.891  1.00  0.00     0.031 C 
ATOM     39  C   UNL     1      -2.097  12.512  13.425  1.00  0.00     0.029 A 
ATOM     40  N   UNL     1      -1.814  14.627  14.091  1.00  0.00    -0.354 N 
ATOM     41  C   UNL     1      -1.855  17.887  11.250  1.00  0.00     0.074 A 
ATOM     42  C   UNL     1      -2.015  17.399   9.899  1.00  0.00     0.031 C 
ATOM     43  C   UNL     1      -1.922  12.495  14.756  1.00  0.00     0.029 A 
ATOM     44  C   UNL     1      -1.726  13.862  15.229  1.00  0.00     0.049 A 
ATOM     45  H   UNL     1      -1.709  15.606  14.090  1.00  0.00     0.167 HD
ATOM     46  C   UNL     1      -1.729  19.197  11.572  1.00  0.00     0.031 A 
ATOM     47  C   UNL     1      -1.518  14.220  16.511  1.00  0.00     0.031 A 
ATOM     48  C   UNL     1      -1.579  19.680  12.918  1.00  0.00     0.049 A 
ATOM     49  C   UNL     1      -1.377  15.681  16.845  1.00  0.00     0.074 A 
ATOM     50  C   UNL     1      -1.490  20.989  13.358  1.00  0.00     0.029 A 
ATOM     51  N   UNL     1      -1.494  18.873  14.043  1.00  0.00    -0.354 N 
ATOM     52  N   UNL     1      -1.414  16.719  16.042  1.00  0.00    -0.248 NA
ATOM     53  C   UNL     1      -1.185  16.019  18.261  1.00  0.00     0.031 C 
ATOM     54  C   UNL     1      -1.295  20.971  14.743  1.00  0.00     0.029 A 
ATOM     55  C   UNL     1      -1.330  19.654  15.175  1.00  0.00     0.049 A 
ATOM     56  H   UNL     1      -1.544  17.890  14.038  1.00  0.00     0.167 HD
ATOM     57  C   UNL     1      -1.274  17.835  16.861  1.00  0.00     0.074 A 
ATOM     58  C   UNL     1      -1.181  17.344  18.221  1.00  0.00     0.031 C 
ATOM     59  C   UNL     1      -1.225  19.147  16.520  1.00  0.00     0.031 A 
BRANCH  46  60
ATOM     60  C   UNL     1      -1.752  20.195  10.443  1.00  0.00    -0.014 A 
ATOM     61  C   UNL     1      -2.924  20.421   9.697  1.00  0.00     0.010 A 
ATOM     62  C   UNL     1      -0.597  20.939  10.139  1.00  0.00     0.010 A 
ATOM     63  C   UNL     1      -2.929  21.337   8.641  1.00  0.00     0.020 A 
ATOM     64  C   UNL     1      -0.607  21.880   9.105  1.00  0.00     0.020 A 
ATOM     65  C   UNL     1      -1.769  22.060   8.351  1.00  0.00     0.054 A 
BRANCH  65  66
ATOM     66  S   UNL     1      -1.812  23.258   6.990  1.00  0.00     0.124 S 
ATOM     67  O   UNL     1      -1.869  22.384   5.821  1.00  0.00    -0.237 OA
ATOM     68  O   UNL     1      -3.031  24.013   7.269  1.00  0.00    -0.237 OA
ATOM     69  O   UNL     1      -0.568  24.008   7.147  1.00  0.00    -0.744 OA
ENDBRANCH  65  66
ENDBRANCH  46  60
BRANCH  47  70
ATOM     70  C   UNL     1      -1.454  13.180  17.575  1.00  0.00    -0.014 A 
ATOM     71  C   UNL     1      -2.469  13.078  18.543  1.00  0.00     0.010 A 
ATOM     72  C   UNL     1      -0.374  12.280  17.621  1.00  0.00     0.010 A 
ATOM     73  C   UNL     1      -2.393  12.111  19.550  1.00  0.00     0.020 A 
ATOM     74  C   UNL     1      -0.311  11.291  18.607  1.00  0.00     0.020 A 
ATOM     75  C   UNL     1      -1.315  11.222  19.574  1.00  0.00     0.054 A 
BRANCH  75  76
ATOM     76  S   UNL     1      -1.262   9.946  20.863  1.00  0.00     0.124 S 
ATOM     77  O   UNL     1      -0.948  10.729  22.053  1.00  0.00    -0.237 OA
ATOM     78  O   UNL     1      -2.611   9.387  20.808  1.00  0.00    -0.237 OA
ATOM     79  O   UNL     1      -0.205   9.045  20.408  1.00  0.00    -0.744 OA
ENDBRANCH  75  76
ENDBRANCH  47  70
BRANCH  59  80
ATOM     80  C   UNL     1      -1.088  20.144  17.642  1.00  0.00    -0.014 A 
ATOM     81  C   UNL     1       0.100  20.247  18.388  1.00  0.00     0.010 A 
ATOM     82  C   UNL     1      -2.159  21.008  17.938  1.00  0.00     0.010 A 
ATOM     83  C   UNL     1       0.194  21.156  19.444  1.00  0.00     0.020 A 
ATOM     84  C   UNL     1      -2.055  21.943  18.970  1.00  0.00     0.020 A 
ATOM     85  C   UNL     1      -0.887  21.995  19.732  1.00  0.00     0.054 A 
BRANCH  85  86
ATOM     86  S   UNL     1      -0.736  23.173  21.102  1.00  0.00     0.124 S 
ATOM     87  O   UNL     1      -0.822  22.295  22.266  1.00  0.00    -0.237 OA
ATOM     88  O   UNL     1       0.573  23.776  20.864  1.00  0.00    -0.237 OA
ATOM     89  O   UNL     1      -1.873  24.071  20.914  1.00  0.00    -0.744 OA
ENDBRANCH  85  86
ENDBRANCH  59  80
ENDBRANCH  33  34
ENDBRANCH  25  28
ENDBRANCH  23  24
ENDBRANCH  22  23
ENDBRANCH   1  22
TORSDOF 20
