REMARK SMILES Cc1ccc(Cl)c(Nc2ccccc2C(=O)NCC(=O)NCCCCNC(=O)c2ccc(-c3c4nc(c(-c5ccc(S(=O)(=O)[O-])cc5)c5ccc([nH]5)c(-c5ccc(S(=O)(=O)[O-])cc5)c5nc(c(-c6ccc(S(=O)(=O)[O-])cc6)c6ccc3[nH]6)C=C5)C=C4)cc2)c1Cl
REMARK SMILES IDX 23 1 22 2 21 3 19 4 20 5 18 7 17 8 15 9 16 10 14 12 9 13
REMARK SMILES IDX 10 14 11 15 13 16 12 17 8 18 7 20 1 21 2 22 3 23 89 24 4 25
REMARK SMILES IDX 90 26 5 27 6 28 24 29 25 30 26 31 27 32 28 34 29 35 30 36
REMARK SMILES IDX 88 37 31 38 87 39 32 40 33 41 34 42 81 43 35 44 86 45 80 46
REMARK SMILES IDX 82 47 36 48 85 49 79 50 78 51 37 53 67 54 48 55 66 56 49 57
REMARK SMILES IDX 52 58 65 59 83 60 50 61 51 62 64 64 84 65 53 66 38 67 39 68
REMARK SMILES IDX 47 69 40 70 46 71 41 72 42 73 43 74 44 75 45 76 68 77 69 78
REMARK SMILES IDX 77 79 70 80 76 81 71 82 72 83 73 84 74 85 75 86 54 87 55 88
REMARK SMILES IDX 63 89 56 90 62 91 57 92 58 93 59 94 60 95 61 96
REMARK H PARENT 21 6 17 11 8 19 26 33 82 52 52 63
REMARK Flexibility Score: inf
ROOT
ATOM      1  C   UNL     1      -1.135  -3.719   3.976  1.00  0.00     0.023 C 
ENDROOT
BRANCH   1   2
ATOM      2  C   UNL     1      -1.640  -3.550   2.547  1.00  0.00     0.116 C 
BRANCH   2   3
ATOM      3  N   UNL     1      -2.545  -2.430   2.478  1.00  0.00    -0.355 N 
ATOM      4  C   UNL     1      -2.201  -1.117   2.360  1.00  0.00     0.239 C 
ATOM      5  O   UNL     1      -3.085  -0.264   2.458  1.00  0.00    -0.273 OA
ATOM      6  H   UNL     1      -3.507  -2.634   2.521  1.00  0.00     0.163 HD
BRANCH   4   7
ATOM      7  C   UNL     1      -0.816  -0.762   1.827  1.00  0.00     0.216 C 
BRANCH   7   8
ATOM      8  N   UNL     1       0.437  -1.220   2.389  1.00  0.00    -0.343 N 
ATOM      9  C   UNL     1       1.530  -1.829   1.815  1.00  0.00     0.253 C 
ATOM     10  O   UNL     1       2.604  -1.632   2.396  1.00  0.00    -0.269 OA
ATOM     11  H   UNL     1       0.523  -1.068   3.358  1.00  0.00     0.164 HD
BRANCH   9  12
ATOM     12  C   UNL     1       1.504  -2.860   0.716  1.00  0.00     0.063 A 
ATOM     13  C   UNL     1       0.809  -2.902  -0.515  1.00  0.00     0.051 A 
ATOM     14  C   UNL     1       0.912  -4.084  -1.298  1.00  0.00     0.027 A 
ATOM     15  C   UNL     1       1.724  -5.159  -0.941  1.00  0.00     0.002 A 
ATOM     16  C   UNL     1       2.334  -3.967   1.045  1.00  0.00     0.016 A 
ATOM     17  C   UNL     1       2.458  -5.091   0.227  1.00  0.00     0.001 A 
BRANCH  13  18
ATOM     18  N   UNL     1       0.108  -1.865  -1.170  1.00  0.00    -0.352 N 
ATOM     19  H   UNL     1      -0.631  -2.192  -1.732  1.00  0.00     0.167 HD
BRANCH  18  20
ATOM     20  C   UNL     1       0.242  -0.455  -1.191  1.00  0.00     0.077 A 
ATOM     21  C   UNL     1       2.696   2.287  -0.144  1.00  0.00     0.046 C 
ATOM     22  C   UNL     1       1.438   1.590  -0.582  1.00  0.00    -0.030 A 
ATOM     23  C   UNL     1       0.228   2.300  -0.597  1.00  0.00     0.006 A 
ATOM     24  C   UNL     1       1.445   0.223  -0.925  1.00  0.00     0.069 A 
ATOM     25  C   UNL     1      -0.953   1.677  -0.989  1.00  0.00     0.023 A 
ATOM     26  Cl  UNL     1       2.974  -0.582  -1.125  1.00  0.00    -0.082 Cl
ATOM     27  C   UNL     1      -0.943   0.318  -1.294  1.00  0.00     0.066 A 
ATOM     28  Cl  UNL     1      -2.459  -0.435  -1.676  1.00  0.00    -0.082 Cl
ENDBRANCH  18  20
ENDBRANCH  13  18
ENDBRANCH   9  12
ENDBRANCH   7   8
ENDBRANCH   4   7
ENDBRANCH   2   3
ENDBRANCH   1   2
BRANCH   1  29
ATOM     29  C   UNL     1      -2.256  -4.072   4.955  1.00  0.00     0.023 C 
BRANCH  29  30
ATOM     30  C   UNL     1      -3.024  -5.331   4.581  1.00  0.00     0.116 C 
BRANCH  30  31
ATOM     31  N   UNL     1      -2.157  -6.495   4.494  1.00  0.00    -0.352 N 
ATOM     32  C   UNL     1      -2.409  -7.768   4.945  1.00  0.00     0.251 C 
ATOM     33  H   UNL     1      -1.285  -6.354   4.059  1.00  0.00     0.163 HD
ATOM     34  O   UNL     1      -1.530  -8.613   4.965  1.00  0.00    -0.269 OA
BRANCH  32  35
ATOM     35  C   UNL     1      -3.769  -8.071   5.432  1.00  0.00     0.039 A 
ATOM     36  C   UNL     1      -3.926  -8.604   6.711  1.00  0.00     0.014 A 
ATOM     37  C   UNL     1      -4.878  -7.752   4.644  1.00  0.00     0.014 A 
ATOM     38  C   UNL     1      -5.212  -8.772   7.224  1.00  0.00     0.010 A 
ATOM     39  C   UNL     1      -6.153  -7.852   5.186  1.00  0.00     0.010 A 
ATOM     40  C   UNL     1      -6.333  -8.369   6.478  1.00  0.00    -0.014 A 
BRANCH  40  41
ATOM     41  C   UNL     1      -7.704  -8.490   7.029  1.00  0.00     0.031 A 
ATOM     42  C   UNL     1      -8.697  -9.407   6.367  1.00  0.00     0.074 A 
ATOM     43  C   UNL     1      -8.070  -7.731   8.082  1.00  0.00     0.049 A 
ATOM     44  N   UNL     1      -9.954  -9.609   6.666  1.00  0.00    -0.248 NA
ATOM     45  C   UNL     1      -8.227 -10.176   5.201  1.00  0.00     0.031 C 
ATOM     46  C   UNL     1      -7.210  -6.768   8.777  1.00  0.00     0.029 A 
ATOM     47  N   UNL     1      -9.267  -7.643   8.748  1.00  0.00    -0.354 N 
ATOM     48  C   UNL     1     -10.429 -10.504   5.714  1.00  0.00     0.074 A 
ATOM     49  C   UNL     1      -9.340 -10.776   4.804  1.00  0.00     0.031 C 
ATOM     50  C   UNL     1      -7.899  -6.208   9.785  1.00  0.00     0.029 A 
ATOM     51  C   UNL     1      -9.258  -6.739   9.785  1.00  0.00     0.049 A 
ATOM     52  H   UNL     1     -10.058  -8.177   8.506  1.00  0.00     0.167 HD
ATOM     53  C   UNL     1     -11.658 -11.061   5.618  1.00  0.00     0.031 A 
ATOM     54  C   UNL     1     -10.238  -6.375  10.635  1.00  0.00     0.031 A 
ATOM     55  C   UNL     1     -12.726 -10.816   6.549  1.00  0.00     0.049 A 
ATOM     56  C   UNL     1     -11.592  -7.023  10.509  1.00  0.00     0.074 A 
ATOM     57  C   UNL     1     -13.979 -11.402   6.588  1.00  0.00     0.029 A 
ATOM     58  N   UNL     1     -12.670  -9.916   7.601  1.00  0.00    -0.354 N 
ATOM     59  N   UNL     1     -11.992  -7.938   9.659  1.00  0.00    -0.248 NA
ATOM     60  C   UNL     1     -12.623  -6.598  11.467  1.00  0.00     0.031 C 
ATOM     61  C   UNL     1     -14.702 -10.814   7.630  1.00  0.00     0.029 A 
ATOM     62  C   UNL     1     -13.877  -9.908   8.277  1.00  0.00     0.049 A 
ATOM     63  H   UNL     1     -11.888  -9.364   7.832  1.00  0.00     0.167 HD
ATOM     64  C   UNL     1     -13.309  -8.222  10.002  1.00  0.00     0.074 A 
ATOM     65  C   UNL     1     -13.633  -7.395  11.146  1.00  0.00     0.031 C 
ATOM     66  C   UNL     1     -14.175  -9.090   9.423  1.00  0.00     0.031 A 
BRANCH  53  67
ATOM     67  C   UNL     1     -11.926 -11.996   4.470  1.00  0.00    -0.014 A 
ATOM     68  C   UNL     1     -11.361 -13.284   4.433  1.00  0.00     0.010 A 
ATOM     69  C   UNL     1     -12.829 -11.614   3.461  1.00  0.00     0.010 A 
ATOM     70  C   UNL     1     -11.684 -14.167   3.400  1.00  0.00     0.020 A 
ATOM     71  C   UNL     1     -13.174 -12.504   2.440  1.00  0.00     0.020 A 
ATOM     72  C   UNL     1     -12.594 -13.773   2.413  1.00  0.00     0.054 A 
BRANCH  72  73
ATOM     73  S   UNL     1     -13.049 -14.967   1.126  1.00  0.00     0.124 S 
ATOM     74  O   UNL     1     -11.834 -15.016   0.317  1.00  0.00    -0.237 OA
ATOM     75  O   UNL     1     -13.339 -16.173   1.897  1.00  0.00    -0.237 OA
ATOM     76  O   UNL     1     -14.204 -14.353   0.476  1.00  0.00    -0.744 OA
ENDBRANCH  72  73
ENDBRANCH  53  67
BRANCH  54  77
ATOM     77  C   UNL     1      -9.989  -5.345  11.683  1.00  0.00    -0.014 A 
ATOM     78  C   UNL     1      -9.995  -5.694  13.045  1.00  0.00     0.010 A 
ATOM     79  C   UNL     1      -9.787  -4.000  11.325  1.00  0.00     0.010 A 
ATOM     80  C   UNL     1      -9.852  -4.712  14.030  1.00  0.00     0.020 A 
ATOM     81  C   UNL     1      -9.612  -3.020  12.305  1.00  0.00     0.020 A 
ATOM     82  C   UNL     1      -9.669  -3.379  13.653  1.00  0.00     0.054 A 
BRANCH  82  83
ATOM     83  S   UNL     1      -9.488  -2.119  14.945  1.00  0.00     0.124 S 
ATOM     84  O   UNL     1     -10.859  -1.981  15.427  1.00  0.00    -0.237 OA
ATOM     85  O   UNL     1      -8.551  -2.747  15.873  1.00  0.00    -0.237 OA
ATOM     86  O   UNL     1      -8.959  -0.964  14.223  1.00  0.00    -0.744 OA
ENDBRANCH  82  83
ENDBRANCH  54  77
BRANCH  66  87
ATOM     87  C   UNL     1     -15.539  -9.228  10.044  1.00  0.00    -0.014 A 
ATOM     88  C   UNL     1     -16.503  -8.211   9.927  1.00  0.00     0.010 A 
ATOM     89  C   UNL     1     -15.879 -10.424  10.703  1.00  0.00     0.010 A 
ATOM     90  C   UNL     1     -17.771  -8.375  10.489  1.00  0.00     0.020 A 
ATOM     91  C   UNL     1     -17.156 -10.603  11.239  1.00  0.00     0.020 A 
ATOM     92  C   UNL     1     -18.090  -9.570  11.142  1.00  0.00     0.054 A 
BRANCH  92  93
ATOM     93  S   UNL     1     -19.757  -9.775  11.823  1.00  0.00     0.124 S 
ATOM     94  O   UNL     1     -19.710  -8.918  13.004  1.00  0.00    -0.237 OA
ATOM     95  O   UNL     1     -20.609  -9.301  10.735  1.00  0.00    -0.237 OA
ATOM     96  O   UNL     1     -19.846 -11.208  12.097  1.00  0.00    -0.744 OA
ENDBRANCH  92  93
ENDBRANCH  66  87
ENDBRANCH  40  41
ENDBRANCH  32  35
ENDBRANCH  30  31
ENDBRANCH  29  30
ENDBRANCH   1  29
TORSDOF 18
