REMARK SMILES C[C@]1(C(=O)NCCCCNC(=O)c2ccc(-c3c4nc(c(-c5ccc(S(=O)(=O)[O-])cc5)c5ccc([nH]5)c(-c5ccc(S(=O)(=O)[O-])cc5)c5nc(c(-c6ccc(S(=O)(=O)[O-])cc6)c6ccc3[nH]6)C=C5)C=C4)cc2)[NH2+]C2(C(=O)c3ccccc3C2=O)[C@@H]2C(=O)N(c3ccccc3)C(=O)[C@H]21
REMARK SMILES IDX 8 1 7 2 6 3 5 4 3 5 4 6 2 8 1 9 73 10 97 11 74 12 85 15
REMARK SMILES IDX 95 16 75 17 83 18 86 19 88 20 96 21 76 22 77 23 82 24 84 25
REMARK SMILES IDX 87 26 78 27 81 28 79 29 80 30 89 31 90 32 94 33 91 34 93 35
REMARK SMILES IDX 92 36 9 37 10 38 11 39 12 41 13 42 14 43 72 44 15 45 71 46
REMARK SMILES IDX 16 47 17 48 18 49 65 50 19 51 70 52 64 53 66 54 20 55 69 56
REMARK SMILES IDX 63 57 62 58 21 60 51 61 32 62 50 63 33 64 36 65 49 66 67 67
REMARK SMILES IDX 34 68 35 69 48 71 68 72 37 73 22 74 23 75 31 76 24 77 30 78
REMARK SMILES IDX 25 79 26 80 27 81 28 82 29 83 52 84 53 85 61 86 54 87 60 88
REMARK SMILES IDX 55 89 56 90 57 91 58 92 59 93 38 94 39 95 47 96 40 97 46 98
REMARK SMILES IDX 41 99 42 100 43 101 44 102 45 103
REMARK H PARENT 5 7 73 13 73 14 10 40 66 59 36 70
REMARK Flexibility Score: inf
ROOT
ATOM      1  C   UNL     1       0.169   1.098   6.851  1.00  0.00     0.023 C 
ENDROOT
BRANCH   1   2
ATOM      2  C   UNL     1      -0.505   0.897   5.514  1.00  0.00     0.023 C 
BRANCH   2   3
ATOM      3  C   UNL     1       0.275   1.369   4.296  1.00  0.00     0.116 C 
BRANCH   3   4
ATOM      4  N   UNL     1       1.094   0.435   3.591  1.00  0.00    -0.351 N 
ATOM      5  C   UNL     1       1.242   0.222   2.250  1.00  0.00     0.281 C 
ATOM      6  O   UNL     1       2.072  -0.661   1.983  1.00  0.00    -0.268 OA
ATOM      7  H   UNL     1       1.639  -0.151   4.164  1.00  0.00     0.163 HD
BRANCH   5   8
ATOM      8  C   UNL     1       0.488   0.983   1.059  1.00  0.00     0.186 C 
ATOM      9  C   UNL     1       0.960   0.266  -0.235  1.00  0.00     0.091 C 
ATOM     10  N   UNL     1      -1.026   0.894   1.107  1.00  0.00    -0.314 N 
ATOM     11  C   UNL     1       0.670   2.460   0.860  1.00  0.00     0.170 C 
ATOM     12  C   UNL     1      -1.610   2.275   1.398  1.00  0.00     0.236 C 
ATOM     13  H   UNL     1      -1.305   0.245   1.842  1.00  0.00     0.348 HD
ATOM     14  H   UNL     1      -1.374   0.562   0.208  1.00  0.00     0.348 HD
ATOM     15  C   UNL     1      -0.402   3.130   1.696  1.00  0.00     0.177 C 
ATOM     16  C   UNL     1       1.866   3.263   1.207  1.00  0.00     0.244 C 
ATOM     17  C   UNL     1      -2.521   2.822   0.291  1.00  0.00     0.232 C 
ATOM     18  C   UNL     1      -2.635   2.073   2.539  1.00  0.00     0.232 C 
ATOM     19  C   UNL     1      -0.040   4.561   1.431  1.00  0.00     0.245 C 
ATOM     20  N   UNL     1       1.361   4.551   1.374  1.00  0.00    -0.250 N 
ATOM     21  O   UNL     1       3.012   2.851   1.260  1.00  0.00    -0.273 OA
ATOM     22  O   UNL     1      -2.218   2.991  -0.877  1.00  0.00    -0.286 OA
ATOM     23  C   UNL     1      -3.859   3.088   0.863  1.00  0.00     0.036 A 
ATOM     24  C   UNL     1      -3.892   2.674   2.181  1.00  0.00     0.036 A 
ATOM     25  O   UNL     1      -2.571   1.415   3.561  1.00  0.00    -0.286 OA
ATOM     26  O   UNL     1      -0.824   5.492   1.451  1.00  0.00    -0.273 OA
ATOM     27  C   UNL     1      -5.003   3.603   0.286  1.00  0.00     0.013 A 
ATOM     28  C   UNL     1      -5.018   2.737   2.986  1.00  0.00     0.013 A 
ATOM     29  C   UNL     1      -6.164   3.688   1.079  1.00  0.00     0.001 A 
ATOM     30  C   UNL     1      -6.171   3.260   2.420  1.00  0.00     0.001 A 
BRANCH  20  31
ATOM     31  C   UNL     1       2.212   5.634   1.659  1.00  0.00     0.052 A 
ATOM     32  C   UNL     1       3.296   5.912   0.816  1.00  0.00     0.027 A 
ATOM     33  C   UNL     1       2.090   6.322   2.871  1.00  0.00     0.027 A 
ATOM     34  C   UNL     1       4.242   6.875   1.173  1.00  0.00     0.002 A 
ATOM     35  C   UNL     1       3.071   7.244   3.251  1.00  0.00     0.002 A 
ATOM     36  C   UNL     1       4.140   7.526   2.400  1.00  0.00     0.000 A 
ENDBRANCH  20  31
ENDBRANCH   5   8
ENDBRANCH   3   4
ENDBRANCH   2   3
ENDBRANCH   1   2
BRANCH   1  37
ATOM     37  C   UNL     1       0.690   2.507   7.101  1.00  0.00     0.116 C 
BRANCH  37  38
ATOM     38  N   UNL     1      -0.327   3.563   7.132  1.00  0.00    -0.352 N 
ATOM     39  C   UNL     1      -0.671   4.428   8.157  1.00  0.00     0.251 C 
ATOM     40  H   UNL     1      -0.842   3.673   6.301  1.00  0.00     0.163 HD
ATOM     41  O   UNL     1      -1.571   5.249   8.009  1.00  0.00    -0.269 OA
BRANCH  39  42
ATOM     42  C   UNL     1       0.020   4.298   9.457  1.00  0.00     0.039 A 
ATOM     43  C   UNL     1       1.400   4.154   9.477  1.00  0.00     0.014 A 
ATOM     44  C   UNL     1      -0.724   4.127  10.627  1.00  0.00     0.014 A 
ATOM     45  C   UNL     1       1.979   3.503  10.553  1.00  0.00     0.010 A 
ATOM     46  C   UNL     1      -0.091   3.647  11.780  1.00  0.00     0.010 A 
ATOM     47  C   UNL     1       1.249   3.239  11.727  1.00  0.00    -0.014 A 
BRANCH  47  48
ATOM     48  C   UNL     1       1.936   2.533  12.849  1.00  0.00     0.031 A 
ATOM     49  C   UNL     1       1.413   1.231  13.412  1.00  0.00     0.074 A 
ATOM     50  C   UNL     1       3.116   3.023  13.285  1.00  0.00     0.049 A 
ATOM     51  N   UNL     1       1.951   0.465  14.331  1.00  0.00    -0.248 NA
ATOM     52  C   UNL     1       0.130   0.722  12.900  1.00  0.00     0.031 C 
ATOM     53  C   UNL     1       3.732   4.266  12.810  1.00  0.00     0.029 A 
ATOM     54  N   UNL     1       4.042   2.516  14.162  1.00  0.00    -0.354 N 
ATOM     55  C   UNL     1       1.064  -0.590  14.525  1.00  0.00     0.074 A 
ATOM     56  C   UNL     1      -0.063  -0.355  13.651  1.00  0.00     0.031 C 
ATOM     57  C   UNL     1       4.975   4.356  13.293  1.00  0.00     0.029 A 
ATOM     58  C   UNL     1       5.205   3.249  14.213  1.00  0.00     0.049 A 
ATOM     59  H   UNL     1       3.888   1.706  14.701  1.00  0.00     0.167 HD
ATOM     60  C   UNL     1       1.185  -1.661  15.348  1.00  0.00     0.031 A 
ATOM     61  C   UNL     1       6.336   3.072  14.923  1.00  0.00     0.031 A 
ATOM     62  C   UNL     1       2.329  -1.903  16.192  1.00  0.00     0.049 A 
ATOM     63  C   UNL     1       6.433   1.895  15.843  1.00  0.00     0.074 A 
ATOM     64  C   UNL     1       2.550  -2.970  17.047  1.00  0.00     0.029 A 
ATOM     65  N   UNL     1       3.445  -1.084  16.284  1.00  0.00    -0.354 N 
ATOM     66  N   UNL     1       5.573   0.920  16.019  1.00  0.00    -0.248 NA
ATOM     67  C   UNL     1       7.642   1.795  16.669  1.00  0.00     0.031 C 
ATOM     68  C   UNL     1       3.764  -2.762  17.704  1.00  0.00     0.029 A 
ATOM     69  C   UNL     1       4.341  -1.606  17.203  1.00  0.00     0.049 A 
ATOM     70  H   UNL     1       3.581  -0.255  15.770  1.00  0.00     0.167 HD
ATOM     71  C   UNL     1       6.134   0.094  16.984  1.00  0.00     0.074 A 
ATOM     72  C   UNL     1       7.425   0.660  17.320  1.00  0.00     0.031 C 
ATOM     73  C   UNL     1       5.615  -1.023  17.549  1.00  0.00     0.031 A 
BRANCH  60  74
ATOM     74  C   UNL     1       0.061  -2.670  15.396  1.00  0.00    -0.014 A 
ATOM     75  C   UNL     1      -0.677  -2.833  16.585  1.00  0.00     0.010 A 
ATOM     76  C   UNL     1      -0.177  -3.549  14.324  1.00  0.00     0.010 A 
ATOM     77  C   UNL     1      -1.602  -3.874  16.715  1.00  0.00     0.020 A 
ATOM     78  C   UNL     1      -1.124  -4.574  14.440  1.00  0.00     0.020 A 
ATOM     79  C   UNL     1      -1.811  -4.746  15.644  1.00  0.00     0.054 A 
BRANCH  79  80
ATOM     80  S   UNL     1      -2.987  -6.114  15.845  1.00  0.00     0.124 S 
ATOM     81  O   UNL     1      -2.249  -7.032  16.707  1.00  0.00    -0.237 OA
ATOM     82  O   UNL     1      -4.138  -5.457  16.460  1.00  0.00    -0.237 OA
ATOM     83  O   UNL     1      -3.206  -6.580  14.477  1.00  0.00    -0.744 OA
ENDBRANCH  79  80
ENDBRANCH  60  74
BRANCH  61  84
ATOM     84  C   UNL     1       7.448   4.052  14.768  1.00  0.00    -0.014 A 
ATOM     85  C   UNL     1       7.265   5.398  15.142  1.00  0.00     0.010 A 
ATOM     86  C   UNL     1       8.650   3.676  14.146  1.00  0.00     0.010 A 
ATOM     87  C   UNL     1       8.222   6.362  14.823  1.00  0.00     0.020 A 
ATOM     88  C   UNL     1       9.631   4.632  13.861  1.00  0.00     0.020 A 
ATOM     89  C   UNL     1       9.393   5.974  14.168  1.00  0.00     0.054 A 
BRANCH  89  90
ATOM     90  S   UNL     1      10.590   7.254  13.702  1.00  0.00     0.124 S 
ATOM     91  O   UNL     1       9.942   7.860  12.542  1.00  0.00    -0.237 OA
ATOM     92  O   UNL     1      10.647   8.089  14.899  1.00  0.00    -0.237 OA
ATOM     93  O   UNL     1      11.806   6.496  13.415  1.00  0.00    -0.744 OA
ENDBRANCH  89  90
ENDBRANCH  61  84
BRANCH  73  94
ATOM     94  C   UNL     1       6.429  -1.707  18.617  1.00  0.00    -0.014 A 
ATOM     95  C   UNL     1       6.951  -2.993  18.388  1.00  0.00     0.010 A 
ATOM     96  C   UNL     1       6.598  -1.114  19.881  1.00  0.00     0.010 A 
ATOM     97  C   UNL     1       7.606  -3.685  19.410  1.00  0.00     0.020 A 
ATOM     98  C   UNL     1       7.282  -1.788  20.895  1.00  0.00     0.020 A 
ATOM     99  C   UNL     1       7.762  -3.079  20.660  1.00  0.00     0.054 A 
BRANCH  99 100
ATOM    100  S   UNL     1       8.611  -3.993  21.976  1.00  0.00     0.124 S 
ATOM    101  O   UNL     1       7.585  -4.939  22.404  1.00  0.00    -0.237 OA
ATOM    102  O   UNL     1       9.754  -4.576  21.278  1.00  0.00    -0.237 OA
ATOM    103  O   UNL     1       8.949  -2.956  22.949  1.00  0.00    -0.744 OA
ENDBRANCH  99 100
ENDBRANCH  73  94
ENDBRANCH  47  48
ENDBRANCH  39  42
ENDBRANCH  37  38
ENDBRANCH   1  37
TORSDOF 15
