REMARK SMILES COC(=O)[C@@H]1CN(C(=O)NC(=O)CCCC(=O)NCCCCNC(=O)c2ccc(-c3c4nc(c(-c5ccc(S(=O)(=O)[O-])cc5)c5ccc([nH]5)c(-c5ccc(S(=O)(=O)[O-])cc5)c5nc(c(-c6ccc(S(=O)(=O)[O-])cc6)c6ccc3[nH]6)C=C5)C=C4)cc2)C[C@H]1C
REMARK SMILES IDX 19 1 18 2 16 3 17 4 15 6 14 7 13 8 11 9 8 10 9 11 10 12
REMARK SMILES IDX 12 14 7 15 5 16 6 17 87 18 86 19 88 20 3 21 4 22 2 23 1 24
REMARK SMILES IDX 20 25 21 26 22 27 23 28 24 29 25 31 26 32 27 33 85 34 28 35
REMARK SMILES IDX 84 36 29 37 30 38 31 39 78 40 32 41 83 42 77 43 79 44 33 45
REMARK SMILES IDX 82 46 76 47 75 48 34 50 64 51 45 52 63 53 46 54 49 55 62 56
REMARK SMILES IDX 80 57 47 58 48 59 61 61 81 62 50 63 35 64 36 65 44 66 37 67
REMARK SMILES IDX 43 68 38 69 39 70 40 71 41 72 42 73 65 74 66 75 74 76 67 77
REMARK SMILES IDX 73 78 68 79 69 80 70 81 71 82 72 83 51 84 52 85 60 86 53 87
REMARK SMILES IDX 59 88 54 89 55 90 56 91 57 92 58 93
REMARK H PARENT 18 5 10 13 23 30 79 49 49 60
REMARK Flexibility Score: inf
ROOT
ATOM      1  C   UNL     1       4.971   2.503   0.328  1.00  0.00     0.116 C 
ENDROOT
BRANCH   1   2
ATOM      2  N   UNL     1       3.547   3.330   0.350  1.00  0.00    -0.356 N 
ATOM      3  C   UNL     1       1.947   3.534   1.482  1.00  0.00     0.220 C 
ATOM      4  O   UNL     1       0.853   4.103   1.256  1.00  0.00    -0.275 OA
ATOM      5  H   UNL     1       3.473   3.899  -0.450  1.00  0.00     0.163 HD
BRANCH   3   6
ATOM      6  C   UNL     1       1.738   2.825   3.153  1.00  0.00     0.100 C 
BRANCH   6   7
ATOM      7  C   UNL     1       1.912   1.373   3.740  1.00  0.00     0.020 C 
BRANCH   7   8
ATOM      8  C   UNL     1       3.055   0.373   3.466  1.00  0.00     0.101 C 
BRANCH   8   9
ATOM      9  C   UNL     1       4.479   0.675   3.836  1.00  0.00     0.227 C 
ATOM     10  C   UNL     1       4.568   3.098   3.244  1.00  0.00     0.324 C 
ATOM     11  O   UNL     1       5.079   4.144   3.650  1.00  0.00    -0.248 OA
ATOM     12  N   UNL     1       4.948   1.946   3.832  1.00  0.00    -0.278 N 
ATOM     13  H   UNL     1       5.754   2.053   4.388  1.00  0.00     0.174 HD
ATOM     14  O   UNL     1       5.266  -0.241   4.089  1.00  0.00    -0.275 OA
BRANCH  10  15
ATOM     15  N   UNL     1       3.678   3.108   2.204  1.00  0.00    -0.323 N 
ATOM     16  C   UNL     1       1.892   2.883  -0.499  1.00  0.00     0.123 C 
ATOM     17  C   UNL     1       2.688   1.805   1.043  1.00  0.00     0.137 C 
ATOM     18  C   UNL     1       2.349   4.837  -0.162  1.00  0.00     0.021 C 
ATOM     19  C   UNL     1       3.456   4.904   1.512  1.00  0.00     0.125 C 
ATOM     20  C   UNL     1       3.091   5.560  -1.323  1.00  0.00     0.010 C 
BRANCH  16  21
ATOM     21  C   UNL     1       0.437   2.672  -0.904  1.00  0.00     0.310 C 
ATOM     22  O   UNL     1      -0.283   3.611  -1.235  1.00  0.00    -0.252 OA
BRANCH  21  23
ATOM     23  O   UNL     1       0.005   1.406  -1.117  1.00  0.00    -0.469 OA
ATOM     24  C   UNL     1       0.645   0.228  -0.627  1.00  0.00     0.282 C 
ENDBRANCH  21  23
ENDBRANCH  16  21
ENDBRANCH  10  15
ENDBRANCH   8   9
ENDBRANCH   7   8
ENDBRANCH   6   7
ENDBRANCH   3   6
ENDBRANCH   1   2
BRANCH   1  25
ATOM     25  C   UNL     1       5.003   1.517  -0.860  1.00  0.00     0.023 C 
BRANCH  25  26
ATOM     26  C   UNL     1       5.522   2.112  -2.144  1.00  0.00     0.023 C 
BRANCH  26  27
ATOM     27  C   UNL     1       6.940   2.618  -2.008  1.00  0.00     0.116 C 
BRANCH  27  28
ATOM     28  N   UNL     1       7.862   1.592  -1.521  1.00  0.00    -0.352 N 
ATOM     29  C   UNL     1       9.034   1.179  -2.113  1.00  0.00     0.251 C 
ATOM     30  H   UNL     1       7.618   1.148  -0.677  1.00  0.00     0.163 HD
ATOM     31  O   UNL     1       9.645   0.196  -1.720  1.00  0.00    -0.269 OA
BRANCH  29  32
ATOM     32  C   UNL     1       9.489   1.971  -3.265  1.00  0.00     0.039 A 
ATOM     33  C   UNL     1       9.579   1.364  -4.516  1.00  0.00     0.014 A 
ATOM     34  C   UNL     1       9.545   3.359  -3.116  1.00  0.00     0.014 A 
ATOM     35  C   UNL     1       9.645   2.175  -5.647  1.00  0.00     0.010 A 
ATOM     36  C   UNL     1       9.459   4.150  -4.246  1.00  0.00     0.010 A 
ATOM     37  C   UNL     1       9.530   3.570  -5.523  1.00  0.00    -0.014 A 
BRANCH  37  38
ATOM     38  C   UNL     1       9.519   4.465  -6.705  1.00  0.00     0.031 A 
ATOM     39  C   UNL     1      10.567   5.540  -6.807  1.00  0.00     0.074 A 
ATOM     40  C   UNL     1       8.540   4.370  -7.627  1.00  0.00     0.049 A 
ATOM     41  N   UNL     1      10.685   6.493  -7.692  1.00  0.00    -0.248 NA
ATOM     42  C   UNL     1      11.592   5.577  -5.748  1.00  0.00     0.031 C 
ATOM     43  C   UNL     1       7.440   3.401  -7.611  1.00  0.00     0.029 A 
ATOM     44  N   UNL     1       8.309   5.109  -8.761  1.00  0.00    -0.354 N 
ATOM     45  C   UNL     1      11.772   7.253  -7.277  1.00  0.00     0.074 A 
ATOM     46  C   UNL     1      12.230   6.701  -6.025  1.00  0.00     0.031 C 
ATOM     47  C   UNL     1       6.677   3.582  -8.702  1.00  0.00     0.029 A 
ATOM     48  C   UNL     1       7.198   4.710  -9.467  1.00  0.00     0.049 A 
ATOM     49  H   UNL     1       8.886   5.855  -9.043  1.00  0.00     0.167 HD
ATOM     50  C   UNL     1      12.360   8.300  -7.899  1.00  0.00     0.031 A 
ATOM     51  C   UNL     1       6.655   5.205 -10.597  1.00  0.00     0.031 A 
ATOM     52  C   UNL     1      11.913   8.827  -9.158  1.00  0.00     0.049 A 
ATOM     53  C   UNL     1       7.321   6.376 -11.270  1.00  0.00     0.074 A 
ATOM     54  C   UNL     1      12.475   9.842  -9.909  1.00  0.00     0.029 A 
ATOM     55  N   UNL     1      10.796   8.382  -9.849  1.00  0.00    -0.354 N 
ATOM     56  N   UNL     1       8.393   7.037 -10.902  1.00  0.00    -0.248 NA
ATOM     57  C   UNL     1       6.713   6.860 -12.517  1.00  0.00     0.031 C 
ATOM     58  C   UNL     1      11.657  10.059 -11.021  1.00  0.00     0.029 A 
ATOM     59  C   UNL     1      10.633   9.124 -11.005  1.00  0.00     0.049 A 
ATOM     60  H   UNL     1      10.207   7.648  -9.560  1.00  0.00     0.167 HD
ATOM     61  C   UNL     1       8.608   7.992 -11.890  1.00  0.00     0.074 A 
ATOM     62  C   UNL     1       7.561   7.815 -12.875  1.00  0.00     0.031 C 
ATOM     63  C   UNL     1       9.587   8.927 -11.977  1.00  0.00     0.031 A 
BRANCH  50  64
ATOM     64  C   UNL     1      13.540   8.941  -7.218  1.00  0.00    -0.014 A 
ATOM     65  C   UNL     1      14.755   8.251  -7.051  1.00  0.00     0.010 A 
ATOM     66  C   UNL     1      13.437  10.265  -6.755  1.00  0.00     0.010 A 
ATOM     67  C   UNL     1      15.828   8.856  -6.393  1.00  0.00     0.020 A 
ATOM     68  C   UNL     1      14.521  10.887  -6.131  1.00  0.00     0.020 A 
ATOM     69  C   UNL     1      15.704  10.172  -5.939  1.00  0.00     0.054 A 
BRANCH  69  70
ATOM     70  S   UNL     1      17.124  10.941  -5.115  1.00  0.00     0.124 S 
ATOM     71  O   UNL     1      17.166  10.216  -3.848  1.00  0.00    -0.237 OA
ATOM     72  O   UNL     1      18.219  10.656  -6.039  1.00  0.00    -0.237 OA
ATOM     73  O   UNL     1      16.747  12.349  -5.014  1.00  0.00    -0.744 OA
ENDBRANCH  69  70
ENDBRANCH  50  64
BRANCH  51  74
ATOM     74  C   UNL     1       5.425   4.587 -11.168  1.00  0.00    -0.014 A 
ATOM     75  C   UNL     1       5.474   3.877 -12.381  1.00  0.00     0.010 A 
ATOM     76  C   UNL     1       4.196   4.691 -10.489  1.00  0.00     0.010 A 
ATOM     77  C   UNL     1       4.317   3.298 -12.912  1.00  0.00     0.020 A 
ATOM     78  C   UNL     1       3.044   4.085 -11.000  1.00  0.00     0.020 A 
ATOM     79  C   UNL     1       3.110   3.400 -12.214  1.00  0.00     0.054 A 
BRANCH  79  80
ATOM     80  S   UNL     1       1.636   2.589 -12.894  1.00  0.00     0.124 S 
ATOM     81  O   UNL     1       1.343   3.416 -14.059  1.00  0.00    -0.237 OA
ATOM     82  O   UNL     1       2.125   1.242 -13.180  1.00  0.00    -0.237 OA
ATOM     83  O   UNL     1       0.667   2.673 -11.804  1.00  0.00    -0.744 OA
ENDBRANCH  79  80
ENDBRANCH  51  74
BRANCH  63  84
ATOM     84  C   UNL     1       9.614   9.801 -13.202  1.00  0.00    -0.014 A 
ATOM     85  C   UNL     1       8.649  10.800 -13.416  1.00  0.00     0.010 A 
ATOM     86  C   UNL     1      10.678   9.669 -14.114  1.00  0.00     0.010 A 
ATOM     87  C   UNL     1       8.735  11.635 -14.534  1.00  0.00     0.020 A 
ATOM     88  C   UNL     1      10.787  10.523 -15.213  1.00  0.00     0.020 A 
ATOM     89  C   UNL     1       9.806  11.494 -15.422  1.00  0.00     0.054 A 
BRANCH  89  90
ATOM     90  S   UNL     1       9.925  12.629 -16.831  1.00  0.00     0.124 S 
ATOM     91  O   UNL     1       8.823  12.180 -17.677  1.00  0.00    -0.237 OA
ATOM     92  O   UNL     1       9.745  13.935 -16.203  1.00  0.00    -0.237 OA
ATOM     93  O   UNL     1      11.262  12.379 -17.366  1.00  0.00    -0.744 OA
ENDBRANCH  89  90
ENDBRANCH  63  84
ENDBRANCH  37  38
ENDBRANCH  29  32
ENDBRANCH  27  28
ENDBRANCH  26  27
ENDBRANCH  25  26
ENDBRANCH   1  25
TORSDOF 20
