REMARK SMILES O=C(NCCCCNC(=O)c1ccccc1C[N@H+]1CCCC[C@@H]1CCn1cccn1)c1ccc(-c2c3nc(c(-c4ccc(S(=O)(=O)[O-])cc4)c4ccc([nH]4)c(-c4ccc(S(=O)(=O)[O-])cc4)c4nc(c(-c5ccc(S(=O)(=O)[O-])cc5)c5ccc2[nH]5)C=C4)C=C3)cc1
REMARK SMILES IDX 6 1 5 2 4 3 3 4 1 5 2 6 31 8 32 9 90 10 33 11 89 12 34 13
REMARK SMILES IDX 35 14 36 15 83 16 37 17 88 18 82 19 84 20 38 21 87 22 81 23
REMARK SMILES IDX 80 24 39 26 69 27 50 28 68 29 51 30 54 31 67 32 85 33 52 34
REMARK SMILES IDX 53 35 66 37 86 38 55 39 40 40 41 41 49 42 42 43 48 44 43 45
REMARK SMILES IDX 44 46 45 47 46 48 47 49 70 50 71 51 79 52 72 53 78 54 73 55
REMARK SMILES IDX 74 56 75 57 76 58 77 59 56 60 57 61 65 62 58 63 64 64 59 65
REMARK SMILES IDX 60 66 61 67 62 68 63 69 7 70 8 71 9 72 10 74 11 75 12 76
REMARK SMILES IDX 16 77 13 78 15 79 14 80 17 81 18 82 19 83 23 84 20 86 22 87
REMARK SMILES IDX 21 88 24 89 25 90 26 91 27 92 30 93 28 94 29 95
REMARK H PARENT 3 7 84 25 54 36 8 73 18 85
REMARK Flexibility Score: inf
ROOT
ATOM      1  C   UNL     1       4.444  -2.002   2.903  1.00  0.00     0.023 C 
ENDROOT
BRANCH   1   2
ATOM      2  C   UNL     1       4.901  -0.797   2.078  1.00  0.00     0.023 C 
BRANCH   2   3
ATOM      3  C   UNL     1       4.625  -0.853   0.574  1.00  0.00     0.116 C 
BRANCH   3   4
ATOM      4  N   UNL     1       3.236  -0.974   0.178  1.00  0.00    -0.352 N 
ATOM      5  O   UNL     1       1.206  -0.471  -0.550  1.00  0.00    -0.269 OA
ATOM      6  C   UNL     1       2.200  -0.085   0.070  1.00  0.00     0.251 C 
ATOM      7  H   UNL     1       2.983  -1.894  -0.064  1.00  0.00     0.163 HD
BRANCH   6   8
ATOM      8  C   UNL     1       2.164   1.248   0.728  1.00  0.00     0.039 A 
ATOM      9  C   UNL     1       3.278   1.972   1.153  1.00  0.00     0.014 A 
ATOM     10  C   UNL     1       0.883   1.784   0.957  1.00  0.00     0.014 A 
ATOM     11  C   UNL     1       3.117   3.129   1.909  1.00  0.00     0.010 A 
ATOM     12  C   UNL     1       0.716   2.956   1.685  1.00  0.00     0.010 A 
ATOM     13  C   UNL     1       1.835   3.606   2.197  1.00  0.00    -0.014 A 
BRANCH  13  14
ATOM     14  C   UNL     1       1.714   4.914   2.836  1.00  0.00     0.031 A 
ATOM     15  C   UNL     1       2.208   6.034   1.988  1.00  0.00     0.074 A 
ATOM     16  C   UNL     1       1.072   5.145   3.999  1.00  0.00     0.049 A 
ATOM     17  N   UNL     1       3.226   6.803   2.195  1.00  0.00    -0.248 NA
ATOM     18  C   UNL     1       1.576   6.220   0.670  1.00  0.00     0.031 C 
ATOM     19  C   UNL     1       0.290   4.195   4.791  1.00  0.00     0.029 A 
ATOM     20  N   UNL     1       0.887   6.323   4.665  1.00  0.00    -0.354 N 
ATOM     21  C   UNL     1       3.222   7.722   1.148  1.00  0.00     0.074 A 
ATOM     22  C   UNL     1       2.320   7.198   0.155  1.00  0.00     0.031 C 
ATOM     23  C   UNL     1      -0.468   4.875   5.682  1.00  0.00     0.029 A 
ATOM     24  C   UNL     1      -0.132   6.288   5.614  1.00  0.00     0.049 A 
ATOM     25  H   UNL     1       1.427   7.128   4.489  1.00  0.00     0.167 HD
ATOM     26  C   UNL     1       3.741   8.973   1.291  1.00  0.00     0.031 A 
ATOM     27  C   UNL     1      -0.702   7.347   6.248  1.00  0.00     0.031 A 
ATOM     28  C   UNL     1       4.604   9.068   2.440  1.00  0.00     0.049 A 
ATOM     29  C   UNL     1       0.239   8.487   6.143  1.00  0.00     0.074 A 
ATOM     30  C   UNL     1       5.747   8.419   2.863  1.00  0.00     0.029 A 
ATOM     31  N   UNL     1       4.099   9.705   3.548  1.00  0.00    -0.354 N 
ATOM     32  N   UNL     1       1.394   8.524   6.743  1.00  0.00    -0.248 NA
ATOM     33  C   UNL     1       0.084   9.408   5.029  1.00  0.00     0.031 C 
ATOM     34  C   UNL     1       5.604   8.305   4.277  1.00  0.00     0.029 A 
ATOM     35  C   UNL     1       4.421   8.950   4.642  1.00  0.00     0.049 A 
ATOM     36  H   UNL     1       3.595  10.551   3.553  1.00  0.00     0.167 HD
ATOM     37  C   UNL     1       2.245   9.126   5.829  1.00  0.00     0.074 A 
ATOM     38  C   UNL     1       1.363   9.741   4.840  1.00  0.00     0.031 C 
ATOM     39  C   UNL     1       3.579   8.832   5.813  1.00  0.00     0.031 A 
BRANCH  26  40
ATOM     40  C   UNL     1       3.110  10.201   0.668  1.00  0.00    -0.014 A 
ATOM     41  C   UNL     1       3.708  11.459   0.892  1.00  0.00     0.010 A 
ATOM     42  C   UNL     1       1.802  10.204   0.137  1.00  0.00     0.010 A 
ATOM     43  C   UNL     1       2.998  12.649   0.686  1.00  0.00     0.020 A 
ATOM     44  C   UNL     1       1.104  11.385  -0.117  1.00  0.00     0.020 A 
ATOM     45  C   UNL     1       1.693  12.601   0.197  1.00  0.00     0.054 A 
BRANCH  45  46
ATOM     46  S   UNL     1       0.745  14.133   0.037  1.00  0.00     0.124 S 
ATOM     47  O   UNL     1       0.583  14.529   1.432  1.00  0.00    -0.237 OA
ATOM     48  O   UNL     1       1.640  14.966  -0.761  1.00  0.00    -0.237 OA
ATOM     49  O   UNL     1      -0.476  13.708  -0.643  1.00  0.00    -0.744 OA
ENDBRANCH  45  46
ENDBRANCH  26  40
BRANCH  27  50
ATOM     50  C   UNL     1      -2.116   7.531   6.671  1.00  0.00    -0.014 A 
ATOM     51  C   UNL     1      -2.497   8.609   7.496  1.00  0.00     0.010 A 
ATOM     52  C   UNL     1      -3.143   6.815   6.023  1.00  0.00     0.010 A 
ATOM     53  C   UNL     1      -3.845   8.998   7.611  1.00  0.00     0.020 A 
ATOM     54  C   UNL     1      -4.487   7.191   6.139  1.00  0.00     0.020 A 
ATOM     55  C   UNL     1      -4.830   8.297   6.912  1.00  0.00     0.054 A 
BRANCH  55  56
ATOM     56  S   UNL     1      -6.542   8.914   6.908  1.00  0.00     0.124 S 
ATOM     57  O   UNL     1      -6.982   8.623   8.269  1.00  0.00    -0.237 OA
ATOM     58  O   UNL     1      -6.372  10.328   6.587  1.00  0.00    -0.237 OA
ATOM     59  O   UNL     1      -7.191   8.120   5.865  1.00  0.00    -0.744 OA
ENDBRANCH  55  56
ENDBRANCH  27  50
BRANCH  39  60
ATOM     60  C   UNL     1       4.182   8.129   7.005  1.00  0.00    -0.014 A 
ATOM     61  C   UNL     1       3.771   6.867   7.474  1.00  0.00     0.010 A 
ATOM     62  C   UNL     1       5.310   8.728   7.594  1.00  0.00     0.010 A 
ATOM     63  C   UNL     1       4.454   6.238   8.527  1.00  0.00     0.020 A 
ATOM     64  C   UNL     1       6.007   8.099   8.626  1.00  0.00     0.020 A 
ATOM     65  C   UNL     1       5.569   6.862   9.096  1.00  0.00     0.054 A 
BRANCH  65  66
ATOM     66  S   UNL     1       6.473   6.033  10.433  1.00  0.00     0.124 S 
ATOM     67  O   UNL     1       5.516   6.070  11.535  1.00  0.00    -0.237 OA
ATOM     68  O   UNL     1       6.738   4.709   9.873  1.00  0.00    -0.237 OA
ATOM     69  O   UNL     1       7.662   6.865  10.618  1.00  0.00    -0.744 OA
ENDBRANCH  65  66
ENDBRANCH  39  60
ENDBRANCH  13  14
ENDBRANCH   6   8
ENDBRANCH   3   4
ENDBRANCH   2   3
ENDBRANCH   1   2
BRANCH   1  70
ATOM     70  C   UNL     1       4.901  -3.360   2.391  1.00  0.00     0.116 C 
BRANCH  70  71
ATOM     71  N   UNL     1       6.343  -3.484   2.259  1.00  0.00    -0.352 N 
ATOM     72  C   UNL     1       7.152  -4.586   2.404  1.00  0.00     0.251 C 
ATOM     73  H   UNL     1       6.813  -2.650   2.030  1.00  0.00     0.163 HD
ATOM     74  O   UNL     1       8.357  -4.487   2.226  1.00  0.00    -0.269 OA
BRANCH  72  75
ATOM     75  C   UNL     1       6.593  -5.893   2.828  1.00  0.00     0.048 A 
ATOM     76  C   UNL     1       7.156  -6.429   4.003  1.00  0.00     0.014 A 
ATOM     77  C   UNL     1       5.616  -6.606   2.107  1.00  0.00     0.019 A 
ATOM     78  C   UNL     1       6.716  -7.647   4.513  1.00  0.00     0.001 A 
ATOM     79  C   UNL     1       5.156  -7.801   2.686  1.00  0.00     0.010 A 
ATOM     80  C   UNL     1       5.700  -8.326   3.860  1.00  0.00     0.001 A 
BRANCH  77  81
ATOM     81  C   UNL     1       5.029  -6.089   0.805  1.00  0.00     0.300 C 
BRANCH  81  82
ATOM     82  N   UNL     1       4.990  -6.963  -0.382  1.00  0.00    -0.329 N 
ATOM     83  C   UNL     1       6.356  -7.332  -0.783  1.00  0.00     0.262 C 
ATOM     84  C   UNL     1       4.030  -8.088  -0.394  1.00  0.00     0.186 C 
ATOM     85  H   UNL     1       4.568  -6.383  -1.107  1.00  0.00     0.348 HD
ATOM     86  C   UNL     1       6.386  -7.994  -2.155  1.00  0.00     0.062 C 
ATOM     87  C   UNL     1       4.044  -8.762  -1.785  1.00  0.00     0.065 C 
ATOM     88  C   UNL     1       5.451  -9.190  -2.190  1.00  0.00     0.012 C 
BRANCH  84  89
ATOM     89  C   UNL     1       2.584  -7.632  -0.050  1.00  0.00     0.088 C 
BRANCH  89  90
ATOM     90  C   UNL     1       1.582  -8.760   0.221  1.00  0.00     0.150 C 
BRANCH  90  91
ATOM     91  N   UNL     1       1.864  -9.511   1.432  1.00  0.00    -0.273 N 
ATOM     92  C   UNL     1       1.803  -9.050   2.719  1.00  0.00     0.108 A 
ATOM     93  N   UNL     1       2.226 -10.805   1.353  1.00  0.00    -0.182 NA
ATOM     94  C   UNL     1       2.171 -10.105   3.521  1.00  0.00     0.042 A 
ATOM     95  C   UNL     1       2.400 -11.165   2.627  1.00  0.00     0.135 A 
ENDBRANCH  90  91
ENDBRANCH  89  90
ENDBRANCH  84  89
ENDBRANCH  81  82
ENDBRANCH  77  81
ENDBRANCH  72  75
ENDBRANCH  70  71
ENDBRANCH   1  70
TORSDOF 19
