REMARK SMILES Cc1ccc(-c2nn(CCC(=O)NCCCCNC(=O)c3ccc(-c4c5nc(c(-c6ccc(S(=O)(=O)[O-])cc6)c6ccc([nH]6)c(-c6ccc(S(=O)(=O)[O-])cc6)c6nc(c(-c7ccc(S(=O)(=O)[O-])cc7)c7ccc4[nH]7)C=C6)C=C5)cc3)c(=O)c3noc(C)c23)cc1C
REMARK SMILES IDX 15 1 14 2 13 3 11 4 12 5 10 7 9 8 8 9 6 10 7 11 88 12 83 13
REMARK SMILES IDX 86 14 81 15 84 16 85 17 87 18 82 19 5 20 1 21 2 22 3 23
REMARK SMILES IDX 90 24 4 25 89 26 91 27 16 28 17 29 18 30 19 31 20 33 21 34
REMARK SMILES IDX 22 35 80 36 23 37 79 38 24 39 25 40 26 41 73 42 27 43 78 44
REMARK SMILES IDX 72 45 74 46 28 47 77 48 71 49 70 50 29 52 59 53 40 54 58 55
REMARK SMILES IDX 41 56 44 57 57 58 75 59 42 60 43 61 56 63 76 64 45 65 30 66
REMARK SMILES IDX 31 67 39 68 32 69 38 70 33 71 34 72 35 73 36 74 37 75 60 76
REMARK SMILES IDX 61 77 69 78 62 79 68 80 63 81 64 82 65 83 66 84 67 85 46 86
REMARK SMILES IDX 47 87 55 88 48 89 54 90 49 91 50 92 51 93 52 94 53 95
REMARK H PARENT 13 6 18 32 74 51 44 62
REMARK Flexibility Score: inf
ROOT
ATOM      1  C   UNL     1      -5.436  -4.608   0.922  1.00  0.00     0.023 C 
ENDROOT
BRANCH   1   2
ATOM      2  C   UNL     1      -5.235  -5.102  -0.508  1.00  0.00     0.116 C 
BRANCH   2   3
ATOM      3  N   UNL     1      -6.462  -4.959  -1.271  1.00  0.00    -0.356 N 
ATOM      4  C   UNL     1      -6.813  -4.034  -2.207  1.00  0.00     0.221 C 
ATOM      5  O   UNL     1      -7.976  -4.022  -2.615  1.00  0.00    -0.275 OA
ATOM      6  H   UNL     1      -7.150  -5.638  -1.081  1.00  0.00     0.163 HD
BRANCH   4   7
ATOM      7  C   UNL     1      -5.794  -3.068  -2.774  1.00  0.00     0.124 C 
BRANCH   7   8
ATOM      8  C   UNL     1      -5.910  -1.668  -2.179  1.00  0.00     0.158 C 
BRANCH   8   9
ATOM      9  N   UNL     1      -5.094  -1.475  -0.979  1.00  0.00    -0.227 N 
ATOM     10  C   UNL     1      -2.910  -1.099  -0.178  1.00  0.00     0.104 A 
ATOM     11  N   UNL     1      -3.717  -1.226  -1.197  1.00  0.00    -0.169 NA
ATOM     12  C   UNL     1      -3.405  -1.319   1.149  1.00  0.00     0.078 A 
ATOM     13  C   UNL     1      -4.784  -1.373   1.382  1.00  0.00     0.183 A 
ATOM     14  C   UNL     1      -2.829  -1.550   2.373  1.00  0.00     0.143 A 
ATOM     15  C   UNL     1      -5.734  -1.383   0.284  1.00  0.00     0.296 A 
ATOM     16  N   UNL     1      -5.063  -1.533   2.680  1.00  0.00    -0.074 NA
ATOM     17  O   UNL     1      -3.826  -1.657   3.302  1.00  0.00    -0.360 OA
ATOM     18  C   UNL     1      -1.455  -1.753   2.873  1.00  0.00     0.091 C 
ATOM     19  O   UNL     1      -6.949  -1.380   0.438  1.00  0.00    -0.265 OA
BRANCH  10  20
ATOM     20  C   UNL     1      -1.572  -0.505  -0.323  1.00  0.00     0.003 A 
ATOM     21  C   UNL     1       2.186   1.566   0.008  1.00  0.00     0.044 C 
ATOM     22  C   UNL     1       0.895   0.808  -0.150  1.00  0.00    -0.048 A 
ATOM     23  C   UNL     1      -0.300   1.541  -0.216  1.00  0.00     0.004 A 
ATOM     24  C   UNL     1       0.849  -0.604  -0.208  1.00  0.00    -0.048 A 
ATOM     25  C   UNL     1      -1.526   0.891  -0.300  1.00  0.00     0.011 A 
ATOM     26  C   UNL     1      -0.398  -1.256  -0.303  1.00  0.00     0.014 A 
ATOM     27  C   UNL     1       2.085  -1.459  -0.097  1.00  0.00     0.044 C 
ENDBRANCH  10  20
ENDBRANCH   8   9
ENDBRANCH   7   8
ENDBRANCH   4   7
ENDBRANCH   2   3
ENDBRANCH   1   2
BRANCH   1  28
ATOM     28  C   UNL     1      -5.577  -5.676   2.009  1.00  0.00     0.023 C 
BRANCH  28  29
ATOM     29  C   UNL     1      -4.306  -6.476   2.320  1.00  0.00     0.116 C 
BRANCH  29  30
ATOM     30  N   UNL     1      -3.169  -5.621   2.628  1.00  0.00    -0.352 N 
ATOM     31  C   UNL     1      -2.217  -5.686   3.609  1.00  0.00     0.251 C 
ATOM     32  H   UNL     1      -3.066  -4.855   2.018  1.00  0.00     0.163 HD
ATOM     33  O   UNL     1      -1.418  -4.757   3.712  1.00  0.00    -0.269 OA
BRANCH  31  34
ATOM     34  C   UNL     1      -2.125  -6.822   4.545  1.00  0.00     0.039 A 
ATOM     35  C   UNL     1      -1.833  -6.536   5.885  1.00  0.00     0.014 A 
ATOM     36  C   UNL     1      -2.217  -8.149   4.117  1.00  0.00     0.014 A 
ATOM     37  C   UNL     1      -1.696  -7.571   6.805  1.00  0.00     0.010 A 
ATOM     38  C   UNL     1      -2.090  -9.185   5.043  1.00  0.00     0.010 A 
ATOM     39  C   UNL     1      -1.854  -8.900   6.394  1.00  0.00    -0.014 A 
BRANCH  39  40
ATOM     40  C   UNL     1      -1.901  -9.934   7.446  1.00  0.00     0.031 A 
ATOM     41  C   UNL     1      -3.087 -10.848   7.364  1.00  0.00     0.074 A 
ATOM     42  C   UNL     1      -0.770 -10.402   8.018  1.00  0.00     0.049 A 
ATOM     43  N   UNL     1      -3.161 -11.844   6.527  1.00  0.00    -0.248 NA
ATOM     44  C   UNL     1      -4.362 -10.529   8.008  1.00  0.00     0.031 C 
ATOM     45  C   UNL     1       0.477 -10.635   7.278  1.00  0.00     0.029 A 
ATOM     46  N   UNL     1      -0.557 -10.997   9.239  1.00  0.00    -0.354 N 
ATOM     47  C   UNL     1      -4.478 -12.277   6.510  1.00  0.00     0.074 A 
ATOM     48  C   UNL     1      -5.186 -11.426   7.441  1.00  0.00     0.031 C 
ATOM     49  C   UNL     1       1.250 -11.479   7.992  1.00  0.00     0.029 A 
ATOM     50  C   UNL     1       0.628 -11.728   9.290  1.00  0.00     0.049 A 
ATOM     51  H   UNL     1      -1.178 -10.915   9.998  1.00  0.00     0.167 HD
ATOM     52  C   UNL     1      -4.904 -13.315   5.741  1.00  0.00     0.031 A 
ATOM     53  C   UNL     1       0.808 -12.840  10.057  1.00  0.00     0.031 A 
ATOM     54  C   UNL     1      -3.876 -13.975   4.990  1.00  0.00     0.049 A 
ATOM     55  C   UNL     1       0.058 -13.857   9.229  1.00  0.00     0.074 A 
ATOM     56  C   UNL     1      -3.372 -13.966   3.709  1.00  0.00     0.029 A 
ATOM     57  N   UNL     1      -3.081 -14.872   5.663  1.00  0.00    -0.354 N 
ATOM     58  N   UNL     1       0.485 -14.428   8.135  1.00  0.00    -0.248 NA
ATOM     59  C   UNL     1      -1.391 -13.942   9.433  1.00  0.00     0.031 C 
ATOM     60  C   UNL     1      -2.042 -14.488   3.820  1.00  0.00     0.029 A 
ATOM     61  C   UNL     1      -1.810 -14.743   5.171  1.00  0.00     0.049 A 
ATOM     62  H   UNL     1      -3.373 -15.493   6.370  1.00  0.00     0.167 HD
ATOM     63  C   UNL     1      -0.657 -14.649   7.362  1.00  0.00     0.074 A 
ATOM     64  C   UNL     1      -1.778 -14.352   8.233  1.00  0.00     0.031 C 
ATOM     65  C   UNL     1      -0.636 -14.864   6.012  1.00  0.00     0.031 A 
BRANCH  52  66
ATOM     66  C   UNL     1      -6.259 -13.919   5.788  1.00  0.00    -0.014 A 
ATOM     67  C   UNL     1      -6.404 -15.120   6.505  1.00  0.00     0.010 A 
ATOM     68  C   UNL     1      -7.312 -13.478   4.973  1.00  0.00     0.010 A 
ATOM     69  C   UNL     1      -7.546 -15.905   6.364  1.00  0.00     0.020 A 
ATOM     70  C   UNL     1      -8.473 -14.258   4.841  1.00  0.00     0.020 A 
ATOM     71  C   UNL     1      -8.568 -15.479   5.517  1.00  0.00     0.054 A 
BRANCH  71  72
ATOM     72  S   UNL     1      -9.986 -16.586   5.280  1.00  0.00     0.124 S 
ATOM     73  O   UNL     1      -9.363 -17.762   4.678  1.00  0.00    -0.237 OA
ATOM     74  O   UNL     1     -10.472 -16.762   6.646  1.00  0.00    -0.237 OA
ATOM     75  O   UNL     1     -10.871 -15.830   4.398  1.00  0.00    -0.744 OA
ENDBRANCH  71  72
ENDBRANCH  52  66
BRANCH  53  76
ATOM     76  C   UNL     1       0.574 -12.639  11.527  1.00  0.00    -0.014 A 
ATOM     77  C   UNL     1       1.216 -11.540  12.142  1.00  0.00     0.010 A 
ATOM     78  C   UNL     1      -0.270 -13.426  12.328  1.00  0.00     0.010 A 
ATOM     79  C   UNL     1       0.885 -11.132  13.436  1.00  0.00     0.020 A 
ATOM     80  C   UNL     1      -0.628 -13.011  13.621  1.00  0.00     0.020 A 
ATOM     81  C   UNL     1      -0.081 -11.840  14.146  1.00  0.00     0.054 A 
BRANCH  81  82
ATOM     82  S   UNL     1      -0.675 -11.145  15.711  1.00  0.00     0.124 S 
ATOM     83  O   UNL     1       0.535 -11.126  16.527  1.00  0.00    -0.237 OA
ATOM     84  O   UNL     1      -1.174  -9.837  15.291  1.00  0.00    -0.237 OA
ATOM     85  O   UNL     1      -1.704 -12.090  16.139  1.00  0.00    -0.744 OA
ENDBRANCH  81  82
ENDBRANCH  53  76
BRANCH  65  86
ATOM     86  C   UNL     1       0.711 -15.009   5.373  1.00  0.00    -0.014 A 
ATOM     87  C   UNL     1       1.518 -16.118   5.666  1.00  0.00     0.010 A 
ATOM     88  C   UNL     1       1.154 -14.080   4.410  1.00  0.00     0.010 A 
ATOM     89  C   UNL     1       2.715 -16.326   4.978  1.00  0.00     0.020 A 
ATOM     90  C   UNL     1       2.341 -14.293   3.703  1.00  0.00     0.020 A 
ATOM     91  C   UNL     1       3.108 -15.424   3.984  1.00  0.00     0.054 A 
BRANCH  91  92
ATOM     92  S   UNL     1       4.604 -15.787   3.028  1.00  0.00     0.124 S 
ATOM     93  O   UNL     1       5.654 -15.697   4.038  1.00  0.00    -0.237 OA
ATOM     94  O   UNL     1       4.335 -17.130   2.518  1.00  0.00    -0.237 OA
ATOM     95  O   UNL     1       4.632 -14.739   2.009  1.00  0.00    -0.744 OA
ENDBRANCH  91  92
ENDBRANCH  65  86
ENDBRANCH  39  40
ENDBRANCH  31  34
ENDBRANCH  29  30
ENDBRANCH  28  29
ENDBRANCH   1  28
TORSDOF 17
