REMARK SMILES CN1C(=O)C[C@@H](C(=O)NCCCCNC(=O)c2ccc(-c3c4nc(c(-c5ccc(S(=O)(=O)[O-])cc5)c5ccc([nH]5)c(-c5ccc(S(=O)(=O)[O-])cc5)c5nc(c(-c6ccc(S(=O)(=O)[O-])cc6)c6ccc3[nH]6)C=C5)C=C4)cc2)C12CCN(C(=O)c1cccc3ccccc13)CC2
REMARK SMILES IDX 12 1 11 2 10 3 9 4 7 5 8 6 6 8 1 9 2 10 3 11 77 12 4 13 5 14
REMARK SMILES IDX 78 15 94 16 79 17 93 18 80 19 81 20 82 21 83 22 84 23 92 24
REMARK SMILES IDX 85 25 87 26 91 27 86 28 88 29 90 30 89 31 13 32 14 33 15 34
REMARK SMILES IDX 16 36 17 37 18 38 76 39 19 40 75 41 20 42 21 43 22 44 69 45
REMARK SMILES IDX 23 46 74 47 68 48 70 49 24 50 73 51 67 52 66 53 25 55 55 56
REMARK SMILES IDX 36 57 54 58 37 59 40 60 53 61 71 62 38 63 39 64 52 66 72 67
REMARK SMILES IDX 41 68 26 69 27 70 35 71 28 72 34 73 29 74 30 75 31 76 32 77
REMARK SMILES IDX 33 78 56 79 57 80 65 81 58 82 64 83 59 84 60 85 61 86 62 87
REMARK SMILES IDX 63 88 42 89 43 90 51 91 44 92 50 93 45 94 46 95 47 96 48 97
REMARK SMILES IDX 49 98
REMARK H PARENT 9 7 14 35 70 54 40 65
REMARK Flexibility Score: inf
ROOT
ATOM      1  C   UNL     1       0.188  -0.259  -5.210  1.00  0.00     0.023 C 
ENDROOT
BRANCH   1   2
ATOM      2  C   UNL     1       0.284  -0.281  -3.692  1.00  0.00     0.023 C 
BRANCH   2   3
ATOM      3  C   UNL     1      -0.942  -0.880  -2.988  1.00  0.00     0.116 C 
BRANCH   3   4
ATOM      4  N   UNL     1      -1.149  -2.303  -3.213  1.00  0.00    -0.356 N 
ATOM      5  C   UNL     1      -1.131  -3.388  -2.395  1.00  0.00     0.226 C 
ATOM      6  O   UNL     1      -1.454  -4.466  -2.909  1.00  0.00    -0.275 OA
ATOM      7  H   UNL     1      -1.342  -2.525  -4.153  1.00  0.00     0.163 HD
BRANCH   5   8
ATOM      8  C   UNL     1      -0.710  -3.384  -0.919  1.00  0.00     0.113 C 
ATOM      9  C   UNL     1       1.325  -0.417   0.102  1.00  0.00     0.147 C 
ATOM     10  N   UNL     1       0.378  -1.504  -0.057  1.00  0.00    -0.339 N 
ATOM     11  C   UNL     1      -0.953  -1.359   0.326  1.00  0.00     0.223 C 
ATOM     12  C   UNL     1       0.699  -2.844  -0.575  1.00  0.00     0.058 C 
ATOM     13  O   UNL     1      -1.459  -0.377   0.835  1.00  0.00    -0.275 OA
ATOM     14  C   UNL     1      -1.694  -2.612  -0.044  1.00  0.00     0.116 C 
ATOM     15  C   UNL     1       1.653  -2.882  -1.782  1.00  0.00     0.051 C 
ATOM     16  C   UNL     1       1.386  -3.633   0.579  1.00  0.00     0.051 C 
ATOM     17  C   UNL     1       2.027  -4.305  -2.190  1.00  0.00     0.122 C 
ATOM     18  C   UNL     1       1.991  -4.976   0.153  1.00  0.00     0.122 C 
ATOM     19  N   UNL     1       2.760  -4.873  -1.088  1.00  0.00    -0.338 N 
ATOM     20  C   UNL     1       4.104  -5.227  -1.118  1.00  0.00     0.254 C 
ATOM     21  O   UNL     1       4.722  -5.503  -0.088  1.00  0.00    -0.269 OA
BRANCH  20  22
ATOM     22  C   UNL     1       4.835  -5.450  -2.401  1.00  0.00     0.047 A 
ATOM     23  C   UNL     1       5.161  -6.802  -2.614  1.00  0.00     0.014 A 
ATOM     24  C   UNL     1       5.395  -4.434  -3.235  1.00  0.00    -0.006 A 
ATOM     25  C   UNL     1       6.097  -7.163  -3.575  1.00  0.00     0.001 A 
ATOM     26  C   UNL     1       6.390  -4.826  -4.171  1.00  0.00    -0.018 A 
ATOM     27  C   UNL     1       5.040  -3.063  -3.235  1.00  0.00     0.009 A 
ATOM     28  C   UNL     1       6.741  -6.175  -4.311  1.00  0.00     0.009 A 
ATOM     29  C   UNL     1       7.030  -3.871  -4.979  1.00  0.00     0.009 A 
ATOM     30  C   UNL     1       5.595  -2.146  -4.136  1.00  0.00     0.001 A 
ATOM     31  C   UNL     1       6.617  -2.543  -4.983  1.00  0.00     0.001 A 
ENDBRANCH  20  22
ENDBRANCH   5   8
ENDBRANCH   3   4
ENDBRANCH   2   3
ENDBRANCH   1   2
BRANCH   1  32
ATOM     32  C   UNL     1      -0.993   0.551  -5.710  1.00  0.00     0.116 C 
BRANCH  32  33
ATOM     33  N   UNL     1      -1.000   1.906  -5.162  1.00  0.00    -0.352 N 
ATOM     34  C   UNL     1      -1.089   3.097  -5.838  1.00  0.00     0.251 C 
ATOM     35  H   UNL     1      -0.932   1.972  -4.182  1.00  0.00     0.163 HD
ATOM     36  O   UNL     1      -0.870   4.161  -5.273  1.00  0.00    -0.269 OA
BRANCH  34  37
ATOM     37  C   UNL     1      -1.435   3.045  -7.266  1.00  0.00     0.039 A 
ATOM     38  C   UNL     1      -0.638   3.716  -8.191  1.00  0.00     0.014 A 
ATOM     39  C   UNL     1      -2.488   2.223  -7.678  1.00  0.00     0.014 A 
ATOM     40  C   UNL     1      -0.858   3.501  -9.550  1.00  0.00     0.010 A 
ATOM     41  C   UNL     1      -2.626   1.924  -9.021  1.00  0.00     0.010 A 
ATOM     42  C   UNL     1      -1.822   2.569  -9.971  1.00  0.00    -0.014 A 
BRANCH  42  43
ATOM     43  C   UNL     1      -2.034   2.259 -11.404  1.00  0.00     0.031 A 
ATOM     44  C   UNL     1      -3.380   2.520 -12.021  1.00  0.00     0.074 A 
ATOM     45  C   UNL     1      -1.053   1.670 -12.116  1.00  0.00     0.049 A 
ATOM     46  N   UNL     1      -3.804   2.230 -13.222  1.00  0.00    -0.248 NA
ATOM     47  C   UNL     1      -4.394   3.160 -11.164  1.00  0.00     0.031 C 
ATOM     48  C   UNL     1       0.280   1.329 -11.609  1.00  0.00     0.029 A 
ATOM     49  N   UNL     1      -1.029   1.245 -13.419  1.00  0.00    -0.354 N 
ATOM     50  C   UNL     1      -5.135   2.629 -13.255  1.00  0.00     0.074 A 
ATOM     51  C   UNL     1      -5.467   3.122 -11.938  1.00  0.00     0.031 C 
ATOM     52  C   UNL     1       0.999   0.778 -12.600  1.00  0.00     0.029 A 
ATOM     53  C   UNL     1       0.167   0.678 -13.794  1.00  0.00     0.049 A 
ATOM     54  H   UNL     1      -1.796   1.338 -14.030  1.00  0.00     0.167 HD
ATOM     55  C   UNL     1      -5.997   2.611 -14.297  1.00  0.00     0.031 A 
ATOM     56  C   UNL     1       0.544   0.129 -14.965  1.00  0.00     0.031 A 
ATOM     57  C   UNL     1      -5.651   2.134 -15.608  1.00  0.00     0.049 A 
ATOM     58  C   UNL     1      -0.438   0.102 -16.105  1.00  0.00     0.074 A 
ATOM     59  C   UNL     1      -6.430   2.126 -16.750  1.00  0.00     0.029 A 
ATOM     60  N   UNL     1      -4.427   1.579 -15.950  1.00  0.00    -0.354 N 
ATOM     61  N   UNL     1      -1.671   0.549 -16.139  1.00  0.00    -0.248 NA
ATOM     62  C   UNL     1       0.023  -0.494 -17.366  1.00  0.00     0.031 C 
ATOM     63  C   UNL     1      -5.698   1.508 -17.768  1.00  0.00     0.029 A 
ATOM     64  C   UNL     1      -4.438   1.198 -17.279  1.00  0.00     0.049 A 
ATOM     65  H   UNL     1      -3.664   1.472 -15.337  1.00  0.00     0.167 HD
ATOM     66  C   UNL     1      -2.122   0.318 -17.434  1.00  0.00     0.074 A 
ATOM     67  C   UNL     1      -1.026  -0.298 -18.154  1.00  0.00     0.031 C 
ATOM     68  C   UNL     1      -3.333   0.594 -17.979  1.00  0.00     0.031 A 
BRANCH  55  69
ATOM     69  C   UNL     1      -7.394   3.118 -14.056  1.00  0.00    -0.014 A 
ATOM     70  C   UNL     1      -7.641   4.479 -13.794  1.00  0.00     0.010 A 
ATOM     71  C   UNL     1      -8.480   2.228 -14.129  1.00  0.00     0.010 A 
ATOM     72  C   UNL     1      -8.943   4.930 -13.567  1.00  0.00     0.020 A 
ATOM     73  C   UNL     1      -9.788   2.682 -13.936  1.00  0.00     0.020 A 
ATOM     74  C   UNL     1     -10.009   4.028 -13.640  1.00  0.00     0.054 A 
BRANCH  74  75
ATOM     75  S   UNL     1     -11.690   4.651 -13.371  1.00  0.00     0.124 S 
ATOM     76  O   UNL     1     -11.681   4.933 -11.938  1.00  0.00    -0.237 OA
ATOM     77  O   UNL     1     -11.739   5.822 -14.241  1.00  0.00    -0.237 OA
ATOM     78  O   UNL     1     -12.543   3.537 -13.780  1.00  0.00    -0.744 OA
ENDBRANCH  74  75
ENDBRANCH  55  69
BRANCH  56  79
ATOM     79  C   UNL     1       1.916  -0.430 -15.119  1.00  0.00    -0.014 A 
ATOM     80  C   UNL     1       2.854   0.197 -15.957  1.00  0.00     0.010 A 
ATOM     81  C   UNL     1       2.297  -1.589 -14.417  1.00  0.00     0.010 A 
ATOM     82  C   UNL     1       4.140  -0.333 -16.106  1.00  0.00     0.020 A 
ATOM     83  C   UNL     1       3.590  -2.105 -14.538  1.00  0.00     0.020 A 
ATOM     84  C   UNL     1       4.500  -1.479 -15.392  1.00  0.00     0.054 A 
BRANCH  84  85
ATOM     85  S   UNL     1       6.189  -2.121 -15.564  1.00  0.00     0.124 S 
ATOM     86  O   UNL     1       6.170  -2.666 -16.918  1.00  0.00    -0.237 OA
ATOM     87  O   UNL     1       7.001  -0.922 -15.374  1.00  0.00    -0.237 OA
ATOM     88  O   UNL     1       6.290  -3.109 -14.492  1.00  0.00    -0.744 OA
ENDBRANCH  84  85
ENDBRANCH  56  79
BRANCH  68  89
ATOM     89  C   UNL     1      -3.532   0.276 -19.437  1.00  0.00    -0.014 A 
ATOM     90  C   UNL     1      -3.659  -1.049 -19.887  1.00  0.00     0.010 A 
ATOM     91  C   UNL     1      -3.686   1.332 -20.356  1.00  0.00     0.010 A 
ATOM     92  C   UNL     1      -3.918  -1.313 -21.234  1.00  0.00     0.020 A 
ATOM     93  C   UNL     1      -3.977   1.073 -21.696  1.00  0.00     0.020 A 
ATOM     94  C   UNL     1      -4.083  -0.250 -22.129  1.00  0.00     0.054 A 
BRANCH  94  95
ATOM     95  S   UNL     1      -4.493  -0.621 -23.856  1.00  0.00     0.124 S 
ATOM     96  O   UNL     1      -3.237  -1.175 -24.354  1.00  0.00    -0.237 OA
ATOM     97  O   UNL     1      -5.593  -1.574 -23.725  1.00  0.00    -0.237 OA
ATOM     98  O   UNL     1      -4.865   0.678 -24.411  1.00  0.00    -0.744 OA
ENDBRANCH  94  95
ENDBRANCH  68  89
ENDBRANCH  42  43
ENDBRANCH  34  37
ENDBRANCH  32  33
ENDBRANCH   1  32
TORSDOF 15
