REMARK SMILES CC1(C)CC(=O)C(/C=N/Cc2ccc(C(=O)NCCCCNC(=O)c3ccc(-c4c5nc(c(-c6ccc(S(=O)(=O)[O-])cc6)c6ccc([nH]6)c(-c6ccc(S(=O)(=O)[O-])cc6)c6nc(c(-c7ccc(S(=O)(=O)[O-])cc7)c7ccc4[nH]7)C=C6)C=C5)cc3)cc2)=C([O-])C1
REMARK SMILES IDX 19 1 18 2 17 3 15 4 16 5 14 7 11 8 12 9 86 10 13 11 85 12
REMARK SMILES IDX 10 13 9 14 8 15 7 16 1 17 2 18 3 19 4 20 89 21 5 22 87 23
REMARK SMILES IDX 6 24 88 25 20 26 21 27 22 28 23 29 24 31 25 32 26 33 84 34
REMARK SMILES IDX 27 35 83 36 28 37 29 38 30 39 77 40 31 41 82 42 76 43 78 44
REMARK SMILES IDX 32 45 81 46 75 47 74 48 33 50 63 51 44 52 62 53 45 54 48 55
REMARK SMILES IDX 61 56 79 57 46 58 47 59 60 61 80 62 49 63 34 64 35 65 43 66
REMARK SMILES IDX 36 67 42 68 37 69 38 70 39 71 40 72 41 73 64 74 65 75 73 76
REMARK SMILES IDX 66 77 72 78 67 79 68 80 69 81 70 82 71 83 50 84 51 85 59 86
REMARK SMILES IDX 52 87 58 88 53 89 54 90 55 91 56 92 57 93
REMARK H PARENT 17 6 22 30 78 49 48 60
REMARK Flexibility Score: inf
ROOT
ATOM      1  C   UNL     1       8.223  -3.988  -5.846  1.00  0.00     0.023 C 
ENDROOT
BRANCH   1   2
ATOM      2  C   UNL     1       8.676  -2.732  -5.101  1.00  0.00     0.116 C 
BRANCH   2   3
ATOM      3  N   UNL     1       7.906  -1.583  -5.533  1.00  0.00    -0.352 N 
ATOM      4  C   UNL     1       6.841  -0.947  -4.950  1.00  0.00     0.251 C 
ATOM      5  O   UNL     1       6.369   0.044  -5.506  1.00  0.00    -0.269 OA
ATOM      6  H   UNL     1       8.197  -1.193  -6.388  1.00  0.00     0.163 HD
BRANCH   4   7
ATOM      7  C   UNL     1       6.285  -1.368  -3.639  1.00  0.00     0.039 A 
ATOM      8  C   UNL     1       5.207  -1.982  -1.109  1.00  0.00    -0.027 A 
ATOM      9  C   UNL     1       5.338  -0.650  -1.525  1.00  0.00     0.006 A 
ATOM     10  C   UNL     1       5.596  -3.003  -1.982  1.00  0.00     0.006 A 
ATOM     11  C   UNL     1       5.863  -0.346  -2.781  1.00  0.00     0.014 A 
ATOM     12  C   UNL     1       6.117  -2.697  -3.243  1.00  0.00     0.014 A 
BRANCH   8  13
ATOM     13  C   UNL     1       4.577  -2.312   0.223  1.00  0.00     0.177 C 
BRANCH  13  14
ATOM     14  N   UNL     1       3.120  -2.159   0.165  1.00  0.00    -0.288 NA
ATOM     15  C   UNL     1       2.690  -0.995   0.501  1.00  0.00     0.116 C 
BRANCH  15  16
ATOM     16  C   UNL     1       1.276  -0.548   0.442  1.00  0.00     0.024 C 
ATOM     17  C   UNL     1      -2.824   1.004   0.500  1.00  0.00     0.012 C 
ATOM     18  C   UNL     1      -1.474   0.428   0.036  1.00  0.00    -0.025 C 
ATOM     19  C   UNL     1      -1.510   0.288  -1.499  1.00  0.00     0.012 C 
ATOM     20  C   UNL     1      -1.262  -0.940   0.695  1.00  0.00     0.087 C 
ATOM     21  C   UNL     1      -0.348   1.384   0.469  1.00  0.00     0.026 C 
ATOM     22  C   UNL     1       0.126  -1.502   0.467  1.00  0.00     0.164 C 
ATOM     23  C   UNL     1       1.030   0.778   0.429  1.00  0.00    -0.120 C 
ATOM     24  O   UNL     1       0.279  -2.719   0.395  1.00  0.00    -0.294 OA
ATOM     25  O   UNL     1       2.023   1.742   0.367  1.00  0.00    -0.875 OA
ENDBRANCH  15  16
ENDBRANCH  13  14
ENDBRANCH   8  13
ENDBRANCH   4   7
ENDBRANCH   2   3
ENDBRANCH   1   2
BRANCH   1  26
ATOM     26  C   UNL     1       8.697  -4.060  -7.300  1.00  0.00     0.023 C 
BRANCH  26  27
ATOM     27  C   UNL     1      10.209  -4.101  -7.479  1.00  0.00     0.116 C 
BRANCH  27  28
ATOM     28  N   UNL     1      10.836  -5.206  -6.771  1.00  0.00    -0.352 N 
ATOM     29  C   UNL     1      11.972  -5.902  -7.114  1.00  0.00     0.251 C 
ATOM     30  H   UNL     1      10.392  -5.492  -5.941  1.00  0.00     0.163 HD
ATOM     31  O   UNL     1      12.313  -6.885  -6.471  1.00  0.00    -0.269 OA
BRANCH  29  32
ATOM     32  C   UNL     1      12.745  -5.467  -8.294  1.00  0.00     0.039 A 
ATOM     33  C   UNL     1      13.065  -6.411  -9.272  1.00  0.00     0.014 A 
ATOM     34  C   UNL     1      13.111  -4.128  -8.452  1.00  0.00     0.014 A 
ATOM     35  C   UNL     1      13.702  -5.998 -10.442  1.00  0.00     0.010 A 
ATOM     36  C   UNL     1      13.687  -3.708  -9.647  1.00  0.00     0.010 A 
ATOM     37  C   UNL     1      13.988  -4.639 -10.652  1.00  0.00    -0.014 A 
BRANCH  37  38
ATOM     38  C   UNL     1      14.599  -4.172 -11.921  1.00  0.00     0.031 A 
ATOM     39  C   UNL     1      15.977  -3.571 -11.917  1.00  0.00     0.074 A 
ATOM     40  C   UNL     1      13.886  -4.233 -13.063  1.00  0.00     0.049 A 
ATOM     41  N   UNL     1      16.657  -3.065 -12.913  1.00  0.00    -0.248 NA
ATOM     42  C   UNL     1      16.672  -3.508 -10.620  1.00  0.00     0.031 C 
ATOM     43  C   UNL     1      12.521  -4.750 -13.185  1.00  0.00     0.029 A 
ATOM     44  N   UNL     1      14.210  -3.849 -14.340  1.00  0.00    -0.354 N 
ATOM     45  C   UNL     1      17.848  -2.608 -12.363  1.00  0.00     0.074 A 
ATOM     46  C   UNL     1      17.779  -2.854 -10.939  1.00  0.00     0.031 C 
ATOM     47  C   UNL     1      12.135  -4.675 -14.469  1.00  0.00     0.029 A 
ATOM     48  C   UNL     1      13.208  -4.074 -15.254  1.00  0.00     0.049 A 
ATOM     49  H   UNL     1      15.077  -3.449 -14.578  1.00  0.00     0.167 HD
ATOM     50  C   UNL     1      18.913  -2.052 -12.989  1.00  0.00     0.031 A 
ATOM     51  C   UNL     1      13.159  -3.823 -16.577  1.00  0.00     0.031 A 
ATOM     52  C   UNL     1      18.983  -1.823 -14.407  1.00  0.00     0.049 A 
ATOM     53  C   UNL     1      14.357  -3.213 -17.251  1.00  0.00     0.074 A 
ATOM     54  C   UNL     1      20.039  -1.319 -15.146  1.00  0.00     0.029 A 
ATOM     55  N   UNL     1      17.956  -2.084 -15.302  1.00  0.00    -0.354 N 
ATOM     56  N   UNL     1      15.501  -2.849 -16.724  1.00  0.00    -0.248 NA
ATOM     57  C   UNL     1      14.261  -2.993 -18.701  1.00  0.00     0.031 C 
ATOM     58  C   UNL     1      19.635  -1.236 -16.483  1.00  0.00     0.029 A 
ATOM     59  C   UNL     1      18.346  -1.736 -16.584  1.00  0.00     0.049 A 
ATOM     60  H   UNL     1      17.080  -2.462 -15.062  1.00  0.00     0.167 HD
ATOM     61  C   UNL     1      16.272  -2.381 -17.782  1.00  0.00     0.074 A 
ATOM     62  C   UNL     1      15.468  -2.520 -18.980  1.00  0.00     0.031 C 
ATOM     63  C   UNL     1      17.532  -1.881 -17.764  1.00  0.00     0.031 A 
BRANCH  50  64
ATOM     64  C   UNL     1      20.087  -1.652 -12.137  1.00  0.00    -0.014 A 
ATOM     65  C   UNL     1      20.915  -2.623 -11.542  1.00  0.00     0.010 A 
ATOM     66  C   UNL     1      20.387  -0.291 -11.951  1.00  0.00     0.010 A 
ATOM     67  C   UNL     1      21.993  -2.239 -10.741  1.00  0.00     0.020 A 
ATOM     68  C   UNL     1      21.481   0.097 -11.173  1.00  0.00     0.020 A 
ATOM     69  C   UNL     1      22.267  -0.880 -10.557  1.00  0.00     0.054 A 
BRANCH  69  70
ATOM     70  S   UNL     1      23.683  -0.410  -9.527  1.00  0.00     0.124 S 
ATOM     71  O   UNL     1      23.180  -0.683  -8.183  1.00  0.00    -0.237 OA
ATOM     72  O   UNL     1      24.735  -1.306  -9.997  1.00  0.00    -0.237 OA
ATOM     73  O   UNL     1      23.886   1.003  -9.840  1.00  0.00    -0.744 OA
ENDBRANCH  69  70
ENDBRANCH  50  64
BRANCH  51  74
ATOM     74  C   UNL     1      11.939  -4.172 -17.354  1.00  0.00    -0.014 A 
ATOM     75  C   UNL     1      11.950  -5.256 -18.248  1.00  0.00     0.010 A 
ATOM     76  C   UNL     1      10.754  -3.431 -17.191  1.00  0.00     0.010 A 
ATOM     77  C   UNL     1      10.806  -5.582 -18.981  1.00  0.00     0.020 A 
ATOM     78  C   UNL     1       9.600  -3.770 -17.903  1.00  0.00     0.020 A 
ATOM     79  C   UNL     1       9.637  -4.837 -18.803  1.00  0.00     0.054 A 
BRANCH  79  80
ATOM     80  S   UNL     1       8.147  -5.311 -19.725  1.00  0.00     0.124 S 
ATOM     81  O   UNL     1       8.451  -4.818 -21.065  1.00  0.00    -0.237 OA
ATOM     82  O   UNL     1       8.129  -6.763 -19.573  1.00  0.00    -0.237 OA
ATOM     83  O   UNL     1       7.075  -4.606 -19.026  1.00  0.00    -0.744 OA
ENDBRANCH  79  80
ENDBRANCH  51  74
BRANCH  63  84
ATOM     84  C   UNL     1      18.134  -1.477 -19.082  1.00  0.00    -0.014 A 
ATOM     85  C   UNL     1      17.717  -0.310 -19.745  1.00  0.00     0.010 A 
ATOM     86  C   UNL     1      19.169  -2.251 -19.638  1.00  0.00     0.010 A 
ATOM     87  C   UNL     1      18.306   0.060 -20.957  1.00  0.00     0.020 A 
ATOM     88  C   UNL     1      19.777  -1.870 -20.836  1.00  0.00     0.020 A 
ATOM     89  C   UNL     1      19.331  -0.723 -21.496  1.00  0.00     0.054 A 
BRANCH  89  90
ATOM     90  S   UNL     1      20.110  -0.199 -23.047  1.00  0.00     0.124 S 
ATOM     91  O   UNL     1      19.097  -0.563 -24.034  1.00  0.00    -0.237 OA
ATOM     92  O   UNL     1      20.302   1.235 -22.843  1.00  0.00    -0.237 OA
ATOM     93  O   UNL     1      21.341  -0.984 -23.099  1.00  0.00    -0.744 OA
ENDBRANCH  89  90
ENDBRANCH  63  84
ENDBRANCH  37  38
ENDBRANCH  29  32
ENDBRANCH  27  28
ENDBRANCH  26  27
ENDBRANCH   1  26
TORSDOF 17
