REMARK SMILES Cc1oc2c(c1C(=O)NCCCC(=O)NCCCCNC(=O)c1ccc(-c3c4nc(c(-c5ccc(S(=O)(=O)[O-])cc5)c5ccc([nH]5)c(-c5ccc(S(=O)(=O)[O-])cc5)c5nc(c(-c6ccc(S(=O)(=O)[O-])cc6)c6ccc3[nH]6)C=C5)C=C4)cc1)CCCC2
REMARK SMILES IDX 17 1 16 2 15 3 13 4 14 5 12 7 11 8 10 9 9 10 7 11 8 12 6 14
REMARK SMILES IDX 1 15 2 16 3 17 4 18 5 19 86 20 83 21 85 22 84 23 18 24 19 25
REMARK SMILES IDX 20 26 21 27 22 29 23 30 24 31 82 32 25 33 81 34 26 35 27 36
REMARK SMILES IDX 28 37 75 38 29 39 80 40 74 41 76 42 30 43 79 44 73 45 72 46
REMARK SMILES IDX 31 48 61 49 42 50 60 51 43 52 46 53 59 54 77 55 44 56 45 57
REMARK SMILES IDX 58 59 78 60 47 61 32 62 33 63 41 64 34 65 40 66 35 67 36 68
REMARK SMILES IDX 37 69 38 70 39 71 62 72 63 73 71 74 64 75 70 76 65 77 66 78
REMARK SMILES IDX 67 79 68 80 69 81 48 82 49 83 57 84 50 85 56 86 51 87 52 88
REMARK SMILES IDX 53 89 54 90 55 91
REMARK H PARENT 15 6 9 13 20 28 76 47 46 58
REMARK Flexibility Score: inf
ROOT
ATOM      1  C   UNL     1       4.434   0.625  -0.249  1.00  0.00     0.023 C 
ENDROOT
BRANCH   1   2
ATOM      2  C   UNL     1       5.024   0.989  -1.616  1.00  0.00     0.116 C 
BRANCH   2   3
ATOM      3  N   UNL     1       4.993  -0.159  -2.506  1.00  0.00    -0.356 N 
ATOM      4  C   UNL     1       4.143  -0.458  -3.527  1.00  0.00     0.220 C 
ATOM      5  O   UNL     1       4.154  -1.604  -3.981  1.00  0.00    -0.275 OA
ATOM      6  H   UNL     1       5.698  -0.827  -2.346  1.00  0.00     0.163 HD
BRANCH   4   7
ATOM      7  C   UNL     1       3.213   0.592  -4.105  1.00  0.00     0.102 C 
BRANCH   7   8
ATOM      8  C   UNL     1       1.752   0.451  -3.669  1.00  0.00     0.031 C 
BRANCH   8   9
ATOM      9  C   UNL     1       1.417   0.935  -2.261  1.00  0.00     0.116 C 
BRANCH   9  10
ATOM     10  N   UNL     1       1.811   2.292  -1.973  1.00  0.00    -0.352 N 
ATOM     11  C   UNL     1       1.587   3.103  -0.891  1.00  0.00     0.255 C 
ATOM     12  O   UNL     1       2.120   4.214  -0.954  1.00  0.00    -0.269 OA
ATOM     13  H   UNL     1       2.341   2.714  -2.687  1.00  0.00     0.163 HD
BRANCH  11  14
ATOM     14  C   UNL     1       0.716   2.757   0.234  1.00  0.00     0.084 A 
ATOM     15  C   UNL     1       0.694   0.113   0.679  1.00  0.00     0.088 C 
ATOM     16  C   UNL     1       0.344   1.541   0.817  1.00  0.00     0.114 A 
ATOM     17  O   UNL     1      -0.557   1.741   1.827  1.00  0.00    -0.465 OA
ATOM     18  C   UNL     1      -0.710   3.065   1.960  1.00  0.00     0.108 A 
ATOM     19  C   UNL     1       0.077   3.749   1.070  1.00  0.00     0.007 A 
ATOM     20  C   UNL     1      -1.605   3.603   3.003  1.00  0.00     0.076 C 
ATOM     21  C   UNL     1       0.120   5.243   1.063  1.00  0.00     0.040 C 
ATOM     22  C   UNL     1      -1.847   5.096   2.718  1.00  0.00     0.008 C 
ATOM     23  C   UNL     1      -0.544   5.827   2.335  1.00  0.00     0.005 C 
ENDBRANCH  11  14
ENDBRANCH   9  10
ENDBRANCH   8   9
ENDBRANCH   7   8
ENDBRANCH   4   7
ENDBRANCH   2   3
ENDBRANCH   1   2
BRANCH   1  24
ATOM     24  C   UNL     1       5.353  -0.116   0.726  1.00  0.00     0.023 C 
BRANCH  24  25
ATOM     25  C   UNL     1       6.491   0.720   1.289  1.00  0.00     0.116 C 
BRANCH  25  26
ATOM     26  N   UNL     1       6.035   1.852   2.096  1.00  0.00    -0.352 N 
ATOM     27  C   UNL     1       6.790   2.934   2.527  1.00  0.00     0.251 C 
ATOM     28  H   UNL     1       5.087   1.846   2.363  1.00  0.00     0.163 HD
ATOM     29  O   UNL     1       6.466   3.596   3.493  1.00  0.00    -0.269 OA
BRANCH  27  30
ATOM     30  C   UNL     1       8.008   3.250   1.758  1.00  0.00     0.039 A 
ATOM     31  C   UNL     1       9.243   3.439   2.382  1.00  0.00     0.014 A 
ATOM     32  C   UNL     1       7.892   3.227   0.372  1.00  0.00     0.014 A 
ATOM     33  C   UNL     1      10.388   3.495   1.589  1.00  0.00     0.010 A 
ATOM     34  C   UNL     1       9.028   3.121  -0.387  1.00  0.00     0.010 A 
ATOM     35  C   UNL     1      10.278   3.301   0.204  1.00  0.00    -0.014 A 
BRANCH  35  36
ATOM     36  C   UNL     1      11.462   3.199  -0.644  1.00  0.00     0.031 A 
ATOM     37  C   UNL     1      12.473   2.175  -0.255  1.00  0.00     0.074 A 
ATOM     38  C   UNL     1      11.545   3.821  -1.839  1.00  0.00     0.049 A 
ATOM     39  N   UNL     1      13.671   2.387   0.176  1.00  0.00    -0.248 NA
ATOM     40  C   UNL     1      12.087   0.755  -0.252  1.00  0.00     0.031 C 
ATOM     41  C   UNL     1      10.521   4.620  -2.526  1.00  0.00     0.029 A 
ATOM     42  N   UNL     1      12.531   3.741  -2.769  1.00  0.00    -0.354 N 
ATOM     43  C   UNL     1      14.268   1.137   0.323  1.00  0.00     0.074 A 
ATOM     44  C   UNL     1      13.203   0.173   0.199  1.00  0.00     0.031 C 
ATOM     45  C   UNL     1      10.827   4.710  -3.838  1.00  0.00     0.029 A 
ATOM     46  C   UNL     1      12.147   4.145  -4.042  1.00  0.00     0.049 A 
ATOM     47  H   UNL     1      13.439   3.425  -2.560  1.00  0.00     0.167 HD
ATOM     48  C   UNL     1      15.624   0.984   0.331  1.00  0.00     0.031 A 
ATOM     49  C   UNL     1      12.850   3.985  -5.189  1.00  0.00     0.031 A 
ATOM     50  C   UNL     1      16.300   2.255   0.394  1.00  0.00     0.049 A 
ATOM     51  C   UNL     1      14.273   3.820  -4.799  1.00  0.00     0.074 A 
ATOM     52  C   UNL     1      16.315   3.305   1.290  1.00  0.00     0.029 A 
ATOM     53  N   UNL     1      16.794   2.758  -0.789  1.00  0.00    -0.354 N 
ATOM     54  N   UNL     1      14.965   4.767  -4.227  1.00  0.00    -0.248 NA
ATOM     55  C   UNL     1      14.792   2.474  -4.609  1.00  0.00     0.031 C 
ATOM     56  C   UNL     1      16.331   4.475   0.475  1.00  0.00     0.029 A 
ATOM     57  C   UNL     1      16.407   4.072  -0.861  1.00  0.00     0.049 A 
ATOM     58  H   UNL     1      17.324   2.267  -1.458  1.00  0.00     0.167 HD
ATOM     59  C   UNL     1      15.713   4.121  -3.252  1.00  0.00     0.074 A 
ATOM     60  C   UNL     1      15.653   2.704  -3.611  1.00  0.00     0.031 C 
ATOM     61  C   UNL     1      16.066   4.754  -2.093  1.00  0.00     0.031 A 
BRANCH  48  62
ATOM     62  C   UNL     1      16.364  -0.265  -0.080  1.00  0.00    -0.014 A 
ATOM     63  C   UNL     1      17.765  -0.311   0.093  1.00  0.00     0.010 A 
ATOM     64  C   UNL     1      15.784  -1.274  -0.873  1.00  0.00     0.010 A 
ATOM     65  C   UNL     1      18.550  -1.270  -0.559  1.00  0.00     0.020 A 
ATOM     66  C   UNL     1      16.555  -2.262  -1.492  1.00  0.00     0.020 A 
ATOM     67  C   UNL     1      17.938  -2.230  -1.363  1.00  0.00     0.054 A 
BRANCH  67  68
ATOM     68  S   UNL     1      18.969  -3.388  -2.297  1.00  0.00     0.124 S 
ATOM     69  O   UNL     1      19.635  -2.500  -3.245  1.00  0.00    -0.237 OA
ATOM     70  O   UNL     1      19.821  -3.956  -1.255  1.00  0.00    -0.237 OA
ATOM     71  O   UNL     1      18.002  -4.315  -2.878  1.00  0.00    -0.744 OA
ENDBRANCH  67  68
ENDBRANCH  48  62
BRANCH  49  72
ATOM     72  C   UNL     1      12.312   3.647  -6.531  1.00  0.00    -0.014 A 
ATOM     73  C   UNL     1      13.149   3.640  -7.662  1.00  0.00     0.010 A 
ATOM     74  C   UNL     1      11.038   3.054  -6.658  1.00  0.00     0.010 A 
ATOM     75  C   UNL     1      12.761   2.984  -8.843  1.00  0.00     0.020 A 
ATOM     76  C   UNL     1      10.639   2.410  -7.835  1.00  0.00     0.020 A 
ATOM     77  C   UNL     1      11.519   2.348  -8.911  1.00  0.00     0.054 A 
BRANCH  77  78
ATOM     78  S   UNL     1      11.121   1.306 -10.346  1.00  0.00     0.124 S 
ATOM     79  O   UNL     1      10.874   2.296 -11.390  1.00  0.00    -0.237 OA
ATOM     80  O   UNL     1      12.333   0.508 -10.504  1.00  0.00    -0.237 OA
ATOM     81  O   UNL     1       9.944   0.557  -9.909  1.00  0.00    -0.744 OA
ENDBRANCH  77  78
ENDBRANCH  49  72
BRANCH  61  82
ATOM     82  C   UNL     1      15.852   6.249  -1.988  1.00  0.00    -0.014 A 
ATOM     83  C   UNL     1      14.593   6.869  -2.111  1.00  0.00     0.010 A 
ATOM     84  C   UNL     1      16.945   7.037  -1.584  1.00  0.00     0.010 A 
ATOM     85  C   UNL     1      14.440   8.244  -1.872  1.00  0.00     0.020 A 
ATOM     86  C   UNL     1      16.796   8.402  -1.324  1.00  0.00     0.020 A 
ATOM     87  C   UNL     1      15.546   9.002  -1.481  1.00  0.00     0.054 A 
BRANCH  87  88
ATOM     88  S   UNL     1      15.338  10.772  -1.136  1.00  0.00     0.124 S 
ATOM     89  O   UNL     1      15.075  11.324  -2.462  1.00  0.00    -0.237 OA
ATOM     90  O   UNL     1      14.208  10.793  -0.210  1.00  0.00    -0.237 OA
ATOM     91  O   UNL     1      16.618  11.164  -0.546  1.00  0.00    -0.744 OA
ENDBRANCH  87  88
ENDBRANCH  61  82
ENDBRANCH  35  36
ENDBRANCH  27  30
ENDBRANCH  25  26
ENDBRANCH  24  25
ENDBRANCH   1  24
TORSDOF 18
