REMARK SMILES O=C(COCC(=O)/[NH+]=C1\S[C@@H]2CS(=O)(=O)C[C@H]2N1c1ccc(Cl)cc1)NCCCCNC(=O)c1ccc(-c2c3nc(c(-c4ccc(S(=O)(=O)[O-])cc4)c4ccc([nH]4)c(-c4ccc(S(=O)(=O)[O-])cc4)c4nc(c(-c5ccc(S(=O)(=O)[O-])cc5)c5ccc2[nH]5)C=C4)C=C3)cc1
REMARK SMILES IDX 28 1 27 2 26 3 2 4 1 5 3 7 4 8 5 9 6 10 7 11 8 12 9 13 10 15
REMARK SMILES IDX 18 16 11 17 17 18 12 19 16 20 13 21 14 22 15 23 19 24 20 25
REMARK SMILES IDX 25 26 21 27 24 28 22 29 23 30 29 31 30 32 31 33 32 34 33 36
REMARK SMILES IDX 34 37 35 38 93 39 36 40 92 41 37 42 38 43 39 44 86 45 40 46
REMARK SMILES IDX 91 47 85 48 87 49 41 50 90 51 84 52 83 53 42 55 72 56 53 57
REMARK SMILES IDX 71 58 54 59 57 60 70 61 88 62 55 63 56 64 69 66 89 67 58 68
REMARK SMILES IDX 43 69 44 70 52 71 45 72 51 73 46 74 47 75 48 76 49 77 50 78
REMARK SMILES IDX 73 79 74 80 82 81 75 82 81 83 76 84 77 85 78 86 79 87 80 88
REMARK SMILES IDX 59 89 60 90 68 91 61 92 67 93 62 94 63 95 64 96 65 97 66 98
REMARK H PARENT 26 6 8 14 31 35 87 54 57 65
REMARK Flexibility Score: inf
ROOT
ATOM      1  C   UNL     1       4.342   1.211   4.802  1.00  0.00     0.023 C 
ENDROOT
BRANCH   1   2
ATOM      2  C   UNL     1       4.049  -0.288   4.809  1.00  0.00     0.116 C 
BRANCH   2   3
ATOM      3  N   UNL     1       2.633  -0.585   4.681  1.00  0.00    -0.354 N 
ATOM      4  C   UNL     1       1.978  -1.166   3.632  1.00  0.00     0.246 C 
ATOM      5  O   UNL     1       0.772  -1.389   3.721  1.00  0.00    -0.272 OA
ATOM      6  H   UNL     1       2.072  -0.334   5.451  1.00  0.00     0.163 HD
BRANCH   4   7
ATOM      7  C   UNL     1       2.764  -1.519   2.367  1.00  0.00     0.260 C 
BRANCH   7   8
ATOM      8  O   UNL     1       3.441  -0.409   1.798  1.00  0.00    -0.359 OA
BRANCH   8   9
ATOM      9  C   UNL     1       2.553   0.529   1.200  1.00  0.00     0.288 C 
BRANCH   9  10
ATOM     10  C   UNL     1       2.266   0.364  -0.304  1.00  0.00     0.333 C 
ATOM     11  O   UNL     1       1.307   0.945  -0.809  1.00  0.00    -0.244 OA
ATOM     12  N   UNL     1       3.057  -0.474  -1.051  1.00  0.00    -0.202 N 
ATOM     13  C   UNL     1       4.331  -0.310  -1.170  1.00  0.00     0.319 C 
ATOM     14  H   UNL     1       2.634  -1.232  -1.516  1.00  0.00     0.316 HD
ATOM     15  S   UNL     1       5.317   0.912  -0.302  1.00  0.00    -0.029 SA
ATOM     16  N   UNL     1       5.186  -1.083  -1.972  1.00  0.00    -0.217 N 
ATOM     17  C   UNL     1       6.746  -0.180  -0.456  1.00  0.00     0.120 C 
ATOM     18  C   UNL     1       6.583  -0.623  -1.916  1.00  0.00     0.212 C 
ATOM     19  C   UNL     1       8.144   0.347  -0.277  1.00  0.00     0.156 C 
ATOM     20  C   UNL     1       7.728  -1.579  -2.139  1.00  0.00     0.188 C 
ATOM     21  S   UNL     1       9.101  -0.717  -1.363  1.00  0.00     0.155 S 
ATOM     22  O   UNL     1       9.838  -1.674  -0.563  1.00  0.00    -0.229 OA
ATOM     23  O   UNL     1       9.737   0.113  -2.361  1.00  0.00    -0.229 OA
BRANCH  16  24
ATOM     24  C   UNL     1       4.733  -1.815  -3.080  1.00  0.00     0.128 A 
ATOM     25  C   UNL     1       5.206  -3.110  -3.339  1.00  0.00     0.053 A 
ATOM     26  C   UNL     1       3.746  -1.302  -3.940  1.00  0.00     0.053 A 
ATOM     27  C   UNL     1       4.718  -3.862  -4.415  1.00  0.00     0.025 A 
ATOM     28  C   UNL     1       3.253  -2.049  -5.017  1.00  0.00     0.025 A 
ATOM     29  C   UNL     1       3.742  -3.328  -5.249  1.00  0.00     0.041 A 
ATOM     30  Cl  UNL     1       3.127  -4.261  -6.556  1.00  0.00    -0.084 Cl
ENDBRANCH  16  24
ENDBRANCH   9  10
ENDBRANCH   8   9
ENDBRANCH   7   8
ENDBRANCH   4   7
ENDBRANCH   2   3
ENDBRANCH   1   2
BRANCH   1  31
ATOM     31  C   UNL     1       3.674   2.011   5.924  1.00  0.00     0.023 C 
BRANCH  31  32
ATOM     32  C   UNL     1       3.899   1.481   7.337  1.00  0.00     0.116 C 
BRANCH  32  33
ATOM     33  N   UNL     1       5.302   1.453   7.719  1.00  0.00    -0.352 N 
ATOM     34  C   UNL     1       5.891   1.862   8.892  1.00  0.00     0.251 C 
ATOM     35  H   UNL     1       5.917   1.090   7.041  1.00  0.00     0.163 HD
ATOM     36  O   UNL     1       7.116   1.883   8.979  1.00  0.00    -0.269 OA
BRANCH  34  37
ATOM     37  C   UNL     1       5.056   2.308  10.032  1.00  0.00     0.039 A 
ATOM     38  C   UNL     1       5.430   3.459  10.730  1.00  0.00     0.014 A 
ATOM     39  C   UNL     1       3.908   1.605  10.411  1.00  0.00     0.014 A 
ATOM     40  C   UNL     1       4.620   3.940  11.761  1.00  0.00     0.010 A 
ATOM     41  C   UNL     1       3.060   2.131  11.383  1.00  0.00     0.010 A 
ATOM     42  C   UNL     1       3.406   3.303  12.073  1.00  0.00    -0.014 A 
BRANCH  42  43
ATOM     43  C   UNL     1       2.489   3.864  13.100  1.00  0.00     0.031 A 
ATOM     44  C   UNL     1       2.166   3.086  14.349  1.00  0.00     0.074 A 
ATOM     45  C   UNL     1       1.907   5.061  12.887  1.00  0.00     0.049 A 
ATOM     46  N   UNL     1       1.401   3.425  15.356  1.00  0.00    -0.248 NA
ATOM     47  C   UNL     1       2.759   1.746  14.473  1.00  0.00     0.031 C 
ATOM     48  C   UNL     1       2.103   5.898  11.700  1.00  0.00     0.029 A 
ATOM     49  N   UNL     1       1.040   5.789  13.664  1.00  0.00    -0.354 N 
ATOM     50  C   UNL     1       1.407   2.336  16.222  1.00  0.00     0.074 A 
ATOM     51  C   UNL     1       2.208   1.308  15.595  1.00  0.00     0.031 C 
ATOM     52  C   UNL     1       1.421   7.044  11.852  1.00  0.00     0.029 A 
ATOM     53  C   UNL     1       0.701   7.007  13.121  1.00  0.00     0.049 A 
ATOM     54  H   UNL     1       0.693   5.469  14.528  1.00  0.00     0.167 HD
ATOM     55  C   UNL     1       0.813   2.208  17.433  1.00  0.00     0.031 A 
ATOM     56  C   UNL     1      -0.094   7.987  13.592  1.00  0.00     0.031 A 
ATOM     57  C   UNL     1       0.013   3.235  18.052  1.00  0.00     0.049 A 
ATOM     58  C   UNL     1      -0.758   7.814  14.930  1.00  0.00     0.074 A 
ATOM     59  C   UNL     1      -0.574   3.229  19.305  1.00  0.00     0.029 A 
ATOM     60  N   UNL     1      -0.325   4.442  17.460  1.00  0.00    -0.354 N 
ATOM     61  N   UNL     1      -0.670   6.812  15.772  1.00  0.00    -0.248 NA
ATOM     62  C   UNL     1      -1.621   8.912  15.384  1.00  0.00     0.031 C 
ATOM     63  C   UNL     1      -1.327   4.400  19.441  1.00  0.00     0.029 A 
ATOM     64  C   UNL     1      -1.147   5.172  18.304  1.00  0.00     0.049 A 
ATOM     65  H   UNL     1      -0.026   4.738  16.570  1.00  0.00     0.167 HD
ATOM     66  C   UNL     1      -1.442   7.173  16.871  1.00  0.00     0.074 A 
ATOM     67  C   UNL     1      -1.972   8.493  16.592  1.00  0.00     0.031 C 
ATOM     68  C   UNL     1      -1.685   6.478  18.010  1.00  0.00     0.031 A 
BRANCH  55  69
ATOM     69  C   UNL     1       0.983   0.895  18.157  1.00  0.00    -0.014 A 
ATOM     70  C   UNL     1       2.236   0.480  18.646  1.00  0.00     0.010 A 
ATOM     71  C   UNL     1      -0.136   0.068  18.368  1.00  0.00     0.010 A 
ATOM     72  C   UNL     1       2.378  -0.760  19.276  1.00  0.00     0.020 A 
ATOM     73  C   UNL     1      -0.006  -1.157  19.029  1.00  0.00     0.020 A 
ATOM     74  C   UNL     1       1.256  -1.574  19.458  1.00  0.00     0.054 A 
BRANCH  74  75
ATOM     75  S   UNL     1       1.470  -3.179  20.274  1.00  0.00     0.124 S 
ATOM     76  O   UNL     1       2.178  -3.944  19.250  1.00  0.00    -0.237 OA
ATOM     77  O   UNL     1       2.256  -2.835  21.456  1.00  0.00    -0.237 OA
ATOM     78  O   UNL     1       0.103  -3.618  20.543  1.00  0.00    -0.744 OA
ENDBRANCH  74  75
ENDBRANCH  55  69
BRANCH  56  79
ATOM     79  C   UNL     1      -0.271   9.241  12.808  1.00  0.00    -0.014 A 
ATOM     80  C   UNL     1       0.281  10.450  13.269  1.00  0.00     0.010 A 
ATOM     81  C   UNL     1      -0.974   9.233  11.589  1.00  0.00     0.010 A 
ATOM     82  C   UNL     1       0.123  11.628  12.533  1.00  0.00     0.020 A 
ATOM     83  C   UNL     1      -1.107  10.403  10.835  1.00  0.00     0.020 A 
ATOM     84  C   UNL     1      -0.564  11.595  11.317  1.00  0.00     0.054 A 
BRANCH  84  85
ATOM     85  S   UNL     1      -0.697  13.125  10.350  1.00  0.00     0.124 S 
ATOM     86  O   UNL     1      -1.628  13.912  11.152  1.00  0.00    -0.237 OA
ATOM     87  O   UNL     1       0.683  13.603  10.329  1.00  0.00    -0.237 OA
ATOM     88  O   UNL     1      -1.210  12.670   9.060  1.00  0.00    -0.744 OA
ENDBRANCH  84  85
ENDBRANCH  56  79
BRANCH  68  89
ATOM     89  C   UNL     1      -2.543   7.145  19.056  1.00  0.00    -0.014 A 
ATOM     90  C   UNL     1      -3.915   7.372  18.846  1.00  0.00     0.010 A 
ATOM     91  C   UNL     1      -1.967   7.530  20.281  1.00  0.00     0.010 A 
ATOM     92  C   UNL     1      -4.683   8.018  19.820  1.00  0.00     0.020 A 
ATOM     93  C   UNL     1      -2.739   8.143  21.271  1.00  0.00     0.020 A 
ATOM     94  C   UNL     1      -4.088   8.402  21.026  1.00  0.00     0.054 A 
BRANCH  94  95
ATOM     95  S   UNL     1      -5.109   9.224  22.279  1.00  0.00     0.124 S 
ATOM     96  O   UNL     1      -5.312  10.544  21.688  1.00  0.00    -0.237 OA
ATOM     97  O   UNL     1      -6.294   8.371  22.336  1.00  0.00    -0.237 OA
ATOM     98  O   UNL     1      -4.273   9.200  23.478  1.00  0.00    -0.744 OA
ENDBRANCH  94  95
ENDBRANCH  68  89
ENDBRANCH  42  43
ENDBRANCH  34  37
ENDBRANCH  32  33
ENDBRANCH  31  32
ENDBRANCH   1  31
TORSDOF 18
