REMARK SMILES COC[C@@H](C)CC(=O)Nc1cccc(/C=C/C(=O)NCCCCNC(=O)c2ccc(-c3c4nc(c(-c5ccc(S(=O)(=O)[O-])cc5)c5ccc([nH]5)c(-c5ccc(S(=O)(=O)[O-])cc5)c5nc(c(-c6ccc(S(=O)(=O)[O-])cc6)c6ccc3[nH]6)C=C5)C=C4)cc2)c1
REMARK SMILES IDX 20 1 19 2 17 3 18 4 16 6 15 7 14 8 10 9 11 10 87 11 12 12
REMARK SMILES IDX 13 13 9 14 7 15 8 16 6 18 4 19 5 20 3 21 2 22 1 23 21 24
REMARK SMILES IDX 22 25 23 26 24 27 25 28 26 30 27 31 28 32 86 33 29 34 85 35
REMARK SMILES IDX 30 36 31 37 32 38 79 39 33 40 84 41 78 42 80 43 34 44 83 45
REMARK SMILES IDX 77 46 76 47 35 49 65 50 46 51 64 52 47 53 50 54 63 55 81 56
REMARK SMILES IDX 48 57 49 58 62 60 82 61 51 62 36 63 37 64 45 65 38 66 44 67
REMARK SMILES IDX 39 68 40 69 41 70 42 71 43 72 66 73 67 74 75 75 68 76 74 77
REMARK SMILES IDX 69 78 70 79 71 80 72 81 73 82 52 83 53 84 61 85 54 86 60 87
REMARK SMILES IDX 55 88 56 89 57 90 58 91 59 92
REMARK H PARENT 19 5 9 17 24 29 80 48 50 59
REMARK Flexibility Score: inf
ROOT
ATOM      1  C   UNL     1      -0.368   1.273   1.204  1.00  0.00     0.116 C 
ENDROOT
BRANCH   1   2
ATOM      2  N   UNL     1       0.257   1.575   2.478  1.00  0.00    -0.353 N 
ATOM      3  C   UNL     1       1.358   1.004   3.048  1.00  0.00     0.243 C 
ATOM      4  O   UNL     1       1.935   1.569   3.975  1.00  0.00    -0.270 OA
ATOM      5  H   UNL     1      -0.172   2.289   3.003  1.00  0.00     0.163 HD
BRANCH   3   6
ATOM      6  C   UNL     1       1.937  -0.249   2.502  1.00  0.00     0.072 C 
ATOM      7  C   UNL     1       1.244  -1.383   2.308  1.00  0.00     0.014 C 
BRANCH   7   8
ATOM      8  C   UNL     1       1.846  -2.591   1.718  1.00  0.00    -0.023 A 
ATOM      9  C   UNL     1       1.766  -4.296  -0.027  1.00  0.00     0.041 A 
ATOM     10  C   UNL     1       2.948  -4.851   0.452  1.00  0.00     0.026 A 
ATOM     11  C   UNL     1       1.180  -3.233   0.664  1.00  0.00     0.034 A 
ATOM     12  C   UNL     1       3.602  -4.255   1.535  1.00  0.00     0.003 A 
ATOM     13  C   UNL     1       3.066  -3.118   2.151  1.00  0.00     0.008 A 
BRANCH   9  14
ATOM     14  N   UNL     1       1.134  -4.865  -1.142  1.00  0.00    -0.326 N 
ATOM     15  C   UNL     1       0.507  -4.217  -2.182  1.00  0.00     0.224 C 
ATOM     16  O   UNL     1      -0.458  -4.745  -2.736  1.00  0.00    -0.275 OA
ATOM     17  H   UNL     1       1.138  -5.848  -1.186  1.00  0.00     0.169 HD
BRANCH  15  18
ATOM     18  C   UNL     1       1.199  -2.996  -2.793  1.00  0.00     0.106 C 
BRANCH  18  19
ATOM     19  C   UNL     1       0.416  -1.670  -2.784  1.00  0.00     0.021 C 
ATOM     20  C   UNL     1       0.841  -0.782  -3.959  1.00  0.00     0.010 C 
BRANCH  19  21
ATOM     21  C   UNL     1       0.602  -0.950  -1.441  1.00  0.00     0.163 C 
BRANCH  21  22
ATOM     22  O   UNL     1       0.791   0.457  -1.565  1.00  0.00    -0.384 OA
ATOM     23  C   UNL     1       2.131   0.844  -1.261  1.00  0.00     0.194 C 
ENDBRANCH  21  22
ENDBRANCH  19  21
ENDBRANCH  18  19
ENDBRANCH  15  18
ENDBRANCH   9  14
ENDBRANCH   7   8
ENDBRANCH   3   6
ENDBRANCH   1   2
BRANCH   1  24
ATOM     24  C   UNL     1      -1.884   1.442   1.200  1.00  0.00     0.023 C 
BRANCH  24  25
ATOM     25  C   UNL     1      -2.375   2.878   1.012  1.00  0.00     0.023 C 
BRANCH  25  26
ATOM     26  C   UNL     1      -1.961   3.563  -0.292  1.00  0.00     0.116 C 
BRANCH  26  27
ATOM     27  N   UNL     1      -2.457   2.901  -1.490  1.00  0.00    -0.352 N 
ATOM     28  C   UNL     1      -3.276   3.373  -2.494  1.00  0.00     0.251 C 
ATOM     29  H   UNL     1      -2.161   1.968  -1.601  1.00  0.00     0.163 HD
ATOM     30  O   UNL     1      -3.671   2.615  -3.370  1.00  0.00    -0.269 OA
BRANCH  28  31
ATOM     31  C   UNL     1      -3.710   4.792  -2.497  1.00  0.00     0.039 A 
ATOM     32  C   UNL     1      -5.056   5.087  -2.727  1.00  0.00     0.014 A 
ATOM     33  C   UNL     1      -2.803   5.828  -2.264  1.00  0.00     0.014 A 
ATOM     34  C   UNL     1      -5.507   6.407  -2.619  1.00  0.00     0.010 A 
ATOM     35  C   UNL     1      -3.267   7.129  -2.073  1.00  0.00     0.010 A 
ATOM     36  C   UNL     1      -4.627   7.433  -2.234  1.00  0.00    -0.014 A 
BRANCH  36  37
ATOM     37  C   UNL     1      -5.122   8.810  -1.956  1.00  0.00     0.031 A 
ATOM     38  C   UNL     1      -4.622   9.984  -2.757  1.00  0.00     0.074 A 
ATOM     39  C   UNL     1      -5.975   9.015  -0.930  1.00  0.00     0.049 A 
ATOM     40  N   UNL     1      -4.909  11.255  -2.623  1.00  0.00    -0.248 NA
ATOM     41  C   UNL     1      -3.656   9.701  -3.832  1.00  0.00     0.031 C 
ATOM     42  C   UNL     1      -6.494   7.974  -0.037  1.00  0.00     0.029 A 
ATOM     43  N   UNL     1      -6.552  10.169  -0.456  1.00  0.00    -0.354 N 
ATOM     44  C   UNL     1      -4.151  11.921  -3.580  1.00  0.00     0.074 A 
ATOM     45  C   UNL     1      -3.356  10.920  -4.257  1.00  0.00     0.031 C 
ATOM     46  C   UNL     1      -7.333   8.531   0.851  1.00  0.00     0.029 A 
ATOM     47  C   UNL     1      -7.379   9.972   0.626  1.00  0.00     0.049 A 
ATOM     48  H   UNL     1      -6.389  11.054  -0.855  1.00  0.00     0.167 HD
ATOM     49  C   UNL     1      -4.133  13.241  -3.881  1.00  0.00     0.031 A 
ATOM     50  C   UNL     1      -8.089  10.848   1.365  1.00  0.00     0.031 A 
ATOM     51  C   UNL     1      -4.936  14.235  -3.218  1.00  0.00     0.049 A 
ATOM     52  C   UNL     1      -8.049  12.310   1.009  1.00  0.00     0.074 A 
ATOM     53  C   UNL     1      -5.037  15.586  -3.501  1.00  0.00     0.029 A 
ATOM     54  N   UNL     1      -5.772  13.991  -2.139  1.00  0.00    -0.354 N 
ATOM     55  N   UNL     1      -7.389  12.905   0.043  1.00  0.00    -0.248 NA
ATOM     56  C   UNL     1      -8.858  13.218   1.834  1.00  0.00     0.031 C 
ATOM     57  C   UNL     1      -5.884  16.170  -2.555  1.00  0.00     0.029 A 
ATOM     58  C   UNL     1      -6.367  15.171  -1.726  1.00  0.00     0.049 A 
ATOM     59  H   UNL     1      -5.920  13.109  -1.727  1.00  0.00     0.167 HD
ATOM     60  C   UNL     1      -7.728  14.251   0.128  1.00  0.00     0.074 A 
ATOM     61  C   UNL     1      -8.665  14.379   1.224  1.00  0.00     0.031 C 
ATOM     62  C   UNL     1      -7.299  15.288  -0.633  1.00  0.00     0.031 A 
BRANCH  49  63
ATOM     63  C   UNL     1      -3.211  13.700  -4.983  1.00  0.00    -0.014 A 
ATOM     64  C   UNL     1      -3.467  13.378  -6.328  1.00  0.00     0.010 A 
ATOM     65  C   UNL     1      -2.117  14.531  -4.676  1.00  0.00     0.010 A 
ATOM     66  C   UNL     1      -2.631  13.854  -7.342  1.00  0.00     0.020 A 
ATOM     67  C   UNL     1      -1.296  15.033  -5.690  1.00  0.00     0.020 A 
ATOM     68  C   UNL     1      -1.552  14.681  -7.016  1.00  0.00     0.054 A 
BRANCH  68  69
ATOM     69  S   UNL     1      -0.516  15.325  -8.360  1.00  0.00     0.124 S 
ATOM     70  O   UNL     1       0.197  14.125  -8.791  1.00  0.00    -0.237 OA
ATOM     71  O   UNL     1      -1.503  15.842  -9.304  1.00  0.00    -0.237 OA
ATOM     72  O   UNL     1       0.309  16.338  -7.707  1.00  0.00    -0.744 OA
ENDBRANCH  68  69
ENDBRANCH  49  63
BRANCH  50  73
ATOM     73  C   UNL     1      -8.902  10.371   2.520  1.00  0.00    -0.014 A 
ATOM     74  C   UNL     1     -10.307  10.430   2.484  1.00  0.00     0.010 A 
ATOM     75  C   UNL     1      -8.272   9.866   3.672  1.00  0.00     0.010 A 
ATOM     76  C   UNL     1     -11.063  10.024   3.588  1.00  0.00     0.020 A 
ATOM     77  C   UNL     1      -9.025   9.428   4.765  1.00  0.00     0.020 A 
ATOM     78  C   UNL     1     -10.417   9.526   4.722  1.00  0.00     0.054 A 
BRANCH  78  79
ATOM     79  S   UNL     1     -11.419   8.979   6.133  1.00  0.00     0.124 S 
ATOM     80  O   UNL     1     -11.884  10.247   6.685  1.00  0.00    -0.237 OA
ATOM     81  O   UNL     1     -12.440   8.153   5.492  1.00  0.00    -0.237 OA
ATOM     82  O   UNL     1     -10.466   8.245   6.964  1.00  0.00    -0.744 OA
ENDBRANCH  78  79
ENDBRANCH  50  73
BRANCH  62  83
ATOM     83  C   UNL     1      -7.867  16.652  -0.334  1.00  0.00    -0.014 A 
ATOM     84  C   UNL     1      -7.518  17.350   0.835  1.00  0.00     0.010 A 
ATOM     85  C   UNL     1      -8.727  17.263  -1.266  1.00  0.00     0.010 A 
ATOM     86  C   UNL     1      -8.048  18.619   1.085  1.00  0.00     0.020 A 
ATOM     87  C   UNL     1      -9.233  18.544  -1.034  1.00  0.00     0.020 A 
ATOM     88  C   UNL     1      -8.903  19.208   0.148  1.00  0.00     0.054 A 
BRANCH  88  89
ATOM     89  S   UNL     1      -9.549  20.870   0.480  1.00  0.00     0.124 S 
ATOM     90  O   UNL     1     -10.518  20.614   1.542  1.00  0.00    -0.237 OA
ATOM     91  O   UNL     1      -8.352  21.603   0.886  1.00  0.00    -0.237 OA
ATOM     92  O   UNL     1     -10.121  21.282  -0.800  1.00  0.00    -0.744 OA
ENDBRANCH  88  89
ENDBRANCH  62  83
ENDBRANCH  36  37
ENDBRANCH  28  31
ENDBRANCH  26  27
ENDBRANCH  25  26
ENDBRANCH  24  25
ENDBRANCH   1  24
TORSDOF 20
