REMARK SMILES O=C(NCCCCNC(=O)c1cccc2cccc(C(=O)NC3COC3)c12)c1ccc(-c2c3nc(c(-c4ccc(S(=O)(=O)[O-])cc4)c4ccc([nH]4)c(-c4ccc(S(=O)(=O)[O-])cc4)c4nc(c(-c5ccc(S(=O)(=O)[O-])cc5)c5ccc2[nH]5)C=C4)C=C3)cc1
REMARK SMILES IDX 5 1 4 2 3 3 1 4 2 5 28 7 29 8 87 9 30 10 86 11 31 12 32 13
REMARK SMILES IDX 33 14 80 15 34 16 85 17 79 18 81 19 35 20 84 21 78 22 77 23
REMARK SMILES IDX 36 25 66 26 47 27 65 28 48 29 51 30 64 31 82 32 49 33 50 34
REMARK SMILES IDX 63 36 83 37 52 38 37 39 38 40 46 41 39 42 45 43 40 44 41 45
REMARK SMILES IDX 42 46 43 47 44 48 67 49 68 50 76 51 69 52 75 53 70 54 71 55
REMARK SMILES IDX 72 56 73 57 74 58 53 59 54 60 62 61 55 62 61 63 56 64 57 65
REMARK SMILES IDX 58 66 59 67 60 68 6 69 7 70 8 71 9 72 10 74 11 75 12 76
REMARK SMILES IDX 27 77 13 78 15 79 19 80 14 81 16 82 18 83 17 84 20 85 21 86
REMARK SMILES IDX 22 87 23 89 24 90 26 91 25 92
REMARK H PARENT 3 6 81 24 51 35 8 73 22 88
REMARK Flexibility Score: inf
ROOT
ATOM      1  C   UNL     1       4.781  -2.239   0.936  1.00  0.00     0.023 C 
ENDROOT
BRANCH   1   2
ATOM      2  C   UNL     1       4.393  -1.285  -0.182  1.00  0.00     0.116 C 
BRANCH   2   3
ATOM      3  N   UNL     1       2.962  -1.028  -0.255  1.00  0.00    -0.352 N 
ATOM      4  O   UNL     1       1.055   0.173  -0.215  1.00  0.00    -0.269 OA
ATOM      5  C   UNL     1       2.285   0.171  -0.277  1.00  0.00     0.251 C 
ATOM      6  H   UNL     1       2.393  -1.830  -0.294  1.00  0.00     0.163 HD
BRANCH   5   7
ATOM      7  C   UNL     1       3.025   1.452  -0.352  1.00  0.00     0.039 A 
ATOM      8  C   UNL     1       4.148   1.579  -1.170  1.00  0.00     0.014 A 
ATOM      9  C   UNL     1       2.583   2.550   0.395  1.00  0.00     0.014 A 
ATOM     10  C   UNL     1       4.918   2.733  -1.118  1.00  0.00     0.010 A 
ATOM     11  C   UNL     1       3.297   3.753   0.356  1.00  0.00     0.010 A 
ATOM     12  C   UNL     1       4.485   3.848  -0.384  1.00  0.00    -0.014 A 
BRANCH  12  13
ATOM     13  C   UNL     1       5.240   5.122  -0.499  1.00  0.00     0.031 A 
ATOM     14  C   UNL     1       5.898   5.759   0.693  1.00  0.00     0.074 A 
ATOM     15  C   UNL     1       5.346   5.690  -1.718  1.00  0.00     0.049 A 
ATOM     16  N   UNL     1       6.601   6.862   0.749  1.00  0.00    -0.248 NA
ATOM     17  C   UNL     1       5.747   5.080   1.989  1.00  0.00     0.031 C 
ATOM     18  C   UNL     1       4.745   5.160  -2.948  1.00  0.00     0.029 A 
ATOM     19  N   UNL     1       6.009   6.814  -2.136  1.00  0.00    -0.354 N 
ATOM     20  C   UNL     1       6.957   7.024   2.083  1.00  0.00     0.074 A 
ATOM     21  C   UNL     1       6.373   5.916   2.808  1.00  0.00     0.031 C 
ATOM     22  C   UNL     1       5.115   5.923  -3.985  1.00  0.00     0.029 A 
ATOM     23  C   UNL     1       5.903   7.043  -3.488  1.00  0.00     0.049 A 
ATOM     24  H   UNL     1       6.513   7.401  -1.528  1.00  0.00     0.167 HD
ATOM     25  C   UNL     1       7.703   8.006   2.646  1.00  0.00     0.031 A 
ATOM     26  C   UNL     1       6.360   8.055  -4.248  1.00  0.00     0.031 A 
ATOM     27  C   UNL     1       8.270   9.109   1.911  1.00  0.00     0.049 A 
ATOM     28  C   UNL     1       7.141   9.153  -3.589  1.00  0.00     0.074 A 
ATOM     29  C   UNL     1       9.061  10.142   2.383  1.00  0.00     0.029 A 
ATOM     30  N   UNL     1       8.101   9.329   0.550  1.00  0.00    -0.354 N 
ATOM     31  N   UNL     1       7.492   9.270  -2.330  1.00  0.00    -0.248 NA
ATOM     32  C   UNL     1       7.588  10.254  -4.450  1.00  0.00     0.031 C 
ATOM     33  C   UNL     1       9.315  11.020   1.324  1.00  0.00     0.029 A 
ATOM     34  C   UNL     1       8.746  10.496   0.174  1.00  0.00     0.049 A 
ATOM     35  H   UNL     1       7.597   8.741  -0.058  1.00  0.00     0.167 HD
ATOM     36  C   UNL     1       8.220  10.450  -2.251  1.00  0.00     0.074 A 
ATOM     37  C   UNL     1       8.278  10.995  -3.594  1.00  0.00     0.031 C 
ATOM     38  C   UNL     1       8.788  11.030  -1.165  1.00  0.00     0.031 A 
BRANCH  25  39
ATOM     39  C   UNL     1       7.922   7.957   4.138  1.00  0.00    -0.014 A 
ATOM     40  C   UNL     1       8.737   6.974   4.730  1.00  0.00     0.010 A 
ATOM     41  C   UNL     1       7.345   8.945   4.959  1.00  0.00     0.010 A 
ATOM     42  C   UNL     1       8.937   6.957   6.114  1.00  0.00     0.020 A 
ATOM     43  C   UNL     1       7.566   8.949   6.340  1.00  0.00     0.020 A 
ATOM     44  C   UNL     1       8.348   7.944   6.911  1.00  0.00     0.054 A 
BRANCH  44  45
ATOM     45  S   UNL     1       8.642   7.907   8.701  1.00  0.00     0.124 S 
ATOM     46  O   UNL     1       7.870   6.735   9.108  1.00  0.00    -0.237 OA
ATOM     47  O   UNL     1      10.093   7.761   8.784  1.00  0.00    -0.237 OA
ATOM     48  O   UNL     1       8.119   9.189   9.167  1.00  0.00    -0.744 OA
ENDBRANCH  44  45
ENDBRANCH  25  39
BRANCH  26  49
ATOM     49  C   UNL     1       6.059   8.081  -5.705  1.00  0.00    -0.014 A 
ATOM     50  C   UNL     1       7.082   7.922  -6.655  1.00  0.00     0.010 A 
ATOM     51  C   UNL     1       4.731   8.236  -6.150  1.00  0.00     0.010 A 
ATOM     52  C   UNL     1       6.786   7.935  -8.022  1.00  0.00     0.020 A 
ATOM     53  C   UNL     1       4.427   8.213  -7.512  1.00  0.00     0.020 A 
ATOM     54  C   UNL     1       5.459   8.077  -8.441  1.00  0.00     0.054 A 
BRANCH  54  55
ATOM     55  S   UNL     1       5.095   8.042 -10.217  1.00  0.00     0.124 S 
ATOM     56  O   UNL     1       5.625   9.327 -10.660  1.00  0.00    -0.237 OA
ATOM     57  O   UNL     1       5.831   6.863 -10.666  1.00  0.00    -0.237 OA
ATOM     58  O   UNL     1       3.640   7.914 -10.265  1.00  0.00    -0.744 OA
ENDBRANCH  54  55
ENDBRANCH  26  49
BRANCH  38  59
ATOM     59  C   UNL     1       9.554  12.306  -1.392  1.00  0.00    -0.014 A 
ATOM     60  C   UNL     1       8.897  13.508  -1.711  1.00  0.00     0.010 A 
ATOM     61  C   UNL     1      10.953  12.308  -1.243  1.00  0.00     0.010 A 
ATOM     62  C   UNL     1       9.630  14.680  -1.911  1.00  0.00     0.020 A 
ATOM     63  C   UNL     1      11.685  13.485  -1.410  1.00  0.00     0.020 A 
ATOM     64  C   UNL     1      11.019  14.661  -1.758  1.00  0.00     0.054 A 
BRANCH  64  65
ATOM     65  S   UNL     1      11.942  16.206  -1.981  1.00  0.00     0.124 S 
ATOM     66  O   UNL     1      11.864  16.401  -3.426  1.00  0.00    -0.237 OA
ATOM     67  O   UNL     1      11.175  17.155  -1.177  1.00  0.00    -0.237 OA
ATOM     68  O   UNL     1      13.273  15.894  -1.465  1.00  0.00    -0.744 OA
ENDBRANCH  64  65
ENDBRANCH  38  59
ENDBRANCH  12  13
ENDBRANCH   5   7
ENDBRANCH   2   3
ENDBRANCH   1   2
BRANCH   1  69
ATOM     69  C   UNL     1       4.234  -3.656   0.808  1.00  0.00     0.023 C 
BRANCH  69  70
ATOM     70  C   UNL     1       4.681  -4.462  -0.414  1.00  0.00     0.116 C 
BRANCH  70  71
ATOM     71  N   UNL     1       6.127  -4.626  -0.580  1.00  0.00    -0.352 N 
ATOM     72  C   UNL     1       6.972  -5.713  -0.422  1.00  0.00     0.251 C 
ATOM     73  H   UNL     1       6.589  -3.803  -0.860  1.00  0.00     0.163 HD
ATOM     74  O   UNL     1       8.166  -5.587  -0.668  1.00  0.00    -0.269 OA
BRANCH  72  75
ATOM     75  C   UNL     1       6.450  -7.028   0.019  1.00  0.00     0.048 A 
ATOM     76  C   UNL     1       5.391  -7.519  -0.770  1.00  0.00     0.014 A 
ATOM     77  C   UNL     1       6.988  -7.794   1.126  1.00  0.00     0.007 A 
ATOM     78  C   UNL     1       4.716  -8.671  -0.417  1.00  0.00     0.001 A 
ATOM     79  C   UNL     1       6.263  -8.991   1.432  1.00  0.00    -0.017 A 
ATOM     80  C   UNL     1       8.131  -7.557   1.980  1.00  0.00     0.048 A 
ATOM     81  C   UNL     1       5.140  -9.384   0.691  1.00  0.00     0.009 A 
ATOM     82  C   UNL     1       6.636  -9.842   2.486  1.00  0.00     0.009 A 
ATOM     83  C   UNL     1       8.501  -8.462   3.003  1.00  0.00     0.014 A 
ATOM     84  C   UNL     1       7.752  -9.592   3.264  1.00  0.00     0.001 A 
BRANCH  80  85
ATOM     85  C   UNL     1       9.075  -6.416   1.947  1.00  0.00     0.252 C 
ATOM     86  O   UNL     1      10.263  -6.633   1.714  1.00  0.00    -0.269 OA
ATOM     87  N   UNL     1       8.686  -5.188   2.431  1.00  0.00    -0.345 N 
ATOM     88  H   UNL     1       9.416  -4.584   2.699  1.00  0.00     0.164 HD
BRANCH  87  89
ATOM     89  C   UNL     1       7.331  -4.660   2.599  1.00  0.00     0.134 C 
ATOM     90  C   UNL     1       6.296  -5.465   3.388  1.00  0.00     0.187 C 
ATOM     91  C   UNL     1       7.107  -3.606   3.683  1.00  0.00     0.187 C 
ATOM     92  O   UNL     1       5.892  -4.278   4.117  1.00  0.00    -0.377 OA
ENDBRANCH  87  89
ENDBRANCH  80  85
ENDBRANCH  72  75
ENDBRANCH  70  71
ENDBRANCH  69  70
ENDBRANCH   1  69
TORSDOF 16
