REMARK SMILES COc1ccc(Cl)c2c1N[C@@H](c1ccc(C(=O)NCCCCNC(=O)c3ccc(-c4c5nc(c(-c6ccc(S(=O)(=O)[O-])cc6)c6ccc([nH]6)c(-c6ccc(S(=O)(=O)[O-])cc6)c6nc(c(-c7ccc(S(=O)(=O)[O-])cc7)c7ccc4[nH]7)C=C6)C=C5)cc3)cc1)[C@@H]1CC=C[C@H]21
REMARK SMILES IDX 21 1 20 2 19 3 18 4 16 5 17 6 15 8 12 9 13 10 87 11 14 12
REMARK SMILES IDX 86 13 11 14 3 15 4 16 9 17 5 18 8 19 10 20 6 21 92 22 7 24
REMARK SMILES IDX 88 25 91 26 89 27 90 28 2 29 1 30 22 31 23 32 24 33 25 35
REMARK SMILES IDX 26 36 27 37 85 38 28 39 84 40 29 41 30 42 31 43 78 44 32 45
REMARK SMILES IDX 83 46 77 47 79 48 33 49 82 50 76 51 75 52 34 54 64 55 45 56
REMARK SMILES IDX 63 57 46 58 49 59 62 60 80 61 47 62 48 63 61 65 81 66 50 67
REMARK SMILES IDX 35 68 36 69 44 70 37 71 43 72 38 73 39 74 40 75 41 76 42 77
REMARK SMILES IDX 65 78 66 79 74 80 67 81 73 82 68 83 69 84 70 85 71 86 72 87
REMARK SMILES IDX 51 88 52 89 60 90 53 91 59 92 54 93 55 94 56 95 57 96 58 97
REMARK H PARENT 18 7 10 23 23 34 79 53 49 64
REMARK Flexibility Score: inf
ROOT
ATOM      1  C   UNL     1      11.012   2.158   3.695  1.00  0.00     0.023 C 
ENDROOT
BRANCH   1   2
ATOM      2  C   UNL     1      10.010   2.310   2.551  1.00  0.00     0.023 C 
BRANCH   2   3
ATOM      3  C   UNL     1      10.158   1.281   1.429  1.00  0.00     0.116 C 
BRANCH   3   4
ATOM      4  N   UNL     1       9.646  -0.015   1.833  1.00  0.00    -0.352 N 
ATOM      5  C   UNL     1       8.459  -0.641   1.544  1.00  0.00     0.251 C 
ATOM      6  O   UNL     1       8.294  -1.800   1.921  1.00  0.00    -0.269 OA
ATOM      7  H   UNL     1      10.252  -0.533   2.410  1.00  0.00     0.163 HD
BRANCH   5   8
ATOM      8  C   UNL     1       7.388   0.016   0.750  1.00  0.00     0.039 A 
ATOM      9  C   UNL     1       5.331   1.141  -0.826  1.00  0.00    -0.025 A 
ATOM     10  C   UNL     1       5.647  -0.222  -0.929  1.00  0.00     0.006 A 
ATOM     11  C   UNL     1       6.035   1.921   0.102  1.00  0.00     0.006 A 
ATOM     12  C   UNL     1       6.657  -0.781  -0.138  1.00  0.00     0.014 A 
ATOM     13  C   UNL     1       7.043   1.361   0.887  1.00  0.00     0.014 A 
BRANCH   9  14
ATOM     14  C   UNL     1       4.260   1.797  -1.681  1.00  0.00     0.114 C 
ATOM     15  C   UNL     1       0.767   0.699  -2.344  1.00  0.00     0.142 A 
ATOM     16  C   UNL     1      -0.317   0.996  -3.165  1.00  0.00     0.050 A 
ATOM     17  C   UNL     1       2.034   1.277  -2.563  1.00  0.00     0.083 A 
ATOM     18  C   UNL     1      -0.158   1.903  -4.207  1.00  0.00     0.025 A 
ATOM     19  C   UNL     1       2.202   2.188  -3.626  1.00  0.00     0.005 A 
ATOM     20  N   UNL     1       3.109   0.920  -1.764  1.00  0.00    -0.375 N 
ATOM     21  C   UNL     1       1.089   2.491  -4.440  1.00  0.00     0.047 A 
ATOM     22  C   UNL     1       3.577   2.748  -3.923  1.00  0.00     0.051 C 
ATOM     23  H   UNL     1       3.090   0.077  -1.255  1.00  0.00     0.161 HD
ATOM     24  Cl  UNL     1       1.202   3.562  -5.796  1.00  0.00    -0.084 Cl
ATOM     25  C   UNL     1       4.742   2.132  -3.106  1.00  0.00     0.031 C 
ATOM     26  C   UNL     1       3.756   4.217  -3.625  1.00  0.00    -0.023 C 
ATOM     27  C   UNL     1       5.818   3.234  -3.132  1.00  0.00     0.034 C 
ATOM     28  C   UNL     1       5.000   4.482  -3.206  1.00  0.00    -0.030 C 
BRANCH  15  29
ATOM     29  O   UNL     1       0.561  -0.237  -1.359  1.00  0.00    -0.495 OA
ATOM     30  C   UNL     1       0.500   0.365  -0.065  1.00  0.00     0.278 C 
ENDBRANCH  15  29
ENDBRANCH   9  14
ENDBRANCH   5   8
ENDBRANCH   3   4
ENDBRANCH   2   3
ENDBRANCH   1   2
BRANCH   1  31
ATOM     31  C   UNL     1      12.468   2.363   3.303  1.00  0.00     0.116 C 
BRANCH  31  32
ATOM     32  N   UNL     1      12.725   3.669   2.714  1.00  0.00    -0.352 N 
ATOM     33  C   UNL     1      13.874   4.418   2.815  1.00  0.00     0.251 C 
ATOM     34  H   UNL     1      11.994   4.060   2.183  1.00  0.00     0.163 HD
ATOM     35  O   UNL     1      13.945   5.539   2.336  1.00  0.00    -0.269 OA
BRANCH  33  36
ATOM     36  C   UNL     1      15.005   3.836   3.561  1.00  0.00     0.039 A 
ATOM     37  C   UNL     1      15.435   4.469   4.727  1.00  0.00     0.014 A 
ATOM     38  C   UNL     1      15.544   2.609   3.161  1.00  0.00     0.014 A 
ATOM     39  C   UNL     1      16.375   3.834   5.537  1.00  0.00     0.010 A 
ATOM     40  C   UNL     1      16.447   1.958   3.993  1.00  0.00     0.010 A 
ATOM     41  C   UNL     1      16.863   2.563   5.189  1.00  0.00    -0.014 A 
BRANCH  41  42
ATOM     42  C   UNL     1      17.820   1.857   6.068  1.00  0.00     0.031 A 
ATOM     43  C   UNL     1      19.248   1.704   5.637  1.00  0.00     0.074 A 
ATOM     44  C   UNL     1      17.394   1.329   7.231  1.00  0.00     0.049 A 
ATOM     45  N   UNL     1      20.234   1.116   6.263  1.00  0.00    -0.248 NA
ATOM     46  C   UNL     1      19.614   2.271   4.329  1.00  0.00     0.031 C 
ATOM     47  C   UNL     1      16.020   1.388   7.737  1.00  0.00     0.029 A 
ATOM     48  N   UNL     1      18.077   0.640   8.201  1.00  0.00    -0.354 N 
ATOM     49  C   UNL     1      21.334   1.240   5.426  1.00  0.00     0.074 A 
ATOM     50  C   UNL     1      20.888   1.919   4.229  1.00  0.00     0.031 C 
ATOM     51  C   UNL     1      15.969   0.786   8.937  1.00  0.00     0.029 A 
ATOM     52  C   UNL     1      17.297   0.282   9.276  1.00  0.00     0.049 A 
ATOM     53  H   UNL     1      19.034   0.421   8.134  1.00  0.00     0.167 HD
ATOM     54  C   UNL     1      22.608   0.845   5.646  1.00  0.00     0.031 A 
ATOM     55  C   UNL     1      17.619  -0.368  10.411  1.00  0.00     0.031 A 
ATOM     56  C   UNL     1      23.052   0.185   6.841  1.00  0.00     0.049 A 
ATOM     57  C   UNL     1      19.040  -0.802  10.632  1.00  0.00     0.074 A 
ATOM     58  C   UNL     1      24.333  -0.220   7.173  1.00  0.00     0.029 A 
ATOM     59  N   UNL     1      22.231  -0.163   7.902  1.00  0.00    -0.354 N 
ATOM     60  N   UNL     1      20.077  -0.640   9.846  1.00  0.00    -0.248 NA
ATOM     61  C   UNL     1      19.339  -1.497  11.893  1.00  0.00     0.031 C 
ATOM     62  C   UNL     1      24.281  -0.837   8.426  1.00  0.00     0.029 A 
ATOM     63  C   UNL     1      22.975  -0.785   8.887  1.00  0.00     0.049 A 
ATOM     64  H   UNL     1      21.263   0.009   7.947  1.00  0.00     0.167 HD
ATOM     65  C   UNL     1      21.155  -1.195  10.524  1.00  0.00     0.074 A 
ATOM     66  C   UNL     1      20.647  -1.697  11.784  1.00  0.00     0.031 C 
ATOM     67  C   UNL     1      22.451  -1.275  10.136  1.00  0.00     0.031 A 
BRANCH  54  68
ATOM     68  C   UNL     1      23.615   1.133   4.570  1.00  0.00    -0.014 A 
ATOM     69  C   UNL     1      24.110   2.436   4.386  1.00  0.00     0.010 A 
ATOM     70  C   UNL     1      24.101   0.089   3.764  1.00  0.00     0.010 A 
ATOM     71  C   UNL     1      25.056   2.697   3.394  1.00  0.00     0.020 A 
ATOM     72  C   UNL     1      25.062   0.343   2.782  1.00  0.00     0.020 A 
ATOM     73  C   UNL     1      25.527   1.648   2.598  1.00  0.00     0.054 A 
BRANCH  73  74
ATOM     74  S   UNL     1      26.766   2.020   1.328  1.00  0.00     0.124 S 
ATOM     75  O   UNL     1      26.026   2.907   0.433  1.00  0.00    -0.237 OA
ATOM     76  O   UNL     1      27.830   2.654   2.101  1.00  0.00    -0.237 OA
ATOM     77  O   UNL     1      27.096   0.712   0.768  1.00  0.00    -0.744 OA
ENDBRANCH  73  74
ENDBRANCH  54  68
BRANCH  55  78
ATOM     78  C   UNL     1      16.573  -0.602  11.439  1.00  0.00    -0.014 A 
ATOM     79  C   UNL     1      16.506   0.222  12.576  1.00  0.00     0.010 A 
ATOM     80  C   UNL     1      15.605  -1.605  11.258  1.00  0.00     0.010 A 
ATOM     81  C   UNL     1      15.481   0.053  13.511  1.00  0.00     0.020 A 
ATOM     82  C   UNL     1      14.570  -1.768  12.184  1.00  0.00     0.020 A 
ATOM     83  C   UNL     1      14.513  -0.934  13.303  1.00  0.00     0.054 A 
BRANCH  83  84
ATOM     84  S   UNL     1      13.154  -1.078  14.497  1.00  0.00     0.124 S 
ATOM     85  O   UNL     1      13.858  -1.444  15.722  1.00  0.00    -0.237 OA
ATOM     86  O   UNL     1      12.581   0.265  14.473  1.00  0.00    -0.237 OA
ATOM     87  O   UNL     1      12.305  -2.122  13.928  1.00  0.00    -0.744 OA
ENDBRANCH  83  84
ENDBRANCH  55  78
BRANCH  67  88
ATOM     88  C   UNL     1      23.431  -1.911  11.079  1.00  0.00    -0.014 A 
ATOM     89  C   UNL     1      23.555  -3.308  11.145  1.00  0.00     0.010 A 
ATOM     90  C   UNL     1      24.329  -1.099  11.796  1.00  0.00     0.010 A 
ATOM     91  C   UNL     1      24.573  -3.886  11.908  1.00  0.00     0.020 A 
ATOM     92  C   UNL     1      25.356  -1.674  12.547  1.00  0.00     0.020 A 
ATOM     93  C   UNL     1      25.474  -3.065  12.593  1.00  0.00     0.054 A 
BRANCH  93  94
ATOM     94  S   UNL     1      26.839  -3.845  13.498  1.00  0.00     0.124 S 
ATOM     95  O   UNL     1      26.133  -4.596  14.532  1.00  0.00    -0.237 OA
ATOM     96  O   UNL     1      27.482  -4.652  12.463  1.00  0.00    -0.237 OA
ATOM     97  O   UNL     1      27.629  -2.715  13.982  1.00  0.00    -0.744 OA
ENDBRANCH  93  94
ENDBRANCH  67  88
ENDBRANCH  41  42
ENDBRANCH  33  36
ENDBRANCH  31  32
ENDBRANCH   1  31
TORSDOF 16
