REMARK SMILES O=C(NCCCCNC(=O)[C@H]1C[N@H+](Cc2ccc(Cl)c(Cl)c2)CC12CCCCC2)c1ccc(-c2c3nc(c(-c4ccc(S(=O)(=O)[O-])cc4)c4ccc([nH]4)c(-c4ccc(S(=O)(=O)[O-])cc4)c4nc(c(-c5ccc(S(=O)(=O)[O-])cc5)c5ccc2[nH]5)C=C4)C=C3)cc1
REMARK SMILES IDX 5 1 4 2 3 3 1 4 2 5 30 7 31 8 89 9 32 10 88 11 33 12 34 13
REMARK SMILES IDX 35 14 82 15 36 16 87 17 81 18 83 19 37 20 86 21 80 22 79 23
REMARK SMILES IDX 38 25 68 26 49 27 67 28 50 29 53 30 66 31 84 32 51 33 52 34
REMARK SMILES IDX 65 36 85 37 54 38 39 39 40 40 48 41 41 42 47 43 42 44 43 45
REMARK SMILES IDX 44 46 45 47 46 48 69 49 70 50 78 51 71 52 77 53 72 54 73 55
REMARK SMILES IDX 74 56 75 57 76 58 55 59 56 60 64 61 57 62 63 63 58 64 59 65
REMARK SMILES IDX 60 66 61 67 62 68 6 69 7 70 8 71 9 72 10 74 11 75 12 76
REMARK SMILES IDX 24 77 13 78 23 79 25 80 29 81 26 83 28 84 27 85 14 86 15 87
REMARK SMILES IDX 16 88 22 89 17 90 20 91 18 92 21 93 19 94
REMARK H PARENT 3 6 83 24 53 35 8 73 13 82
REMARK Flexibility Score: inf
ROOT
ATOM      1  C   UNL     1       4.872  -0.101   2.585  1.00  0.00     0.023 C 
ENDROOT
BRANCH   1   2
ATOM      2  C   UNL     1       4.571  -0.273   1.101  1.00  0.00     0.116 C 
BRANCH   2   3
ATOM      3  N   UNL     1       3.172  -0.582   0.845  1.00  0.00    -0.352 N 
ATOM      4  O   UNL     1       1.152  -0.308  -0.128  1.00  0.00    -0.269 OA
ATOM      5  C   UNL     1       2.352  -0.051  -0.117  1.00  0.00     0.251 C 
ATOM      6  H   UNL     1       2.764  -1.255   1.436  1.00  0.00     0.163 HD
BRANCH   5   7
ATOM      7  C   UNL     1       2.939   0.857  -1.117  1.00  0.00     0.039 A 
ATOM      8  C   UNL     1       4.065   0.460  -1.847  1.00  0.00     0.014 A 
ATOM      9  C   UNL     1       2.389   2.128  -1.279  1.00  0.00     0.014 A 
ATOM     10  C   UNL     1       4.706   1.379  -2.669  1.00  0.00     0.010 A 
ATOM     11  C   UNL     1       2.998   3.027  -2.152  1.00  0.00     0.010 A 
ATOM     12  C   UNL     1       4.172   2.666  -2.835  1.00  0.00    -0.014 A 
BRANCH  12  13
ATOM     13  C   UNL     1       4.805   3.620  -3.773  1.00  0.00     0.031 A 
ATOM     14  C   UNL     1       5.438   4.884  -3.271  1.00  0.00     0.074 A 
ATOM     15  C   UNL     1       4.758   3.354  -5.091  1.00  0.00     0.049 A 
ATOM     16  N   UNL     1       5.940   5.879  -3.955  1.00  0.00    -0.248 NA
ATOM     17  C   UNL     1       5.507   5.058  -1.812  1.00  0.00     0.031 C 
ATOM     18  C   UNL     1       4.168   2.152  -5.686  1.00  0.00     0.029 A 
ATOM     19  N   UNL     1       5.193   4.082  -6.167  1.00  0.00    -0.354 N 
ATOM     20  C   UNL     1       6.356   6.813  -3.014  1.00  0.00     0.074 A 
ATOM     21  C   UNL     1       6.037   6.270  -1.711  1.00  0.00     0.031 C 
ATOM     22  C   UNL     1       4.280   2.225  -7.020  1.00  0.00     0.029 A 
ATOM     23  C   UNL     1       4.889   3.502  -7.374  1.00  0.00     0.049 A 
ATOM     24  H   UNL     1       5.676   4.936  -6.083  1.00  0.00     0.167 HD
ATOM     25  C   UNL     1       6.945   8.016  -3.224  1.00  0.00     0.031 A 
ATOM     26  C   UNL     1       5.043   3.961  -8.630  1.00  0.00     0.031 A 
ATOM     27  C   UNL     1       7.244   8.547  -4.528  1.00  0.00     0.049 A 
ATOM     28  C   UNL     1       5.665   5.308  -8.842  1.00  0.00     0.074 A 
ATOM     29  C   UNL     1       7.868   9.739  -4.850  1.00  0.00     0.029 A 
ATOM     30  N   UNL     1       6.928   7.924  -5.728  1.00  0.00    -0.354 N 
ATOM     31  N   UNL     1       6.085   6.165  -7.942  1.00  0.00    -0.248 NA
ATOM     32  C   UNL     1       5.840   5.749 -10.230  1.00  0.00     0.031 C 
ATOM     33  C   UNL     1       7.884   9.860  -6.244  1.00  0.00     0.029 A 
ATOM     34  C   UNL     1       7.321   8.717  -6.792  1.00  0.00     0.049 A 
ATOM     35  H   UNL     1       6.488   7.046  -5.809  1.00  0.00     0.167 HD
ATOM     36  C   UNL     1       6.595   7.242  -8.656  1.00  0.00     0.074 A 
ATOM     37  C   UNL     1       6.434   6.925 -10.062  1.00  0.00     0.031 C 
ATOM     38  C   UNL     1       7.153   8.384  -8.186  1.00  0.00     0.031 A 
BRANCH  25  39
ATOM     39  C   UNL     1       7.253   8.855  -2.012  1.00  0.00    -0.014 A 
ATOM     40  C   UNL     1       8.273   8.500  -1.112  1.00  0.00     0.010 A 
ATOM     41  C   UNL     1       6.505  10.023  -1.770  1.00  0.00     0.010 A 
ATOM     42  C   UNL     1       8.497   9.260   0.041  1.00  0.00     0.020 A 
ATOM     43  C   UNL     1       6.743  10.801  -0.633  1.00  0.00     0.020 A 
ATOM     44  C   UNL     1       7.720  10.398   0.280  1.00  0.00     0.054 A 
BRANCH  44  45
ATOM     45  S   UNL     1       8.005  11.348   1.798  1.00  0.00     0.124 S 
ATOM     46  O   UNL     1       7.372  10.498   2.805  1.00  0.00    -0.237 OA
ATOM     47  O   UNL     1       9.462  11.421   1.866  1.00  0.00    -0.237 OA
ATOM     48  O   UNL     1       7.331  12.619   1.544  1.00  0.00    -0.744 OA
ENDBRANCH  44  45
ENDBRANCH  25  39
BRANCH  26  49
ATOM     49  C   UNL     1       4.570   3.121  -9.760  1.00  0.00    -0.014 A 
ATOM     50  C   UNL     1       5.485   2.415 -10.557  1.00  0.00     0.010 A 
ATOM     51  C   UNL     1       3.189   2.937  -9.971  1.00  0.00     0.010 A 
ATOM     52  C   UNL     1       5.029   1.527 -11.535  1.00  0.00     0.020 A 
ATOM     53  C   UNL     1       2.730   2.032 -10.931  1.00  0.00     0.020 A 
ATOM     54  C   UNL     1       3.655   1.332 -11.707  1.00  0.00     0.054 A 
BRANCH  54  55
ATOM     55  S   UNL     1       3.090   0.090 -12.903  1.00  0.00     0.124 S 
ATOM     56  O   UNL     1       3.320   0.766 -14.175  1.00  0.00    -0.237 OA
ATOM     57  O   UNL     1       3.968  -1.043 -12.620  1.00  0.00    -0.237 OA
ATOM     58  O   UNL     1       1.688  -0.116 -12.546  1.00  0.00    -0.744 OA
ENDBRANCH  54  55
ENDBRANCH  26  49
BRANCH  38  59
ATOM     59  C   UNL     1       7.669   9.371  -9.196  1.00  0.00    -0.014 A 
ATOM     60  C   UNL     1       6.793  10.206  -9.910  1.00  0.00     0.010 A 
ATOM     61  C   UNL     1       9.058   9.530  -9.355  1.00  0.00     0.010 A 
ATOM     62  C   UNL     1       7.300  11.184 -10.771  1.00  0.00     0.020 A 
ATOM     63  C   UNL     1       9.567  10.519 -10.198  1.00  0.00     0.020 A 
ATOM     64  C   UNL     1       8.684  11.338 -10.905  1.00  0.00     0.054 A 
BRANCH  64  65
ATOM     65  S   UNL     1       9.318  12.672 -11.958  1.00  0.00     0.124 S 
ATOM     66  O   UNL     1       9.077  12.143 -13.297  1.00  0.00    -0.237 OA
ATOM     67  O   UNL     1       8.485  13.809 -11.571  1.00  0.00    -0.237 OA
ATOM     68  O   UNL     1      10.723  12.779 -11.573  1.00  0.00    -0.744 OA
ENDBRANCH  64  65
ENDBRANCH  38  59
ENDBRANCH  12  13
ENDBRANCH   5   7
ENDBRANCH   2   3
ENDBRANCH   1   2
BRANCH   1  69
ATOM     69  C   UNL     1       4.454  -1.281   3.464  1.00  0.00     0.023 C 
BRANCH  69  70
ATOM     70  C   UNL     1       4.966  -2.630   2.974  1.00  0.00     0.116 C 
BRANCH  70  71
ATOM     71  N   UNL     1       6.409  -2.725   3.079  1.00  0.00    -0.356 N 
ATOM     72  C   UNL     1       7.202  -3.542   3.815  1.00  0.00     0.229 C 
ATOM     73  H   UNL     1       6.899  -2.082   2.518  1.00  0.00     0.163 HD
ATOM     74  O   UNL     1       8.423  -3.399   3.696  1.00  0.00    -0.275 OA
BRANCH  72  75
ATOM     75  C   UNL     1       6.659  -4.624   4.733  1.00  0.00     0.145 C 
ATOM     76  C   UNL     1       5.675  -4.120   5.785  1.00  0.00     0.276 C 
ATOM     77  C   UNL     1       6.053  -5.907   4.085  1.00  0.00     0.037 C 
ATOM     78  N   UNL     1       4.760  -5.220   6.051  1.00  0.00    -0.330 N 
ATOM     79  C   UNL     1       4.726  -6.085   4.871  1.00  0.00     0.270 C 
ATOM     80  C   UNL     1       5.819  -5.837   2.553  1.00  0.00     0.014 C 
ATOM     81  C   UNL     1       7.040  -7.087   4.306  1.00  0.00     0.014 C 
ATOM     82  H   UNL     1       3.818  -4.848   6.175  1.00  0.00     0.348 HD
ATOM     83  C   UNL     1       5.366  -7.158   1.925  1.00  0.00     0.001 C 
ATOM     84  C   UNL     1       6.557  -8.418   3.736  1.00  0.00     0.001 C 
ATOM     85  C   UNL     1       6.314  -8.305   2.240  1.00  0.00     0.000 C 
BRANCH  78  86
ATOM     86  C   UNL     1       4.845  -5.846   7.371  1.00  0.00     0.299 C 
BRANCH  86  87
ATOM     87  C   UNL     1       6.103  -6.629   7.681  1.00  0.00     0.008 A 
ATOM     88  C   UNL     1       7.306  -5.978   7.992  1.00  0.00     0.011 A 
ATOM     89  C   UNL     1       6.100  -8.031   7.605  1.00  0.00     0.031 A 
ATOM     90  C   UNL     1       8.498  -6.696   8.111  1.00  0.00     0.022 A 
ATOM     91  C   UNL     1       7.290  -8.757   7.743  1.00  0.00     0.060 A 
ATOM     92  C   UNL     1       8.496  -8.084   7.969  1.00  0.00     0.059 A 
ATOM     93  Cl  UNL     1       7.207 -10.473   7.565  1.00  0.00    -0.083 Cl
ATOM     94  Cl  UNL     1      10.015  -8.902   8.050  1.00  0.00    -0.083 Cl
ENDBRANCH  86  87
ENDBRANCH  78  86
ENDBRANCH  72  75
ENDBRANCH  70  71
ENDBRANCH  69  70
ENDBRANCH   1  69
TORSDOF 16
