REMARK SMILES O=C1CC[C@H](CNC(=O)N[C@@H]2C=C[C@@H](C(=O)NCCCCNC(=O)c3ccc(-c4c5nc(c(-c6ccc(S(=O)(=O)[O-])cc6)c6ccc([nH]6)c(-c6ccc(S(=O)(=O)[O-])cc6)c6nc(c(-c7ccc(S(=O)(=O)[O-])cc7)c7ccc4[nH]7)C=C6)C=C5)cc3)C2)N1
REMARK SMILES IDX 19 1 18 2 17 3 15 4 16 5 14 7 11 8 12 9 85 10 13 11 10 12
REMARK SMILES IDX 7 13 8 14 9 16 6 18 5 19 1 20 2 21 3 22 86 23 4 24 20 26
REMARK SMILES IDX 21 27 22 28 23 29 24 31 25 32 26 33 84 34 27 35 83 36 28 37
REMARK SMILES IDX 29 38 30 39 77 40 31 41 82 42 76 43 78 44 32 45 81 46 75 47
REMARK SMILES IDX 74 48 33 50 63 51 44 52 62 53 45 54 48 55 61 56 79 57 46 58
REMARK SMILES IDX 47 59 60 61 80 62 49 63 34 64 35 65 43 66 36 67 42 68 37 69
REMARK SMILES IDX 38 70 39 71 40 72 41 73 64 74 65 75 73 76 66 77 72 78 67 79
REMARK SMILES IDX 68 80 69 81 70 82 71 83 50 84 51 85 59 86 52 87 58 88 53 89
REMARK SMILES IDX 54 90 55 91 56 92 57 93
REMARK H PARENT 17 6 7 15 10 17 86 25 22 30 78 49 48 60
REMARK Flexibility Score: inf
ROOT
ATOM      1  C   UNL     1      -4.827  -4.821   5.006  1.00  0.00     0.023 C 
ENDROOT
BRANCH   1   2
ATOM      2  C   UNL     1      -3.634  -3.996   5.485  1.00  0.00     0.116 C 
BRANCH   2   3
ATOM      3  N   UNL     1      -2.491  -4.809   5.848  1.00  0.00    -0.356 N 
ATOM      4  C   UNL     1      -1.248  -4.913   5.304  1.00  0.00     0.227 C 
ATOM      5  O   UNL     1      -0.424  -5.601   5.916  1.00  0.00    -0.274 OA
ATOM      6  H   UNL     1      -2.641  -5.391   6.627  1.00  0.00     0.163 HD
BRANCH   4   7
ATOM      7  C   UNL     1      -0.861  -4.299   3.951  1.00  0.00     0.103 C 
ATOM      8  C   UNL     1      -2.390  -3.697   2.108  1.00  0.00     0.107 C 
ATOM      9  C   UNL     1      -1.749  -2.496   2.732  1.00  0.00    -0.006 C 
ATOM     10  C   UNL     1      -1.690  -4.871   2.804  1.00  0.00     0.047 C 
ATOM     11  C   UNL     1      -0.972  -2.820   3.773  1.00  0.00    -0.016 C 
BRANCH   8  12
ATOM     12  N   UNL     1      -2.198  -3.689   0.676  1.00  0.00    -0.332 N 
ATOM     13  N   UNL     1      -3.470  -5.528  -0.119  1.00  0.00    -0.336 N 
ATOM     14  C   UNL     1      -2.656  -4.474  -0.314  1.00  0.00     0.315 C 
ATOM     15  H   UNL     1      -3.749  -5.982  -0.948  1.00  0.00     0.165 HD
ATOM     16  O   UNL     1      -2.305  -4.223  -1.469  1.00  0.00    -0.249 OA
ATOM     17  H   UNL     1      -1.613  -2.962   0.363  1.00  0.00     0.165 HD
BRANCH  13  18
ATOM     18  C   UNL     1      -4.008  -6.114   1.088  1.00  0.00     0.142 C 
BRANCH  18  19
ATOM     19  C   UNL     1      -5.234  -7.026   0.915  1.00  0.00     0.101 C 
ATOM     20  O   UNL     1      -5.798  -8.463   4.068  1.00  0.00    -0.275 OA
ATOM     21  C   UNL     1      -5.517  -8.250   2.897  1.00  0.00     0.220 C 
ATOM     22  C   UNL     1      -4.614  -9.075   2.021  1.00  0.00     0.102 C 
ATOM     23  N   UNL     1      -5.923  -7.147   2.179  1.00  0.00    -0.352 N 
ATOM     24  C   UNL     1      -4.858  -8.477   0.632  1.00  0.00     0.036 C 
ATOM     25  H   UNL     1      -6.606  -6.512   2.493  1.00  0.00     0.163 HD
ENDBRANCH  18  19
ENDBRANCH  13  18
ENDBRANCH   8  12
ENDBRANCH   4   7
ENDBRANCH   2   3
ENDBRANCH   1   2
BRANCH   1  26
ATOM     26  C   UNL     1      -5.497  -5.695   6.069  1.00  0.00     0.023 C 
BRANCH  26  27
ATOM     27  C   UNL     1      -5.923  -4.979   7.345  1.00  0.00     0.116 C 
BRANCH  27  28
ATOM     28  N   UNL     1      -6.824  -3.863   7.107  1.00  0.00    -0.352 N 
ATOM     29  C   UNL     1      -7.897  -3.439   7.854  1.00  0.00     0.251 C 
ATOM     30  H   UNL     1      -6.639  -3.336   6.296  1.00  0.00     0.163 HD
ATOM     31  O   UNL     1      -8.610  -2.535   7.424  1.00  0.00    -0.269 OA
BRANCH  29  32
ATOM     32  C   UNL     1      -8.213  -4.082   9.151  1.00  0.00     0.039 A 
ATOM     33  C   UNL     1      -9.551  -4.336   9.466  1.00  0.00     0.014 A 
ATOM     34  C   UNL     1      -7.209  -4.425  10.061  1.00  0.00     0.014 A 
ATOM     35  C   UNL     1      -9.875  -4.972  10.667  1.00  0.00     0.010 A 
ATOM     36  C   UNL     1      -7.526  -5.136  11.216  1.00  0.00     0.010 A 
ATOM     37  C   UNL     1      -8.863  -5.400  11.543  1.00  0.00    -0.014 A 
BRANCH  37  38
ATOM     38  C   UNL     1      -9.196  -6.109  12.806  1.00  0.00     0.031 A 
ATOM     39  C   UNL     1      -8.847  -5.499  14.138  1.00  0.00     0.074 A 
ATOM     40  C   UNL     1      -9.769  -7.327  12.756  1.00  0.00     0.049 A 
ATOM     41  N   UNL     1      -9.074  -5.960  15.342  1.00  0.00    -0.248 NA
ATOM     42  C   UNL     1      -8.118  -4.220  14.116  1.00  0.00     0.031 C 
ATOM     43  C   UNL     1     -10.086  -8.063  11.530  1.00  0.00     0.029 A 
ATOM     44  N   UNL     1     -10.181  -8.165  13.762  1.00  0.00    -0.354 N 
ATOM     45  C   UNL     1      -8.498  -5.044  16.215  1.00  0.00     0.074 A 
ATOM     46  C   UNL     1      -7.863  -4.031  15.401  1.00  0.00     0.031 C 
ATOM     47  C   UNL     1     -10.669  -9.228  11.855  1.00  0.00     0.029 A 
ATOM     48  C   UNL     1     -10.741  -9.336  13.309  1.00  0.00     0.049 A 
ATOM     49  H   UNL     1     -10.085  -7.947  14.717  1.00  0.00     0.167 HD
ATOM     50  C   UNL     1      -8.513  -5.032  17.570  1.00  0.00     0.031 A 
ATOM     51  C   UNL     1     -11.261 -10.379  13.985  1.00  0.00     0.031 A 
ATOM     52  C   UNL     1      -9.154  -6.038  18.376  1.00  0.00     0.049 A 
ATOM     53  C   UNL     1     -11.316 -10.324  15.486  1.00  0.00     0.074 A 
ATOM     54  C   UNL     1      -9.297  -6.078  19.752  1.00  0.00     0.029 A 
ATOM     55  N   UNL     1      -9.752  -7.186  17.878  1.00  0.00    -0.354 N 
ATOM     56  N   UNL     1     -10.857  -9.398  16.294  1.00  0.00    -0.248 NA
ATOM     57  C   UNL     1     -11.986 -11.441  16.164  1.00  0.00     0.031 C 
ATOM     58  C   UNL     1      -9.933  -7.279  20.089  1.00  0.00     0.029 A 
ATOM     59  C   UNL     1     -10.244  -7.955  18.920  1.00  0.00     0.049 A 
ATOM     60  H   UNL     1      -9.817  -7.421  16.924  1.00  0.00     0.167 HD
ATOM     61  C   UNL     1     -11.201  -9.810  17.577  1.00  0.00     0.074 A 
ATOM     62  C   UNL     1     -11.924 -11.058  17.433  1.00  0.00     0.031 C 
ATOM     63  C   UNL     1     -10.945  -9.206  18.765  1.00  0.00     0.031 A 
BRANCH  50  64
ATOM     64  C   UNL     1      -7.792  -3.899  18.258  1.00  0.00    -0.014 A 
ATOM     65  C   UNL     1      -8.253  -2.572  18.164  1.00  0.00     0.010 A 
ATOM     66  C   UNL     1      -6.633  -4.165  19.009  1.00  0.00     0.010 A 
ATOM     67  C   UNL     1      -7.530  -1.527  18.746  1.00  0.00     0.020 A 
ATOM     68  C   UNL     1      -5.925  -3.126  19.622  1.00  0.00     0.020 A 
ATOM     69  C   UNL     1      -6.364  -1.810  19.463  1.00  0.00     0.054 A 
BRANCH  69  70
ATOM     70  S   UNL     1      -5.434  -0.434  20.192  1.00  0.00     0.124 S 
ATOM     71  O   UNL     1      -4.807   0.162  19.015  1.00  0.00    -0.237 OA
ATOM     72  O   UNL     1      -6.483   0.367  20.818  1.00  0.00    -0.237 OA
ATOM     73  O   UNL     1      -4.517  -1.089  21.122  1.00  0.00    -0.744 OA
ENDBRANCH  69  70
ENDBRANCH  50  64
BRANCH  51  74
ATOM     74  C   UNL     1     -11.799 -11.543  13.229  1.00  0.00    -0.014 A 
ATOM     75  C   UNL     1     -13.185 -11.752  13.123  1.00  0.00     0.010 A 
ATOM     76  C   UNL     1     -10.923 -12.414  12.556  1.00  0.00     0.010 A 
ATOM     77  C   UNL     1     -13.685 -12.811  12.359  1.00  0.00     0.020 A 
ATOM     78  C   UNL     1     -11.419 -13.458  11.770  1.00  0.00     0.020 A 
ATOM     79  C   UNL     1     -12.799 -13.652  11.680  1.00  0.00     0.054 A 
BRANCH  79  80
ATOM     80  S   UNL     1     -13.473 -14.962  10.620  1.00  0.00     0.124 S 
ATOM     81  O   UNL     1     -13.956 -15.929  11.600  1.00  0.00    -0.237 OA
ATOM     82  O   UNL     1     -14.506 -14.256   9.865  1.00  0.00    -0.237 OA
ATOM     83  O   UNL     1     -12.321 -15.390   9.830  1.00  0.00    -0.744 OA
ENDBRANCH  79  80
ENDBRANCH  51  74
BRANCH  63  84
ATOM     84  C   UNL     1     -11.474  -9.879  20.006  1.00  0.00    -0.014 A 
ATOM     85  C   UNL     1     -10.929 -11.088  20.474  1.00  0.00     0.010 A 
ATOM     86  C   UNL     1     -12.520  -9.274  20.727  1.00  0.00     0.010 A 
ATOM     87  C   UNL     1     -11.457 -11.707  21.611  1.00  0.00     0.020 A 
ATOM     88  C   UNL     1     -13.029  -9.874  21.882  1.00  0.00     0.020 A 
ATOM     89  C   UNL     1     -12.509 -11.099  22.303  1.00  0.00     0.054 A 
BRANCH  89  90
ATOM     90  S   UNL     1     -13.174 -11.916  23.779  1.00  0.00     0.124 S 
ATOM     91  O   UNL     1     -13.948 -13.009  23.197  1.00  0.00    -0.237 OA
ATOM     92  O   UNL     1     -11.967 -12.315  24.498  1.00  0.00    -0.237 OA
ATOM     93  O   UNL     1     -13.962 -10.871  24.429  1.00  0.00    -0.744 OA
ENDBRANCH  89  90
ENDBRANCH  63  84
ENDBRANCH  37  38
ENDBRANCH  29  32
ENDBRANCH  27  28
ENDBRANCH  26  27
ENDBRANCH   1  26
TORSDOF 17
