REMARK SMILES [NH3+]CCOCC(=O)N[C@]1(C(=O)NCCCCNC(=O)c2ccc(-c3c4nc(c(-c5ccc(S(=O)(=O)[O-])cc5)c5ccc([nH]5)c(-c5ccc(S(=O)(=O)[O-])cc5)c5nc(c(-c6ccc(S(=O)(=O)[O-])cc6)c6ccc3[nH]6)C=C5)C=C4)cc2)CCOC1
REMARK SMILES IDX 13 1 12 2 10 3 11 4 9 6 80 7 83 8 81 9 82 10 8 11 6 12 7 13
REMARK SMILES IDX 5 15 4 16 3 17 2 18 1 19 14 23 15 24 16 25 17 26 18 27 19 29
REMARK SMILES IDX 20 30 21 31 79 32 22 33 78 34 23 35 24 36 25 37 72 38 26 39
REMARK SMILES IDX 77 40 71 41 73 42 27 43 76 44 70 45 69 46 28 48 58 49 39 50
REMARK SMILES IDX 57 51 40 52 43 53 56 54 74 55 41 56 42 57 55 59 75 60 44 61
REMARK SMILES IDX 29 62 30 63 38 64 31 65 37 66 32 67 33 68 34 69 35 70 36 71
REMARK SMILES IDX 59 72 60 73 68 74 61 75 67 76 62 77 63 78 64 79 65 80 66 81
REMARK SMILES IDX 45 82 46 83 54 84 47 85 53 86 48 87 49 88 50 89 51 90 52 91
REMARK H PARENT 12 5 8 14 1 20 1 21 1 22 17 28 73 47 43 58
REMARK Flexibility Score: inf
ROOT
ATOM      1  C   UNL     1       0.496   0.549   7.275  1.00  0.00     0.116 C 
ENDROOT
BRANCH   1   2
ATOM      2  N   UNL     1       0.286   0.471   5.839  1.00  0.00    -0.354 N 
ATOM      3  C   UNL     1       0.973   1.265   4.957  1.00  0.00     0.248 C 
ATOM      4  O   UNL     1       0.338   2.156   4.393  1.00  0.00    -0.272 OA
ATOM      5  H   UNL     1      -0.371  -0.172   5.488  1.00  0.00     0.163 HD
BRANCH   3   6
ATOM      6  C   UNL     1       2.510   1.119   4.817  1.00  0.00     0.144 C 
ATOM      7  C   UNL     1       3.134   2.144   5.771  1.00  0.00     0.069 C 
ATOM      8  C   UNL     1       3.074  -0.221   5.328  1.00  0.00     0.198 C 
ATOM      9  C   UNL     1       4.360   1.457   6.312  1.00  0.00     0.163 C 
ATOM     10  O   UNL     1       4.078   0.060   6.326  1.00  0.00    -0.378 OA
BRANCH   6  11
ATOM     11  N   UNL     1       3.069   1.417   3.464  1.00  0.00    -0.338 N 
ATOM     12  C   UNL     1       2.643   1.099   2.211  1.00  0.00     0.246 C 
ATOM     13  O   UNL     1       3.500   0.984   1.328  1.00  0.00    -0.272 OA
ATOM     14  H   UNL     1       3.901   1.942   3.482  1.00  0.00     0.164 HD
BRANCH  12  15
ATOM     15  C   UNL     1       1.160   0.969   1.869  1.00  0.00     0.260 C 
BRANCH  15  16
ATOM     16  O   UNL     1       0.510  -0.199   2.331  1.00  0.00    -0.366 OA
BRANCH  16  17
ATOM     17  C   UNL     1       0.983  -1.412   1.748  1.00  0.00     0.222 C 
BRANCH  17  18
ATOM     18  C   UNL     1       0.469  -1.677   0.321  1.00  0.00     0.287 C 
BRANCH  18  19
ATOM     19  N   UNL     1       1.133  -0.916  -0.742  1.00  0.00    -0.356 N 
ATOM     20  H   UNL     1       0.723  -1.161  -1.643  1.00  0.00     0.344 HD
ATOM     21  H   UNL     1       2.128  -1.140  -0.749  1.00  0.00     0.344 HD
ATOM     22  H   UNL     1       1.010   0.082  -0.573  1.00  0.00     0.344 HD
ENDBRANCH  18  19
ENDBRANCH  17  18
ENDBRANCH  16  17
ENDBRANCH  15  16
ENDBRANCH  12  15
ENDBRANCH   6  11
ENDBRANCH   3   6
ENDBRANCH   1   2
BRANCH   1  23
ATOM     23  C   UNL     1      -0.140   1.824   7.840  1.00  0.00     0.023 C 
BRANCH  23  24
ATOM     24  C   UNL     1      -1.658   1.903   7.651  1.00  0.00     0.023 C 
BRANCH  24  25
ATOM     25  C   UNL     1      -2.425   0.698   8.177  1.00  0.00     0.116 C 
BRANCH  25  26
ATOM     26  N   UNL     1      -2.134   0.426   9.576  1.00  0.00    -0.352 N 
ATOM     27  C   UNL     1      -3.005   0.186  10.607  1.00  0.00     0.251 C 
ATOM     28  H   UNL     1      -1.179   0.411   9.815  1.00  0.00     0.163 HD
ATOM     29  O   UNL     1      -2.591   0.142  11.763  1.00  0.00    -0.269 OA
BRANCH  27  30
ATOM     30  C   UNL     1      -4.441   0.012  10.317  1.00  0.00     0.039 A 
ATOM     31  C   UNL     1      -5.375   0.706  11.088  1.00  0.00     0.014 A 
ATOM     32  C   UNL     1      -4.860  -0.813   9.268  1.00  0.00     0.014 A 
ATOM     33  C   UNL     1      -6.729   0.620  10.768  1.00  0.00     0.010 A 
ATOM     34  C   UNL     1      -6.200  -0.833   8.902  1.00  0.00     0.010 A 
ATOM     35  C   UNL     1      -7.149  -0.121   9.650  1.00  0.00    -0.014 A 
BRANCH  35  36
ATOM     36  C   UNL     1      -8.578  -0.162   9.249  1.00  0.00     0.031 A 
ATOM     37  C   UNL     1      -9.329  -1.465   9.266  1.00  0.00     0.074 A 
ATOM     38  C   UNL     1      -9.179   0.964   8.815  1.00  0.00     0.049 A 
ATOM     39  N   UNL     1     -10.563  -1.709   8.906  1.00  0.00    -0.248 NA
ATOM     40  C   UNL     1      -8.591  -2.654   9.723  1.00  0.00     0.031 C 
ATOM     41  C   UNL     1      -8.544   2.280   8.713  1.00  0.00     0.029 A 
ATOM     42  N   UNL     1     -10.460   1.181   8.373  1.00  0.00    -0.354 N 
ATOM     43  C   UNL     1     -10.744  -3.076   9.080  1.00  0.00     0.074 A 
ATOM     44  C   UNL     1      -9.479  -3.617   9.523  1.00  0.00     0.031 C 
ATOM     45  C   UNL     1      -9.445   3.171   8.269  1.00  0.00     0.029 A 
ATOM     46  C   UNL     1     -10.706   2.484   8.010  1.00  0.00     0.049 A 
ATOM     47  H   UNL     1     -11.140   0.470   8.321  1.00  0.00     0.167 HD
ATOM     48  C   UNL     1     -11.868  -3.811   8.908  1.00  0.00     0.031 A 
ATOM     49  C   UNL     1     -11.819   3.062   7.517  1.00  0.00     0.031 A 
ATOM     50  C   UNL     1     -13.126  -3.265   8.471  1.00  0.00     0.049 A 
ATOM     51  C   UNL     1     -13.050   2.220   7.315  1.00  0.00     0.074 A 
ATOM     52  C   UNL     1     -14.337  -3.916   8.313  1.00  0.00     0.029 A 
ATOM     53  N   UNL     1     -13.335  -1.940   8.117  1.00  0.00    -0.354 N 
ATOM     54  N   UNL     1     -13.221   0.941   7.551  1.00  0.00    -0.248 NA
ATOM     55  C   UNL     1     -14.242   2.903   6.794  1.00  0.00     0.031 C 
ATOM     56  C   UNL     1     -15.263  -2.997   7.808  1.00  0.00     0.029 A 
ATOM     57  C   UNL     1     -14.647  -1.759   7.717  1.00  0.00     0.049 A 
ATOM     58  H   UNL     1     -12.650  -1.233   8.147  1.00  0.00     0.167 HD
ATOM     59  C   UNL     1     -14.548   0.672   7.233  1.00  0.00     0.074 A 
ATOM     60  C   UNL     1     -15.137   1.925   6.806  1.00  0.00     0.031 C 
ATOM     61  C   UNL     1     -15.219  -0.505   7.292  1.00  0.00     0.031 A 
BRANCH  48  62
ATOM     62  C   UNL     1     -11.784  -5.290   9.186  1.00  0.00    -0.014 A 
ATOM     63  C   UNL     1     -11.604  -5.775  10.495  1.00  0.00     0.010 A 
ATOM     64  C   UNL     1     -11.925  -6.209   8.131  1.00  0.00     0.010 A 
ATOM     65  C   UNL     1     -11.521  -7.148  10.737  1.00  0.00     0.020 A 
ATOM     66  C   UNL     1     -11.875  -7.585   8.373  1.00  0.00     0.020 A 
ATOM     67  C   UNL     1     -11.656  -8.045   9.673  1.00  0.00     0.054 A 
BRANCH  67  68
ATOM     68  S   UNL     1     -11.567  -9.823  10.021  1.00  0.00     0.124 S 
ATOM     69  O   UNL     1     -10.149  -9.999  10.324  1.00  0.00    -0.237 OA
ATOM     70  O   UNL     1     -12.474  -9.972  11.157  1.00  0.00    -0.237 OA
ATOM     71  O   UNL     1     -12.020 -10.444   8.779  1.00  0.00    -0.744 OA
ENDBRANCH  67  68
ENDBRANCH  48  62
BRANCH  49  72
ATOM     72  C   UNL     1     -11.821   4.515   7.191  1.00  0.00    -0.014 A 
ATOM     73  C   UNL     1     -12.573   5.420   7.959  1.00  0.00     0.010 A 
ATOM     74  C   UNL     1     -11.058   5.003   6.114  1.00  0.00     0.010 A 
ATOM     75  C   UNL     1     -12.579   6.783   7.645  1.00  0.00     0.020 A 
ATOM     76  C   UNL     1     -11.036   6.369   5.816  1.00  0.00     0.020 A 
ATOM     77  C   UNL     1     -11.807   7.249   6.577  1.00  0.00     0.054 A 
BRANCH  77  78
ATOM     78  S   UNL     1     -11.792   9.027   6.220  1.00  0.00     0.124 S 
ATOM     79  O   UNL     1     -13.122   9.235   5.656  1.00  0.00    -0.237 OA
ATOM     80  O   UNL     1     -11.565   9.611   7.539  1.00  0.00    -0.237 OA
ATOM     81  O   UNL     1     -10.683   9.178   5.280  1.00  0.00    -0.744 OA
ENDBRANCH  77  78
ENDBRANCH  49  72
BRANCH  61  82
ATOM     82  C   UNL     1     -16.679  -0.492   6.921  1.00  0.00    -0.014 A 
ATOM     83  C   UNL     1     -17.095  -0.319   5.589  1.00  0.00     0.010 A 
ATOM     84  C   UNL     1     -17.647  -0.714   7.918  1.00  0.00     0.010 A 
ATOM     85  C   UNL     1     -18.454  -0.337   5.266  1.00  0.00     0.020 A 
ATOM     86  C   UNL     1     -19.005  -0.764   7.594  1.00  0.00     0.020 A 
ATOM     87  C   UNL     1     -19.401  -0.561   6.271  1.00  0.00     0.054 A 
BRANCH  87  88
ATOM     88  S   UNL     1     -21.155  -0.625   5.818  1.00  0.00     0.124 S 
ATOM     89  O   UNL     1     -21.448   0.778   5.535  1.00  0.00    -0.237 OA
ATOM     90  O   UNL     1     -21.154  -1.513   4.658  1.00  0.00    -0.237 OA
ATOM     91  O   UNL     1     -21.803  -1.167   7.010  1.00  0.00    -0.744 OA
ENDBRANCH  87  88
ENDBRANCH  61  82
ENDBRANCH  35  36
ENDBRANCH  27  30
ENDBRANCH  25  26
ENDBRANCH  24  25
ENDBRANCH  23  24
ENDBRANCH   1  23
TORSDOF 20
