REMARK SMILES CC(C)(C)c1ccc(NC(=O)CCC(=O)NCCCCNC(=O)c2ccc(-c3c4nc(c(-c5ccc(S(=O)(=O)[O-])cc5)c5ccc([nH]5)c(-c5ccc(S(=O)(=O)[O-])cc5)c5nc(c(-c6ccc(S(=O)(=O)[O-])cc6)c6ccc3[nH]6)C=C5)C=C4)cc2)cc1
REMARK SMILES IDX 18 1 17 2 16 3 14 4 15 5 13 7 12 8 10 9 9 10 11 12 8 13 5 14
REMARK SMILES IDX 6 15 85 16 7 17 84 18 2 19 1 20 3 21 4 22 19 23 20 24 21 25
REMARK SMILES IDX 22 26 23 28 24 29 25 30 83 31 26 32 82 33 27 34 28 35 29 36
REMARK SMILES IDX 76 37 30 38 81 39 75 40 77 41 31 42 80 43 74 44 73 45 32 47
REMARK SMILES IDX 62 48 43 49 61 50 44 51 47 52 60 53 78 54 45 55 46 56 59 58
REMARK SMILES IDX 79 59 48 60 33 61 34 62 42 63 35 64 41 65 36 66 37 67 38 68
REMARK SMILES IDX 39 69 40 70 63 71 64 72 72 73 65 74 71 75 66 76 67 77 68 78
REMARK SMILES IDX 69 79 70 80 49 81 50 82 58 83 51 84 57 85 52 86 53 87 54 88
REMARK SMILES IDX 55 89 56 90
REMARK H PARENT 16 6 9 11 21 27 77 46 47 57
REMARK Flexibility Score: inf
ROOT
ATOM      1  C   UNL     1       2.400   3.520  -6.437  1.00  0.00     0.023 C 
ENDROOT
BRANCH   1   2
ATOM      2  C   UNL     1       3.758   2.996  -5.976  1.00  0.00     0.116 C 
BRANCH   2   3
ATOM      3  N   UNL     1       3.676   2.050  -4.877  1.00  0.00    -0.356 N 
ATOM      4  C   UNL     1       4.202   0.798  -4.768  1.00  0.00     0.220 C 
ATOM      5  O   UNL     1       4.173   0.229  -3.677  1.00  0.00    -0.275 OA
ATOM      6  H   UNL     1       3.165   2.359  -4.095  1.00  0.00     0.163 HD
BRANCH   4   7
ATOM      7  C   UNL     1       4.801   0.121  -5.977  1.00  0.00     0.110 C 
BRANCH   7   8
ATOM      8  C   UNL     1       3.826  -0.775  -6.729  1.00  0.00     0.110 C 
BRANCH   8   9
ATOM      9  C   UNL     1       2.587  -0.070  -7.241  1.00  0.00     0.224 C 
ATOM     10  N   UNL     1       1.462   0.103  -6.488  1.00  0.00    -0.326 N 
ATOM     11  H   UNL     1       0.749   0.608  -6.942  1.00  0.00     0.169 HD
ATOM     12  O   UNL     1       2.618   0.464  -8.356  1.00  0.00    -0.275 OA
BRANCH  10  13
ATOM     13  C   UNL     1       1.133  -0.305  -5.188  1.00  0.00     0.041 A 
ATOM     14  C   UNL     1       0.589  -0.873  -2.459  1.00  0.00    -0.042 A 
ATOM     15  C   UNL     1       1.260  -1.790  -3.280  1.00  0.00     0.006 A 
ATOM     16  C   UNL     1       0.132   0.310  -3.064  1.00  0.00     0.006 A 
ATOM     17  C   UNL     1       1.520  -1.514  -4.628  1.00  0.00     0.026 A 
ATOM     18  C   UNL     1       0.370   0.573  -4.417  1.00  0.00     0.026 A 
BRANCH  14  19
ATOM     19  C   UNL     1       0.337  -1.131  -0.965  1.00  0.00    -0.013 C 
ATOM     20  C   UNL     1       1.056  -0.057  -0.119  1.00  0.00     0.016 C 
ATOM     21  C   UNL     1       0.845  -2.508  -0.481  1.00  0.00     0.016 C 
ATOM     22  C   UNL     1      -1.179  -1.073  -0.684  1.00  0.00     0.016 C 
ENDBRANCH  14  19
ENDBRANCH  10  13
ENDBRANCH   8   9
ENDBRANCH   7   8
ENDBRANCH   4   7
ENDBRANCH   2   3
ENDBRANCH   1   2
BRANCH   1  23
ATOM     23  C   UNL     1       1.545   4.168  -5.352  1.00  0.00     0.023 C 
BRANCH  23  24
ATOM     24  C   UNL     1       2.218   5.315  -4.616  1.00  0.00     0.116 C 
BRANCH  24  25
ATOM     25  N   UNL     1       2.579   6.399  -5.514  1.00  0.00    -0.352 N 
ATOM     26  C   UNL     1       2.118   7.689  -5.548  1.00  0.00     0.251 C 
ATOM     27  H   UNL     1       3.253   6.175  -6.196  1.00  0.00     0.163 HD
ATOM     28  O   UNL     1       2.363   8.398  -6.525  1.00  0.00    -0.269 OA
BRANCH  26  29
ATOM     29  C   UNL     1       1.323   8.224  -4.423  1.00  0.00     0.039 A 
ATOM     30  C   UNL     1       0.225   9.044  -4.694  1.00  0.00     0.014 A 
ATOM     31  C   UNL     1       1.676   7.939  -3.101  1.00  0.00     0.014 A 
ATOM     32  C   UNL     1      -0.535   9.550  -3.638  1.00  0.00     0.010 A 
ATOM     33  C   UNL     1       0.860   8.360  -2.058  1.00  0.00     0.010 A 
ATOM     34  C   UNL     1      -0.233   9.199  -2.312  1.00  0.00    -0.014 A 
BRANCH  34  35
ATOM     35  C   UNL     1      -1.010   9.751  -1.175  1.00  0.00     0.031 A 
ATOM     36  C   UNL     1      -0.330  10.639  -0.164  1.00  0.00     0.074 A 
ATOM     37  C   UNL     1      -2.308   9.422  -1.026  1.00  0.00     0.049 A 
ATOM     38  N   UNL     1      -0.826  11.201   0.907  1.00  0.00    -0.248 NA
ATOM     39  C   UNL     1       1.107  10.898  -0.362  1.00  0.00     0.031 C 
ATOM     40  C   UNL     1      -3.061   8.519  -1.901  1.00  0.00     0.029 A 
ATOM     41  N   UNL     1      -3.225   9.812  -0.084  1.00  0.00    -0.354 N 
ATOM     42  C   UNL     1       0.239  11.851   1.521  1.00  0.00     0.074 A 
ATOM     43  C   UNL     1       1.419  11.566   0.737  1.00  0.00     0.031 C 
ATOM     44  C   UNL     1      -4.333   8.456  -1.476  1.00  0.00     0.029 A 
ATOM     45  C   UNL     1      -4.480   9.291  -0.288  1.00  0.00     0.049 A 
ATOM     46  H   UNL     1      -3.005  10.409   0.667  1.00  0.00     0.167 HD
ATOM     47  C   UNL     1       0.234  12.639   2.623  1.00  0.00     0.031 A 
ATOM     48  C   UNL     1      -5.624   9.476   0.399  1.00  0.00     0.031 A 
ATOM     49  C   UNL     1      -0.949  12.953   3.376  1.00  0.00     0.049 A 
ATOM     50  C   UNL     1      -5.621  10.406   1.580  1.00  0.00     0.074 A 
ATOM     51  C   UNL     1      -1.081  13.798   4.464  1.00  0.00     0.029 A 
ATOM     52  N   UNL     1      -2.210  12.440   3.111  1.00  0.00    -0.354 N 
ATOM     53  N   UNL     1      -4.616  11.069   2.104  1.00  0.00    -0.248 NA
ATOM     54  C   UNL     1      -6.910  10.632   2.247  1.00  0.00     0.031 C 
ATOM     55  C   UNL     1      -2.419  13.769   4.877  1.00  0.00     0.029 A 
ATOM     56  C   UNL     1      -3.126  12.941   4.019  1.00  0.00     0.049 A 
ATOM     57  H   UNL     1      -2.422  11.811   2.383  1.00  0.00     0.167 HD
ATOM     58  C   UNL     1      -5.156  11.804   3.153  1.00  0.00     0.074 A 
ATOM     59  C   UNL     1      -6.578  11.522   3.172  1.00  0.00     0.031 C 
ATOM     60  C   UNL     1      -4.533  12.637   4.024  1.00  0.00     0.031 A 
BRANCH  47  61
ATOM     61  C   UNL     1       1.553  13.215   3.068  1.00  0.00    -0.014 A 
ATOM     62  C   UNL     1       2.206  14.206   2.311  1.00  0.00     0.010 A 
ATOM     63  C   UNL     1       2.145  12.768   4.263  1.00  0.00     0.010 A 
ATOM     64  C   UNL     1       3.450  14.700   2.712  1.00  0.00     0.020 A 
ATOM     65  C   UNL     1       3.377  13.282   4.683  1.00  0.00     0.020 A 
ATOM     66  C   UNL     1       4.031  14.229   3.893  1.00  0.00     0.054 A 
BRANCH  66  67
ATOM     67  S   UNL     1       5.643  14.893   4.396  1.00  0.00     0.124 S 
ATOM     68  O   UNL     1       6.550  14.203   3.482  1.00  0.00    -0.237 OA
ATOM     69  O   UNL     1       5.488  16.327   4.162  1.00  0.00    -0.237 OA
ATOM     70  O   UNL     1       5.755  14.502   5.799  1.00  0.00    -0.744 OA
ENDBRANCH  66  67
ENDBRANCH  47  61
BRANCH  48  71
ATOM     71  C   UNL     1      -6.873   8.803  -0.048  1.00  0.00    -0.014 A 
ATOM     72  C   UNL     1      -7.891   9.538  -0.678  1.00  0.00     0.010 A 
ATOM     73  C   UNL     1      -7.038   7.417   0.129  1.00  0.00     0.010 A 
ATOM     74  C   UNL     1      -9.059   8.904  -1.111  1.00  0.00     0.020 A 
ATOM     75  C   UNL     1      -8.194   6.775  -0.325  1.00  0.00     0.020 A 
ATOM     76  C   UNL     1      -9.202   7.525  -0.934  1.00  0.00     0.054 A 
BRANCH  76  77
ATOM     77  S   UNL     1     -10.697   6.711  -1.563  1.00  0.00     0.124 S 
ATOM     78  O   UNL     1     -11.691   7.085  -0.562  1.00  0.00    -0.237 OA
ATOM     79  O   UNL     1     -10.861   7.322  -2.880  1.00  0.00    -0.237 OA
ATOM     80  O   UNL     1     -10.329   5.296  -1.585  1.00  0.00    -0.744 OA
ENDBRANCH  76  77
ENDBRANCH  48  71
BRANCH  60  81
ATOM     81  C   UNL     1      -5.395  13.311   5.056  1.00  0.00    -0.014 A 
ATOM     82  C   UNL     1      -5.925  12.591   6.141  1.00  0.00     0.010 A 
ATOM     83  C   UNL     1      -5.657  14.689   4.949  1.00  0.00     0.010 A 
ATOM     84  C   UNL     1      -6.743  13.228   7.076  1.00  0.00     0.020 A 
ATOM     85  C   UNL     1      -6.453  15.334   5.897  1.00  0.00     0.020 A 
ATOM     86  C   UNL     1      -7.008  14.595   6.944  1.00  0.00     0.054 A 
BRANCH  86  87
ATOM     87  S   UNL     1      -8.063  15.405   8.176  1.00  0.00     0.124 S 
ATOM     88  O   UNL     1      -9.397  14.981   7.757  1.00  0.00    -0.237 OA
ATOM     89  O   UNL     1      -7.588  14.835   9.434  1.00  0.00    -0.237 OA
ATOM     90  O   UNL     1      -7.775  16.826   7.995  1.00  0.00    -0.744 OA
ENDBRANCH  86  87
ENDBRANCH  60  81
ENDBRANCH  34  35
ENDBRANCH  26  29
ENDBRANCH  24  25
ENDBRANCH  23  24
ENDBRANCH   1  23
TORSDOF 18
