REMARK SMILES Cc1c(NC(=O)COc2ccc(C(C)C)cc2)cccc1C(=O)NCCCCNC(=O)c1ccc(-c2c3nc(c(-c4ccc(S(=O)(=O)[O-])cc4)c4ccc([nH]4)c(-c4ccc(S(=O)(=O)[O-])cc4)c4nc(c(-c5ccc(S(=O)(=O)[O-])cc5)c5ccc2[nH]5)C=C4)C=C3)cc1
REMARK SMILES IDX 25 1 24 2 22 3 23 4 21 6 1 7 2 8 3 9 18 10 20 11 19 12 4 13
REMARK SMILES IDX 5 14 6 16 7 17 8 18 9 19 10 20 17 21 11 22 16 23 12 24 13 25
REMARK SMILES IDX 14 26 15 27 26 28 27 29 28 30 29 31 30 32 31 34 32 35 33 36
REMARK SMILES IDX 91 37 34 38 90 39 35 40 36 41 37 42 84 43 38 44 89 45 83 46
REMARK SMILES IDX 85 47 39 48 88 49 82 50 81 51 40 53 70 54 51 55 69 56 52 57
REMARK SMILES IDX 55 58 68 59 86 60 53 61 54 62 67 64 87 65 56 66 41 67 42 68
REMARK SMILES IDX 50 69 43 70 49 71 44 72 45 73 46 74 47 75 48 76 71 77 72 78
REMARK SMILES IDX 80 79 73 80 79 81 74 82 75 83 76 84 77 85 78 86 57 87 58 88
REMARK SMILES IDX 66 89 59 90 65 91 60 92 61 93 62 94 63 95 64 96
REMARK H PARENT 24 5 4 15 29 33 85 52 55 63
REMARK Flexibility Score: inf
ROOT
ATOM      1  C   UNL     1       3.483   1.622  -0.004  1.00  0.00     0.116 C 
ENDROOT
BRANCH   1   2
ATOM      2  N   UNL     1       2.343   2.435  -0.406  1.00  0.00    -0.352 N 
ATOM      3  C   UNL     1       0.997   2.236  -0.560  1.00  0.00     0.251 C 
ATOM      4  O   UNL     1       0.348   3.232  -0.903  1.00  0.00    -0.269 OA
ATOM      5  H   UNL     1       2.606   3.359  -0.621  1.00  0.00     0.163 HD
BRANCH   3   6
ATOM      6  C   UNL     1       0.229   0.970  -0.305  1.00  0.00     0.044 A 
ATOM      7  C   UNL     1       1.814  -0.649  -1.446  1.00  0.00     0.047 C 
ATOM      8  C   UNL     1       0.589  -0.359  -0.633  1.00  0.00    -0.015 A 
ATOM      9  C   UNL     1      -0.287  -1.443  -0.328  1.00  0.00     0.045 A 
ATOM     10  C   UNL     1      -1.595  -1.154   0.046  1.00  0.00     0.026 A 
ATOM     11  C   UNL     1      -1.079   1.196   0.163  1.00  0.00     0.014 A 
ATOM     12  C   UNL     1      -1.994   0.156   0.290  1.00  0.00     0.003 A 
BRANCH   9  13
ATOM     13  N   UNL     1       0.229  -2.752  -0.447  1.00  0.00    -0.323 N 
ATOM     14  C   UNL     1      -0.230  -4.014  -0.258  1.00  0.00     0.262 C 
ATOM     15  H   UNL     1       1.167  -2.747  -0.746  1.00  0.00     0.170 HD
ATOM     16  O   UNL     1       0.564  -4.931  -0.517  1.00  0.00    -0.271 OA
BRANCH  14  17
ATOM     17  C   UNL     1      -1.636  -4.371   0.208  1.00  0.00     0.329 C 
BRANCH  17  18
ATOM     18  O   UNL     1      -2.221  -3.768   1.340  1.00  0.00    -0.484 OA
BRANCH  18  19
ATOM     19  C   UNL     1      -1.703  -4.016   2.574  1.00  0.00     0.120 A 
ATOM     20  C   UNL     1      -0.414  -4.451   2.863  1.00  0.00     0.047 A 
ATOM     21  C   UNL     1      -2.586  -3.755   3.621  1.00  0.00     0.047 A 
ATOM     22  C   UNL     1      -0.023  -4.648   4.192  1.00  0.00     0.008 A 
ATOM     23  C   UNL     1      -2.205  -3.968   4.946  1.00  0.00     0.008 A 
ATOM     24  C   UNL     1      -0.917  -4.426   5.247  1.00  0.00    -0.045 A 
BRANCH  24  25
ATOM     25  C   UNL     1      -0.493  -4.736   6.670  1.00  0.00     0.013 C 
ATOM     26  C   UNL     1      -0.696  -3.552   7.617  1.00  0.00     0.012 C 
ATOM     27  C   UNL     1      -1.231  -5.979   7.174  1.00  0.00     0.012 C 
ENDBRANCH  24  25
ENDBRANCH  18  19
ENDBRANCH  17  18
ENDBRANCH  14  17
ENDBRANCH   9  13
ENDBRANCH   3   6
ENDBRANCH   1   2
BRANCH   1  28
ATOM     28  C   UNL     1       4.364   1.238  -1.212  1.00  0.00     0.023 C 
BRANCH  28  29
ATOM     29  C   UNL     1       5.114   2.392  -1.872  1.00  0.00     0.023 C 
BRANCH  29  30
ATOM     30  C   UNL     1       6.402   2.719  -1.145  1.00  0.00     0.116 C 
BRANCH  30  31
ATOM     31  N   UNL     1       7.607   2.228  -1.802  1.00  0.00    -0.352 N 
ATOM     32  C   UNL     1       8.919   2.469  -1.428  1.00  0.00     0.251 C 
ATOM     33  H   UNL     1       7.474   1.664  -2.598  1.00  0.00     0.163 HD
ATOM     34  O   UNL     1       9.866   2.254  -2.176  1.00  0.00    -0.269 OA
BRANCH  32  35
ATOM     35  C   UNL     1       9.143   2.881  -0.026  1.00  0.00     0.039 A 
ATOM     36  C   UNL     1       9.737   1.939   0.822  1.00  0.00     0.014 A 
ATOM     37  C   UNL     1       8.437   3.964   0.484  1.00  0.00     0.014 A 
ATOM     38  C   UNL     1       9.435   1.961   2.180  1.00  0.00     0.010 A 
ATOM     39  C   UNL     1       8.021   3.896   1.797  1.00  0.00     0.010 A 
ATOM     40  C   UNL     1       8.484   2.870   2.636  1.00  0.00    -0.014 A 
BRANCH  40  41
ATOM     41  C   UNL     1       7.860   2.812   3.954  1.00  0.00     0.031 A 
ATOM     42  C   UNL     1       8.151   3.887   4.932  1.00  0.00     0.074 A 
ATOM     43  C   UNL     1       6.931   1.869   4.236  1.00  0.00     0.049 A 
ATOM     44  N   UNL     1       7.934   3.809   6.202  1.00  0.00    -0.248 NA
ATOM     45  C   UNL     1       8.793   5.141   4.544  1.00  0.00     0.031 C 
ATOM     46  C   UNL     1       5.978   1.889   5.344  1.00  0.00     0.029 A 
ATOM     47  N   UNL     1       6.791   0.585   3.703  1.00  0.00    -0.354 N 
ATOM     48  C   UNL     1       8.077   5.078   6.721  1.00  0.00     0.074 A 
ATOM     49  C   UNL     1       8.725   5.835   5.680  1.00  0.00     0.031 C 
ATOM     50  C   UNL     1       5.596   0.630   5.605  1.00  0.00     0.029 A 
ATOM     51  C   UNL     1       6.405  -0.243   4.771  1.00  0.00     0.049 A 
ATOM     52  H   UNL     1       6.934   0.315   2.767  1.00  0.00     0.167 HD
ATOM     53  C   UNL     1       7.482   5.385   7.909  1.00  0.00     0.031 A 
ATOM     54  C   UNL     1       7.143  -1.298   5.228  1.00  0.00     0.031 A 
ATOM     55  C   UNL     1       6.973   4.183   8.572  1.00  0.00     0.049 A 
ATOM     56  C   UNL     1       7.538  -1.156   6.684  1.00  0.00     0.074 A 
ATOM     57  C   UNL     1       5.706   3.647   8.729  1.00  0.00     0.029 A 
ATOM     58  N   UNL     1       7.870   3.185   8.940  1.00  0.00    -0.354 N 
ATOM     59  N   UNL     1       7.431  -0.045   7.360  1.00  0.00    -0.248 NA
ATOM     60  C   UNL     1       8.124  -2.230   7.483  1.00  0.00     0.031 C 
ATOM     61  C   UNL     1       5.853   2.279   9.085  1.00  0.00     0.029 A 
ATOM     62  C   UNL     1       7.205   1.999   9.184  1.00  0.00     0.049 A 
ATOM     63  H   UNL     1       8.844   3.307   9.015  1.00  0.00     0.167 HD
ATOM     64  C   UNL     1       7.920  -0.219   8.626  1.00  0.00     0.074 A 
ATOM     65  C   UNL     1       8.332  -1.611   8.660  1.00  0.00     0.031 C 
ATOM     66  C   UNL     1       7.955   0.799   9.536  1.00  0.00     0.031 A 
BRANCH  53  67
ATOM     67  C   UNL     1       7.099   6.798   8.316  1.00  0.00    -0.014 A 
ATOM     68  C   UNL     1       6.094   6.995   9.287  1.00  0.00     0.010 A 
ATOM     69  C   UNL     1       7.602   7.971   7.719  1.00  0.00     0.010 A 
ATOM     70  C   UNL     1       5.563   8.266   9.570  1.00  0.00     0.020 A 
ATOM     71  C   UNL     1       7.072   9.244   7.976  1.00  0.00     0.020 A 
ATOM     72  C   UNL     1       6.039   9.383   8.890  1.00  0.00     0.054 A 
BRANCH  72  73
ATOM     73  S   UNL     1       5.295  11.005   9.195  1.00  0.00     0.124 S 
ATOM     74  O   UNL     1       3.897  10.783   8.835  1.00  0.00    -0.237 OA
ATOM     75  O   UNL     1       5.558  11.209  10.617  1.00  0.00    -0.237 OA
ATOM     76  O   UNL     1       6.027  11.898   8.297  1.00  0.00    -0.744 OA
ENDBRANCH  72  73
ENDBRANCH  53  67
BRANCH  54  77
ATOM     77  C   UNL     1       7.948  -1.981   4.179  1.00  0.00    -0.014 A 
ATOM     78  C   UNL     1       7.237  -2.727   3.214  1.00  0.00     0.010 A 
ATOM     79  C   UNL     1       9.244  -1.529   3.872  1.00  0.00     0.010 A 
ATOM     80  C   UNL     1       7.720  -2.840   1.909  1.00  0.00     0.020 A 
ATOM     81  C   UNL     1       9.733  -1.647   2.563  1.00  0.00     0.020 A 
ATOM     82  C   UNL     1       8.930  -2.231   1.578  1.00  0.00     0.054 A 
BRANCH  82  83
ATOM     83  S   UNL     1       9.313  -2.013  -0.187  1.00  0.00     0.124 S 
ATOM     84  O   UNL     1       9.276  -3.382  -0.689  1.00  0.00    -0.237 OA
ATOM     85  O   UNL     1       8.214  -1.151  -0.621  1.00  0.00    -0.237 OA
ATOM     86  O   UNL     1      10.630  -1.385  -0.166  1.00  0.00    -0.744 OA
ENDBRANCH  82  83
ENDBRANCH  54  77
BRANCH  66  87
ATOM     87  C   UNL     1       8.639   0.756  10.880  1.00  0.00    -0.014 A 
ATOM     88  C   UNL     1       9.736  -0.065  11.180  1.00  0.00     0.010 A 
ATOM     89  C   UNL     1       8.246   1.692  11.868  1.00  0.00     0.010 A 
ATOM     90  C   UNL     1      10.374   0.002  12.428  1.00  0.00     0.020 A 
ATOM     91  C   UNL     1       8.902   1.797  13.097  1.00  0.00     0.020 A 
ATOM     92  C   UNL     1       9.949   0.930  13.380  1.00  0.00     0.054 A 
BRANCH  92  93
ATOM     93  S   UNL     1      10.816   1.057  14.965  1.00  0.00     0.124 S 
ATOM     94  O   UNL     1      10.095   0.082  15.779  1.00  0.00    -0.237 OA
ATOM     95  O   UNL     1      12.188   0.693  14.621  1.00  0.00    -0.237 OA
ATOM     96  O   UNL     1      10.627   2.454  15.346  1.00  0.00    -0.744 OA
ENDBRANCH  92  93
ENDBRANCH  66  87
ENDBRANCH  40  41
ENDBRANCH  32  35
ENDBRANCH  30  31
ENDBRANCH  29  30
ENDBRANCH  28  29
ENDBRANCH   1  28
TORSDOF 19
