REMARK SMILES O=C(NCCCCNC(=O)[C@@H](Cc1ccccc1)N1C(=O)/C(=C/c2ccncc2)SC1=S)c1ccc(-c2c3nc(c(-c4ccc(S(=O)(=O)[O-])cc4)c4ccc([nH]4)c(-c4ccc(S(=O)(=O)[O-])cc4)c4nc(c(-c5ccc(S(=O)(=O)[O-])cc5)c5ccc2[nH]5)C=C4)C=C3)cc1
REMARK SMILES IDX 5 1 4 2 3 3 1 4 2 5 33 7 34 8 92 9 35 10 91 11 36 12 37 13
REMARK SMILES IDX 38 14 85 15 39 16 90 17 84 18 86 19 40 20 89 21 83 22 82 23
REMARK SMILES IDX 41 25 71 26 52 27 70 28 53 29 56 30 69 31 87 32 54 33 55 34
REMARK SMILES IDX 68 36 88 37 57 38 42 39 43 40 51 41 44 42 50 43 45 44 46 45
REMARK SMILES IDX 47 46 48 47 49 48 72 49 73 50 81 51 74 52 80 53 75 54 76 55
REMARK SMILES IDX 77 56 78 57 79 58 58 59 59 60 67 61 60 62 66 63 61 64 62 65
REMARK SMILES IDX 63 66 64 67 65 68 6 69 7 70 8 71 9 72 10 74 11 75 12 76
REMARK SMILES IDX 13 77 14 78 18 79 15 80 17 81 16 82 19 83 20 84 31 85 21 86
REMARK SMILES IDX 22 87 30 88 32 89 23 90 24 91 25 92 29 93 26 94 28 95 27 96
REMARK H PARENT 3 6 86 24 56 35 8 73
REMARK Flexibility Score: inf
ROOT
ATOM      1  C   UNL     1       5.305  -1.472   1.003  1.00  0.00     0.023 C 
ENDROOT
BRANCH   1   2
ATOM      2  C   UNL     1       4.666  -0.904  -0.252  1.00  0.00     0.116 C 
BRANCH   2   3
ATOM      3  N   UNL     1       3.204  -0.925  -0.211  1.00  0.00    -0.352 N 
ATOM      4  O   UNL     1       1.120  -0.084   0.068  1.00  0.00    -0.269 OA
ATOM      5  C   UNL     1       2.314   0.122  -0.118  1.00  0.00     0.251 C 
ATOM      6  H   UNL     1       2.796  -1.820  -0.257  1.00  0.00     0.163 HD
BRANCH   5   7
ATOM      7  C   UNL     1       2.839   1.496  -0.213  1.00  0.00     0.039 A 
ATOM      8  C   UNL     1       3.798   1.781  -1.181  1.00  0.00     0.014 A 
ATOM      9  C   UNL     1       2.471   2.461   0.726  1.00  0.00     0.014 A 
ATOM     10  C   UNL     1       4.582   2.907  -1.034  1.00  0.00     0.010 A 
ATOM     11  C   UNL     1       3.147   3.685   0.750  1.00  0.00     0.010 A 
ATOM     12  C   UNL     1       4.244   3.898  -0.098  1.00  0.00    -0.014 A 
BRANCH  12  13
ATOM     13  C   UNL     1       5.027   5.161  -0.104  1.00  0.00     0.031 A 
ATOM     14  C   UNL     1       5.756   5.650   1.118  1.00  0.00     0.074 A 
ATOM     15  C   UNL     1       5.127   5.829  -1.272  1.00  0.00     0.049 A 
ATOM     16  N   UNL     1       6.483   6.730   1.256  1.00  0.00    -0.248 NA
ATOM     17  C   UNL     1       5.652   4.841   2.344  1.00  0.00     0.031 C 
ATOM     18  C   UNL     1       4.464   5.441  -2.524  1.00  0.00     0.029 A 
ATOM     19  N   UNL     1       5.856   6.934  -1.621  1.00  0.00    -0.354 N 
ATOM     20  C   UNL     1       6.882   6.758   2.588  1.00  0.00     0.074 A 
ATOM     21  C   UNL     1       6.315   5.587   3.220  1.00  0.00     0.031 C 
ATOM     22  C   UNL     1       4.899   6.223  -3.518  1.00  0.00     0.029 A 
ATOM     23  C   UNL     1       5.768   7.247  -2.957  1.00  0.00     0.049 A 
ATOM     24  H   UNL     1       6.391   7.455  -0.978  1.00  0.00     0.167 HD
ATOM     25  C   UNL     1       7.645   7.683   3.221  1.00  0.00     0.031 A 
ATOM     26  C   UNL     1       6.292   8.266  -3.659  1.00  0.00     0.031 A 
ATOM     27  C   UNL     1       8.217   8.834   2.568  1.00  0.00     0.049 A 
ATOM     28  C   UNL     1       7.115   9.280  -2.931  1.00  0.00     0.074 A 
ATOM     29  C   UNL     1       9.017   9.824   3.113  1.00  0.00     0.029 A 
ATOM     30  N   UNL     1       8.053   9.149   1.226  1.00  0.00    -0.354 N 
ATOM     31  N   UNL     1       7.463   9.297  -1.666  1.00  0.00    -0.248 NA
ATOM     32  C   UNL     1       7.600  10.421  -3.714  1.00  0.00     0.031 C 
ATOM     33  C   UNL     1       9.295  10.762   2.113  1.00  0.00     0.029 A 
ATOM     34  C   UNL     1       8.717  10.328   0.930  1.00  0.00     0.049 A 
ATOM     35  H   UNL     1       7.540   8.613   0.579  1.00  0.00     0.167 HD
ATOM     36  C   UNL     1       8.209  10.454  -1.499  1.00  0.00     0.074 A 
ATOM     37  C   UNL     1       8.288  11.091  -2.800  1.00  0.00     0.031 C 
ATOM     38  C   UNL     1       8.769  10.950  -0.369  1.00  0.00     0.031 A 
BRANCH  25  39
ATOM     39  C   UNL     1       7.871   7.518   4.703  1.00  0.00    -0.014 A 
ATOM     40  C   UNL     1       8.716   6.516   5.214  1.00  0.00     0.010 A 
ATOM     41  C   UNL     1       7.263   8.418   5.599  1.00  0.00     0.010 A 
ATOM     42  C   UNL     1       8.918   6.396   6.593  1.00  0.00     0.020 A 
ATOM     43  C   UNL     1       7.482   8.317   6.976  1.00  0.00     0.020 A 
ATOM     44  C   UNL     1       8.296   7.294   7.466  1.00  0.00     0.054 A 
BRANCH  44  45
ATOM     45  S   UNL     1       8.588   7.125   9.250  1.00  0.00     0.124 S 
ATOM     46  O   UNL     1       7.802   5.937   9.572  1.00  0.00    -0.237 OA
ATOM     47  O   UNL     1      10.037   6.957   9.323  1.00  0.00    -0.237 OA
ATOM     48  O   UNL     1       8.081   8.377   9.806  1.00  0.00    -0.744 OA
ENDBRANCH  44  45
ENDBRANCH  25  39
BRANCH  26  49
ATOM     49  C   UNL     1       5.993   8.387  -5.111  1.00  0.00    -0.014 A 
ATOM     50  C   UNL     1       6.998   8.187  -6.071  1.00  0.00     0.010 A 
ATOM     51  C   UNL     1       4.676   8.643  -5.540  1.00  0.00     0.010 A 
ATOM     52  C   UNL     1       6.691   8.244  -7.434  1.00  0.00     0.020 A 
ATOM     53  C   UNL     1       4.359   8.665  -6.899  1.00  0.00     0.020 A 
ATOM     54  C   UNL     1       5.373   8.477  -7.839  1.00  0.00     0.054 A 
BRANCH  54  55
ATOM     55  S   UNL     1       4.982   8.476  -9.610  1.00  0.00     0.124 S 
ATOM     56  O   UNL     1       5.497   9.775 -10.032  1.00  0.00    -0.237 OA
ATOM     57  O   UNL     1       5.719   7.313 -10.097  1.00  0.00    -0.237 OA
ATOM     58  O   UNL     1       3.528   8.338  -9.638  1.00  0.00    -0.744 OA
ENDBRANCH  54  55
ENDBRANCH  26  49
BRANCH  38  59
ATOM     59  C   UNL     1       9.532  12.237  -0.505  1.00  0.00    -0.014 A 
ATOM     60  C   UNL     1       8.862  13.459  -0.691  1.00  0.00     0.010 A 
ATOM     61  C   UNL     1      10.935  12.223  -0.423  1.00  0.00     0.010 A 
ATOM     62  C   UNL     1       9.588  14.644  -0.830  1.00  0.00     0.020 A 
ATOM     63  C   UNL     1      11.662  13.410  -0.534  1.00  0.00     0.020 A 
ATOM     64  C   UNL     1      10.984  14.611  -0.752  1.00  0.00     0.054 A 
BRANCH  64  65
ATOM     65  S   UNL     1      11.903  16.166  -0.902  1.00  0.00     0.124 S 
ATOM     66  O   UNL     1      11.812  16.434  -2.335  1.00  0.00    -0.237 OA
ATOM     67  O   UNL     1      11.143  17.072  -0.044  1.00  0.00    -0.237 OA
ATOM     68  O   UNL     1      13.237  15.828  -0.414  1.00  0.00    -0.744 OA
ENDBRANCH  64  65
ENDBRANCH  38  59
ENDBRANCH  12  13
ENDBRANCH   5   7
ENDBRANCH   2   3
ENDBRANCH   1   2
BRANCH   1  69
ATOM     69  C   UNL     1       4.907  -2.911   1.271  1.00  0.00     0.023 C 
BRANCH  69  70
ATOM     70  C   UNL     1       5.354  -3.880   0.184  1.00  0.00     0.116 C 
BRANCH  70  71
ATOM     71  N   UNL     1       6.687  -4.365   0.464  1.00  0.00    -0.354 N 
ATOM     72  C   UNL     1       7.176  -5.630   0.506  1.00  0.00     0.243 C 
ATOM     73  H   UNL     1       7.349  -3.662   0.656  1.00  0.00     0.163 HD
ATOM     74  O   UNL     1       8.336  -5.769   0.912  1.00  0.00    -0.273 OA
BRANCH  72  75
ATOM     75  C   UNL     1       6.325  -6.882   0.201  1.00  0.00     0.185 C 
BRANCH  75  76
ATOM     76  C   UNL     1       5.592  -7.283   1.533  1.00  0.00     0.071 C 
BRANCH  76  77
ATOM     77  C   UNL     1       4.410  -6.465   2.023  1.00  0.00    -0.045 A 
ATOM     78  C   UNL     1       4.550  -5.620   3.137  1.00  0.00     0.004 A 
ATOM     79  C   UNL     1       3.149  -6.545   1.411  1.00  0.00     0.004 A 
ATOM     80  C   UNL     1       3.479  -4.839   3.589  1.00  0.00     0.000 A 
ATOM     81  C   UNL     1       2.084  -5.750   1.853  1.00  0.00     0.000 A 
ATOM     82  C   UNL     1       2.251  -4.891   2.935  1.00  0.00     0.000 A 
ENDBRANCH  76  77
ENDBRANCH  75  76
BRANCH  75  83
ATOM     83  N   UNL     1       5.499  -6.912  -1.033  1.00  0.00    -0.280 N 
ATOM     84  C   UNL     1       4.779  -8.072  -1.305  1.00  0.00     0.266 C 
ATOM     85  C   UNL     1       5.716  -6.186  -2.188  1.00  0.00     0.149 C 
ATOM     86  O   UNL     1       4.768  -9.099  -0.637  1.00  0.00    -0.268 OA
ATOM     87  C   UNL     1       4.109  -7.985  -2.633  1.00  0.00     0.081 C 
ATOM     88  S   UNL     1       4.326  -6.402  -3.245  1.00  0.00    -0.054 SA
ATOM     89  S   UNL     1       7.039  -5.321  -2.712  1.00  0.00    -0.052 S 
ATOM     90  C   UNL     1       3.538  -9.037  -3.238  1.00  0.00     0.029 C 
BRANCH  90  91
ATOM     91  C   UNL     1       2.878  -9.020  -4.552  1.00  0.00    -0.021 A 
ATOM     92  C   UNL     1       3.477  -8.483  -5.694  1.00  0.00     0.028 A 
ATOM     93  C   UNL     1       1.595  -9.555  -4.662  1.00  0.00     0.028 A 
ATOM     94  C   UNL     1       2.742  -8.430  -6.867  1.00  0.00     0.111 A 
ATOM     95  C   UNL     1       0.946  -9.471  -5.884  1.00  0.00     0.111 A 
ATOM     96  N   UNL     1       1.488  -8.913  -6.987  1.00  0.00    -0.265 NA
ENDBRANCH  90  91
ENDBRANCH  75  83
ENDBRANCH  72  75
ENDBRANCH  70  71
ENDBRANCH  69  70
ENDBRANCH   1  69
TORSDOF 18
