REMARK SMILES C[C@H]1[NH2+]CC[C@H]1C(=O)N1CC(C(=O)NCCCCNC(=O)c2ccc(-c3c4nc(c(-c5ccc(S(=O)(=O)[O-])cc5)c5ccc([nH]5)c(-c5ccc(S(=O)(=O)[O-])cc5)c5nc(c(-c6ccc(S(=O)(=O)[O-])cc6)c6ccc3[nH]6)C=C5)C=C4)cc2)C1
REMARK SMILES IDX 17 1 16 2 15 3 14 4 12 5 13 6 11 8 7 9 8 10 9 11 10 12 82 13
REMARK SMILES IDX 6 14 1 15 2 16 3 17 4 18 5 21 18 22 19 23 20 24 21 26 22 27
REMARK SMILES IDX 23 28 81 29 24 30 80 31 25 32 26 33 27 34 74 35 28 36 79 37
REMARK SMILES IDX 73 38 75 39 29 40 78 41 72 42 71 43 30 45 60 46 41 47 59 48
REMARK SMILES IDX 42 49 45 50 58 51 76 52 43 53 44 54 57 56 77 57 46 58 31 59
REMARK SMILES IDX 32 60 40 61 33 62 39 63 34 64 35 65 36 66 37 67 38 68 61 69
REMARK SMILES IDX 62 70 70 71 63 72 69 73 64 74 65 75 66 76 67 77 68 78 47 79
REMARK SMILES IDX 48 80 56 81 49 82 55 83 50 84 51 85 52 86 53 87 54 88
REMARK H PARENT 14 7 3 19 3 20 19 25 75 44 45 55
REMARK Flexibility Score: inf
ROOT
ATOM      1  C   UNL     1       2.250  -0.124   6.360  1.00  0.00     0.023 C 
ENDROOT
BRANCH   1   2
ATOM      2  C   UNL     1       1.827   0.182   4.922  1.00  0.00     0.023 C 
BRANCH   2   3
ATOM      3  C   UNL     1       1.414   1.628   4.658  1.00  0.00     0.116 C 
BRANCH   3   4
ATOM      4  N   UNL     1       2.506   2.565   4.845  1.00  0.00    -0.356 N 
ATOM      5  C   UNL     1       3.109   3.440   3.974  1.00  0.00     0.226 C 
ATOM      6  O   UNL     1       4.002   4.151   4.460  1.00  0.00    -0.275 OA
ATOM      7  H   UNL     1       2.880   2.576   5.756  1.00  0.00     0.163 HD
BRANCH   5   8
ATOM      8  C   UNL     1       2.733   3.531   2.492  1.00  0.00     0.117 C 
ATOM      9  C   UNL     1       0.975   2.375  -0.045  1.00  0.00     0.231 C 
ATOM     10  O   UNL     1       1.310   3.203  -0.891  1.00  0.00    -0.274 OA
ATOM     11  N   UNL     1       1.389   2.458   1.272  1.00  0.00    -0.341 N 
ATOM     12  C   UNL     1       1.299   3.725   2.034  1.00  0.00     0.134 C 
ATOM     13  C   UNL     1       2.813   2.288   1.631  1.00  0.00     0.134 C 
BRANCH   9  14
ATOM     14  C   UNL     1       0.085   1.192  -0.395  1.00  0.00     0.142 C 
ATOM     15  C   UNL     1       1.794  -0.592   0.445  1.00  0.00     0.076 C 
ATOM     16  C   UNL     1       0.759  -0.165  -0.592  1.00  0.00     0.192 C 
ATOM     17  N   UNL     1      -0.375  -1.107  -0.576  1.00  0.00    -0.343 N 
ATOM     18  C   UNL     1      -1.443  -0.533   0.246  1.00  0.00     0.261 C 
ATOM     19  H   UNL     1      -0.077  -1.998  -0.180  1.00  0.00     0.346 HD
ATOM     20  H   UNL     1      -0.712  -1.265  -1.526  1.00  0.00     0.346 HD
ATOM     21  C   UNL     1      -1.029   0.889   0.595  1.00  0.00     0.081 C 
ENDBRANCH   9  14
ENDBRANCH   5   8
ENDBRANCH   3   4
ENDBRANCH   2   3
ENDBRANCH   1   2
BRANCH   1  22
ATOM     22  C   UNL     1       1.250   0.271   7.442  1.00  0.00     0.116 C 
BRANCH  22  23
ATOM     23  N   UNL     1      -0.050  -0.362   7.283  1.00  0.00    -0.352 N 
ATOM     24  C   UNL     1      -0.846  -0.960   8.232  1.00  0.00     0.251 C 
ATOM     25  H   UNL     1      -0.411  -0.363   6.367  1.00  0.00     0.163 HD
ATOM     26  O   UNL     1      -1.868  -1.547   7.888  1.00  0.00    -0.269 OA
BRANCH  24  27
ATOM     27  C   UNL     1      -0.449  -0.928   9.658  1.00  0.00     0.039 A 
ATOM     28  C   UNL     1      -0.503  -2.111  10.400  1.00  0.00     0.014 A 
ATOM     29  C   UNL     1      -0.007   0.255  10.256  1.00  0.00     0.014 A 
ATOM     30  C   UNL     1      -0.043  -2.124  11.719  1.00  0.00     0.010 A 
ATOM     31  C   UNL     1       0.516   0.225  11.547  1.00  0.00     0.010 A 
ATOM     32  C   UNL     1       0.509  -0.965  12.291  1.00  0.00    -0.014 A 
BRANCH  32  33
ATOM     33  C   UNL     1       1.095  -0.981  13.656  1.00  0.00     0.031 A 
ATOM     34  C   UNL     1       0.488  -0.147  14.753  1.00  0.00     0.074 A 
ATOM     35  C   UNL     1       2.215  -1.693  13.895  1.00  0.00     0.049 A 
ATOM     36  N   UNL     1       0.896   0.018  15.985  1.00  0.00    -0.248 NA
ATOM     37  C   UNL     1      -0.722   0.618  14.413  1.00  0.00     0.031 C 
ATOM     38  C   UNL     1       2.924  -2.514  12.910  1.00  0.00     0.029 A 
ATOM     39  N   UNL     1       2.958  -1.836  15.040  1.00  0.00    -0.354 N 
ATOM     40  C   UNL     1       0.005   0.915  16.562  1.00  0.00     0.074 A 
ATOM     41  C   UNL     1      -0.935   1.297  15.531  1.00  0.00     0.031 C 
ATOM     42  C   UNL     1       3.980  -3.096  13.501  1.00  0.00     0.029 A 
ATOM     43  C   UNL     1       4.050  -2.660  14.892  1.00  0.00     0.049 A 
ATOM     44  H   UNL     1       2.731  -1.391  15.888  1.00  0.00     0.167 HD
ATOM     45  C   UNL     1      -0.041   1.366  17.839  1.00  0.00     0.031 A 
ATOM     46  C   UNL     1       5.003  -3.020  15.772  1.00  0.00     0.031 A 
ATOM     47  C   UNL     1       0.890   0.981  18.866  1.00  0.00     0.049 A 
ATOM     48  C   UNL     1       4.942  -2.493  17.180  1.00  0.00     0.074 A 
ATOM     49  C   UNL     1       0.899   1.347  20.201  1.00  0.00     0.029 A 
ATOM     50  N   UNL     1       1.978   0.143  18.675  1.00  0.00    -0.354 N 
ATOM     51  N   UNL     1       4.059  -1.689  17.720  1.00  0.00    -0.248 NA
ATOM     52  C   UNL     1       6.002  -2.932  18.099  1.00  0.00     0.031 C 
ATOM     53  C   UNL     1       2.020   0.768  20.806  1.00  0.00     0.029 A 
ATOM     54  C   UNL     1       2.677  -0.004  19.861  1.00  0.00     0.049 A 
ATOM     55  H   UNL     1       2.219  -0.285  17.821  1.00  0.00     0.167 HD
ATOM     56  C   UNL     1       4.440  -1.547  19.050  1.00  0.00     0.074 A 
ATOM     57  C   UNL     1       5.627  -2.358  19.234  1.00  0.00     0.031 C 
ATOM     58  C   UNL     1       3.857  -0.814  20.030  1.00  0.00     0.031 A 
BRANCH  45  59
ATOM     59  C   UNL     1      -1.139   2.335  18.191  1.00  0.00    -0.014 A 
ATOM     60  C   UNL     1      -2.482   1.919  18.249  1.00  0.00     0.010 A 
ATOM     61  C   UNL     1      -0.825   3.673  18.490  1.00  0.00     0.010 A 
ATOM     62  C   UNL     1      -3.495   2.833  18.550  1.00  0.00     0.020 A 
ATOM     63  C   UNL     1      -1.833   4.585  18.820  1.00  0.00     0.020 A 
ATOM     64  C   UNL     1      -3.164   4.163  18.826  1.00  0.00     0.054 A 
BRANCH  64  65
ATOM     65  S   UNL     1      -4.498   5.327  19.218  1.00  0.00     0.124 S 
ATOM     66  O   UNL     1      -5.104   5.540  17.905  1.00  0.00    -0.237 OA
ATOM     67  O   UNL     1      -5.312   4.576  20.170  1.00  0.00    -0.237 OA
ATOM     68  O   UNL     1      -3.799   6.482  19.775  1.00  0.00    -0.744 OA
ENDBRANCH  64  65
ENDBRANCH  45  59
BRANCH  46  69
ATOM     69  C   UNL     1       6.088  -3.950  15.354  1.00  0.00    -0.014 A 
ATOM     70  C   UNL     1       6.114  -5.272  15.832  1.00  0.00     0.010 A 
ATOM     71  C   UNL     1       7.091  -3.525  14.463  1.00  0.00     0.010 A 
ATOM     72  C   UNL     1       7.130  -6.148  15.441  1.00  0.00     0.020 A 
ATOM     73  C   UNL     1       8.094  -4.406  14.049  1.00  0.00     0.020 A 
ATOM     74  C   UNL     1       8.113  -5.710  14.549  1.00  0.00     0.054 A 
BRANCH  74  75
ATOM     75  S   UNL     1       9.390  -6.881  14.010  1.00  0.00     0.124 S 
ATOM     76  O   UNL     1      10.240  -6.968  15.193  1.00  0.00    -0.237 OA
ATOM     77  O   UNL     1       8.611  -8.077  13.700  1.00  0.00    -0.237 OA
ATOM     78  O   UNL     1       9.991  -6.221  12.853  1.00  0.00    -0.744 OA
ENDBRANCH  74  75
ENDBRANCH  46  69
BRANCH  58  79
ATOM     79  C   UNL     1       4.472  -0.880  21.403  1.00  0.00    -0.014 A 
ATOM     80  C   UNL     1       5.692  -0.242  21.688  1.00  0.00     0.010 A 
ATOM     81  C   UNL     1       3.789  -1.547  22.436  1.00  0.00     0.010 A 
ATOM     82  C   UNL     1       6.233  -0.296  22.976  1.00  0.00     0.020 A 
ATOM     83  C   UNL     1       4.313  -1.580  23.731  1.00  0.00     0.020 A 
ATOM     84  C   UNL     1       5.539  -0.965  23.989  1.00  0.00     0.054 A 
BRANCH  84  85
ATOM     85  S   UNL     1       6.239  -0.982  25.663  1.00  0.00     0.124 S 
ATOM     86  O   UNL     1       7.330  -1.942  25.526  1.00  0.00    -0.237 OA
ATOM     87  O   UNL     1       6.644   0.408  25.855  1.00  0.00    -0.237 OA
ATOM     88  O   UNL     1       5.124  -1.420  26.500  1.00  0.00    -0.744 OA
ENDBRANCH  84  85
ENDBRANCH  58  79
ENDBRANCH  32  33
ENDBRANCH  24  27
ENDBRANCH  22  23
ENDBRANCH   1  22
TORSDOF 15
