REMARK SMILES CC(=O)c1ccc(N2CCN(c3ccc(C(=O)NCCCCNC(=O)c4ccc(-c5c6nc(c(-c7ccc(S(=O)(=O)[O-])cc7)c7ccc([nH]7)c(-c7ccc(S(=O)(=O)[O-])cc7)c7nc(c(-c8ccc(S(=O)(=O)[O-])cc8)c8ccc5[nH]8)C=C7)C=C6)cc4)cc3NS(=O)(=O)c3ccc(C)cc3)CC2)cc1
REMARK SMILES IDX 20 1 19 2 18 3 16 4 17 5 15 7 12 8 13 9 87 10 14 11 86 12
REMARK SMILES IDX 11 13 8 14 9 15 100 16 10 17 99 18 7 19 4 20 5 21 102 22
REMARK SMILES IDX 6 23 101 24 2 25 1 26 3 27 88 28 89 30 90 31 91 32 92 33
REMARK SMILES IDX 93 34 98 35 94 36 97 37 95 38 96 39 21 40 22 41 23 42 24 43
REMARK SMILES IDX 25 45 26 46 27 47 85 48 28 49 84 50 29 51 30 52 31 53 78 54
REMARK SMILES IDX 32 55 83 56 77 57 79 58 33 59 82 60 76 61 75 62 34 64 64 65
REMARK SMILES IDX 45 66 63 67 46 68 49 69 62 70 80 71 47 72 48 73 61 75 81 76
REMARK SMILES IDX 50 77 35 78 36 79 44 80 37 81 43 82 38 83 39 84 40 85 41 86
REMARK SMILES IDX 42 87 65 88 66 89 74 90 67 91 73 92 68 93 69 94 70 95 71 96
REMARK SMILES IDX 72 97 51 98 52 99 60 100 53 101 59 102 54 103 55 104 56 105
REMARK SMILES IDX 57 106 58 107
REMARK H PARENT 18 6 88 29 23 44 79 63 49 74
REMARK Flexibility Score: inf
ROOT
ATOM      1  C   UNL     1       3.559   8.155 -12.947  1.00  0.00     0.023 C 
ENDROOT
BRANCH   1   2
ATOM      2  C   UNL     1       4.867   8.722 -11.281  1.00  0.00     0.116 C 
BRANCH   2   3
ATOM      3  N   UNL     1       4.979  10.050 -10.318  1.00  0.00    -0.352 N 
ATOM      4  C   UNL     1       5.358  10.177  -8.977  1.00  0.00     0.251 C 
ATOM      5  O   UNL     1       5.923  11.192  -8.582  1.00  0.00    -0.269 OA
ATOM      6  H   UNL     1       4.740  10.897 -10.758  1.00  0.00     0.163 HD
BRANCH   4   7
ATOM      7  C   UNL     1       5.028   9.107  -8.003  1.00  0.00     0.042 A 
ATOM      8  C   UNL     1       4.224   6.854  -6.503  1.00  0.00     0.061 A 
ATOM      9  C   UNL     1       5.199   7.758  -6.018  1.00  0.00     0.029 A 
ATOM     10  C   UNL     1       3.650   7.139  -7.744  1.00  0.00     0.073 A 
ATOM     11  C   UNL     1       5.645   8.854  -6.789  1.00  0.00     0.016 A 
ATOM     12  C   UNL     1       3.927   8.352  -8.309  1.00  0.00     0.042 A 
BRANCH   8  13
ATOM     13  N   UNL     1       3.794   5.816  -5.711  1.00  0.00    -0.366 N 
ATOM     14  N   UNL     1       2.093   3.584  -5.338  1.00  0.00    -0.368 N 
ATOM     15  C   UNL     1       1.518   4.941  -5.269  1.00  0.00     0.138 C 
ATOM     16  C   UNL     1       3.324   3.421  -6.137  1.00  0.00     0.138 C 
ATOM     17  C   UNL     1       2.599   5.970  -4.870  1.00  0.00     0.138 C 
ATOM     18  C   UNL     1       4.394   4.483  -5.793  1.00  0.00     0.138 C 
BRANCH  14  19
ATOM     19  C   UNL     1       1.723   2.669  -4.373  1.00  0.00     0.037 A 
ATOM     20  C   UNL     1       0.900   0.833  -2.394  1.00  0.00     0.017 A 
ATOM     21  C   UNL     1      -0.029   1.356  -3.295  1.00  0.00     0.014 A 
ATOM     22  C   UNL     1       2.241   1.210  -2.487  1.00  0.00     0.014 A 
ATOM     23  C   UNL     1       0.382   2.278  -4.260  1.00  0.00     0.026 A 
ATOM     24  C   UNL     1       2.645   2.112  -3.480  1.00  0.00     0.026 A 
BRANCH  20  25
ATOM     25  C   UNL     1       0.421  -0.114  -1.355  1.00  0.00     0.159 C 
ATOM     26  C   UNL     1       1.071  -0.067   0.002  1.00  0.00     0.093 C 
ATOM     27  O   UNL     1      -0.519  -0.867  -1.598  1.00  0.00    -0.295 OA
ENDBRANCH  20  25
ENDBRANCH  14  19
ENDBRANCH   8  13
BRANCH  10  28
ATOM     28  N   UNL     1       2.699   6.322  -8.449  1.00  0.00    -0.277 N 
ATOM     29  H   UNL     1       1.812   6.129  -8.068  1.00  0.00     0.180 HD
BRANCH  28  30
ATOM     30  S   UNL     1       3.164   5.691  -9.988  1.00  0.00     0.261 S 
ATOM     31  O   UNL     1       4.388   4.946  -9.770  1.00  0.00    -0.201 OA
ATOM     32  O   UNL     1       1.992   5.035 -10.527  1.00  0.00    -0.201 OA
BRANCH  30  33
ATOM     33  C   UNL     1       3.570   7.016 -11.129  1.00  0.00     0.087 A 
ATOM     34  C   UNL     1       5.030   6.797 -12.170  1.00  0.00     0.022 A 
ATOM     35  C   UNL     1       2.749   8.620 -11.059  1.00  0.00     0.022 A 
ATOM     36  C   UNL     1       5.643   8.164 -13.187  1.00  0.00     0.005 A 
ATOM     37  C   UNL     1       3.374  10.000 -12.028  1.00  0.00     0.005 A 
ATOM     38  C   UNL     1       4.859   9.789 -13.055  1.00  0.00    -0.051 A 
ATOM     39  C   UNL     1       5.486  10.994 -13.694  1.00  0.00     0.044 C 
ENDBRANCH  30  33
ENDBRANCH  28  30
ENDBRANCH  10  28
ENDBRANCH   4   7
ENDBRANCH   2   3
ENDBRANCH   1   2
BRANCH   1  40
ATOM     40  C   UNL     1       2.903   8.957 -14.342  1.00  0.00     0.023 C 
BRANCH  40  41
ATOM     41  C   UNL     1       3.630   8.713 -15.665  1.00  0.00     0.116 C 
BRANCH  41  42
ATOM     42  N   UNL     1       3.692   7.321 -16.076  1.00  0.00    -0.352 N 
ATOM     43  C   UNL     1       4.287   6.856 -17.227  1.00  0.00     0.251 C 
ATOM     44  H   UNL     1       3.275   6.656 -15.483  1.00  0.00     0.163 HD
ATOM     45  O   UNL     1       4.245   5.677 -17.552  1.00  0.00    -0.269 OA
BRANCH  43  46
ATOM     46  C   UNL     1       4.948   7.857 -18.084  1.00  0.00     0.039 A 
ATOM     47  C   UNL     1       4.306   8.282 -19.248  1.00  0.00     0.014 A 
ATOM     48  C   UNL     1       6.122   8.470 -17.639  1.00  0.00     0.014 A 
ATOM     49  C   UNL     1       4.829   9.362 -19.960  1.00  0.00     0.010 A 
ATOM     50  C   UNL     1       6.610   9.579 -18.322  1.00  0.00     0.010 A 
ATOM     51  C   UNL     1       5.972  10.029 -19.491  1.00  0.00    -0.014 A 
BRANCH  51  52
ATOM     52  C   UNL     1       6.564  11.161 -20.243  1.00  0.00     0.031 A 
ATOM     53  C   UNL     1       7.900  10.968 -20.904  1.00  0.00     0.074 A 
ATOM     54  C   UNL     1       5.944  12.356 -20.286  1.00  0.00     0.049 A 
ATOM     55  N   UNL     1       8.650  11.842 -21.522  1.00  0.00    -0.248 NA
ATOM     56  C   UNL     1       8.479   9.615 -20.837  1.00  0.00     0.031 C 
ATOM     57  C   UNL     1       4.650  12.665 -19.674  1.00  0.00     0.029 A 
ATOM     58  N   UNL     1       6.327  13.540 -20.866  1.00  0.00    -0.354 N 
ATOM     59  C   UNL     1       9.797  11.152 -21.894  1.00  0.00     0.074 A 
ATOM     60  C   UNL     1       9.665   9.802 -21.395  1.00  0.00     0.031 C 
ATOM     61  C   UNL     1       4.342  13.950 -19.922  1.00  0.00     0.029 A 
ATOM     62  C   UNL     1       5.430  14.565 -20.679  1.00  0.00     0.049 A 
ATOM     63  H   UNL     1       7.167  13.645 -21.369  1.00  0.00     0.167 HD
ATOM     64  C   UNL     1      10.860  11.599 -22.605  1.00  0.00     0.031 A 
ATOM     65  C   UNL     1       5.484  15.854 -21.068  1.00  0.00     0.031 A 
ATOM     66  C   UNL     1      10.976  12.937 -23.113  1.00  0.00     0.049 A 
ATOM     67  C   UNL     1       6.679  16.332 -21.852  1.00  0.00     0.074 A 
ATOM     68  C   UNL     1      11.996  13.485 -23.869  1.00  0.00     0.029 A 
ATOM     69  N   UNL     1      10.033  13.936 -22.922  1.00  0.00    -0.354 N 
ATOM     70  N   UNL     1       7.741  15.657 -22.224  1.00  0.00    -0.248 NA
ATOM     71  C   UNL     1       6.680  17.738 -22.278  1.00  0.00     0.031 C 
ATOM     72  C   UNL     1      11.686  14.828 -24.107  1.00  0.00     0.029 A 
ATOM     73  C   UNL     1      10.449  15.100 -23.542  1.00  0.00     0.049 A 
ATOM     74  H   UNL     1       9.193  13.832 -22.420  1.00  0.00     0.167 HD
ATOM     75  C   UNL     1       8.516  16.546 -22.961  1.00  0.00     0.074 A 
ATOM     76  C   UNL     1       7.803  17.806 -22.982  1.00  0.00     0.031 C 
ATOM     77  C   UNL     1       9.708  16.335 -23.571  1.00  0.00     0.031 A 
BRANCH  64  78
ATOM     78  C   UNL     1      11.978  10.625 -22.860  1.00  0.00    -0.014 A 
ATOM     79  C   UNL     1      11.807   9.540 -23.739  1.00  0.00     0.010 A 
ATOM     80  C   UNL     1      13.218  10.802 -22.222  1.00  0.00     0.010 A 
ATOM     81  C   UNL     1      12.841   8.621 -23.937  1.00  0.00     0.020 A 
ATOM     82  C   UNL     1      14.264   9.901 -22.439  1.00  0.00     0.020 A 
ATOM     83  C   UNL     1      14.061   8.804 -23.280  1.00  0.00     0.054 A 
BRANCH  83  84
ATOM     84  S   UNL     1      15.388   7.601 -23.560  1.00  0.00     0.124 S 
ATOM     85  O   UNL     1      14.927   6.458 -22.776  1.00  0.00    -0.237 OA
ATOM     86  O   UNL     1      15.359   7.420 -25.009  1.00  0.00    -0.237 OA
ATOM     87  O   UNL     1      16.578   8.271 -23.043  1.00  0.00    -0.744 OA
ENDBRANCH  83  84
ENDBRANCH  64  78
BRANCH  65  88
ATOM     88  C   UNL     1       4.367  16.783 -20.741  1.00  0.00    -0.014 A 
ATOM     89  C   UNL     1       3.502  17.242 -21.751  1.00  0.00     0.010 A 
ATOM     90  C   UNL     1       4.157  17.211 -19.418  1.00  0.00     0.010 A 
ATOM     91  C   UNL     1       2.461  18.126 -21.448  1.00  0.00     0.020 A 
ATOM     92  C   UNL     1       3.102  18.075 -19.106  1.00  0.00     0.020 A 
ATOM     93  C   UNL     1       2.267  18.536 -20.126  1.00  0.00     0.054 A 
BRANCH  93  94
ATOM     94  S   UNL     1       0.881  19.645 -19.747  1.00  0.00     0.124 S 
ATOM     95  O   UNL     1       1.366  20.922 -20.260  1.00  0.00    -0.237 OA
ATOM     96  O   UNL     1      -0.221  19.040 -20.491  1.00  0.00    -0.237 OA
ATOM     97  O   UNL     1       0.762  19.557 -18.293  1.00  0.00    -0.744 OA
ENDBRANCH  93  94
ENDBRANCH  65  88
BRANCH  77  98
ATOM     98  C   UNL     1      10.299  17.465 -24.369  1.00  0.00    -0.014 A 
ATOM     99  C   UNL     1      10.923  18.555 -23.740  1.00  0.00     0.010 A 
ATOM    100  C   UNL     1      10.323  17.372 -25.773  1.00  0.00     0.010 A 
ATOM    101  C   UNL     1      11.559  19.537 -24.504  1.00  0.00     0.020 A 
ATOM    102  C   UNL     1      10.977  18.339 -26.538  1.00  0.00     0.020 A 
ATOM    103  C   UNL     1      11.587  19.419 -25.898  1.00  0.00     0.054 A 
BRANCH 103 104
ATOM    104  S   UNL     1      12.495  20.659 -26.862  1.00  0.00     0.124 S 
ATOM    105  O   UNL     1      11.595  21.807 -26.805  1.00  0.00    -0.237 OA
ATOM    106  O   UNL     1      13.741  20.799 -26.112  1.00  0.00    -0.237 OA
ATOM    107  O   UNL     1      12.635  20.040 -28.178  1.00  0.00    -0.744 OA
ENDBRANCH 103 104
ENDBRANCH  77  98
ENDBRANCH  51  52
ENDBRANCH  43  46
ENDBRANCH  41  42
ENDBRANCH  40  41
ENDBRANCH   1  40
TORSDOF 20
