REMARK SMILES CCc1ccc(C(=O)NC[C@@H](CC(C)C)C(=O)NCCCCNC(=O)c2ccc(-c3c4nc(c(-c5ccc(S(=O)(=O)[O-])cc5)c5ccc([nH]5)c(-c5ccc(S(=O)(=O)[O-])cc5)c5nc(c(-c6ccc(S(=O)(=O)[O-])cc6)c6ccc3[nH]6)C=C5)C=C4)cc2)s1
REMARK SMILES IDX 20 1 19 2 18 3 16 4 17 5 11 7 10 8 9 9 7 10 8 11 6 13 3 14
REMARK SMILES IDX 4 15 86 16 5 17 2 18 1 19 12 20 13 21 14 22 15 23 21 24
REMARK SMILES IDX 22 25 23 26 24 27 25 29 26 30 27 31 85 32 28 33 84 34 29 35
REMARK SMILES IDX 30 36 31 37 78 38 32 39 83 40 77 41 79 42 33 43 82 44 76 45
REMARK SMILES IDX 75 46 34 48 64 49 45 50 63 51 46 52 49 53 62 54 80 55 47 56
REMARK SMILES IDX 48 57 61 59 81 60 50 61 35 62 36 63 44 64 37 65 43 66 38 67
REMARK SMILES IDX 39 68 40 69 41 70 42 71 65 72 66 73 74 74 67 75 73 76 68 77
REMARK SMILES IDX 69 78 70 79 71 80 72 81 51 82 52 83 60 84 53 85 59 86 54 87
REMARK SMILES IDX 55 88 56 89 57 90 58 91
REMARK H PARENT 18 6 9 12 23 28 79 47 49 58
REMARK Flexibility Score: inf
ROOT
ATOM      1  C   UNL     1      -1.444   7.111  -5.750  1.00  0.00     0.023 C 
ENDROOT
BRANCH   1   2
ATOM      2  C   UNL     1      -0.001   6.972  -6.211  1.00  0.00     0.116 C 
BRANCH   2   3
ATOM      3  N   UNL     1       0.967   7.235  -5.165  1.00  0.00    -0.356 N 
ATOM      4  C   UNL     1       2.223   6.753  -4.969  1.00  0.00     0.224 C 
ATOM      5  O   UNL     1       2.899   7.294  -4.088  1.00  0.00    -0.275 OA
ATOM      6  H   UNL     1       0.662   7.871  -4.478  1.00  0.00     0.163 HD
BRANCH   4   7
ATOM      7  C   UNL     1       2.821   5.605  -5.779  1.00  0.00     0.098 C 
BRANCH   7   8
ATOM      8  C   UNL     1       1.867   4.415  -5.954  1.00  0.00     0.129 C 
BRANCH   8   9
ATOM      9  N   UNL     1       2.531   3.127  -5.853  1.00  0.00    -0.351 N 
ATOM     10  C   UNL     1       2.416   2.117  -4.925  1.00  0.00     0.261 C 
ATOM     11  O   UNL     1       2.894   1.036  -5.282  1.00  0.00    -0.268 OA
ATOM     12  H   UNL     1       3.177   2.946  -6.574  1.00  0.00     0.163 HD
BRANCH  10  13
ATOM     13  C   UNL     1       1.789   2.325  -3.624  1.00  0.00     0.092 A 
ATOM     14  C   UNL     1       0.836   1.816  -1.368  1.00  0.00     0.005 A 
ATOM     15  C   UNL     1       1.005   3.169  -1.582  1.00  0.00     0.016 A 
ATOM     16  S   UNL     1       1.251   0.927  -2.768  1.00  0.00    -0.135 S 
ATOM     17  C   UNL     1       1.572   3.458  -2.862  1.00  0.00     0.026 A 
BRANCH  14  18
ATOM     18  C   UNL     1       0.325   1.154  -0.114  1.00  0.00     0.043 C 
ATOM     19  C   UNL     1       0.946  -0.200   0.201  1.00  0.00     0.010 C 
ENDBRANCH  14  18
ENDBRANCH  10  13
ENDBRANCH   8   9
ENDBRANCH   7   8
BRANCH   7  20
ATOM     20  C   UNL     1       3.560   6.043  -7.071  1.00  0.00     0.018 C 
BRANCH  20  21
ATOM     21  C   UNL     1       2.753   6.806  -8.142  1.00  0.00    -0.017 C 
ATOM     22  C   UNL     1       2.791   8.323  -7.917  1.00  0.00     0.007 C 
ATOM     23  C   UNL     1       3.283   6.519  -9.551  1.00  0.00     0.007 C 
ENDBRANCH  20  21
ENDBRANCH   7  20
ENDBRANCH   4   7
ENDBRANCH   2   3
ENDBRANCH   1   2
BRANCH   1  24
ATOM     24  C   UNL     1      -1.899   8.547  -5.502  1.00  0.00     0.023 C 
BRANCH  24  25
ATOM     25  C   UNL     1      -1.594   9.539  -6.621  1.00  0.00     0.116 C 
BRANCH  25  26
ATOM     26  N   UNL     1      -2.090   9.113  -7.923  1.00  0.00    -0.352 N 
ATOM     27  C   UNL     1      -2.926   9.762  -8.801  1.00  0.00     0.251 C 
ATOM     28  H   UNL     1      -1.781   8.226  -8.218  1.00  0.00     0.163 HD
ATOM     29  O   UNL     1      -3.328   9.181  -9.802  1.00  0.00    -0.269 OA
BRANCH  27  30
ATOM     30  C   UNL     1      -3.364  11.144  -8.512  1.00  0.00     0.039 A 
ATOM     31  C   UNL     1      -4.720  11.455  -8.627  1.00  0.00     0.014 A 
ATOM     32  C   UNL     1      -2.452  12.118  -8.097  1.00  0.00     0.014 A 
ATOM     33  C   UNL     1      -5.171  12.720  -8.244  1.00  0.00     0.010 A 
ATOM     34  C   UNL     1      -2.915  13.347  -7.634  1.00  0.00     0.010 A 
ATOM     35  C   UNL     1      -4.280  13.660  -7.698  1.00  0.00    -0.014 A 
BRANCH  35  36
ATOM     36  C   UNL     1      -4.779  14.954  -7.163  1.00  0.00     0.031 A 
ATOM     37  C   UNL     1      -4.332  16.260  -7.765  1.00  0.00     0.074 A 
ATOM     38  C   UNL     1      -5.607  14.952  -6.097  1.00  0.00     0.049 A 
ATOM     39  N   UNL     1      -4.679  17.478  -7.434  1.00  0.00    -0.248 NA
ATOM     40  C   UNL     1      -3.353  16.196  -8.863  1.00  0.00     0.031 C 
ATOM     41  C   UNL     1      -6.058  13.757  -5.376  1.00  0.00     0.029 A 
ATOM     42  N   UNL     1      -6.218  15.985  -5.431  1.00  0.00    -0.354 N 
ATOM     43  C   UNL     1      -3.955  18.320  -8.269  1.00  0.00     0.074 A 
ATOM     44  C   UNL     1      -3.113  17.480  -9.091  1.00  0.00     0.031 C 
ATOM     45  C   UNL     1      -6.900  14.123  -4.397  1.00  0.00     0.029 A 
ATOM     46  C   UNL     1      -7.021  15.576  -4.391  1.00  0.00     0.049 A 
ATOM     47  H   UNL     1      -6.095  16.931  -5.676  1.00  0.00     0.167 HD
ATOM     48  C   UNL     1      -4.002  19.671  -8.358  1.00  0.00     0.031 A 
ATOM     49  C   UNL     1      -7.769  16.289  -3.526  1.00  0.00     0.031 A 
ATOM     50  C   UNL     1      -4.856  20.504  -7.552  1.00  0.00     0.049 A 
ATOM     51  C   UNL     1      -7.817  17.787  -3.662  1.00  0.00     0.074 A 
ATOM     52  C   UNL     1      -5.033  21.875  -7.627  1.00  0.00     0.029 A 
ATOM     53  N   UNL     1      -5.667  20.052  -6.524  1.00  0.00    -0.354 N 
ATOM     54  N   UNL     1      -7.202  18.555  -4.530  1.00  0.00    -0.248 NA
ATOM     55  C   UNL     1      -8.673  18.512  -2.714  1.00  0.00     0.031 C 
ATOM     56  C   UNL     1      -5.903  22.259  -6.602  1.00  0.00     0.029 A 
ATOM     57  C   UNL     1      -6.321  21.120  -5.933  1.00  0.00     0.049 A 
ATOM     58  H   UNL     1      -5.765  19.110  -6.254  1.00  0.00     0.167 HD
ATOM     59  C   UNL     1      -7.615  19.852  -4.244  1.00  0.00     0.074 A 
ATOM     60  C   UNL     1      -8.554  19.759  -3.146  1.00  0.00     0.031 C 
ATOM     61  C   UNL     1      -7.247  21.016  -4.835  1.00  0.00     0.031 A 
BRANCH  48  62
ATOM     62  C   UNL     1      -3.106  20.346  -9.364  1.00  0.00    -0.014 A 
ATOM     63  C   UNL     1      -3.354  20.243 -10.745  1.00  0.00     0.010 A 
ATOM     64  C   UNL     1      -2.055  21.168  -8.918  1.00  0.00     0.010 A 
ATOM     65  C   UNL     1      -2.557  20.934 -11.660  1.00  0.00     0.020 A 
ATOM     66  C   UNL     1      -1.272  21.883  -9.829  1.00  0.00     0.020 A 
ATOM     67  C   UNL     1      -1.524  21.755 -11.196  1.00  0.00     0.054 A 
BRANCH  67  68
ATOM     68  S   UNL     1      -0.549  22.692 -12.405  1.00  0.00     0.124 S 
ATOM     69  O   UNL     1       0.229  21.635 -13.048  1.00  0.00    -0.237 OA
ATOM     70  O   UNL     1      -1.580  23.307 -13.238  1.00  0.00    -0.237 OA
ATOM     71  O   UNL     1       0.223  23.622 -11.585  1.00  0.00    -0.744 OA
ENDBRANCH  67  68
ENDBRANCH  48  62
BRANCH  49  72
ATOM     72  C   UNL     1      -8.535  15.598  -2.450  1.00  0.00    -0.014 A 
ATOM     73  C   UNL     1      -9.941  15.583  -2.458  1.00  0.00     0.010 A 
ATOM     74  C   UNL     1      -7.853  14.965  -1.394  1.00  0.00     0.010 A 
ATOM     75  C   UNL     1     -10.651  14.981  -1.414  1.00  0.00     0.020 A 
ATOM     76  C   UNL     1      -8.558  14.332  -0.366  1.00  0.00     0.020 A 
ATOM     77  C   UNL     1      -9.954  14.361  -0.373  1.00  0.00     0.054 A 
BRANCH  77  78
ATOM     78  S   UNL     1     -10.892  13.565   0.960  1.00  0.00     0.124 S 
ATOM     79  O   UNL     1     -11.392  14.715   1.706  1.00  0.00    -0.237 OA
ATOM     80  O   UNL     1     -11.896  12.800   0.226  1.00  0.00    -0.237 OA
ATOM     81  O   UNL     1      -9.887  12.759   1.649  1.00  0.00    -0.744 OA
ENDBRANCH  77  78
ENDBRANCH  49  72
BRANCH  61  82
ATOM     82  C   UNL     1      -7.881  22.281  -4.320  1.00  0.00    -0.014 A 
ATOM     83  C   UNL     1      -7.571  22.788  -3.045  1.00  0.00     0.010 A 
ATOM     84  C   UNL     1      -8.784  22.988  -5.136  1.00  0.00     0.010 A 
ATOM     85  C   UNL     1      -8.190  23.949  -2.576  1.00  0.00     0.020 A 
ATOM     86  C   UNL     1      -9.379  24.168  -4.685  1.00  0.00     0.020 A 
ATOM     87  C   UNL     1      -9.094  24.630  -3.398  1.00  0.00     0.054 A 
BRANCH  87  88
ATOM     88  S   UNL     1      -9.874  26.142  -2.772  1.00  0.00     0.124 S 
ATOM     89  O   UNL     1     -10.827  25.612  -1.801  1.00  0.00    -0.237 OA
ATOM     90  O   UNL     1      -8.744  26.876  -2.208  1.00  0.00    -0.237 OA
ATOM     91  O   UNL     1     -10.469  26.744  -3.964  1.00  0.00    -0.744 OA
ENDBRANCH  87  88
ENDBRANCH  61  82
ENDBRANCH  35  36
ENDBRANCH  27  30
ENDBRANCH  25  26
ENDBRANCH  24  25
ENDBRANCH   1  24
TORSDOF 20
