REMARK SMILES COc1ccc(Br)cc1CNc1ccc(N2CCOCC2)c(C(=O)NCCCCNC(=O)c2ccc(-c3c4nc(c(-c5ccc(S(=O)(=O)[O-])cc5)c5ccc([nH]5)c(-c5ccc(S(=O)(=O)[O-])cc5)c5nc(c(-c6ccc(S(=O)(=O)[O-])cc6)c6ccc3[nH]6)C=C5)C=C4)cc2)c1
REMARK SMILES IDX 27 1 26 2 25 3 23 4 24 5 22 7 12 8 13 9 93 10 14 11 15 12
REMARK SMILES IDX 11 13 10 15 9 16 3 17 4 18 5 19 8 20 6 21 7 22 2 23 1 24
REMARK SMILES IDX 16 25 17 26 21 27 18 28 20 29 19 30 28 31 29 32 30 33 31 34
REMARK SMILES IDX 32 36 33 37 34 38 92 39 35 40 91 41 36 42 37 43 38 44 85 45
REMARK SMILES IDX 39 46 90 47 84 48 86 49 40 50 89 51 83 52 82 53 41 55 71 56
REMARK SMILES IDX 52 57 70 58 53 59 56 60 69 61 87 62 54 63 55 64 68 66 88 67
REMARK SMILES IDX 57 68 42 69 43 70 51 71 44 72 50 73 45 74 46 75 47 76 48 77
REMARK SMILES IDX 49 78 72 79 73 80 81 81 74 82 80 83 75 84 76 85 77 86 78 87
REMARK SMILES IDX 79 88 58 89 59 90 67 91 60 92 66 93 61 94 62 95 63 96 64 97
REMARK SMILES IDX 65 98
REMARK H PARENT 25 6 11 14 30 35 86 54 56 65
REMARK Flexibility Score: inf
ROOT
ATOM      1  C   UNL     1      -6.120   0.160  -3.298  1.00  0.00     0.023 C 
ENDROOT
BRANCH   1   2
ATOM      2  C   UNL     1      -5.284   1.339  -3.776  1.00  0.00     0.116 C 
BRANCH   2   3
ATOM      3  N   UNL     1      -5.983   2.321  -4.595  1.00  0.00    -0.352 N 
ATOM      4  C   UNL     1      -5.902   3.706  -4.643  1.00  0.00     0.253 C 
ATOM      5  O   UNL     1      -6.500   4.269  -5.556  1.00  0.00    -0.269 OA
ATOM      6  H   UNL     1      -6.628   1.933  -5.229  1.00  0.00     0.163 HD
BRANCH   4   7
ATOM      7  C   UNL     1      -5.144   4.480  -3.609  1.00  0.00     0.065 A 
ATOM      8  C   UNL     1      -3.261   4.441  -2.038  1.00  0.00     0.035 A 
ATOM      9  C   UNL     1      -3.767   5.600  -1.457  1.00  0.00     0.028 A 
ATOM     10  C   UNL     1      -3.922   3.955  -3.162  1.00  0.00     0.041 A 
ATOM     11  C   UNL     1      -4.873   6.252  -2.007  1.00  0.00     0.029 A 
ATOM     12  C   UNL     1      -5.573   5.725  -3.107  1.00  0.00     0.050 A 
BRANCH   8  13
ATOM     13  N   UNL     1      -2.123   3.866  -1.523  1.00  0.00    -0.381 N 
ATOM     14  H   UNL     1      -1.741   4.278  -0.715  1.00  0.00     0.160 HD
BRANCH  13  15
ATOM     15  C   UNL     1      -1.431   2.704  -2.063  1.00  0.00     0.152 C 
BRANCH  15  16
ATOM     16  C   UNL     1       0.057   2.932  -1.956  1.00  0.00     0.014 A 
ATOM     17  C   UNL     1       0.926   1.931  -1.496  1.00  0.00     0.123 A 
ATOM     18  C   UNL     1       2.301   2.178  -1.438  1.00  0.00     0.048 A 
ATOM     19  C   UNL     1       2.815   3.420  -1.824  1.00  0.00     0.019 A 
ATOM     20  C   UNL     1       0.592   4.167  -2.374  1.00  0.00     0.025 A 
ATOM     21  C   UNL     1       1.957   4.409  -2.294  1.00  0.00     0.018 A 
ATOM     22  Br  UNL     1       2.643   6.084  -2.833  1.00  0.00    -0.051 Br
BRANCH  17  23
ATOM     23  O   UNL     1       0.376   0.713  -1.201  1.00  0.00    -0.496 OA
ATOM     24  C   UNL     1       0.896   0.090  -0.031  1.00  0.00     0.278 C 
ENDBRANCH  17  23
ENDBRANCH  15  16
ENDBRANCH  13  15
ENDBRANCH   8  13
BRANCH  12  25
ATOM     25  N   UNL     1      -6.545   6.504  -3.694  1.00  0.00    -0.366 N 
ATOM     26  C   UNL     1      -7.976   6.210  -3.612  1.00  0.00     0.145 C 
ATOM     27  C   UNL     1      -6.175   7.806  -4.252  1.00  0.00     0.145 C 
ATOM     28  C   UNL     1      -8.685   6.601  -4.925  1.00  0.00     0.181 C 
ATOM     29  C   UNL     1      -6.929   8.027  -5.568  1.00  0.00     0.181 C 
ATOM     30  O   UNL     1      -8.349   7.936  -5.356  1.00  0.00    -0.378 OA
ENDBRANCH  12  25
ENDBRANCH   4   7
ENDBRANCH   2   3
ENDBRANCH   1   2
BRANCH   1  31
ATOM     31  C   UNL     1      -6.832  -0.659  -4.365  1.00  0.00     0.023 C 
BRANCH  31  32
ATOM     32  C   UNL     1      -5.986  -1.102  -5.551  1.00  0.00     0.116 C 
BRANCH  32  33
ATOM     33  N   UNL     1      -4.837  -1.919  -5.189  1.00  0.00    -0.352 N 
ATOM     34  C   UNL     1      -4.463  -3.161  -5.658  1.00  0.00     0.251 C 
ATOM     35  H   UNL     1      -4.240  -1.528  -4.511  1.00  0.00     0.163 HD
ATOM     36  O   UNL     1      -3.493  -3.732  -5.183  1.00  0.00    -0.269 OA
BRANCH  34  37
ATOM     37  C   UNL     1      -5.276  -3.817  -6.707  1.00  0.00     0.039 A 
ATOM     38  C   UNL     1      -5.713  -5.128  -6.500  1.00  0.00     0.014 A 
ATOM     39  C   UNL     1      -5.654  -3.122  -7.857  1.00  0.00     0.014 A 
ATOM     40  C   UNL     1      -6.613  -5.706  -7.400  1.00  0.00     0.010 A 
ATOM     41  C   UNL     1      -6.611  -3.668  -8.707  1.00  0.00     0.010 A 
ATOM     42  C   UNL     1      -7.109  -4.961  -8.482  1.00  0.00    -0.014 A 
BRANCH  42  43
ATOM     43  C   UNL     1      -8.160  -5.499  -9.384  1.00  0.00     0.031 A 
ATOM     44  C   UNL     1      -7.868  -5.687 -10.848  1.00  0.00     0.074 A 
ATOM     45  C   UNL     1      -9.401  -5.729  -8.909  1.00  0.00     0.049 A 
ATOM     46  N   UNL     1      -8.680  -6.027 -11.815  1.00  0.00    -0.248 NA
ATOM     47  C   UNL     1      -6.487  -5.427 -11.287  1.00  0.00     0.031 C 
ATOM     48  C   UNL     1      -9.827  -5.548  -7.519  1.00  0.00     0.029 A 
ATOM     49  N   UNL     1     -10.541  -6.152  -9.549  1.00  0.00    -0.354 N 
ATOM     50  C   UNL     1      -7.918  -5.996 -12.977  1.00  0.00     0.074 A 
ATOM     51  C   UNL     1      -6.591  -5.561 -12.601  1.00  0.00     0.031 C 
ATOM     52  C   UNL     1     -11.125  -5.876  -7.408  1.00  0.00     0.029 A 
ATOM     53  C   UNL     1     -11.636  -6.249  -8.723  1.00  0.00     0.049 A 
ATOM     54  H   UNL     1     -10.570  -6.366 -10.509  1.00  0.00     0.167 HD
ATOM     55  C   UNL     1      -8.284  -6.316 -14.241  1.00  0.00     0.031 A 
ATOM     56  C   UNL     1     -12.913  -6.587  -8.993  1.00  0.00     0.031 A 
ATOM     57  C   UNL     1      -9.598  -6.768 -14.609  1.00  0.00     0.049 A 
ATOM     58  C   UNL     1     -13.295  -6.943 -10.404  1.00  0.00     0.074 A 
ATOM     59  C   UNL     1     -10.051  -7.173 -15.853  1.00  0.00     0.029 A 
ATOM     60  N   UNL     1     -10.670  -6.880 -13.736  1.00  0.00    -0.354 N 
ATOM     61  N   UNL     1     -12.545  -6.961 -11.479  1.00  0.00    -0.248 NA
ATOM     62  C   UNL     1     -14.693  -7.331 -10.636  1.00  0.00     0.031 C 
ATOM     63  C   UNL     1     -11.409  -7.490 -15.740  1.00  0.00     0.029 A 
ATOM     64  C   UNL     1     -11.787  -7.332 -14.417  1.00  0.00     0.049 A 
ATOM     65  H   UNL     1     -10.640  -6.669 -12.775  1.00  0.00     0.167 HD
ATOM     66  C   UNL     1     -13.373  -7.391 -12.511  1.00  0.00     0.074 A 
ATOM     67  C   UNL     1     -14.678  -7.630 -11.929  1.00  0.00     0.031 C 
ATOM     68  C   UNL     1     -13.077  -7.574 -13.821  1.00  0.00     0.031 A 
BRANCH  55  69
ATOM     69  C   UNL     1      -7.242  -6.183 -15.319  1.00  0.00    -0.014 A 
ATOM     70  C   UNL     1      -6.149  -7.067 -15.383  1.00  0.00     0.010 A 
ATOM     71  C   UNL     1      -7.369  -5.179 -16.296  1.00  0.00     0.010 A 
ATOM     72  C   UNL     1      -5.178  -6.921 -16.377  1.00  0.00     0.020 A 
ATOM     73  C   UNL     1      -6.414  -5.047 -17.309  1.00  0.00     0.020 A 
ATOM     74  C   UNL     1      -5.314  -5.907 -17.331  1.00  0.00     0.054 A 
BRANCH  74  75
ATOM     75  S   UNL     1      -4.046  -5.749 -18.617  1.00  0.00     0.124 S 
ATOM     76  O   UNL     1      -2.937  -5.158 -17.874  1.00  0.00    -0.237 OA
ATOM     77  O   UNL     1      -3.849  -7.131 -19.046  1.00  0.00    -0.237 OA
ATOM     78  O   UNL     1      -4.667  -4.875 -19.610  1.00  0.00    -0.744 OA
ENDBRANCH  74  75
ENDBRANCH  55  69
BRANCH  56  79
ATOM     79  C   UNL     1     -13.921  -6.622  -7.899  1.00  0.00    -0.014 A 
ATOM     80  C   UNL     1     -14.412  -7.851  -7.424  1.00  0.00     0.010 A 
ATOM     81  C   UNL     1     -14.387  -5.429  -7.316  1.00  0.00     0.010 A 
ATOM     82  C   UNL     1     -15.362  -7.887  -6.399  1.00  0.00     0.020 A 
ATOM     83  C   UNL     1     -15.318  -5.462  -6.273  1.00  0.00     0.020 A 
ATOM     84  C   UNL     1     -15.808  -6.692  -5.829  1.00  0.00     0.054 A 
BRANCH  84  85
ATOM     85  S   UNL     1     -17.001  -6.765  -4.463  1.00  0.00     0.124 S 
ATOM     86  O   UNL     1     -18.241  -7.092  -5.159  1.00  0.00    -0.237 OA
ATOM     87  O   UNL     1     -16.451  -7.822  -3.618  1.00  0.00    -0.237 OA
ATOM     88  O   UNL     1     -16.940  -5.423  -3.885  1.00  0.00    -0.744 OA
ENDBRANCH  84  85
ENDBRANCH  56  79
BRANCH  68  89
ATOM     89  C   UNL     1     -14.168  -8.096 -14.715  1.00  0.00    -0.014 A 
ATOM     90  C   UNL     1     -15.228  -7.271 -15.130  1.00  0.00     0.010 A 
ATOM     91  C   UNL     1     -14.088  -9.412 -15.206  1.00  0.00     0.010 A 
ATOM     92  C   UNL     1     -16.200  -7.761 -16.007  1.00  0.00     0.020 A 
ATOM     93  C   UNL     1     -15.044  -9.897 -16.102  1.00  0.00     0.020 A 
ATOM     94  C   UNL     1     -16.100  -9.070 -16.489  1.00  0.00     0.054 A 
BRANCH  94  95
ATOM     95  S   UNL     1     -17.338  -9.661 -17.676  1.00  0.00     0.124 S 
ATOM     96  O   UNL     1     -18.499  -9.883 -16.819  1.00  0.00    -0.237 OA
ATOM     97  O   UNL     1     -17.450  -8.542 -18.608  1.00  0.00    -0.237 OA
ATOM     98  O   UNL     1     -16.734 -10.869 -18.233  1.00  0.00    -0.744 OA
ENDBRANCH  94  95
ENDBRANCH  68  89
ENDBRANCH  42  43
ENDBRANCH  34  37
ENDBRANCH  32  33
ENDBRANCH  31  32
ENDBRANCH   1  31
TORSDOF 19
