REMARK SMILES Cc1c(Cl)cc2c(c1C)O[C@@H](C(F)(F)F)C(C(=O)NCCCCNC(=O)c1ccc(-c3c4nc(c(-c5ccc(S(=O)(=O)[O-])cc5)c5ccc([nH]5)c(-c5ccc(S(=O)(=O)[O-])cc5)c5nc(c(-c6ccc(S(=O)(=O)[O-])cc6)c6ccc3[nH]6)C=C5)C=C4)cc1)=C2
REMARK SMILES IDX 22 1 21 2 20 3 19 4 17 5 18 6 16 8 1 9 2 10 3 11 8 12 4 13
REMARK SMILES IDX 5 14 7 15 9 16 6 17 10 18 87 19 11 20 12 21 13 22 14 23
REMARK SMILES IDX 15 24 23 25 24 26 25 27 26 29 27 30 28 31 86 32 29 33 85 34
REMARK SMILES IDX 30 35 31 36 32 37 79 38 33 39 84 40 78 41 80 42 34 43 83 44
REMARK SMILES IDX 77 45 76 46 35 48 65 49 46 50 64 51 47 52 50 53 63 54 81 55
REMARK SMILES IDX 48 56 49 57 62 59 82 60 51 61 36 62 37 63 45 64 38 65 44 66
REMARK SMILES IDX 39 67 40 68 41 69 42 70 43 71 66 72 67 73 75 74 68 75 74 76
REMARK SMILES IDX 69 77 70 78 71 79 72 80 73 81 52 82 53 83 61 84 54 85 60 86
REMARK SMILES IDX 55 87 56 88 57 89 58 90 59 91
REMARK H PARENT 19 7 24 28 80 47 50 58
REMARK Flexibility Score: inf
ROOT
ATOM      1  C   UNL     1      -1.877   3.550   9.853  1.00  0.00     0.023 C 
ENDROOT
BRANCH   1   2
ATOM      2  C   UNL     1      -1.845   2.833   8.501  1.00  0.00     0.023 C 
BRANCH   2   3
ATOM      3  C   UNL     1      -2.642   3.529   7.399  1.00  0.00     0.116 C 
BRANCH   3   4
ATOM      4  N   UNL     1      -1.862   4.569   6.754  1.00  0.00    -0.352 N 
ATOM      5  C   UNL     1      -1.147   4.683   5.612  1.00  0.00     0.251 C 
ATOM      6  O   UNL     1      -0.702   5.810   5.376  1.00  0.00    -0.270 OA
ATOM      7  H   UNL     1      -1.851   5.400   7.280  1.00  0.00     0.163 HD
BRANCH   5   8
ATOM      8  C   UNL     1      -0.868   3.571   4.655  1.00  0.00     0.067 C 
ATOM      9  C   UNL     1       1.259  -0.097  -0.330  1.00  0.00     0.046 C 
ATOM     10  C   UNL     1       0.778   0.930   0.664  1.00  0.00    -0.026 A 
ATOM     11  C   UNL     1       1.113   2.288   0.457  1.00  0.00     0.045 A 
ATOM     12  C   UNL     1      -0.009   0.592   1.792  1.00  0.00    -0.004 A 
ATOM     13  Cl  UNL     1       2.031   2.800  -0.921  1.00  0.00    -0.084 Cl
ATOM     14  C   UNL     1       0.717   3.282   1.354  1.00  0.00     0.032 A 
ATOM     15  C   UNL     1      -0.355   1.607   2.709  1.00  0.00     0.131 A 
ATOM     16  C   UNL     1      -0.443  -0.817   2.109  1.00  0.00     0.049 C 
ATOM     17  C   UNL     1      -0.010   2.942   2.490  1.00  0.00     0.019 A 
ATOM     18  O   UNL     1      -1.077   1.244   3.820  1.00  0.00    -0.475 OA
ATOM     19  C   UNL     1      -0.426   3.961   3.445  1.00  0.00     0.025 C 
ATOM     20  C   UNL     1      -0.923   2.106   4.986  1.00  0.00     0.314 C 
BRANCH  20  21
ATOM     21  C   UNL     1       0.244   1.616   5.861  1.00  0.00     0.429 C 
ATOM     22  F   UNL     1       0.775   2.601   6.619  1.00  0.00    -0.167 F 
ATOM     23  F   UNL     1      -0.188   0.651   6.713  1.00  0.00    -0.167 F 
ATOM     24  F   UNL     1       1.256   1.085   5.139  1.00  0.00    -0.167 F 
ENDBRANCH  20  21
ENDBRANCH   5   8
ENDBRANCH   3   4
ENDBRANCH   2   3
ENDBRANCH   1   2
BRANCH   1  25
ATOM     25  C   UNL     1      -3.257   3.670  10.488  1.00  0.00     0.116 C 
BRANCH  25  26
ATOM     26  N   UNL     1      -3.946   2.396  10.640  1.00  0.00    -0.352 N 
ATOM     27  C   UNL     1      -4.858   2.049  11.610  1.00  0.00     0.251 C 
ATOM     28  H   UNL     1      -3.735   1.704   9.973  1.00  0.00     0.163 HD
ATOM     29  O   UNL     1      -5.321   0.915  11.664  1.00  0.00    -0.269 OA
BRANCH  27  30
ATOM     30  C   UNL     1      -5.220   3.065  12.614  1.00  0.00     0.039 A 
ATOM     31  C   UNL     1      -4.954   2.804  13.959  1.00  0.00     0.014 A 
ATOM     32  C   UNL     1      -5.696   4.313  12.203  1.00  0.00     0.014 A 
ATOM     33  C   UNL     1      -5.090   3.832  14.891  1.00  0.00     0.010 A 
ATOM     34  C   UNL     1      -5.767   5.352  13.123  1.00  0.00     0.010 A 
ATOM     35  C   UNL     1      -5.455   5.123  14.472  1.00  0.00    -0.014 A 
BRANCH  35  36
ATOM     36  C   UNL     1      -5.502   6.250  15.433  1.00  0.00     0.031 A 
ATOM     37  C   UNL     1      -6.814   6.905  15.753  1.00  0.00     0.074 A 
ATOM     38  C   UNL     1      -4.357   6.714  15.973  1.00  0.00     0.049 A 
ATOM     39  N   UNL     1      -7.054   7.919  16.543  1.00  0.00    -0.248 NA
ATOM     40  C   UNL     1      -8.008   6.368  15.081  1.00  0.00     0.031 C 
ATOM     41  C   UNL     1      -3.016   6.190  15.701  1.00  0.00     0.029 A 
ATOM     42  N   UNL     1      -4.140   7.729  16.870  1.00  0.00    -0.354 N 
ATOM     43  C   UNL     1      -8.421   8.149  16.453  1.00  0.00     0.074 A 
ATOM     44  C   UNL     1      -8.949   7.204  15.493  1.00  0.00     0.031 C 
ATOM     45  C   UNL     1      -2.123   6.860  16.449  1.00  0.00     0.029 A 
ATOM     46  C   UNL     1      -2.821   7.876  17.230  1.00  0.00     0.049 A 
ATOM     47  H   UNL     1      -4.861   8.299  17.224  1.00  0.00     0.167 HD
ATOM     48  C   UNL     1      -9.174   9.048  17.128  1.00  0.00     0.031 A 
ATOM     49  C   UNL     1      -2.242   8.725  18.100  1.00  0.00     0.031 A 
ATOM     50  C   UNL     1      -8.652   9.967  18.099  1.00  0.00     0.049 A 
ATOM     51  C   UNL     1      -3.100   9.707  18.847  1.00  0.00     0.074 A 
ATOM     52  C   UNL     1      -9.341  10.883  18.873  1.00  0.00     0.029 A 
ATOM     53  N   UNL     1      -7.313  10.081  18.436  1.00  0.00    -0.354 N 
ATOM     54  N   UNL     1      -4.399   9.876  18.784  1.00  0.00    -0.248 NA
ATOM     55  C   UNL     1      -2.417  10.610  19.785  1.00  0.00     0.031 C 
ATOM     56  C   UNL     1      -8.412  11.570  19.662  1.00  0.00     0.029 A 
ATOM     57  C   UNL     1      -7.151  11.058  19.401  1.00  0.00     0.049 A 
ATOM     58  H   UNL     1      -6.584   9.545  18.046  1.00  0.00     0.167 HD
ATOM     59  C   UNL     1      -4.691  10.892  19.686  1.00  0.00     0.074 A 
ATOM     60  C   UNL     1      -3.436  11.294  20.288  1.00  0.00     0.031 C 
ATOM     61  C   UNL     1      -5.893  11.441  19.988  1.00  0.00     0.031 A 
BRANCH  48  62
ATOM     62  C   UNL     1     -10.649   9.057  16.841  1.00  0.00    -0.014 A 
ATOM     63  C   UNL     1     -11.476   8.021  17.311  1.00  0.00     0.010 A 
ATOM     64  C   UNL     1     -11.217  10.113  16.106  1.00  0.00     0.010 A 
ATOM     65  C   UNL     1     -12.840   8.016  17.010  1.00  0.00     0.020 A 
ATOM     66  C   UNL     1     -12.586  10.122  15.823  1.00  0.00     0.020 A 
ATOM     67  C   UNL     1     -13.384   9.062  16.261  1.00  0.00     0.054 A 
BRANCH  67  68
ATOM     68  S   UNL     1     -15.159   9.031  15.886  1.00  0.00     0.124 S 
ATOM     69  O   UNL     1     -15.223   8.028  14.826  1.00  0.00    -0.237 OA
ATOM     70  O   UNL     1     -15.751   8.636  17.161  1.00  0.00    -0.237 OA
ATOM     71  O   UNL     1     -15.447  10.400  15.467  1.00  0.00    -0.744 OA
ENDBRANCH  67  68
ENDBRANCH  48  62
BRANCH  49  72
ATOM     72  C   UNL     1      -0.779   8.647  18.346  1.00  0.00    -0.014 A 
ATOM     73  C   UNL     1      -0.295   8.049  19.523  1.00  0.00     0.010 A 
ATOM     74  C   UNL     1       0.137   9.135  17.398  1.00  0.00     0.010 A 
ATOM     75  C   UNL     1       1.079   7.946  19.752  1.00  0.00     0.020 A 
ATOM     76  C   UNL     1       1.514   9.018  17.616  1.00  0.00     0.020 A 
ATOM     77  C   UNL     1       1.976   8.430  18.795  1.00  0.00     0.054 A 
BRANCH  77  78
ATOM     78  S   UNL     1       3.756   8.225  19.083  1.00  0.00     0.124 S 
ATOM     79  O   UNL     1       4.022   9.256  20.081  1.00  0.00    -0.237 OA
ATOM     80  O   UNL     1       3.844   6.846  19.558  1.00  0.00    -0.237 OA
ATOM     81  O   UNL     1       4.343   8.460  17.766  1.00  0.00    -0.744 OA
ENDBRANCH  77  78
ENDBRANCH  49  72
BRANCH  61  82
ATOM     82  C   UNL     1      -5.921  12.529  21.022  1.00  0.00    -0.014 A 
ATOM     83  C   UNL     1      -5.555  13.843  20.688  1.00  0.00     0.010 A 
ATOM     84  C   UNL     1      -6.423  12.255  22.307  1.00  0.00     0.010 A 
ATOM     85  C   UNL     1      -5.691  14.870  21.625  1.00  0.00     0.020 A 
ATOM     86  C   UNL     1      -6.576  13.282  23.241  1.00  0.00     0.020 A 
ATOM     87  C   UNL     1      -6.206  14.584  22.894  1.00  0.00     0.054 A 
BRANCH  87  88
ATOM     88  S   UNL     1      -6.460  15.950  24.060  1.00  0.00     0.124 S 
ATOM     89  O   UNL     1      -5.098  16.224  24.509  1.00  0.00    -0.237 OA
ATOM     90  O   UNL     1      -7.065  16.982  23.221  1.00  0.00    -0.237 OA
ATOM     91  O   UNL     1      -7.348  15.380  25.072  1.00  0.00    -0.744 OA
ENDBRANCH  87  88
ENDBRANCH  61  82
ENDBRANCH  35  36
ENDBRANCH  27  30
ENDBRANCH  25  26
ENDBRANCH   1  25
TORSDOF 15
