REMARK SMILES CC[C@@](C)(NC(=O)CCc1ccccc1Cl)C(=O)NCCCCNC(=O)c1ccc(-c2c3nc(c(-c4ccc(S(=O)(=O)[O-])cc4)c4ccc([nH]4)c(-c4ccc(S(=O)(=O)[O-])cc4)c4nc(c(-c5ccc(S(=O)(=O)[O-])cc5)c5ccc2[nH]5)C=C4)C=C3)cc1
REMARK SMILES IDX 21 1 20 2 19 3 17 4 18 5 3 7 4 8 2 9 1 10 5 11 6 12 7 14
REMARK SMILES IDX 8 15 9 16 10 17 11 18 15 19 12 20 14 21 16 22 13 23 22 24
REMARK SMILES IDX 23 25 24 26 25 27 26 29 27 30 28 31 86 32 29 33 85 34 30 35
REMARK SMILES IDX 31 36 32 37 79 38 33 39 84 40 78 41 80 42 34 43 83 44 77 45
REMARK SMILES IDX 76 46 35 48 65 49 46 50 64 51 47 52 50 53 63 54 81 55 48 56
REMARK SMILES IDX 49 57 62 59 82 60 51 61 36 62 37 63 45 64 38 65 44 66 39 67
REMARK SMILES IDX 40 68 41 69 42 70 43 71 66 72 67 73 75 74 68 75 74 76 69 77
REMARK SMILES IDX 70 78 71 79 72 80 73 81 52 82 53 83 61 84 54 85 60 86 55 87
REMARK SMILES IDX 56 88 57 89 58 90 59 91
REMARK H PARENT 19 6 5 13 24 28 80 47 50 58
REMARK Flexibility Score: inf
ROOT
ATOM      1  C   UNL     1       2.530  -5.329  -4.229  1.00  0.00     0.023 C 
ENDROOT
BRANCH   1   2
ATOM      2  C   UNL     1       1.782  -5.401  -2.901  1.00  0.00     0.116 C 
BRANCH   2   3
ATOM      3  N   UNL     1       2.253  -4.424  -1.940  1.00  0.00    -0.354 N 
ATOM      4  C   UNL     1       1.871  -3.143  -1.651  1.00  0.00     0.245 C 
ATOM      5  O   UNL     1       2.647  -2.517  -0.963  1.00  0.00    -0.272 OA
ATOM      6  H   UNL     1       2.998  -4.747  -1.383  1.00  0.00     0.163 HD
BRANCH   4   7
ATOM      7  C   UNL     1       0.549  -2.526  -2.143  1.00  0.00     0.116 C 
ATOM      8  C   UNL     1      -0.546  -3.435  -1.551  1.00  0.00     0.045 C 
BRANCH   7   9
ATOM      9  C   UNL     1       0.123  -1.065  -1.825  1.00  0.00     0.035 C 
ATOM     10  C   UNL     1      -0.355  -0.653  -0.447  1.00  0.00     0.007 C 
ENDBRANCH   7   9
BRANCH   7  11
ATOM     11  N   UNL     1       0.709  -2.499  -3.602  1.00  0.00    -0.342 N 
ATOM     12  C   UNL     1       1.544  -1.625  -4.280  1.00  0.00     0.221 C 
ATOM     13  H   UNL     1       0.188  -3.144  -4.133  1.00  0.00     0.164 HD
ATOM     14  O   UNL     1       1.157  -1.285  -5.405  1.00  0.00    -0.275 OA
BRANCH  12  15
ATOM     15  C   UNL     1       2.975  -1.231  -3.780  1.00  0.00     0.105 C 
BRANCH  15  16
ATOM     16  C   UNL     1       3.478   0.018  -2.966  1.00  0.00     0.047 C 
BRANCH  16  17
ATOM     17  C   UNL     1       3.177   0.465  -1.531  1.00  0.00    -0.029 A 
ATOM     18  C   UNL     1       2.482   1.682  -1.366  1.00  0.00     0.005 A 
ATOM     19  C   UNL     1       3.649  -0.122  -0.340  1.00  0.00     0.044 A 
ATOM     20  C   UNL     1       2.128   2.182  -0.103  1.00  0.00     0.000 A 
ATOM     21  C   UNL     1       3.161   0.284   0.921  1.00  0.00     0.021 A 
ATOM     22  Cl  UNL     1       5.006  -1.207  -0.310  1.00  0.00    -0.084 Cl
ATOM     23  C   UNL     1       2.396   1.440   1.039  1.00  0.00     0.002 A 
ENDBRANCH  16  17
ENDBRANCH  15  16
ENDBRANCH  12  15
ENDBRANCH   7  11
ENDBRANCH   4   7
ENDBRANCH   2   3
ENDBRANCH   1   2
BRANCH   1  24
ATOM     24  C   UNL     1       4.057  -5.307  -4.161  1.00  0.00     0.023 C 
BRANCH  24  25
ATOM     25  C   UNL     1       4.719  -6.330  -3.248  1.00  0.00     0.116 C 
BRANCH  25  26
ATOM     26  N   UNL     1       4.185  -7.671  -3.406  1.00  0.00    -0.352 N 
ATOM     27  C   UNL     1       4.841  -8.864  -3.554  1.00  0.00     0.251 C 
ATOM     28  H   UNL     1       3.203  -7.733  -3.405  1.00  0.00     0.163 HD
ATOM     29  O   UNL     1       4.199  -9.888  -3.769  1.00  0.00    -0.269 OA
BRANCH  27  30
ATOM     30  C   UNL     1       6.314  -8.905  -3.495  1.00  0.00     0.039 A 
ATOM     31  C   UNL     1       6.997  -9.607  -4.489  1.00  0.00     0.014 A 
ATOM     32  C   UNL     1       7.015  -8.246  -2.482  1.00  0.00     0.014 A 
ATOM     33  C   UNL     1       8.391  -9.605  -4.497  1.00  0.00     0.010 A 
ATOM     34  C   UNL     1       8.402  -8.177  -2.538  1.00  0.00     0.010 A 
ATOM     35  C   UNL     1       9.103  -8.864  -3.540  1.00  0.00    -0.014 A 
BRANCH  35  36
ATOM     36  C   UNL     1      10.585  -8.811  -3.570  1.00  0.00     0.031 A 
ATOM     37  C   UNL     1      11.380  -9.390  -2.432  1.00  0.00     0.074 A 
ATOM     38  C   UNL     1      11.206  -8.202  -4.599  1.00  0.00     0.049 A 
ATOM     39  N   UNL     1      12.676  -9.419  -2.265  1.00  0.00    -0.248 NA
ATOM     40  C   UNL     1      10.618  -9.995  -1.326  1.00  0.00     0.031 C 
ATOM     41  C   UNL     1      10.536  -7.572  -5.740  1.00  0.00     0.029 A 
ATOM     42  N   UNL     1      12.541  -8.014  -4.855  1.00  0.00    -0.354 N 
ATOM     43  C   UNL     1      12.884 -10.026  -1.031  1.00  0.00     0.074 A 
ATOM     44  C   UNL     1      11.581 -10.302  -0.469  1.00  0.00     0.031 C 
ATOM     45  C   UNL     1      11.463  -7.101  -6.590  1.00  0.00     0.029 A 
ATOM     46  C   UNL     1      12.789  -7.354  -6.035  1.00  0.00     0.049 A 
ATOM     47  H   UNL     1      13.254  -8.323  -4.250  1.00  0.00     0.167 HD
ATOM     48  C   UNL     1      14.056 -10.341  -0.430  1.00  0.00     0.031 A 
ATOM     49  C   UNL     1      13.954  -6.991  -6.605  1.00  0.00     0.031 A 
ATOM     50  C   UNL     1      15.347 -10.070  -1.004  1.00  0.00     0.049 A 
ATOM     51  C   UNL     1      15.242  -7.339  -5.909  1.00  0.00     0.074 A 
ATOM     52  C   UNL     1      16.595 -10.401  -0.506  1.00  0.00     0.029 A 
ATOM     53  N   UNL     1      15.556  -9.396  -2.198  1.00  0.00    -0.354 N 
ATOM     54  N   UNL     1      15.420  -7.980  -4.778  1.00  0.00    -0.248 NA
ATOM     55  C   UNL     1      16.486  -6.927  -6.573  1.00  0.00     0.031 C 
ATOM     56  C   UNL     1      17.560  -9.872  -1.368  1.00  0.00     0.029 A 
ATOM     57  C   UNL     1      16.914  -9.274  -2.439  1.00  0.00     0.049 A 
ATOM     58  H   UNL     1      14.845  -9.055  -2.787  1.00  0.00     0.167 HD
ATOM     59  C   UNL     1      16.797  -8.073  -4.609  1.00  0.00     0.074 A 
ATOM     60  C   UNL     1      17.402  -7.439  -5.763  1.00  0.00     0.031 C 
ATOM     61  C   UNL     1      17.498  -8.637  -3.594  1.00  0.00     0.031 A 
BRANCH  48  62
ATOM     62  C   UNL     1      13.992 -11.003   0.922  1.00  0.00    -0.014 A 
ATOM     63  C   UNL     1      13.501 -12.313   1.073  1.00  0.00     0.010 A 
ATOM     64  C   UNL     1      14.464 -10.317   2.056  1.00  0.00     0.010 A 
ATOM     65  C   UNL     1      13.444 -12.908   2.337  1.00  0.00     0.020 A 
ATOM     66  C   UNL     1      14.438 -10.920   3.317  1.00  0.00     0.020 A 
ATOM     67  C   UNL     1      13.912 -12.206   3.452  1.00  0.00     0.054 A 
BRANCH  67  68
ATOM     68  S   UNL     1      13.848 -13.013   5.075  1.00  0.00     0.124 S 
ATOM     69  O   UNL     1      12.415 -13.012   5.355  1.00  0.00    -0.237 OA
ATOM     70  O   UNL     1      14.434 -14.323   4.803  1.00  0.00    -0.237 OA
ATOM     71  O   UNL     1      14.650 -12.140   5.929  1.00  0.00    -0.744 OA
ENDBRANCH  67  68
ENDBRANCH  48  62
BRANCH  49  72
ATOM     72  C   UNL     1      13.955  -6.275  -7.911  1.00  0.00    -0.014 A 
ATOM     73  C   UNL     1      14.431  -6.908  -9.072  1.00  0.00     0.010 A 
ATOM     74  C   UNL     1      13.467  -4.958  -8.003  1.00  0.00     0.010 A 
ATOM     75  C   UNL     1      14.440  -6.232 -10.296  1.00  0.00     0.020 A 
ATOM     76  C   UNL     1      13.445  -4.290  -9.231  1.00  0.00     0.020 A 
ATOM     77  C   UNL     1      13.944  -4.927 -10.368  1.00  0.00     0.054 A 
BRANCH  77  78
ATOM     78  S   UNL     1      13.924  -4.088 -11.977  1.00  0.00     0.124 S 
ATOM     79  O   UNL     1      15.341  -3.824 -12.200  1.00  0.00    -0.237 OA
ATOM     80  O   UNL     1      13.322  -5.093 -12.848  1.00  0.00    -0.237 OA
ATOM     81  O   UNL     1      13.097  -2.907 -11.736  1.00  0.00    -0.744 OA
ENDBRANCH  77  78
ENDBRANCH  49  72
BRANCH  61  82
ATOM     82  C   UNL     1      19.000  -8.627  -3.699  1.00  0.00    -0.014 A 
ATOM     83  C   UNL     1      19.737  -7.438  -3.556  1.00  0.00     0.010 A 
ATOM     84  C   UNL     1      19.687  -9.841  -3.887  1.00  0.00     0.010 A 
ATOM     85  C   UNL     1      21.132  -7.460  -3.631  1.00  0.00     0.020 A 
ATOM     86  C   UNL     1      21.082  -9.871  -3.930  1.00  0.00     0.020 A 
ATOM     87  C   UNL     1      21.796  -8.677  -3.817  1.00  0.00     0.054 A 
BRANCH  87  88
ATOM     88  S   UNL     1      23.608  -8.683  -3.865  1.00  0.00     0.124 S 
ATOM     89  O   UNL     1      23.880  -8.070  -5.162  1.00  0.00    -0.237 OA
ATOM     90  O   UNL     1      23.962  -7.874  -2.701  1.00  0.00    -0.237 OA
ATOM     91  O   UNL     1      23.954 -10.099  -3.760  1.00  0.00    -0.744 OA
ENDBRANCH  87  88
ENDBRANCH  61  82
ENDBRANCH  35  36
ENDBRANCH  27  30
ENDBRANCH  25  26
ENDBRANCH  24  25
ENDBRANCH   1  24
TORSDOF 19
