REMARK SMILES CC(=O)c1c[nH]c(C(=O)N[C@H]2C=C[C@H](C(=O)NCCCCNC(=O)c3ccc(-c4c5nc(c(-c6ccc(S(=O)(=O)[O-])cc6)c6ccc([nH]6)c(-c6ccc(S(=O)(=O)[O-])cc6)c6nc(c(-c7ccc(S(=O)(=O)[O-])cc7)c7ccc4[nH]7)C=C6)C=C5)cc3)C2)c1
REMARK SMILES IDX 19 1 18 2 17 3 15 4 16 5 14 7 11 8 12 9 85 10 13 11 10 12
REMARK SMILES IDX 8 13 9 14 7 16 4 17 5 18 86 19 6 20 2 22 1 23 3 24 20 25
REMARK SMILES IDX 21 26 22 27 23 28 24 30 25 31 26 32 84 33 27 34 83 35 28 36
REMARK SMILES IDX 29 37 30 38 77 39 31 40 82 41 76 42 78 43 32 44 81 45 75 46
REMARK SMILES IDX 74 47 33 49 63 50 44 51 62 52 45 53 48 54 61 55 79 56 46 57
REMARK SMILES IDX 47 58 60 60 80 61 49 62 34 63 35 64 43 65 36 66 42 67 37 68
REMARK SMILES IDX 38 69 39 70 40 71 41 72 64 73 65 74 73 75 66 76 72 77 67 78
REMARK SMILES IDX 68 79 69 80 70 81 71 82 50 83 51 84 59 85 52 86 58 87 53 88
REMARK SMILES IDX 54 89 55 90 56 91 57 92
REMARK H PARENT 17 6 10 15 6 21 22 29 78 48 48 59
REMARK Flexibility Score: inf
ROOT
ATOM      1  C   UNL     1      -4.174   1.074   6.383  1.00  0.00     0.023 C 
ENDROOT
BRANCH   1   2
ATOM      2  C   UNL     1      -4.684  -0.359   6.236  1.00  0.00     0.116 C 
BRANCH   2   3
ATOM      3  N   UNL     1      -4.744  -0.756   4.844  1.00  0.00    -0.356 N 
ATOM      4  C   UNL     1      -3.956  -1.640   4.164  1.00  0.00     0.227 C 
ATOM      5  O   UNL     1      -4.133  -1.771   2.952  1.00  0.00    -0.274 OA
ATOM      6  H   UNL     1      -5.454  -0.328   4.313  1.00  0.00     0.163 HD
BRANCH   4   7
ATOM      7  C   UNL     1      -2.922  -2.462   4.938  1.00  0.00     0.103 C 
ATOM      8  C   UNL     1      -2.018  -4.288   3.545  1.00  0.00     0.106 C 
ATOM      9  C   UNL     1      -3.045  -4.773   4.525  1.00  0.00    -0.006 C 
ATOM     10  C   UNL     1      -1.739  -2.865   4.057  1.00  0.00     0.047 C 
ATOM     11  C   UNL     1      -3.520  -3.787   5.295  1.00  0.00    -0.016 C 
BRANCH   8  12
ATOM     12  N   UNL     1      -0.890  -5.202   3.608  1.00  0.00    -0.345 N 
ATOM     13  C   UNL     1       0.377  -5.141   3.081  1.00  0.00     0.268 C 
ATOM     14  O   UNL     1       1.139  -6.068   3.308  1.00  0.00    -0.268 OA
ATOM     15  H   UNL     1      -1.067  -6.020   4.127  1.00  0.00     0.164 HD
BRANCH  13  16
ATOM     16  C   UNL     1       0.823  -3.954   2.384  1.00  0.00     0.105 A 
ATOM     17  C   UNL     1       1.050  -1.875   1.516  1.00  0.00     0.035 A 
ATOM     18  C   UNL     1       2.293  -2.304   1.933  1.00  0.00     0.094 A 
ATOM     19  C   UNL     1       0.176  -2.989   1.640  1.00  0.00     0.045 A 
ATOM     20  N   UNL     1       2.155  -3.587   2.400  1.00  0.00    -0.356 N 
ATOM     21  H   UNL     1       2.896  -4.161   2.701  1.00  0.00     0.166 HD
BRANCH  17  22
ATOM     22  C   UNL     1       0.680  -0.522   1.132  1.00  0.00     0.161 C 
ATOM     23  C   UNL     1       1.241   0.031  -0.145  1.00  0.00     0.093 C 
ATOM     24  O   UNL     1      -0.077   0.146   1.835  1.00  0.00    -0.294 OA
ENDBRANCH  17  22
ENDBRANCH  13  16
ENDBRANCH   8  12
ENDBRANCH   4   7
ENDBRANCH   2   3
ENDBRANCH   1   2
BRANCH   1  25
ATOM     25  C   UNL     1      -5.115   2.148   5.814  1.00  0.00     0.023 C 
BRANCH  25  26
ATOM     26  C   UNL     1      -6.516   2.154   6.428  1.00  0.00     0.116 C 
BRANCH  26  27
ATOM     27  N   UNL     1      -6.455   2.416   7.857  1.00  0.00    -0.352 N 
ATOM     28  C   UNL     1      -7.439   2.395   8.812  1.00  0.00     0.251 C 
ATOM     29  H   UNL     1      -5.560   2.647   8.195  1.00  0.00     0.163 HD
ATOM     30  O   UNL     1      -7.262   3.042   9.843  1.00  0.00    -0.269 OA
BRANCH  28  31
ATOM     31  C   UNL     1      -8.692   1.627   8.645  1.00  0.00     0.039 A 
ATOM     32  C   UNL     1      -9.856   2.137   9.241  1.00  0.00     0.014 A 
ATOM     33  C   UNL     1      -8.720   0.374   8.023  1.00  0.00     0.014 A 
ATOM     34  C   UNL     1     -11.051   1.429   9.159  1.00  0.00     0.010 A 
ATOM     35  C   UNL     1      -9.915  -0.329   7.922  1.00  0.00     0.010 A 
ATOM     36  C   UNL     1     -11.083   0.209   8.473  1.00  0.00    -0.014 A 
BRANCH  36  37
ATOM     37  C   UNL     1     -12.387  -0.425   8.177  1.00  0.00     0.031 A 
ATOM     38  C   UNL     1     -13.036   0.187   6.904  1.00  0.00     0.074 A 
ATOM     39  C   UNL     1     -12.788  -1.407   9.045  1.00  0.00     0.049 A 
ATOM     40  N   UNL     1     -14.268   0.169   6.496  1.00  0.00    -0.248 NA
ATOM     41  C   UNL     1     -12.190   0.983   5.963  1.00  0.00     0.031 C 
ATOM     42  C   UNL     1     -11.997  -1.893  10.206  1.00  0.00     0.029 A 
ATOM     43  N   UNL     1     -13.911  -2.200   9.147  1.00  0.00    -0.354 N 
ATOM     44  C   UNL     1     -14.318   0.777   5.213  1.00  0.00     0.074 A 
ATOM     45  C   UNL     1     -13.018   1.317   4.970  1.00  0.00     0.031 C 
ATOM     46  C   UNL     1     -12.686  -2.813  10.919  1.00  0.00     0.029 A 
ATOM     47  C   UNL     1     -13.976  -3.034  10.300  1.00  0.00     0.049 A 
ATOM     48  H   UNL     1     -14.623  -2.191   8.467  1.00  0.00     0.167 HD
ATOM     49  C   UNL     1     -15.408   0.716   4.390  1.00  0.00     0.031 A 
ATOM     50  C   UNL     1     -15.020  -3.803  10.746  1.00  0.00     0.031 A 
ATOM     51  C   UNL     1     -16.484   0.078   5.064  1.00  0.00     0.049 A 
ATOM     52  C   UNL     1     -16.041  -3.695   9.694  1.00  0.00     0.074 A 
ATOM     53  C   UNL     1     -17.349   0.496   6.039  1.00  0.00     0.029 A 
ATOM     54  N   UNL     1     -16.549  -1.287   4.954  1.00  0.00    -0.354 N 
ATOM     55  N   UNL     1     -15.985  -4.277   8.537  1.00  0.00    -0.248 NA
ATOM     56  C   UNL     1     -17.177  -2.789   9.911  1.00  0.00     0.031 C 
ATOM     57  C   UNL     1     -17.525  -0.659   6.827  1.00  0.00     0.029 A 
ATOM     58  C   UNL     1     -16.930  -1.754   6.188  1.00  0.00     0.049 A 
ATOM     59  H   UNL     1     -16.361  -1.825   4.152  1.00  0.00     0.167 HD
ATOM     60  C   UNL     1     -16.853  -3.525   7.787  1.00  0.00     0.074 A 
ATOM     61  C   UNL     1     -17.756  -2.885   8.719  1.00  0.00     0.031 C 
ATOM     62  C   UNL     1     -16.481  -3.071   6.564  1.00  0.00     0.031 A 
BRANCH  49  63
ATOM     63  C   UNL     1     -15.612   0.992   2.919  1.00  0.00    -0.014 A 
ATOM     64  C   UNL     1     -16.958   1.075   2.469  1.00  0.00     0.010 A 
ATOM     65  C   UNL     1     -14.621   0.803   1.947  1.00  0.00     0.010 A 
ATOM     66  C   UNL     1     -17.317   0.805   1.148  1.00  0.00     0.020 A 
ATOM     67  C   UNL     1     -14.973   0.572   0.601  1.00  0.00     0.020 A 
ATOM     68  C   UNL     1     -16.320   0.511   0.228  1.00  0.00     0.054 A 
BRANCH  68  69
ATOM     69  S   UNL     1     -16.826  -0.035  -1.428  1.00  0.00     0.124 S 
ATOM     70  O   UNL     1     -17.333  -1.379  -1.168  1.00  0.00    -0.237 OA
ATOM     71  O   UNL     1     -17.840   0.953  -1.794  1.00  0.00    -0.237 OA
ATOM     72  O   UNL     1     -15.592   0.036  -2.205  1.00  0.00    -0.744 OA
ENDBRANCH  68  69
ENDBRANCH  49  63
BRANCH  50  73
ATOM     73  C   UNL     1     -15.440  -4.562  11.990  1.00  0.00    -0.014 A 
ATOM     74  C   UNL     1     -14.639  -4.894  13.090  1.00  0.00     0.010 A 
ATOM     75  C   UNL     1     -16.818  -4.908  12.120  1.00  0.00     0.010 A 
ATOM     76  C   UNL     1     -15.214  -5.390  14.292  1.00  0.00     0.020 A 
ATOM     77  C   UNL     1     -17.405  -5.348  13.308  1.00  0.00     0.020 A 
ATOM     78  C   UNL     1     -16.599  -5.561  14.408  1.00  0.00     0.054 A 
BRANCH  78  79
ATOM     79  S   UNL     1     -17.383  -5.923  16.009  1.00  0.00     0.124 S 
ATOM     80  O   UNL     1     -17.255  -7.373  16.104  1.00  0.00    -0.237 OA
ATOM     81  O   UNL     1     -16.571  -5.152  16.947  1.00  0.00    -0.237 OA
ATOM     82  O   UNL     1     -18.749  -5.428  15.839  1.00  0.00    -0.744 OA
ENDBRANCH  78  79
ENDBRANCH  50  73
BRANCH  62  83
ATOM     83  C   UNL     1     -15.335  -3.827   5.902  1.00  0.00    -0.014 A 
ATOM     84  C   UNL     1     -15.511  -5.175   5.548  1.00  0.00     0.010 A 
ATOM     85  C   UNL     1     -14.060  -3.262   5.682  1.00  0.00     0.010 A 
ATOM     86  C   UNL     1     -14.465  -5.930   4.997  1.00  0.00     0.020 A 
ATOM     87  C   UNL     1     -13.004  -4.009   5.128  1.00  0.00     0.020 A 
ATOM     88  C   UNL     1     -13.216  -5.344   4.786  1.00  0.00     0.054 A 
BRANCH  88  89
ATOM     89  S   UNL     1     -11.884  -6.357   4.074  1.00  0.00     0.124 S 
ATOM     90  O   UNL     1     -11.774  -7.461   5.023  1.00  0.00    -0.237 OA
ATOM     91  O   UNL     1     -12.424  -6.712   2.764  1.00  0.00    -0.237 OA
ATOM     92  O   UNL     1     -10.732  -5.455   4.046  1.00  0.00    -0.744 OA
ENDBRANCH  88  89
ENDBRANCH  62  83
ENDBRANCH  36  37
ENDBRANCH  28  31
ENDBRANCH  26  27
ENDBRANCH  25  26
ENDBRANCH   1  25
TORSDOF 17
