REMARK SMILES CC(C)C[N@@H+](C1CC1)[C@@H](C)c1ccc(C(=O)NCCCCNC(=O)c2ccc(-c3c4nc(c(-c5ccc(S(=O)(=O)[O-])cc5)c5ccc([nH]5)c(-c5ccc(S(=O)(=O)[O-])cc5)c5nc(c(-c6ccc(S(=O)(=O)[O-])cc6)c6ccc3[nH]6)C=C5)C=C4)cc2)o1
REMARK SMILES IDX 19 1 18 2 17 3 15 4 16 5 14 7 11 8 12 9 85 10 13 11 9 12
REMARK SMILES IDX 10 13 5 14 4 16 2 17 1 18 3 19 6 20 7 21 8 22 20 23 21 24
REMARK SMILES IDX 22 25 23 26 24 28 25 29 26 30 84 31 27 32 83 33 28 34 29 35
REMARK SMILES IDX 30 36 77 37 31 38 82 39 76 40 78 41 32 42 81 43 75 44 74 45
REMARK SMILES IDX 33 47 63 48 44 49 62 50 45 51 48 52 61 53 79 54 46 55 47 56
REMARK SMILES IDX 60 58 80 59 49 60 34 61 35 62 43 63 36 64 42 65 37 66 38 67
REMARK SMILES IDX 39 68 40 69 41 70 64 71 65 72 73 73 66 74 72 75 67 76 68 77
REMARK SMILES IDX 69 78 70 79 71 80 50 81 51 82 59 83 52 84 58 85 53 86 54 87
REMARK SMILES IDX 55 88 56 89 57 90
REMARK H PARENT 17 6 5 15 22 27 78 46 48 57
REMARK Flexibility Score: inf
ROOT
ATOM      1  C   UNL     1       5.940  -0.283   2.024  1.00  0.00     0.023 C 
ENDROOT
BRANCH   1   2
ATOM      2  C   UNL     1       5.205  -0.754   0.770  1.00  0.00     0.116 C 
BRANCH   2   3
ATOM      3  N   UNL     1       4.892  -2.170   0.797  1.00  0.00    -0.349 N 
ATOM      4  C   UNL     1       3.669  -2.781   0.980  1.00  0.00     0.287 C 
ATOM      5  O   UNL     1       3.585  -3.973   0.687  1.00  0.00    -0.266 OA
ATOM      6  H   UNL     1       5.656  -2.777   0.666  1.00  0.00     0.163 HD
BRANCH   4   7
ATOM      7  C   UNL     1       2.555  -2.005   1.480  1.00  0.00     0.191 A 
ATOM      8  C   UNL     1       0.464  -1.285   1.448  1.00  0.00     0.162 A 
ATOM      9  C   UNL     1       1.078  -0.671   2.522  1.00  0.00     0.053 A 
ATOM     10  O   UNL     1       1.344  -2.145   0.854  1.00  0.00    -0.450 OA
ATOM     11  C   UNL     1       2.421  -1.112   2.526  1.00  0.00     0.057 A 
BRANCH   8  12
ATOM     12  C   UNL     1      -0.924  -1.185   0.872  1.00  0.00     0.248 C 
ATOM     13  C   UNL     1      -1.066  -1.803  -0.525  1.00  0.00     0.084 C 
BRANCH  12  14
ATOM     14  N   UNL     1      -1.446   0.190   0.966  1.00  0.00    -0.324 N 
ATOM     15  H   UNL     1      -0.870   0.436   1.771  1.00  0.00     0.348 HD
BRANCH  14  16
ATOM     16  C   UNL     1      -1.004   1.234   0.027  1.00  0.00     0.265 C 
BRANCH  16  17
ATOM     17  C   UNL     1       0.499   1.615  -0.057  1.00  0.00     0.038 C 
ATOM     18  C   UNL     1       1.288   0.797  -1.082  1.00  0.00     0.013 C 
ATOM     19  C   UNL     1       0.640   3.095  -0.446  1.00  0.00     0.013 C 
ENDBRANCH  16  17
ENDBRANCH  14  16
BRANCH  14  20
ATOM     20  C   UNL     1      -2.859   0.332   1.386  1.00  0.00     0.185 C 
ATOM     21  C   UNL     1      -3.943   0.553   0.357  1.00  0.00     0.071 C 
ATOM     22  C   UNL     1      -3.934  -0.702   1.169  1.00  0.00     0.071 C 
ENDBRANCH  14  20
ENDBRANCH  12  14
ENDBRANCH   8  12
ENDBRANCH   4   7
ENDBRANCH   2   3
ENDBRANCH   1   2
BRANCH   1  23
ATOM     23  C   UNL     1       7.338  -0.871   2.222  1.00  0.00     0.023 C 
BRANCH  23  24
ATOM     24  C   UNL     1       8.347  -0.576   1.117  1.00  0.00     0.116 C 
BRANCH  24  25
ATOM     25  N   UNL     1       8.584   0.846   0.916  1.00  0.00    -0.352 N 
ATOM     26  C   UNL     1       9.772   1.506   0.699  1.00  0.00     0.251 C 
ATOM     27  H   UNL     1       7.782   1.415   0.938  1.00  0.00     0.163 HD
ATOM     28  O   UNL     1       9.787   2.733   0.656  1.00  0.00    -0.269 OA
BRANCH  26  29
ATOM     29  C   UNL     1      11.032   0.741   0.557  1.00  0.00     0.039 A 
ATOM     30  C   UNL     1      12.160   1.165   1.265  1.00  0.00     0.014 A 
ATOM     31  C   UNL     1      11.101  -0.394  -0.255  1.00  0.00     0.014 A 
ATOM     32  C   UNL     1      13.333   0.405   1.222  1.00  0.00     0.010 A 
ATOM     33  C   UNL     1      12.249  -1.185  -0.244  1.00  0.00     0.010 A 
ATOM     34  C   UNL     1      13.374  -0.798   0.499  1.00  0.00    -0.014 A 
BRANCH  34  35
ATOM     35  C   UNL     1      14.575  -1.675   0.524  1.00  0.00     0.031 A 
ATOM     36  C   UNL     1      15.351  -1.937  -0.738  1.00  0.00     0.074 A 
ATOM     37  C   UNL     1      14.924  -2.296   1.670  1.00  0.00     0.049 A 
ATOM     38  N   UNL     1      16.374  -2.731  -0.927  1.00  0.00    -0.248 NA
ATOM     39  C   UNL     1      14.905  -1.235  -1.953  1.00  0.00     0.031 C 
ATOM     40  C   UNL     1      14.230  -2.162   2.954  1.00  0.00     0.029 A 
ATOM     41  N   UNL     1      15.944  -3.175   1.938  1.00  0.00    -0.354 N 
ATOM     42  C   UNL     1      16.681  -2.640  -2.279  1.00  0.00     0.074 A 
ATOM     43  C   UNL     1      15.710  -1.746  -2.873  1.00  0.00     0.031 C 
ATOM     44  C   UNL     1      14.857  -2.912   3.875  1.00  0.00     0.029 A 
ATOM     45  C   UNL     1      15.971  -3.611   3.243  1.00  0.00     0.049 A 
ATOM     46  H   UNL     1      16.596  -3.465   1.260  1.00  0.00     0.167 HD
ATOM     47  C   UNL     1      17.689  -3.233  -2.963  1.00  0.00     0.031 A 
ATOM     48  C   UNL     1      16.792  -4.483   3.860  1.00  0.00     0.031 A 
ATOM     49  C   UNL     1      18.666  -4.106  -2.369  1.00  0.00     0.049 A 
ATOM     50  C   UNL     1      17.905  -5.126   3.078  1.00  0.00     0.074 A 
ATOM     51  C   UNL     1      19.760  -4.705  -2.969  1.00  0.00     0.029 A 
ATOM     52  N   UNL     1      18.670  -4.504  -1.041  1.00  0.00    -0.354 N 
ATOM     53  N   UNL     1      18.217  -4.974   1.813  1.00  0.00    -0.248 NA
ATOM     54  C   UNL     1      18.784  -6.049   3.810  1.00  0.00     0.031 C 
ATOM     55  C   UNL     1      20.401  -5.502  -2.014  1.00  0.00     0.029 A 
ATOM     56  C   UNL     1      19.736  -5.356  -0.807  1.00  0.00     0.049 A 
ATOM     57  H   UNL     1      18.013  -4.222  -0.365  1.00  0.00     0.167 HD
ATOM     58  C   UNL     1      19.345  -5.760   1.606  1.00  0.00     0.074 A 
ATOM     59  C   UNL     1      19.669  -6.374   2.877  1.00  0.00     0.031 C 
ATOM     60  C   UNL     1      20.051  -5.954   0.465  1.00  0.00     0.031 A 
BRANCH  47  61
ATOM     61  C   UNL     1      17.790  -2.956  -4.440  1.00  0.00    -0.014 A 
ATOM     62  C   UNL     1      18.204  -1.698  -4.914  1.00  0.00     0.010 A 
ATOM     63  C   UNL     1      17.524  -3.982  -5.364  1.00  0.00     0.010 A 
ATOM     64  C   UNL     1      18.318  -1.462  -6.286  1.00  0.00     0.020 A 
ATOM     65  C   UNL     1      17.662  -3.758  -6.737  1.00  0.00     0.020 A 
ATOM     66  C   UNL     1      18.045  -2.493  -7.189  1.00  0.00     0.054 A 
BRANCH  66  67
ATOM     67  S   UNL     1      18.236  -2.168  -8.964  1.00  0.00     0.124 S 
ATOM     68  O   UNL     1      17.070  -1.334  -9.243  1.00  0.00    -0.237 OA
ATOM     69  O   UNL     1      19.526  -1.485  -9.028  1.00  0.00    -0.237 OA
ATOM     70  O   UNL     1      18.209  -3.499  -9.566  1.00  0.00    -0.744 OA
ENDBRANCH  66  67
ENDBRANCH  47  61
BRANCH  48  71
ATOM     71  C   UNL     1      16.603  -4.793   5.304  1.00  0.00    -0.014 A 
ATOM     72  C   UNL     1      17.529  -4.337   6.259  1.00  0.00     0.010 A 
ATOM     73  C   UNL     1      15.499  -5.554   5.731  1.00  0.00     0.010 A 
ATOM     74  C   UNL     1      17.370  -4.657   7.610  1.00  0.00     0.020 A 
ATOM     75  C   UNL     1      15.322  -5.853   7.085  1.00  0.00     0.020 A 
ATOM     76  C   UNL     1      16.268  -5.415   8.015  1.00  0.00     0.054 A 
BRANCH  76  77
ATOM     77  S   UNL     1      16.061  -5.789   9.778  1.00  0.00     0.124 S 
ATOM     78  O   UNL     1      17.059  -6.833   9.985  1.00  0.00    -0.237 OA
ATOM     79  O   UNL     1      16.348  -4.504  10.411  1.00  0.00    -0.237 OA
ATOM     80  O   UNL     1      14.669  -6.224   9.873  1.00  0.00    -0.744 OA
ENDBRANCH  76  77
ENDBRANCH  48  71
BRANCH  60  81
ATOM     81  C   UNL     1      21.269  -6.834   0.543  1.00  0.00    -0.014 A 
ATOM     82  C   UNL     1      21.154  -8.230   0.670  1.00  0.00     0.010 A 
ATOM     83  C   UNL     1      22.548  -6.258   0.431  1.00  0.00     0.010 A 
ATOM     84  C   UNL     1      22.299  -9.030   0.712  1.00  0.00     0.020 A 
ATOM     85  C   UNL     1      23.693  -7.057   0.446  1.00  0.00     0.020 A 
ATOM     86  C   UNL     1      23.561  -8.439   0.601  1.00  0.00     0.054 A 
BRANCH  86  87
ATOM     87  S   UNL     1      25.030  -9.503   0.611  1.00  0.00     0.124 S 
ATOM     88  O   UNL     1      25.135  -9.863   2.022  1.00  0.00    -0.237 OA
ATOM     89  O   UNL     1      24.647 -10.590  -0.287  1.00  0.00    -0.237 OA
ATOM     90  O   UNL     1      26.092  -8.633   0.109  1.00  0.00    -0.744 OA
ENDBRANCH  86  87
ENDBRANCH  60  81
ENDBRANCH  34  35
ENDBRANCH  26  29
ENDBRANCH  24  25
ENDBRANCH  23  24
ENDBRANCH   1  23
TORSDOF 19
