REMARK SMILES CC1=C[C@@H]([C@@H]2N=N[C@H](S)N2/N=C/c2ccc(C(=O)NCCCCNC(=O)c3ccc(-c4c5nc(c(-c6ccc(S(=O)(=O)[O-])cc6)c6ccc([nH]6)c(-c6ccc(S(=O)(=O)[O-])cc6)c6nc(c(-c7ccc(S(=O)(=O)[O-])cc7)c7ccc4[nH]7)C=C6)C=C5)cc3)cc2)N=N1
REMARK SMILES IDX 21 1 20 2 19 3 17 4 18 5 16 7 13 8 14 9 88 10 15 11 87 12
REMARK SMILES IDX 12 13 11 14 10 15 5 16 6 17 7 18 8 19 4 20 1 21 2 22 3 23
REMARK SMILES IDX 90 24 89 25 9 26 22 28 23 29 24 30 25 31 26 33 27 34 28 35
REMARK SMILES IDX 86 36 29 37 85 38 30 39 31 40 32 41 79 42 33 43 84 44 78 45
REMARK SMILES IDX 80 46 34 47 83 48 77 49 76 50 35 52 65 53 46 54 64 55 47 56
REMARK SMILES IDX 50 57 63 58 81 59 48 60 49 61 62 63 82 64 51 65 36 66 37 67
REMARK SMILES IDX 45 68 38 69 44 70 39 71 40 72 41 73 42 74 43 75 66 76 67 77
REMARK SMILES IDX 75 78 68 79 74 80 69 81 70 82 71 83 72 84 73 85 52 86 53 87
REMARK SMILES IDX 61 88 54 89 60 90 55 91 56 92 57 93 58 94 59 95
REMARK H PARENT 19 6 9 27 24 32 80 51 50 62
REMARK Flexibility Score: inf
ROOT
ATOM      1  C   UNL     1      -7.003 -10.104  -2.001  1.00  0.00     0.023 C 
ENDROOT
BRANCH   1   2
ATOM      2  C   UNL     1      -6.093 -10.075  -0.766  1.00  0.00     0.116 C 
BRANCH   2   3
ATOM      3  N   UNL     1      -5.163 -11.188  -0.776  1.00  0.00    -0.352 N 
ATOM      4  C   UNL     1      -3.864 -11.322  -1.195  1.00  0.00     0.251 C 
ATOM      5  O   UNL     1      -3.347 -12.434  -1.084  1.00  0.00    -0.269 OA
ATOM      6  H   UNL     1      -5.543 -12.018  -0.406  1.00  0.00     0.163 HD
BRANCH   4   7
ATOM      7  C   UNL     1      -3.040 -10.204  -1.740  1.00  0.00     0.039 A 
ATOM      8  C   UNL     1      -1.331  -8.168  -2.651  1.00  0.00    -0.005 A 
ATOM      9  C   UNL     1      -0.786  -9.333  -2.114  1.00  0.00     0.010 A 
ATOM     10  C   UNL     1      -2.712  -8.032  -2.780  1.00  0.00     0.010 A 
ATOM     11  C   UNL     1      -1.641 -10.338  -1.648  1.00  0.00     0.014 A 
ATOM     12  C   UNL     1      -3.556  -9.062  -2.358  1.00  0.00     0.014 A 
BRANCH   8  13
ATOM     13  C   UNL     1      -0.439  -7.084  -3.098  1.00  0.00     0.141 C 
ATOM     14  N   UNL     1      -0.879  -5.875  -3.253  1.00  0.00    -0.180 NA
BRANCH  14  15
ATOM     15  N   UNL     1      -0.010  -4.941  -3.685  1.00  0.00    -0.233 NA
ATOM     16  C   UNL     1      -0.058  -3.544  -3.260  1.00  0.00     0.274 C 
ATOM     17  N   UNL     1       1.239  -2.926  -3.656  1.00  0.00    -0.161 NA
ATOM     18  N   UNL     1       1.952  -3.752  -4.277  1.00  0.00    -0.153 NA
ATOM     19  C   UNL     1       1.280  -5.067  -4.346  1.00  0.00     0.298 C 
BRANCH  16  20
ATOM     20  C   UNL     1      -1.240  -2.747  -3.881  1.00  0.00     0.201 C 
ATOM     21  C   UNL     1      -0.799  -1.324  -7.268  1.00  0.00     0.068 C 
ATOM     22  C   UNL     1      -1.037  -1.667  -5.843  1.00  0.00     0.058 C 
ATOM     23  C   UNL     1      -1.347  -2.868  -5.363  1.00  0.00     0.031 C 
ATOM     24  N   UNL     1      -0.860  -0.736  -4.852  1.00  0.00    -0.160 NA
ATOM     25  N   UNL     1      -1.009  -1.276  -3.716  1.00  0.00    -0.177 NA
ENDBRANCH  16  20
BRANCH  19  26
ATOM     26  S   UNL     1       1.049  -5.723  -6.036  1.00  0.00    -0.128 SA
ATOM     27  H   UNL     1       0.243  -4.886  -6.742  1.00  0.00     0.106 HD
ENDBRANCH  19  26
ENDBRANCH  14  15
ENDBRANCH   8  13
ENDBRANCH   4   7
ENDBRANCH   2   3
ENDBRANCH   1   2
BRANCH   1  28
ATOM     28  C   UNL     1      -8.126 -11.152  -1.958  1.00  0.00     0.023 C 
BRANCH  28  29
ATOM     29  C   UNL     1      -9.203 -10.891  -0.911  1.00  0.00     0.116 C 
BRANCH  29  30
ATOM     30  N   UNL     1      -9.915  -9.631  -1.129  1.00  0.00    -0.352 N 
ATOM     31  C   UNL     1     -10.770  -8.971  -0.262  1.00  0.00     0.251 C 
ATOM     32  H   UNL     1      -9.769  -9.199  -2.002  1.00  0.00     0.163 HD
ATOM     33  O   UNL     1     -11.605  -8.185  -0.681  1.00  0.00    -0.269 OA
BRANCH  31  34
ATOM     34  C   UNL     1     -10.629  -9.222   1.184  1.00  0.00     0.039 A 
ATOM     35  C   UNL     1     -11.736  -9.377   2.022  1.00  0.00     0.014 A 
ATOM     36  C   UNL     1      -9.335  -9.336   1.681  1.00  0.00     0.014 A 
ATOM     37  C   UNL     1     -11.524  -9.736   3.353  1.00  0.00     0.010 A 
ATOM     38  C   UNL     1      -9.133  -9.845   2.936  1.00  0.00     0.010 A 
ATOM     39  C   UNL     1     -10.216  -9.989   3.796  1.00  0.00    -0.014 A 
BRANCH  39  40
ATOM     40  C   UNL     1      -9.945 -10.532   5.121  1.00  0.00     0.031 A 
ATOM     41  C   UNL     1     -10.625 -11.822   5.408  1.00  0.00     0.074 A 
ATOM     42  C   UNL     1      -8.964 -10.047   5.914  1.00  0.00     0.049 A 
ATOM     43  N   UNL     1     -11.598 -12.018   6.233  1.00  0.00    -0.248 NA
ATOM     44  C   UNL     1     -10.305 -12.997   4.580  1.00  0.00     0.031 C 
ATOM     45  C   UNL     1      -8.019  -8.960   5.624  1.00  0.00     0.029 A 
ATOM     46  N   UNL     1      -8.505 -10.522   7.101  1.00  0.00    -0.354 N 
ATOM     47  C   UNL     1     -11.839 -13.386   6.219  1.00  0.00     0.074 A 
ATOM     48  C   UNL     1     -11.182 -13.893   5.041  1.00  0.00     0.031 C 
ATOM     49  C   UNL     1      -6.965  -9.040   6.466  1.00  0.00     0.029 A 
ATOM     50  C   UNL     1      -7.236 -10.069   7.453  1.00  0.00     0.049 A 
ATOM     51  H   UNL     1      -9.027 -11.136   7.667  1.00  0.00     0.167 HD
ATOM     52  C   UNL     1     -12.317 -14.030   7.323  1.00  0.00     0.031 A 
ATOM     53  C   UNL     1      -6.449 -10.532   8.460  1.00  0.00     0.031 A 
ATOM     54  C   UNL     1     -12.760 -13.094   8.328  1.00  0.00     0.049 A 
ATOM     55  C   UNL     1      -7.347 -11.220   9.422  1.00  0.00     0.074 A 
ATOM     56  C   UNL     1     -13.673 -12.057   8.353  1.00  0.00     0.029 A 
ATOM     57  N   UNL     1     -11.914 -12.881   9.394  1.00  0.00    -0.354 N 
ATOM     58  N   UNL     1      -8.250 -10.586  10.118  1.00  0.00    -0.248 NA
ATOM     59  C   UNL     1      -7.590 -12.644   9.242  1.00  0.00     0.031 C 
ATOM     60  C   UNL     1     -13.033 -11.028   9.104  1.00  0.00     0.029 A 
ATOM     61  C   UNL     1     -11.817 -11.526   9.579  1.00  0.00     0.049 A 
ATOM     62  H   UNL     1     -11.462 -13.575   9.926  1.00  0.00     0.167 HD
ATOM     63  C   UNL     1      -9.376 -11.395  10.052  1.00  0.00     0.074 A 
ATOM     64  C   UNL     1      -8.880 -12.695   9.595  1.00  0.00     0.031 C 
ATOM     65  C   UNL     1     -10.634 -10.860  10.082  1.00  0.00     0.031 A 
BRANCH  52  66
ATOM     66  C   UNL     1     -11.989 -15.460   7.678  1.00  0.00    -0.014 A 
ATOM     67  C   UNL     1     -12.596 -16.025   8.819  1.00  0.00     0.010 A 
ATOM     68  C   UNL     1     -10.906 -16.163   7.115  1.00  0.00     0.010 A 
ATOM     69  C   UNL     1     -12.089 -17.187   9.413  1.00  0.00     0.020 A 
ATOM     70  C   UNL     1     -10.421 -17.348   7.672  1.00  0.00     0.020 A 
ATOM     71  C   UNL     1     -10.992 -17.831   8.841  1.00  0.00     0.054 A 
BRANCH  71  72
ATOM     72  S   UNL     1     -10.277 -19.268   9.675  1.00  0.00     0.124 S 
ATOM     73  O   UNL     1      -9.755 -18.672  10.901  1.00  0.00    -0.237 OA
ATOM     74  O   UNL     1     -11.438 -20.139   9.836  1.00  0.00    -0.237 OA
ATOM     75  O   UNL     1      -9.271 -19.744   8.730  1.00  0.00    -0.744 OA
ENDBRANCH  71  72
ENDBRANCH  52  66
BRANCH  53  76
ATOM     76  C   UNL     1      -4.966 -10.651   8.499  1.00  0.00    -0.014 A 
ATOM     77  C   UNL     1      -4.286 -10.978   9.688  1.00  0.00     0.010 A 
ATOM     78  C   UNL     1      -4.233 -10.717   7.296  1.00  0.00     0.010 A 
ATOM     79  C   UNL     1      -2.950 -11.424   9.665  1.00  0.00     0.020 A 
ATOM     80  C   UNL     1      -2.901 -11.153   7.265  1.00  0.00     0.020 A 
ATOM     81  C   UNL     1      -2.274 -11.533   8.448  1.00  0.00     0.054 A 
BRANCH  81  82
ATOM     82  S   UNL     1      -0.625 -12.301   8.394  1.00  0.00     0.124 S 
ATOM     83  O   UNL     1       0.214 -11.287   9.024  1.00  0.00    -0.237 OA
ATOM     84  O   UNL     1      -0.820 -13.528   9.162  1.00  0.00    -0.237 OA
ATOM     85  O   UNL     1      -0.387 -12.503   6.965  1.00  0.00    -0.744 OA
ENDBRANCH  81  82
ENDBRANCH  53  76
BRANCH  65  86
ATOM     86  C   UNL     1     -10.792  -9.400  10.451  1.00  0.00    -0.014 A 
ATOM     87  C   UNL     1     -10.193  -8.338   9.744  1.00  0.00     0.010 A 
ATOM     88  C   UNL     1     -11.706  -9.088  11.471  1.00  0.00     0.010 A 
ATOM     89  C   UNL     1     -10.468  -7.003  10.083  1.00  0.00     0.020 A 
ATOM     90  C   UNL     1     -12.001  -7.763  11.799  1.00  0.00     0.020 A 
ATOM     91  C   UNL     1     -11.368  -6.726  11.115  1.00  0.00     0.054 A 
BRANCH  91  92
ATOM     92  S   UNL     1     -11.730  -5.001  11.549  1.00  0.00     0.124 S 
ATOM     93  O   UNL     1     -10.466  -4.548  12.124  1.00  0.00    -0.237 OA
ATOM     94  O   UNL     1     -12.084  -4.409  10.261  1.00  0.00    -0.237 OA
ATOM     95  O   UNL     1     -12.838  -5.106  12.498  1.00  0.00    -0.744 OA
ENDBRANCH  91  92
ENDBRANCH  65  86
ENDBRANCH  39  40
ENDBRANCH  31  34
ENDBRANCH  29  30
ENDBRANCH  28  29
ENDBRANCH   1  28
TORSDOF 18
