REMARK SMILES Cc1cccc(CS[C@@H]2CC[C@]([NH3+])(C(=O)NCCCCNC(=O)c3ccc(-c4c5nc(c(-c6ccc(S(=O)(=O)[O-])cc6)c6ccc([nH]6)c(-c6ccc(S(=O)(=O)[O-])cc6)c6nc(c(-c7ccc(S(=O)(=O)[O-])cc7)c7ccc4[nH]7)C=C6)C=C5)cc3)C2)c1
REMARK SMILES IDX 18 1 17 2 16 3 14 4 15 5 12 7 9 8 10 9 84 10 11 11 8 12 7 13
REMARK SMILES IDX 6 14 1 15 2 16 3 17 85 18 4 19 5 20 13 21 19 25 20 26 21 27
REMARK SMILES IDX 22 28 23 30 24 31 25 32 83 33 26 34 82 35 27 36 28 37 29 38
REMARK SMILES IDX 76 39 30 40 81 41 75 42 77 43 31 44 80 45 74 46 73 47 32 49
REMARK SMILES IDX 62 50 43 51 61 52 44 53 47 54 60 55 78 56 45 57 46 58 59 60
REMARK SMILES IDX 79 61 48 62 33 63 34 64 42 65 35 66 41 67 36 68 37 69 38 70
REMARK SMILES IDX 39 71 40 72 63 73 64 74 72 75 65 76 71 77 66 78 67 79 68 80
REMARK SMILES IDX 69 81 70 82 49 83 50 84 58 85 51 86 57 87 52 88 53 89 54 90
REMARK SMILES IDX 55 91 56 92
REMARK H PARENT 16 6 13 22 13 23 13 24 21 29 77 48 47 59
REMARK Flexibility Score: inf
ROOT
ATOM      1  C   UNL     1       2.829   1.524  -6.772  1.00  0.00     0.023 C 
ENDROOT
BRANCH   1   2
ATOM      2  C   UNL     1       2.282   1.298  -5.361  1.00  0.00     0.116 C 
BRANCH   2   3
ATOM      3  N   UNL     1       2.418   2.448  -4.478  1.00  0.00    -0.351 N 
ATOM      4  C   UNL     1       1.477   3.125  -3.753  1.00  0.00     0.281 C 
ATOM      5  O   UNL     1       1.869   4.065  -3.052  1.00  0.00    -0.268 OA
ATOM      6  H   UNL     1       3.336   2.794  -4.388  1.00  0.00     0.163 HD
BRANCH   4   7
ATOM      7  C   UNL     1      -0.040   2.790  -3.872  1.00  0.00     0.175 C 
ATOM      8  C   UNL     1      -2.192   2.821  -2.726  1.00  0.00     0.054 C 
ATOM      9  C   UNL     1      -1.872   1.368  -3.082  1.00  0.00     0.022 C 
ATOM     10  C   UNL     1      -0.869   3.585  -2.826  1.00  0.00     0.093 C 
ATOM     11  C   UNL     1      -0.397   1.350  -3.481  1.00  0.00     0.080 C 
BRANCH   8  12
ATOM     12  S   UNL     1      -3.243   3.041  -1.243  1.00  0.00    -0.154 SA
BRANCH  12  13
ATOM     13  C   UNL     1      -2.086   2.888   0.158  1.00  0.00     0.105 C 
BRANCH  13  14
ATOM     14  C   UNL     1      -1.334   1.589   0.250  1.00  0.00    -0.038 A 
ATOM     15  C   UNL     1       2.294   0.447   0.130  1.00  0.00     0.044 C 
ATOM     16  C   UNL     1       0.799   0.411   0.239  1.00  0.00    -0.051 A 
ATOM     17  C   UNL     1       0.120  -0.806   0.352  1.00  0.00     0.003 A 
ATOM     18  C   UNL     1       0.066   1.600   0.198  1.00  0.00     0.008 A 
ATOM     19  C   UNL     1      -1.271  -0.830   0.446  1.00  0.00     0.001 A 
ATOM     20  C   UNL     1      -1.995   0.362   0.406  1.00  0.00     0.004 A 
ENDBRANCH  13  14
ENDBRANCH  12  13
ENDBRANCH   8  12
BRANCH   7  21
ATOM     21  N   UNL     1      -0.488   3.121  -5.244  1.00  0.00    -0.345 N 
ATOM     22  H   UNL     1      -1.481   2.907  -5.339  1.00  0.00     0.345 HD
ATOM     23  H   UNL     1       0.044   2.570  -5.918  1.00  0.00     0.345 HD
ATOM     24  H   UNL     1      -0.336   4.114  -5.422  1.00  0.00     0.345 HD
ENDBRANCH   7  21
ENDBRANCH   4   7
ENDBRANCH   2   3
ENDBRANCH   1   2
BRANCH   1  25
ATOM     25  C   UNL     1       4.302   1.907  -6.867  1.00  0.00     0.023 C 
BRANCH  25  26
ATOM     26  C   UNL     1       5.272   0.874  -6.309  1.00  0.00     0.116 C 
BRANCH  26  27
ATOM     27  N   UNL     1       5.672  -0.152  -7.257  1.00  0.00    -0.352 N 
ATOM     28  C   UNL     1       6.822  -0.927  -7.169  1.00  0.00     0.251 C 
ATOM     29  H   UNL     1       5.078  -0.312  -8.026  1.00  0.00     0.163 HD
ATOM     30  O   UNL     1       7.419  -1.355  -8.140  1.00  0.00    -0.269 OA
BRANCH  28  31
ATOM     31  C   UNL     1       7.198  -1.363  -5.805  1.00  0.00     0.039 A 
ATOM     32  C   UNL     1       6.957  -2.700  -5.464  1.00  0.00     0.014 A 
ATOM     33  C   UNL     1       7.504  -0.418  -4.833  1.00  0.00     0.014 A 
ATOM     34  C   UNL     1       6.845  -3.053  -4.122  1.00  0.00     0.010 A 
ATOM     35  C   UNL     1       7.292  -0.746  -3.511  1.00  0.00     0.010 A 
ATOM     36  C   UNL     1       6.921  -2.051  -3.158  1.00  0.00    -0.014 A 
BRANCH  36  37
ATOM     37  C   UNL     1       6.574  -2.229  -1.756  1.00  0.00     0.031 A 
ATOM     38  C   UNL     1       7.630  -2.167  -0.724  1.00  0.00     0.074 A 
ATOM     39  C   UNL     1       5.281  -2.308  -1.379  1.00  0.00     0.049 A 
ATOM     40  N   UNL     1       7.455  -2.485   0.513  1.00  0.00    -0.248 NA
ATOM     41  C   UNL     1       9.011  -1.800  -1.025  1.00  0.00     0.031 C 
ATOM     42  C   UNL     1       4.737  -2.092  -0.043  1.00  0.00     0.029 A 
ATOM     43  N   UNL     1       4.207  -2.810  -2.091  1.00  0.00    -0.354 N 
ATOM     44  C   UNL     1       8.550  -2.045   1.212  1.00  0.00     0.074 A 
ATOM     45  C   UNL     1       9.540  -1.764   0.201  1.00  0.00     0.031 C 
ATOM     46  C   UNL     1       3.527  -2.666   0.033  1.00  0.00     0.029 A 
ATOM     47  C   UNL     1       3.319  -3.414  -1.192  1.00  0.00     0.049 A 
ATOM     48  H   UNL     1       4.087  -2.753  -3.066  1.00  0.00     0.167 HD
ATOM     49  C   UNL     1       8.428  -1.833   2.554  1.00  0.00     0.031 A 
ATOM     50  C   UNL     1       3.093  -4.764  -1.234  1.00  0.00     0.031 A 
ATOM     51  C   UNL     1       7.186  -2.414   3.086  1.00  0.00     0.049 A 
ATOM     52  C   UNL     1       3.590  -5.507  -0.001  1.00  0.00     0.074 A 
ATOM     53  C   UNL     1       6.019  -1.916   3.642  1.00  0.00     0.029 A 
ATOM     54  N   UNL     1       6.940  -3.762   2.848  1.00  0.00    -0.354 N 
ATOM     55  N   UNL     1       4.202  -4.931   0.999  1.00  0.00    -0.248 NA
ATOM     56  C   UNL     1       3.489  -6.954   0.192  1.00  0.00     0.031 C 
ATOM     57  C   UNL     1       5.066  -2.981   3.711  1.00  0.00     0.029 A 
ATOM     58  C   UNL     1       5.662  -4.128   3.218  1.00  0.00     0.049 A 
ATOM     59  H   UNL     1       7.600  -4.382   2.462  1.00  0.00     0.167 HD
ATOM     60  C   UNL     1       4.581  -5.859   1.926  1.00  0.00     0.074 A 
ATOM     61  C   UNL     1       4.113  -7.119   1.375  1.00  0.00     0.031 C 
ATOM     62  C   UNL     1       5.266  -5.522   3.059  1.00  0.00     0.031 A 
BRANCH  49  63
ATOM     63  C   UNL     1       9.351  -0.927   3.352  1.00  0.00    -0.014 A 
ATOM     64  C   UNL     1       9.013  -0.558   4.671  1.00  0.00     0.010 A 
ATOM     65  C   UNL     1      10.517  -0.325   2.837  1.00  0.00     0.010 A 
ATOM     66  C   UNL     1       9.763   0.386   5.401  1.00  0.00     0.020 A 
ATOM     67  C   UNL     1      11.280   0.607   3.551  1.00  0.00     0.020 A 
ATOM     68  C   UNL     1      10.889   0.973   4.828  1.00  0.00     0.054 A 
BRANCH  68  69
ATOM     69  S   UNL     1      11.826   2.224   5.741  1.00  0.00     0.124 S 
ATOM     70  O   UNL     1      10.845   3.294   5.901  1.00  0.00    -0.237 OA
ATOM     71  O   UNL     1      12.195   1.515   6.962  1.00  0.00    -0.237 OA
ATOM     72  O   UNL     1      12.942   2.541   4.850  1.00  0.00    -0.744 OA
ENDBRANCH  68  69
ENDBRANCH  49  63
BRANCH  50  73
ATOM     73  C   UNL     1       3.014  -5.277  -2.636  1.00  0.00    -0.014 A 
ATOM     74  C   UNL     1       1.925  -4.811  -3.410  1.00  0.00     0.010 A 
ATOM     75  C   UNL     1       4.166  -5.732  -3.301  1.00  0.00     0.010 A 
ATOM     76  C   UNL     1       2.068  -4.587  -4.782  1.00  0.00     0.020 A 
ATOM     77  C   UNL     1       4.302  -5.529  -4.685  1.00  0.00     0.020 A 
ATOM     78  C   UNL     1       3.288  -4.876  -5.393  1.00  0.00     0.054 A 
BRANCH  78  79
ATOM     79  S   UNL     1       3.590  -4.205  -7.058  1.00  0.00     0.124 S 
ATOM     80  O   UNL     1       2.438  -4.692  -7.810  1.00  0.00    -0.237 OA
ATOM     81  O   UNL     1       3.611  -2.761  -6.809  1.00  0.00    -0.237 OA
ATOM     82  O   UNL     1       4.875  -4.789  -7.429  1.00  0.00    -0.744 OA
ENDBRANCH  78  79
ENDBRANCH  50  73
BRANCH  62  83
ATOM     83  C   UNL     1       5.680  -6.506   4.121  1.00  0.00    -0.014 A 
ATOM     84  C   UNL     1       4.868  -7.572   4.537  1.00  0.00     0.010 A 
ATOM     85  C   UNL     1       6.889  -6.300   4.825  1.00  0.00     0.010 A 
ATOM     86  C   UNL     1       5.286  -8.443   5.553  1.00  0.00     0.020 A 
ATOM     87  C   UNL     1       7.305  -7.147   5.853  1.00  0.00     0.020 A 
ATOM     88  C   UNL     1       6.511  -8.234   6.193  1.00  0.00     0.054 A 
BRANCH  88  89
ATOM     89  S   UNL     1       7.039  -9.373   7.496  1.00  0.00     0.124 S 
ATOM     90  O   UNL     1       5.821  -9.545   8.285  1.00  0.00    -0.237 OA
ATOM     91  O   UNL     1       7.456 -10.540   6.724  1.00  0.00    -0.237 OA
ATOM     92  O   UNL     1       8.116  -8.655   8.173  1.00  0.00    -0.744 OA
ENDBRANCH  88  89
ENDBRANCH  62  83
ENDBRANCH  36  37
ENDBRANCH  28  31
ENDBRANCH  26  27
ENDBRANCH  25  26
ENDBRANCH   1  25
TORSDOF 18
