REMARK SMILES O=C(NCCCCNC(=O)c1ccccc1Nc1cccc(C(F)(F)F)c1)c1ccc(-c2c3nc(c(-c4ccc(S(=O)(=O)[O-])cc4)c4ccc([nH]4)c(-c4ccc(S(=O)(=O)[O-])cc4)c4nc(c(-c5ccc(S(=O)(=O)[O-])cc5)c5ccc2[nH]5)C=C4)C=C3)cc1
REMARK SMILES IDX 5 1 4 2 3 3 1 4 2 5 28 7 29 8 87 9 30 10 86 11 31 12 32 13
REMARK SMILES IDX 33 14 80 15 34 16 85 17 79 18 81 19 35 20 84 21 78 22 77 23
REMARK SMILES IDX 36 25 66 26 47 27 65 28 48 29 51 30 64 31 82 32 49 33 50 34
REMARK SMILES IDX 63 36 83 37 52 38 37 39 38 40 46 41 39 42 45 43 40 44 41 45
REMARK SMILES IDX 42 46 43 47 44 48 67 49 68 50 76 51 69 52 75 53 70 54 71 55
REMARK SMILES IDX 72 56 73 57 74 58 53 59 54 60 62 61 55 62 61 63 56 64 57 65
REMARK SMILES IDX 58 66 59 67 60 68 6 69 7 70 8 71 9 72 10 74 11 75 12 76
REMARK SMILES IDX 16 77 13 78 15 79 14 80 17 81 18 83 19 84 27 85 20 86 22 87
REMARK SMILES IDX 21 88 23 89 24 90 25 91 26 92
REMARK H PARENT 3 6 81 24 51 35 8 73 17 82
REMARK Flexibility Score: inf
ROOT
ATOM      1  C   UNL     1       4.951  -1.195  -2.257  1.00  0.00     0.023 C 
ENDROOT
BRANCH   1   2
ATOM      2  C   UNL     1       4.632  -0.072  -1.278  1.00  0.00     0.116 C 
BRANCH   2   3
ATOM      3  N   UNL     1       3.204   0.126  -1.083  1.00  0.00    -0.352 N 
ATOM      4  O   UNL     1       1.233   0.108   0.011  1.00  0.00    -0.269 OA
ATOM      5  C   UNL     1       2.459   0.045   0.070  1.00  0.00     0.251 C 
ATOM      6  H   UNL     1       2.696   0.350  -1.897  1.00  0.00     0.163 HD
BRANCH   5   7
ATOM      7  C   UNL     1       3.130  -0.145   1.375  1.00  0.00     0.039 A 
ATOM      8  C   UNL     1       4.258   0.605   1.714  1.00  0.00     0.014 A 
ATOM      9  C   UNL     1       2.623  -1.088   2.274  1.00  0.00     0.014 A 
ATOM     10  C   UNL     1       4.966   0.303   2.872  1.00  0.00     0.010 A 
ATOM     11  C   UNL     1       3.289  -1.330   3.481  1.00  0.00     0.010 A 
ATOM     12  C   UNL     1       4.487  -0.662   3.774  1.00  0.00    -0.014 A 
BRANCH  12  13
ATOM     13  C   UNL     1       5.234  -0.911   5.034  1.00  0.00     0.031 A 
ATOM     14  C   UNL     1       5.889  -2.240   5.305  1.00  0.00     0.074 A 
ATOM     15  C   UNL     1       5.359   0.096   5.922  1.00  0.00     0.049 A 
ATOM     16  N   UNL     1       6.611  -2.603   6.336  1.00  0.00    -0.248 NA
ATOM     17  C   UNL     1       5.712  -3.296   4.297  1.00  0.00     0.031 C 
ATOM     18  C   UNL     1       4.765   1.428   5.774  1.00  0.00     0.029 A 
ATOM     19  N   UNL     1       6.043   0.169   7.108  1.00  0.00    -0.354 N 
ATOM     20  C   UNL     1       6.964  -3.929   6.109  1.00  0.00     0.074 A 
ATOM     21  C   UNL     1       6.354  -4.315   4.854  1.00  0.00     0.031 C 
ATOM     22  C   UNL     1       5.153   2.199   6.799  1.00  0.00     0.029 A 
ATOM     23  C   UNL     1       5.970   1.404   7.708  1.00  0.00     0.049 A 
ATOM     24  H   UNL     1       6.538  -0.590   7.493  1.00  0.00     0.167 HD
ATOM     25  C   UNL     1       7.732  -4.746   6.870  1.00  0.00     0.031 A 
ATOM     26  C   UNL     1       6.490   1.849   8.866  1.00  0.00     0.031 A 
ATOM     27  C   UNL     1       8.334  -4.360   8.121  1.00  0.00     0.049 A 
ATOM     28  C   UNL     1       7.313   0.914   9.704  1.00  0.00     0.074 A 
ATOM     29  C   UNL     1       9.133  -5.117   8.962  1.00  0.00     0.029 A 
ATOM     30  N   UNL     1       8.207  -3.111   8.711  1.00  0.00    -0.354 N 
ATOM     31  N   UNL     1       7.645  -0.331   9.461  1.00  0.00    -0.248 NA
ATOM     32  C   UNL     1       7.833   1.445  10.970  1.00  0.00     0.031 C 
ATOM     33  C   UNL     1       9.455  -4.338  10.080  1.00  0.00     0.029 A 
ATOM     34  C   UNL     1       8.898  -3.081   9.911  1.00  0.00     0.049 A 
ATOM     35  H   UNL     1       7.699  -2.358   8.332  1.00  0.00     0.167 HD
ATOM     36  C   UNL     1       8.422  -0.730  10.541  1.00  0.00     0.074 A 
ATOM     37  C   UNL     1       8.531   0.414  11.424  1.00  0.00     0.031 C 
ATOM     38  C   UNL     1       8.990  -1.937  10.782  1.00  0.00     0.031 A 
BRANCH  25  39
ATOM     39  C   UNL     1       7.954  -6.153   6.380  1.00  0.00    -0.014 A 
ATOM     40  C   UNL     1       8.808  -6.416   5.293  1.00  0.00     0.010 A 
ATOM     41  C   UNL     1       7.344  -7.232   7.045  1.00  0.00     0.010 A 
ATOM     42  C   UNL     1       9.020  -7.728   4.859  1.00  0.00     0.020 A 
ATOM     43  C   UNL     1       7.571  -8.548   6.629  1.00  0.00     0.020 A 
ATOM     44  C   UNL     1       8.395  -8.786   5.527  1.00  0.00     0.054 A 
BRANCH  44  45
ATOM     45  S   UNL     1       8.703 -10.481   4.956  1.00  0.00     0.124 S 
ATOM     46  O   UNL     1       7.905 -10.534   3.733  1.00  0.00    -0.237 OA
ATOM     47  O   UNL     1      10.150 -10.498   4.761  1.00  0.00    -0.237 OA
ATOM     48  O   UNL     1       8.215 -11.311   6.054  1.00  0.00    -0.744 OA
ENDBRANCH  44  45
ENDBRANCH  25  39
BRANCH  26  49
ATOM     49  C   UNL     1       6.227   3.245   9.305  1.00  0.00    -0.014 A 
ATOM     50  C   UNL     1       7.255   4.203   9.310  1.00  0.00     0.010 A 
ATOM     51  C   UNL     1       4.932   3.626   9.702  1.00  0.00     0.010 A 
ATOM     52  C   UNL     1       6.996   5.514   9.722  1.00  0.00     0.020 A 
ATOM     53  C   UNL     1       4.663   4.941  10.086  1.00  0.00     0.020 A 
ATOM     54  C   UNL     1       5.701   5.874  10.107  1.00  0.00     0.054 A 
BRANCH  54  55
ATOM     55  S   UNL     1       5.372   7.591  10.590  1.00  0.00     0.124 S 
ATOM     56  O   UNL     1       5.902   7.630  11.949  1.00  0.00    -0.237 OA
ATOM     57  O   UNL     1       6.124   8.352   9.595  1.00  0.00    -0.237 OA
ATOM     58  O   UNL     1       3.919   7.703  10.478  1.00  0.00    -0.744 OA
ENDBRANCH  54  55
ENDBRANCH  26  49
BRANCH  38  59
ATOM     59  C   UNL     1       9.799  -2.070  12.043  1.00  0.00    -0.014 A 
ATOM     60  C   UNL     1       9.175  -2.145  13.300  1.00  0.00     0.010 A 
ATOM     61  C   UNL     1      11.201  -2.148  11.964  1.00  0.00     0.010 A 
ATOM     62  C   UNL     1       9.942  -2.257  14.463  1.00  0.00     0.020 A 
ATOM     63  C   UNL     1      11.970  -2.285  13.123  1.00  0.00     0.020 A 
ATOM     64  C   UNL     1      11.336  -2.322  14.366  1.00  0.00     0.054 A 
BRANCH  64  65
ATOM     65  S   UNL     1      12.311  -2.496  15.886  1.00  0.00     0.124 S 
ATOM     66  O   UNL     1      12.271  -1.141  16.429  1.00  0.00    -0.237 OA
ATOM     67  O   UNL     1      11.559  -3.498  16.639  1.00  0.00    -0.237 OA
ATOM     68  O   UNL     1      13.619  -2.939  15.408  1.00  0.00    -0.744 OA
ENDBRANCH  64  65
ENDBRANCH  38  59
ENDBRANCH  12  13
ENDBRANCH   5   7
ENDBRANCH   2   3
ENDBRANCH   1   2
BRANCH   1  69
ATOM     69  C   UNL     1       4.466  -0.980  -3.690  1.00  0.00     0.023 C 
BRANCH  69  70
ATOM     70  C   UNL     1       4.849   0.355  -4.322  1.00  0.00     0.116 C 
BRANCH  70  71
ATOM     71  N   UNL     1       6.284   0.588  -4.342  1.00  0.00    -0.352 N 
ATOM     72  C   UNL     1       7.061   1.047  -5.375  1.00  0.00     0.253 C 
ATOM     73  H   UNL     1       6.760   0.389  -3.503  1.00  0.00     0.163 HD
ATOM     74  O   UNL     1       8.273   1.179  -5.233  1.00  0.00    -0.269 OA
BRANCH  72  75
ATOM     75  C   UNL     1       6.447   1.355  -6.681  1.00  0.00     0.063 A 
ATOM     76  C   UNL     1       6.863   0.565  -7.763  1.00  0.00     0.016 A 
ATOM     77  C   UNL     1       5.499   2.385  -6.846  1.00  0.00     0.051 A 
ATOM     78  C   UNL     1       6.300   0.758  -9.021  1.00  0.00     0.001 A 
ATOM     79  C   UNL     1       4.933   2.540  -8.121  1.00  0.00     0.027 A 
ATOM     80  C   UNL     1       5.327   1.738  -9.197  1.00  0.00     0.002 A 
BRANCH  77  81
ATOM     81  N   UNL     1       5.100   3.204  -5.770  1.00  0.00    -0.355 N 
ATOM     82  H   UNL     1       5.803   3.369  -5.102  1.00  0.00     0.167 HD
BRANCH  81  83
ATOM     83  C   UNL     1       3.872   3.825  -5.485  1.00  0.00     0.039 A 
ATOM     84  C   UNL     1       3.866   5.030  -4.773  1.00  0.00     0.026 A 
ATOM     85  C   UNL     1       2.648   3.309  -5.931  1.00  0.00     0.039 A 
ATOM     86  C   UNL     1       2.671   5.703  -4.511  1.00  0.00     0.003 A 
ATOM     87  C   UNL     1       1.435   3.964  -5.661  1.00  0.00     0.058 A 
ATOM     88  C   UNL     1       1.460   5.174  -4.954  1.00  0.00     0.013 A 
BRANCH  87  89
ATOM     89  C   UNL     1       0.124   3.394  -6.140  1.00  0.00     0.416 C 
ATOM     90  F   UNL     1      -0.831   3.373  -5.169  1.00  0.00    -0.166 F 
ATOM     91  F   UNL     1      -0.407   4.114  -7.168  1.00  0.00    -0.166 F 
ATOM     92  F   UNL     1       0.219   2.114  -6.595  1.00  0.00    -0.166 F 
ENDBRANCH  87  89
ENDBRANCH  81  83
ENDBRANCH  77  81
ENDBRANCH  72  75
ENDBRANCH  70  71
ENDBRANCH  69  70
ENDBRANCH   1  69
TORSDOF 17
