REMARK SMILES O=C(NCCCCNC(=O)c1ccc(C[N@H+]2CC[N@H+]3CCCC[C@@H]3C2)c(F)c1)c1ccc(-c2c3nc(c(-c4ccc(S(=O)(=O)[O-])cc4)c4ccc([nH]4)c(-c4ccc(S(=O)(=O)[O-])cc4)c4nc(c(-c5ccc(S(=O)(=O)[O-])cc5)c5ccc2[nH]5)C=C4)C=C3)cc1
REMARK SMILES IDX 5 1 4 2 3 3 1 4 2 5 29 7 30 8 88 9 31 10 87 11 32 12 33 13
REMARK SMILES IDX 34 14 81 15 35 16 86 17 80 18 82 19 36 20 85 21 79 22 78 23
REMARK SMILES IDX 37 25 67 26 48 27 66 28 49 29 52 30 65 31 83 32 50 33 51 34
REMARK SMILES IDX 64 36 84 37 53 38 38 39 39 40 47 41 40 42 46 43 41 44 42 45
REMARK SMILES IDX 43 46 44 47 45 48 68 49 69 50 77 51 70 52 76 53 71 54 72 55
REMARK SMILES IDX 73 56 74 57 75 58 54 59 55 60 63 61 56 62 62 63 57 64 58 65
REMARK SMILES IDX 59 66 60 67 61 68 6 69 7 70 8 71 9 72 10 74 11 75 12 76
REMARK SMILES IDX 28 77 13 78 26 79 14 80 27 81 15 82 16 83 17 84 25 85 18 87
REMARK SMILES IDX 24 88 19 89 23 90 20 91 22 93 21 94
REMARK H PARENT 3 6 82 24 52 35 8 73 16 86 19 92
REMARK Flexibility Score: inf
ROOT
ATOM      1  C   UNL     1       5.359  -2.468   0.156  1.00  0.00     0.023 C 
ENDROOT
BRANCH   1   2
ATOM      2  C   UNL     1       4.822  -1.097  -0.247  1.00  0.00     0.116 C 
BRANCH   2   3
ATOM      3  N   UNL     1       3.370  -1.027  -0.367  1.00  0.00    -0.352 N 
ATOM      4  O   UNL     1       1.299  -0.163  -0.118  1.00  0.00    -0.269 OA
ATOM      5  C   UNL     1       2.505  -0.028   0.033  1.00  0.00     0.251 C 
ATOM      6  H   UNL     1       2.945  -1.805  -0.795  1.00  0.00     0.163 HD
BRANCH   5   7
ATOM      7  C   UNL     1       3.047   1.179   0.700  1.00  0.00     0.039 A 
ATOM      8  C   UNL     1       4.173   1.825   0.192  1.00  0.00     0.014 A 
ATOM      9  C   UNL     1       2.468   1.612   1.897  1.00  0.00     0.014 A 
ATOM     10  C   UNL     1       4.847   2.745   0.985  1.00  0.00     0.010 A 
ATOM     11  C   UNL     1       3.095   2.612   2.646  1.00  0.00     0.010 A 
ATOM     12  C   UNL     1       4.329   3.135   2.232  1.00  0.00    -0.014 A 
BRANCH  12  13
ATOM     13  C   UNL     1       5.118   4.065   3.083  1.00  0.00     0.031 A 
ATOM     14  C   UNL     1       5.665   3.621   4.418  1.00  0.00     0.074 A 
ATOM     15  C   UNL     1       5.409   5.294   2.614  1.00  0.00     0.049 A 
ATOM     16  N   UNL     1       6.436   4.277   5.250  1.00  0.00    -0.248 NA
ATOM     17  C   UNL     1       5.299   2.273   4.884  1.00  0.00     0.031 C 
ATOM     18  C   UNL     1       4.942   5.839   1.336  1.00  0.00     0.029 A 
ATOM     19  N   UNL     1       6.194   6.290   3.134  1.00  0.00    -0.354 N 
ATOM     20  C   UNL     1       6.615   3.441   6.348  1.00  0.00     0.074 A 
ATOM     21  C   UNL     1       5.861   2.235   6.084  1.00  0.00     0.031 C 
ATOM     22  C   UNL     1       5.506   7.040   1.139  1.00  0.00     0.029 A 
ATOM     23  C   UNL     1       6.322   7.377   2.301  1.00  0.00     0.049 A 
ATOM     24  H   UNL     1       6.624   6.234   4.017  1.00  0.00     0.167 HD
ATOM     25  C   UNL     1       7.342   3.656   7.472  1.00  0.00     0.031 A 
ATOM     26  C   UNL     1       7.018   8.519   2.450  1.00  0.00     0.031 A 
ATOM     27  C   UNL     1       8.111   4.847   7.723  1.00  0.00     0.049 A 
ATOM     28  C   UNL     1       7.823   8.729   3.698  1.00  0.00     0.074 A 
ATOM     29  C   UNL     1       8.907   5.144   8.818  1.00  0.00     0.029 A 
ATOM     30  N   UNL     1       8.186   5.936   6.869  1.00  0.00    -0.354 N 
ATOM     31  N   UNL     1       7.989   7.917   4.715  1.00  0.00    -0.248 NA
ATOM     32  C   UNL     1       8.537  10.006   3.817  1.00  0.00     0.031 C 
ATOM     33  C   UNL     1       9.431   6.429   8.642  1.00  0.00     0.029 A 
ATOM     34  C   UNL     1       9.001   6.913   7.417  1.00  0.00     0.049 A 
ATOM     35  H   UNL     1       7.728   6.006   6.001  1.00  0.00     0.167 HD
ATOM     36  C   UNL     1       8.843   8.580   5.588  1.00  0.00     0.074 A 
ATOM     37  C   UNL     1       9.171   9.850   4.971  1.00  0.00     0.031 C 
ATOM     38  C   UNL     1       9.314   8.173   6.793  1.00  0.00     0.031 A 
BRANCH  25  39
ATOM     39  C   UNL     1       7.312   2.591   8.537  1.00  0.00    -0.014 A 
ATOM     40  C   UNL     1       7.994   1.371   8.376  1.00  0.00     0.010 A 
ATOM     41  C   UNL     1       6.619   2.831   9.738  1.00  0.00     0.010 A 
ATOM     42  C   UNL     1       7.947   0.396   9.377  1.00  0.00     0.020 A 
ATOM     43  C   UNL     1       6.588   1.868  10.751  1.00  0.00     0.020 A 
ATOM     44  C   UNL     1       7.237   0.648  10.555  1.00  0.00     0.054 A 
BRANCH  44  45
ATOM     45  S   UNL     1       7.195  -0.630  11.843  1.00  0.00     0.124 S 
ATOM     46  O   UNL     1       6.238  -1.584  11.287  1.00  0.00    -0.237 OA
ATOM     47  O   UNL     1       8.581  -1.088  11.889  1.00  0.00    -0.237 OA
ATOM     48  O   UNL     1       6.740   0.089  13.030  1.00  0.00    -0.744 OA
ENDBRANCH  44  45
ENDBRANCH  25  39
BRANCH  26  49
ATOM     49  C   UNL     1       6.984   9.544   1.374  1.00  0.00    -0.014 A 
ATOM     50  C   UNL     1       8.112   9.768   0.566  1.00  0.00     0.010 A 
ATOM     51  C   UNL     1       5.806  10.273   1.126  1.00  0.00     0.010 A 
ATOM     52  C   UNL     1       8.065  10.708  -0.467  1.00  0.00     0.020 A 
ATOM     53  C   UNL     1       5.747  11.193   0.078  1.00  0.00     0.020 A 
ATOM     54  C   UNL     1       6.881  11.412  -0.707  1.00  0.00     0.054 A 
BRANCH  54  55
ATOM     55  S   UNL     1       6.817  12.576  -2.097  1.00  0.00     0.124 S 
ATOM     56  O   UNL     1       7.527  13.731  -1.557  1.00  0.00    -0.237 OA
ATOM     57  O   UNL     1       7.508  11.845  -3.156  1.00  0.00    -0.237 OA
ATOM     58  O   UNL     1       5.384  12.765  -2.315  1.00  0.00    -0.744 OA
ENDBRANCH  54  55
ENDBRANCH  26  49
BRANCH  38  59
ATOM     59  C   UNL     1      10.262   9.099   7.503  1.00  0.00    -0.014 A 
ATOM     60  C   UNL     1       9.805  10.277   8.118  1.00  0.00     0.010 A 
ATOM     61  C   UNL     1      11.627   8.770   7.574  1.00  0.00     0.010 A 
ATOM     62  C   UNL     1      10.705  11.134   8.756  1.00  0.00     0.020 A 
ATOM     63  C   UNL     1      12.527   9.612   8.231  1.00  0.00     0.020 A 
ATOM     64  C   UNL     1      12.062  10.799   8.802  1.00  0.00     0.054 A 
BRANCH  64  65
ATOM     65  S   UNL     1      13.213  11.914   9.652  1.00  0.00     0.124 S 
ATOM     66  O   UNL     1      13.393  12.974   8.663  1.00  0.00    -0.237 OA
ATOM     67  O   UNL     1      12.472  12.293  10.852  1.00  0.00    -0.237 OA
ATOM     68  O   UNL     1      14.388  11.079   9.892  1.00  0.00    -0.744 OA
ENDBRANCH  64  65
ENDBRANCH  38  59
ENDBRANCH  12  13
ENDBRANCH   5   7
ENDBRANCH   2   3
ENDBRANCH   1   2
BRANCH   1  69
ATOM     69  C   UNL     1       5.002  -3.620  -0.780  1.00  0.00     0.023 C 
BRANCH  69  70
ATOM     70  C   UNL     1       5.487  -3.472  -2.223  1.00  0.00     0.116 C 
BRANCH  70  71
ATOM     71  N   UNL     1       6.917  -3.700  -2.351  1.00  0.00    -0.352 N 
ATOM     72  C   UNL     1       7.569  -4.739  -2.971  1.00  0.00     0.251 C 
ATOM     73  H   UNL     1       7.496  -3.018  -1.940  1.00  0.00     0.163 HD
ATOM     74  O   UNL     1       8.789  -4.838  -2.944  1.00  0.00    -0.269 OA
BRANCH  72  75
ATOM     75  C   UNL     1       6.779  -5.765  -3.671  1.00  0.00     0.042 A 
ATOM     76  C   UNL     1       6.205  -5.483  -4.915  1.00  0.00     0.014 A 
ATOM     77  C   UNL     1       6.610  -7.012  -3.074  1.00  0.00     0.053 A 
ATOM     78  C   UNL     1       5.390  -6.438  -5.529  1.00  0.00     0.013 A 
ATOM     79  C   UNL     1       5.782  -7.945  -3.689  1.00  0.00     0.132 A 
ATOM     80  C   UNL     1       5.119  -7.661  -4.889  1.00  0.00     0.042 A 
ATOM     81  F   UNL     1       5.584  -9.124  -3.082  1.00  0.00    -0.206 F 
BRANCH  80  82
ATOM     82  C   UNL     1       4.115  -8.634  -5.463  1.00  0.00     0.302 C 
BRANCH  82  83
ATOM     83  N   UNL     1       2.703  -8.486  -5.084  1.00  0.00    -0.322 N 
ATOM     84  C   UNL     1       2.366  -8.826  -3.694  1.00  0.00     0.324 C 
ATOM     85  C   UNL     1       2.046  -7.235  -5.488  1.00  0.00     0.328 C 
ATOM     86  H   UNL     1       2.299  -9.218  -5.668  1.00  0.00     0.348 HD
ATOM     87  C   UNL     1       2.393  -7.664  -2.671  1.00  0.00     0.324 C 
ATOM     88  C   UNL     1       2.199  -6.070  -4.478  1.00  0.00     0.239 C 
ATOM     89  N   UNL     1       1.709  -6.434  -3.132  1.00  0.00    -0.323 N 
ATOM     90  C   UNL     1       1.495  -4.808  -4.991  1.00  0.00     0.071 C 
ATOM     91  C   UNL     1       1.957  -5.345  -2.176  1.00  0.00     0.262 C 
ATOM     92  H   UNL     1       0.703  -6.597  -3.185  1.00  0.00     0.348 HD
ATOM     93  C   UNL     1       1.784  -3.643  -4.051  1.00  0.00     0.012 C 
ATOM     94  C   UNL     1       1.371  -4.005  -2.629  1.00  0.00     0.062 C 
ENDBRANCH  82  83
ENDBRANCH  80  82
ENDBRANCH  72  75
ENDBRANCH  70  71
ENDBRANCH  69  70
ENDBRANCH   1  69
TORSDOF 16
