REMARK SMILES O=C(CCc1nc(-c2ccccc2)c(-c2ccccc2)o1)NCCCCNC(=O)c1ccc(-c2c3nc(c(-c4ccc(S(=O)(=O)[O-])cc4)c4ccc([nH]4)c(-c4ccc(S(=O)(=O)[O-])cc4)c4nc(c(-c5ccc(S(=O)(=O)[O-])cc5)c5ccc2[nH]5)C=C4)C=C3)cc1
REMARK SMILES IDX 24 1 23 2 22 3 1 4 2 5 3 7 4 8 5 9 6 10 21 11 7 12 14 13
REMARK SMILES IDX 8 14 9 15 13 16 10 17 12 18 11 19 15 20 16 21 20 22 17 23
REMARK SMILES IDX 19 24 18 25 25 26 26 27 27 28 28 29 29 31 30 32 31 33 89 34
REMARK SMILES IDX 32 35 88 36 33 37 34 38 35 39 82 40 36 41 87 42 81 43 83 44
REMARK SMILES IDX 37 45 86 46 80 47 79 48 38 50 68 51 49 52 67 53 50 54 53 55
REMARK SMILES IDX 66 56 84 57 51 58 52 59 65 61 85 62 54 63 39 64 40 65 48 66
REMARK SMILES IDX 41 67 47 68 42 69 43 70 44 71 45 72 46 73 69 74 70 75 78 76
REMARK SMILES IDX 71 77 77 78 72 79 73 80 74 81 75 82 76 83 55 84 56 85 64 86
REMARK SMILES IDX 57 87 63 88 58 89 59 90 60 91 61 92 62 93
REMARK H PARENT 22 6 27 30 83 49 53 60
REMARK Flexibility Score: inf
ROOT
ATOM      1  C   UNL     1       2.225  -0.782  -3.621  1.00  0.00     0.023 C 
ENDROOT
BRANCH   1   2
ATOM      2  C   UNL     1       1.998  -1.257  -2.185  1.00  0.00     0.116 C 
BRANCH   2   3
ATOM      3  N   UNL     1       2.756  -0.487  -1.218  1.00  0.00    -0.356 N 
ATOM      4  O   UNL     1       1.011  -0.077   0.225  1.00  0.00    -0.275 OA
ATOM      5  C   UNL     1       2.199   0.028  -0.068  1.00  0.00     0.220 C 
ATOM      6  H   UNL     1       3.711  -0.324  -1.390  1.00  0.00     0.163 HD
BRANCH   5   7
ATOM      7  C   UNL     1       3.175   0.766   0.826  1.00  0.00     0.110 C 
BRANCH   7   8
ATOM      8  C   UNL     1       3.983  -0.175   1.712  1.00  0.00     0.107 C 
BRANCH   8   9
ATOM      9  C   UNL     1       4.963  -0.986   0.945  1.00  0.00     0.196 A 
ATOM     10  N   UNL     1       4.945  -2.283   0.722  1.00  0.00    -0.213 NA
ATOM     11  O   UNL     1       5.963  -0.310   0.298  1.00  0.00    -0.440 OA
ATOM     12  C   UNL     1       6.032  -2.494  -0.095  1.00  0.00     0.117 A 
ATOM     13  C   UNL     1       6.639  -1.286  -0.391  1.00  0.00     0.162 A 
BRANCH  12  14
ATOM     14  C   UNL     1       6.389  -3.798  -0.618  1.00  0.00     0.004 A 
ATOM     15  C   UNL     1       7.727  -4.209  -0.688  1.00  0.00     0.010 A 
ATOM     16  C   UNL     1       5.385  -4.666  -1.065  1.00  0.00     0.010 A 
ATOM     17  C   UNL     1       8.056  -5.459  -1.218  1.00  0.00     0.001 A 
ATOM     18  C   UNL     1       5.716  -5.911  -1.607  1.00  0.00     0.001 A 
ATOM     19  C   UNL     1       7.052  -6.304  -1.687  1.00  0.00     0.000 A 
ENDBRANCH  12  14
BRANCH  13  20
ATOM     20  C   UNL     1       7.656  -0.838  -1.326  1.00  0.00     0.020 A 
ATOM     21  C   UNL     1       8.744  -0.053  -0.941  1.00  0.00     0.012 A 
ATOM     22  C   UNL     1       7.551  -1.220  -2.667  1.00  0.00     0.012 A 
ATOM     23  C   UNL     1       9.708   0.322  -1.887  1.00  0.00     0.001 A 
ATOM     24  C   UNL     1       8.488  -0.821  -3.617  1.00  0.00     0.001 A 
ATOM     25  C   UNL     1       9.577  -0.057  -3.223  1.00  0.00     0.000 A 
ENDBRANCH  13  20
ENDBRANCH   8   9
ENDBRANCH   7   8
ENDBRANCH   5   7
ENDBRANCH   2   3
ENDBRANCH   1   2
BRANCH   1  26
ATOM     26  C   UNL     1       3.665  -0.873  -4.129  1.00  0.00     0.023 C 
BRANCH  26  27
ATOM     27  C   UNL     1       4.277  -2.269  -4.175  1.00  0.00     0.116 C 
BRANCH  27  28
ATOM     28  N   UNL     1       3.731  -3.147  -5.189  1.00  0.00    -0.352 N 
ATOM     29  C   UNL     1       4.406  -3.944  -6.092  1.00  0.00     0.251 C 
ATOM     30  H   UNL     1       2.748  -3.180  -5.242  1.00  0.00     0.163 HD
ATOM     31  O   UNL     1       3.768  -4.543  -6.958  1.00  0.00    -0.269 OA
BRANCH  29  32
ATOM     32  C   UNL     1       5.891  -4.066  -6.060  1.00  0.00     0.039 A 
ATOM     33  C   UNL     1       6.603  -4.041  -7.263  1.00  0.00     0.014 A 
ATOM     34  C   UNL     1       6.594  -4.226  -4.865  1.00  0.00     0.014 A 
ATOM     35  C   UNL     1       8.005  -4.110  -7.259  1.00  0.00     0.010 A 
ATOM     36  C   UNL     1       7.993  -4.230  -4.856  1.00  0.00     0.010 A 
ATOM     37  C   UNL     1       8.720  -4.169  -6.052  1.00  0.00    -0.014 A 
BRANCH  37  38
ATOM     38  C   UNL     1      10.212  -4.130  -6.019  1.00  0.00     0.031 A 
ATOM     39  C   UNL     1      11.011  -5.288  -5.472  1.00  0.00     0.074 A 
ATOM     40  C   UNL     1      10.861  -3.017  -6.421  1.00  0.00     0.049 A 
ATOM     41  N   UNL     1      12.312  -5.418  -5.370  1.00  0.00    -0.248 NA
ATOM     42  C   UNL     1      10.256  -6.443  -4.962  1.00  0.00     0.031 C 
ATOM     43  C   UNL     1      10.222  -1.802  -6.933  1.00  0.00     0.029 A 
ATOM     44  N   UNL     1      12.203  -2.720  -6.455  1.00  0.00    -0.354 N 
ATOM     45  C   UNL     1      12.530  -6.663  -4.789  1.00  0.00     0.074 A 
ATOM     46  C   UNL     1      11.226  -7.226  -4.509  1.00  0.00     0.031 C 
ATOM     47  C   UNL     1      11.168  -0.901  -7.241  1.00  0.00     0.029 A 
ATOM     48  C   UNL     1      12.481  -1.458  -6.928  1.00  0.00     0.049 A 
ATOM     49  H   UNL     1      12.901  -3.352  -6.167  1.00  0.00     0.167 HD
ATOM     50  C   UNL     1      13.703  -7.293  -4.530  1.00  0.00     0.031 A 
ATOM     51  C   UNL     1      13.653  -0.814  -7.097  1.00  0.00     0.031 A 
ATOM     52  C   UNL     1      15.004  -6.734  -4.802  1.00  0.00     0.049 A 
ATOM     53  C   UNL     1      14.943  -1.520  -6.774  1.00  0.00     0.074 A 
ATOM     54  C   UNL     1      16.245  -7.328  -4.637  1.00  0.00     0.029 A 
ATOM     55  N   UNL     1      15.238  -5.453  -5.277  1.00  0.00    -0.354 N 
ATOM     56  N   UNL     1      15.124  -2.736  -6.319  1.00  0.00    -0.248 NA
ATOM     57  C   UNL     1      16.186  -0.773  -7.010  1.00  0.00     0.031 C 
ATOM     58  C   UNL     1      17.229  -6.383  -4.947  1.00  0.00     0.029 A 
ATOM     59  C   UNL     1      16.601  -5.225  -5.376  1.00  0.00     0.049 A 
ATOM     60  H   UNL     1      14.538  -4.801  -5.511  1.00  0.00     0.167 HD
ATOM     61  C   UNL     1      16.503  -2.912  -6.248  1.00  0.00     0.074 A 
ATOM     62  C   UNL     1      17.106  -1.682  -6.718  1.00  0.00     0.031 C 
ATOM     63  C   UNL     1      17.202  -3.998  -5.838  1.00  0.00     0.031 A 
BRANCH  50  64
ATOM     64  C   UNL     1      13.643  -8.669  -3.913  1.00  0.00    -0.014 A 
ATOM     65  C   UNL     1      13.164  -9.773  -4.643  1.00  0.00     0.010 A 
ATOM     66  C   UNL     1      14.133  -8.875  -2.610  1.00  0.00     0.010 A 
ATOM     67  C   UNL     1      13.136 -11.046  -4.066  1.00  0.00     0.020 A 
ATOM     68  C   UNL     1      14.136 -10.153  -2.041  1.00  0.00     0.020 A 
ATOM     69  C   UNL     1      13.621 -11.228  -2.768  1.00  0.00     0.054 A 
BRANCH  69  70
ATOM     70  S   UNL     1      13.592 -12.896  -2.055  1.00  0.00     0.124 S 
ATOM     71  O   UNL     1      12.163 -13.102  -1.834  1.00  0.00    -0.237 OA
ATOM     72  O   UNL     1      14.187 -13.706  -3.114  1.00  0.00    -0.237 OA
ATOM     73  O   UNL     1      14.397 -12.770  -0.843  1.00  0.00    -0.744 OA
ENDBRANCH  69  70
ENDBRANCH  50  64
BRANCH  51  74
ATOM     74  C   UNL     1      13.665   0.578  -7.628  1.00  0.00    -0.014 A 
ATOM     75  C   UNL     1      14.150   0.846  -8.920  1.00  0.00     0.010 A 
ATOM     76  C   UNL     1      13.181   1.643  -6.845  1.00  0.00     0.010 A 
ATOM     77  C   UNL     1      14.170   2.154  -9.413  1.00  0.00     0.020 A 
ATOM     78  C   UNL     1      13.171   2.947  -7.346  1.00  0.00     0.020 A 
ATOM     79  C   UNL     1      13.677   3.196  -8.623  1.00  0.00     0.054 A 
BRANCH  79  80
ATOM     80  S   UNL     1      13.667   4.878  -9.304  1.00  0.00     0.124 S 
ATOM     81  O   UNL     1      15.086   5.218  -9.295  1.00  0.00    -0.237 OA
ATOM     82  O   UNL     1      13.070   4.679 -10.622  1.00  0.00    -0.237 OA
ATOM     83  O   UNL     1      12.838   5.623  -8.359  1.00  0.00    -0.744 OA
ENDBRANCH  79  80
ENDBRANCH  51  74
BRANCH  63  84
ATOM     84  C   UNL     1      18.707  -3.929  -5.909  1.00  0.00    -0.014 A 
ATOM     85  C   UNL     1      19.446  -3.109  -5.038  1.00  0.00     0.010 A 
ATOM     86  C   UNL     1      19.395  -4.740  -6.831  1.00  0.00     0.010 A 
ATOM     87  C   UNL     1      20.842  -3.075  -5.112  1.00  0.00     0.020 A 
ATOM     88  C   UNL     1      20.792  -4.733  -6.886  1.00  0.00     0.020 A 
ATOM     89  C   UNL     1      21.506  -3.889  -6.035  1.00  0.00     0.054 A 
BRANCH  89  90
ATOM     90  S   UNL     1      23.320  -3.858  -6.081  1.00  0.00     0.124 S 
ATOM     91  O   UNL     1      23.587  -2.553  -6.680  1.00  0.00    -0.237 OA
ATOM     92  O   UNL     1      23.677  -3.987  -4.670  1.00  0.00    -0.237 OA
ATOM     93  O   UNL     1      23.666  -5.008  -6.913  1.00  0.00    -0.744 OA
ENDBRANCH  89  90
ENDBRANCH  63  84
ENDBRANCH  37  38
ENDBRANCH  29  32
ENDBRANCH  27  28
ENDBRANCH  26  27
ENDBRANCH   1  26
TORSDOF 18
