REMARK SMILES C[NH+](C)CCNC(=O)NC1(CC(=O)NCCCCNC(=O)c2ccc(-c3c4nc(c(-c5ccc(S(=O)(=O)[O-])cc5)c5ccc([nH]5)c(-c5ccc(S(=O)(=O)[O-])cc5)c5nc(c(-c6ccc(S(=O)(=O)[O-])cc6)c6ccc3[nH]6)C=C5)C=C4)cc2)CCC1
REMARK SMILES IDX 15 1 14 2 12 3 13 4 11 6 10 7 82 8 84 9 83 10 9 11 6 12 7 13
REMARK SMILES IDX 8 15 5 17 4 18 2 19 1 20 3 21 16 23 17 24 18 25 19 26 20 27
REMARK SMILES IDX 21 29 22 30 23 31 81 32 24 33 80 34 25 35 26 36 27 37 74 38
REMARK SMILES IDX 28 39 79 40 73 41 75 42 29 43 78 44 72 45 71 46 30 48 60 49
REMARK SMILES IDX 41 50 59 51 42 52 45 53 58 54 76 55 43 56 44 57 57 59 77 60
REMARK SMILES IDX 46 61 31 62 32 63 40 64 33 65 39 66 34 67 35 68 36 69 37 70
REMARK SMILES IDX 38 71 61 72 62 73 70 74 63 75 69 76 64 77 65 78 66 79 67 80
REMARK SMILES IDX 68 81 47 82 48 83 56 84 49 85 55 86 50 87 51 88 52 89 53 90
REMARK SMILES IDX 54 91
REMARK H PARENT 14 5 6 14 9 16 2 22 19 28 75 47 45 58
REMARK Flexibility Score: inf
ROOT
ATOM      1  C   UNL     1       0.429  -1.907   3.976  1.00  0.00     0.116 C 
ENDROOT
BRANCH   1   2
ATOM      2  N   UNL     1      -0.142  -2.146   2.667  1.00  0.00    -0.356 N 
ATOM      3  C   UNL     1      -0.325  -3.284   1.939  1.00  0.00     0.222 C 
ATOM      4  O   UNL     1      -1.162  -3.235   1.033  1.00  0.00    -0.275 OA
ATOM      5  H   UNL     1      -0.460  -1.331   2.216  1.00  0.00     0.163 HD
BRANCH   3   6
ATOM      6  C   UNL     1       0.346  -4.590   2.278  1.00  0.00     0.128 C 
BRANCH   6   7
ATOM      7  C   UNL     1       1.820  -4.846   1.916  1.00  0.00     0.051 C 
ATOM      8  C   UNL     1       2.207  -6.290   2.482  1.00  0.00     0.029 C 
ATOM      9  C   UNL     1       2.967  -4.352   2.849  1.00  0.00     0.029 C 
ATOM     10  C   UNL     1       2.777  -5.603   3.723  1.00  0.00     0.005 C 
BRANCH   7  11
ATOM     11  N   UNL     1       2.151  -4.860   0.463  1.00  0.00    -0.332 N 
ATOM     12  N   UNL     1       1.320  -2.889  -0.518  1.00  0.00    -0.332 N 
ATOM     13  C   UNL     1       1.755  -4.149  -0.612  1.00  0.00     0.315 C 
ATOM     14  H   UNL     1       0.430  -2.705  -0.896  1.00  0.00     0.165 HD
ATOM     15  O   UNL     1       1.794  -4.709  -1.709  1.00  0.00    -0.249 OA
ATOM     16  H   UNL     1       2.816  -5.550   0.235  1.00  0.00     0.165 HD
BRANCH  12  17
ATOM     17  C   UNL     1       2.011  -1.764   0.079  1.00  0.00     0.179 C 
BRANCH  17  18
ATOM     18  C   UNL     1       1.141  -0.481   0.107  1.00  0.00     0.283 C 
BRANCH  18  19
ATOM     19  N   UNL     1       0.063  -0.412  -0.894  1.00  0.00    -0.338 N 
ATOM     20  C   UNL     1       0.497   0.307  -2.091  1.00  0.00     0.332 C 
ATOM     21  C   UNL     1      -1.127   0.244  -0.336  1.00  0.00     0.332 C 
ATOM     22  H   UNL     1      -0.173  -1.370  -1.153  1.00  0.00     0.347 HD
ENDBRANCH  18  19
ENDBRANCH  17  18
ENDBRANCH  12  17
ENDBRANCH   7  11
ENDBRANCH   6   7
ENDBRANCH   3   6
ENDBRANCH   1   2
BRANCH   1  23
ATOM     23  C   UNL     1       1.740  -1.105   4.027  1.00  0.00     0.023 C 
BRANCH  23  24
ATOM     24  C   UNL     1       1.849   0.314   3.470  1.00  0.00     0.023 C 
BRANCH  24  25
ATOM     25  C   UNL     1       0.667   1.244   3.665  1.00  0.00     0.116 C 
BRANCH  25  26
ATOM     26  N   UNL     1       0.758   1.915   4.949  1.00  0.00    -0.352 N 
ATOM     27  C   UNL     1       1.058   3.233   5.198  1.00  0.00     0.251 C 
ATOM     28  H   UNL     1       0.583   1.356   5.740  1.00  0.00     0.163 HD
ATOM     29  O   UNL     1       1.455   3.560   6.317  1.00  0.00    -0.269 OA
BRANCH  27  30
ATOM     30  C   UNL     1       0.903   4.259   4.139  1.00  0.00     0.039 A 
ATOM     31  C   UNL     1       1.852   5.280   4.027  1.00  0.00     0.014 A 
ATOM     32  C   UNL     1      -0.217   4.259   3.299  1.00  0.00     0.014 A 
ATOM     33  C   UNL     1       1.695   6.281   3.061  1.00  0.00     0.010 A 
ATOM     34  C   UNL     1      -0.344   5.225   2.301  1.00  0.00     0.010 A 
ATOM     35  C   UNL     1       0.600   6.256   2.183  1.00  0.00    -0.014 A 
BRANCH  35  36
ATOM     36  C   UNL     1       0.399   7.319   1.164  1.00  0.00     0.031 A 
ATOM     37  C   UNL     1      -0.762   8.271   1.288  1.00  0.00     0.074 A 
ATOM     38  C   UNL     1       1.222   7.400   0.101  1.00  0.00     0.049 A 
ATOM     39  N   UNL     1      -1.143   9.221   0.472  1.00  0.00    -0.248 NA
ATOM     40  C   UNL     1      -1.618   8.123   2.477  1.00  0.00     0.031 C 
ATOM     41  C   UNL     1       2.372   6.529  -0.147  1.00  0.00     0.029 A 
ATOM     42  N   UNL     1       1.211   8.251  -0.976  1.00  0.00    -0.354 N 
ATOM     43  C   UNL     1      -2.286   9.774   1.039  1.00  0.00     0.074 A 
ATOM     44  C   UNL     1      -2.561   9.025   2.246  1.00  0.00     0.031 C 
ATOM     45  C   UNL     1       2.964   6.900  -1.294  1.00  0.00     0.029 A 
ATOM     46  C   UNL     1       2.217   8.008  -1.882  1.00  0.00     0.049 A 
ATOM     47  H   UNL     1       0.545   8.967  -1.090  1.00  0.00     0.167 HD
ATOM     48  C   UNL     1      -3.030  10.819   0.606  1.00  0.00     0.031 A 
ATOM     49  C   UNL     1       2.500   8.602  -3.058  1.00  0.00     0.031 A 
ATOM     50  C   UNL     1      -2.753  11.568  -0.592  1.00  0.00     0.049 A 
ATOM     51  C   UNL     1       1.635   9.733  -3.542  1.00  0.00     0.074 A 
ATOM     52  C   UNL     1      -3.414  12.679  -1.084  1.00  0.00     0.029 A 
ATOM     53  N   UNL     1      -1.737  11.276  -1.489  1.00  0.00    -0.354 N 
ATOM     54  N   UNL     1       0.596  10.281  -2.959  1.00  0.00    -0.248 NA
ATOM     55  C   UNL     1       1.980  10.325  -4.843  1.00  0.00     0.031 C 
ATOM     56  C   UNL     1      -2.831  13.028  -2.307  1.00  0.00     0.029 A 
ATOM     57  C   UNL     1      -1.775  12.164  -2.551  1.00  0.00     0.049 A 
ATOM     58  H   UNL     1      -1.085  10.545  -1.386  1.00  0.00     0.167 HD
ATOM     59  C   UNL     1       0.171  11.291  -3.815  1.00  0.00     0.074 A 
ATOM     60  C   UNL     1       1.075  11.290  -4.947  1.00  0.00     0.031 C 
ATOM     61  C   UNL     1      -0.876  12.142  -3.677  1.00  0.00     0.031 A 
BRANCH  48  62
ATOM     62  C   UNL     1      -4.228  11.207   1.432  1.00  0.00    -0.014 A 
ATOM     63  C   UNL     1      -4.074  11.822   2.688  1.00  0.00     0.010 A 
ATOM     64  C   UNL     1      -5.525  10.980   0.936  1.00  0.00     0.010 A 
ATOM     65  C   UNL     1      -5.194  12.156   3.454  1.00  0.00     0.020 A 
ATOM     66  C   UNL     1      -6.648  11.337   1.688  1.00  0.00     0.020 A 
ATOM     67  C   UNL     1      -6.474  11.904   2.953  1.00  0.00     0.054 A 
BRANCH  67  68
ATOM     68  S   UNL     1      -7.911  12.349   3.967  1.00  0.00     0.124 S 
ATOM     69  O   UNL     1      -7.894  11.302   4.986  1.00  0.00    -0.237 OA
ATOM     70  O   UNL     1      -7.568  13.689   4.440  1.00  0.00    -0.237 OA
ATOM     71  O   UNL     1      -9.029  12.290   3.031  1.00  0.00    -0.744 OA
ENDBRANCH  67  68
ENDBRANCH  48  62
BRANCH  49  72
ATOM     72  C   UNL     1       3.661   8.133  -3.861  1.00  0.00    -0.014 A 
ATOM     73  C   UNL     1       4.822   8.919  -3.958  1.00  0.00     0.010 A 
ATOM     74  C   UNL     1       3.621   6.886  -4.513  1.00  0.00     0.010 A 
ATOM     75  C   UNL     1       5.922   8.470  -4.696  1.00  0.00     0.020 A 
ATOM     76  C   UNL     1       4.727   6.423  -5.231  1.00  0.00     0.020 A 
ATOM     77  C   UNL     1       5.869   7.222  -5.324  1.00  0.00     0.054 A 
BRANCH  77  78
ATOM     78  S   UNL     1       7.333   6.627  -6.215  1.00  0.00     0.124 S 
ATOM     79  O   UNL     1       7.292   7.428  -7.434  1.00  0.00    -0.237 OA
ATOM     80  O   UNL     1       8.417   6.941  -5.287  1.00  0.00    -0.237 OA
ATOM     81  O   UNL     1       7.069   5.201  -6.390  1.00  0.00    -0.744 OA
ENDBRANCH  77  78
ENDBRANCH  49  72
BRANCH  61  82
ATOM     82  C   UNL     1      -1.105  13.146  -4.774  1.00  0.00    -0.014 A 
ATOM     83  C   UNL     1      -1.658  12.753  -6.005  1.00  0.00     0.010 A 
ATOM     84  C   UNL     1      -0.834  14.507  -4.544  1.00  0.00     0.010 A 
ATOM     85  C   UNL     1      -1.923  13.703  -6.995  1.00  0.00     0.020 A 
ATOM     86  C   UNL     1      -1.119  15.463  -5.523  1.00  0.00     0.020 A 
ATOM     87  C   UNL     1      -1.654  15.053  -6.746  1.00  0.00     0.054 A 
BRANCH  87  88
ATOM     88  S   UNL     1      -2.069  16.274  -8.022  1.00  0.00     0.124 S 
ATOM     89  O   UNL     1      -1.013  16.056  -9.007  1.00  0.00    -0.237 OA
ATOM     90  O   UNL     1      -3.409  15.864  -8.435  1.00  0.00    -0.237 OA
ATOM     91  O   UNL     1      -2.006  17.551  -7.313  1.00  0.00    -0.744 OA
ENDBRANCH  87  88
ENDBRANCH  61  82
ENDBRANCH  35  36
ENDBRANCH  27  30
ENDBRANCH  25  26
ENDBRANCH  24  25
ENDBRANCH  23  24
ENDBRANCH   1  23
TORSDOF 19
