REMARK SMILES CCc1ccccc1NC(=O)c1cc(S(=O)(=O)N2CCC[C@H](C(=O)NCCCCNC(=O)c3ccc(-c4c5nc(c(-c6ccc(S(=O)(=O)[O-])cc6)c6ccc([nH]6)c(-c6ccc(S(=O)(=O)[O-])cc6)c6nc(c(-c7ccc(S(=O)(=O)[O-])cc7)c7ccc4[nH]7)C=C6)C=C5)cc3)C2)ccc1F
REMARK SMILES IDX 26 1 25 2 23 3 24 4 22 6 18 7 19 8 93 9 20 10 21 11 15 12
REMARK SMILES IDX 16 13 17 14 14 15 12 16 13 17 96 18 95 19 97 20 94 21 10 22
REMARK SMILES IDX 9 23 11 25 8 26 3 27 4 28 5 29 7 30 6 31 2 32 1 33 27 34
REMARK SMILES IDX 28 35 29 36 30 37 31 38 32 40 33 41 34 42 92 43 35 44 91 45
REMARK SMILES IDX 36 46 37 47 38 48 85 49 39 50 90 51 84 52 86 53 40 54 89 55
REMARK SMILES IDX 83 56 82 57 41 59 71 60 52 61 70 62 53 63 56 64 69 65 87 66
REMARK SMILES IDX 54 67 55 68 68 70 88 71 57 72 42 73 43 74 51 75 44 76 50 77
REMARK SMILES IDX 45 78 46 79 47 80 48 81 49 82 72 83 73 84 81 85 74 86 80 87
REMARK SMILES IDX 75 88 76 89 77 90 78 91 79 92 58 93 59 94 67 95 60 96 66 97
REMARK SMILES IDX 61 98 62 99 63 100 64 101 65 102
REMARK H PARENT 25 5 9 24 30 39 86 58 56 69
REMARK Flexibility Score: inf
ROOT
ATOM      1  C   UNL     1       9.530  -7.834   4.764  1.00  0.00     0.116 C 
ENDROOT
BRANCH   1   2
ATOM      2  N   UNL     1      10.583  -8.180   3.834  1.00  0.00    -0.356 N 
ATOM      3  C   UNL     1      10.621  -8.232   2.482  1.00  0.00     0.224 C 
ATOM      4  O   UNL     1      11.704  -8.544   1.972  1.00  0.00    -0.275 OA
ATOM      5  H   UNL     1      11.433  -8.423   4.266  1.00  0.00     0.163 HD
BRANCH   3   6
ATOM      6  C   UNL     1       9.428  -7.963   1.565  1.00  0.00     0.093 C 
ATOM      7  N   UNL     1       7.515  -6.593   2.497  1.00  0.00    -0.197 NA
ATOM      8  C   UNL     1       6.577  -7.730   2.402  1.00  0.00     0.102 C 
ATOM      9  C   UNL     1       8.779  -6.599   1.720  1.00  0.00     0.116 C 
ATOM     10  C   UNL     1       7.278  -9.076   2.364  1.00  0.00     0.018 C 
ATOM     11  C   UNL     1       8.454  -9.124   1.410  1.00  0.00     0.016 C 
BRANCH   7  12
ATOM     12  S   UNL     1       6.849  -5.064   2.837  1.00  0.00     0.243 S 
ATOM     13  O   UNL     1       7.939  -4.174   3.162  1.00  0.00    -0.207 OA
ATOM     14  O   UNL     1       5.726  -5.257   3.730  1.00  0.00    -0.207 OA
BRANCH  12  15
ATOM     15  C   UNL     1       6.160  -4.466   1.306  1.00  0.00     0.083 A 
ATOM     16  C   UNL     1       5.019  -2.683   0.164  1.00  0.00     0.077 A 
ATOM     17  C   UNL     1       5.610  -3.182   1.327  1.00  0.00     0.038 A 
ATOM     18  C   UNL     1       5.062  -3.408  -1.027  1.00  0.00     0.136 A 
ATOM     19  C   UNL     1       5.602  -4.686  -1.044  1.00  0.00     0.041 A 
ATOM     20  F   UNL     1       4.539  -2.916  -2.158  1.00  0.00    -0.206 F 
ATOM     21  C   UNL     1       6.134  -5.224   0.128  1.00  0.00     0.025 A 
BRANCH  16  22
ATOM     22  C   UNL     1       4.295  -1.415   0.228  1.00  0.00     0.258 C 
ATOM     23  N   UNL     1       2.958  -1.343  -0.086  1.00  0.00    -0.322 N 
ATOM     24  H   UNL     1       2.621  -0.421  -0.164  1.00  0.00     0.170 HD
ATOM     25  O   UNL     1       4.922  -0.403   0.531  1.00  0.00    -0.269 OA
BRANCH  23  26
ATOM     26  C   UNL     1       1.970  -2.328  -0.317  1.00  0.00     0.044 A 
ATOM     27  C   UNL     1       0.775  -1.953  -0.965  1.00  0.00    -0.025 A 
ATOM     28  C   UNL     1      -0.127  -2.958  -1.371  1.00  0.00     0.006 A 
ATOM     29  C   UNL     1       0.107  -4.301  -1.082  1.00  0.00     0.000 A 
ATOM     30  C   UNL     1       2.125  -3.667   0.066  1.00  0.00     0.026 A 
ATOM     31  C   UNL     1       1.217  -4.651  -0.331  1.00  0.00     0.002 A 
BRANCH  27  32
ATOM     32  C   UNL     1       0.398  -0.514  -1.254  1.00  0.00     0.034 C 
ATOM     33  C   UNL     1       0.154   0.304   0.012  1.00  0.00     0.009 C 
ENDBRANCH  27  32
ENDBRANCH  23  26
ENDBRANCH  16  22
ENDBRANCH  12  15
ENDBRANCH   7  12
ENDBRANCH   3   6
ENDBRANCH   1   2
BRANCH   1  34
ATOM     34  C   UNL     1       8.980  -9.062   5.485  1.00  0.00     0.023 C 
BRANCH  34  35
ATOM     35  C   UNL     1       9.579  -9.302   6.863  1.00  0.00     0.023 C 
BRANCH  35  36
ATOM     36  C   UNL     1       9.355  -8.172   7.858  1.00  0.00     0.116 C 
BRANCH  36  37
ATOM     37  N   UNL     1       7.953  -7.847   8.093  1.00  0.00    -0.352 N 
ATOM     38  C   UNL     1       7.378  -7.453   9.282  1.00  0.00     0.251 C 
ATOM     39  H   UNL     1       7.351  -7.916   7.317  1.00  0.00     0.163 HD
ATOM     40  O   UNL     1       6.169  -7.284   9.380  1.00  0.00    -0.269 OA
BRANCH  38  41
ATOM     41  C   UNL     1       8.264  -7.295  10.453  1.00  0.00     0.039 A 
ATOM     42  C   UNL     1       8.024  -8.065  11.591  1.00  0.00     0.014 A 
ATOM     43  C   UNL     1       9.413  -6.508  10.346  1.00  0.00     0.014 A 
ATOM     44  C   UNL     1       8.993  -8.114  12.594  1.00  0.00     0.010 A 
ATOM     45  C   UNL     1      10.414  -6.635  11.300  1.00  0.00     0.010 A 
ATOM     46  C   UNL     1      10.217  -7.443  12.432  1.00  0.00    -0.014 A 
BRANCH  46  47
ATOM     47  C   UNL     1      11.310  -7.572  13.428  1.00  0.00     0.031 A 
ATOM     48  C   UNL     1      11.806  -6.350  14.153  1.00  0.00     0.074 A 
ATOM     49  C   UNL     1      11.909  -8.765  13.621  1.00  0.00     0.049 A 
ATOM     50  N   UNL     1      12.794  -6.240  15.002  1.00  0.00    -0.248 NA
ATOM     51  C   UNL     1      11.125  -5.078  13.856  1.00  0.00     0.031 C 
ATOM     52  C   UNL     1      11.561 -10.014  12.937  1.00  0.00     0.029 A 
ATOM     53  N   UNL     1      12.943  -9.122  14.451  1.00  0.00    -0.354 N 
ATOM     54  C   UNL     1      12.870  -4.888  15.317  1.00  0.00     0.074 A 
ATOM     55  C   UNL     1      11.867  -4.211  14.526  1.00  0.00     0.031 C 
ATOM     56  C   UNL     1      12.342 -11.003  13.401  1.00  0.00     0.029 A 
ATOM     57  C   UNL     1      13.270 -10.457  14.386  1.00  0.00     0.049 A 
ATOM     58  H   UNL     1      13.407  -8.482  15.037  1.00  0.00     0.167 HD
ATOM     59  C   UNL     1      13.683  -4.267  16.203  1.00  0.00     0.031 A 
ATOM     60  C   UNL     1      14.210 -11.161  15.046  1.00  0.00     0.031 A 
ATOM     61  C   UNL     1      14.657  -4.948  17.012  1.00  0.00     0.049 A 
ATOM     62  C   UNL     1      15.087 -10.454  16.044  1.00  0.00     0.074 A 
ATOM     63  C   UNL     1      15.479  -4.423  17.992  1.00  0.00     0.029 A 
ATOM     64  N   UNL     1      14.937  -6.304  16.936  1.00  0.00    -0.354 N 
ATOM     65  N   UNL     1      15.093  -9.187  16.382  1.00  0.00    -0.248 NA
ATOM     66  C   UNL     1      16.075 -11.275  16.757  1.00  0.00     0.031 C 
ATOM     67  C   UNL     1      16.286  -5.455  18.482  1.00  0.00     0.029 A 
ATOM     68  C   UNL     1      15.932  -6.631  17.840  1.00  0.00     0.049 A 
ATOM     69  H   UNL     1      14.494  -6.939  16.328  1.00  0.00     0.167 HD
ATOM     70  C   UNL     1      16.066  -9.063  17.367  1.00  0.00     0.074 A 
ATOM     71  C   UNL     1      16.618 -10.386  17.579  1.00  0.00     0.031 C 
ATOM     72  C   UNL     1      16.465  -7.955  18.038  1.00  0.00     0.031 A 
BRANCH  59  73
ATOM     73  C   UNL     1      13.544  -2.775  16.340  1.00  0.00    -0.014 A 
ATOM     74  C   UNL     1      12.399  -2.204  16.927  1.00  0.00     0.010 A 
ATOM     75  C   UNL     1      14.576  -1.932  15.892  1.00  0.00     0.010 A 
ATOM     76  C   UNL     1      12.267  -0.816  17.015  1.00  0.00     0.020 A 
ATOM     77  C   UNL     1      14.461  -0.543  16.006  1.00  0.00     0.020 A 
ATOM     78  C   UNL     1      13.297   0.006  16.549  1.00  0.00     0.054 A 
BRANCH  78  79
ATOM     79  S   UNL     1      13.105   1.804  16.688  1.00  0.00     0.124 S 
ATOM     80  O   UNL     1      12.150   2.087  15.619  1.00  0.00    -0.237 OA
ATOM     81  O   UNL     1      12.594   1.968  18.046  1.00  0.00    -0.237 OA
ATOM     82  O   UNL     1      14.456   2.314  16.468  1.00  0.00    -0.744 OA
ENDBRANCH  78  79
ENDBRANCH  59  73
BRANCH  60  83
ATOM     83  C   UNL     1      14.349 -12.625  14.811  1.00  0.00    -0.014 A 
ATOM     84  C   UNL     1      13.940 -13.543  15.795  1.00  0.00     0.010 A 
ATOM     85  C   UNL     1      14.881 -13.110  13.603  1.00  0.00     0.010 A 
ATOM     86  C   UNL     1      14.076 -14.918  15.583  1.00  0.00     0.020 A 
ATOM     87  C   UNL     1      14.996 -14.485  13.377  1.00  0.00     0.020 A 
ATOM     88  C   UNL     1      14.603 -15.381  14.374  1.00  0.00     0.054 A 
BRANCH  88  89
ATOM     89  S   UNL     1      14.723 -17.171  14.099  1.00  0.00     0.124 S 
ATOM     90  O   UNL     1      15.867 -17.530  14.931  1.00  0.00    -0.237 OA
ATOM     91  O   UNL     1      13.425 -17.651  14.567  1.00  0.00    -0.237 OA
ATOM     92  O   UNL     1      14.936 -17.280  12.658  1.00  0.00    -0.744 OA
ENDBRANCH  88  89
ENDBRANCH  60  83
BRANCH  72  93
ATOM     93  C   UNL     1      17.526  -8.127  19.090  1.00  0.00    -0.014 A 
ATOM     94  C   UNL     1      18.869  -8.350  18.740  1.00  0.00     0.010 A 
ATOM     95  C   UNL     1      17.181  -8.003  20.448  1.00  0.00     0.010 A 
ATOM     96  C   UNL     1      19.845  -8.473  19.732  1.00  0.00     0.020 A 
ATOM     97  C   UNL     1      18.158  -8.100  21.442  1.00  0.00     0.020 A 
ATOM     98  C   UNL     1      19.483  -8.348  21.077  1.00  0.00     0.054 A 
BRANCH  98  99
ATOM     99  S   UNL     1      20.774  -8.463  22.345  1.00  0.00     0.124 S 
ATOM    100  O   UNL     1      21.037  -9.898  22.381  1.00  0.00    -0.237 OA
ATOM    101  O   UNL     1      21.846  -7.641  21.788  1.00  0.00    -0.237 OA
ATOM    102  O   UNL     1      20.136  -7.915  23.540  1.00  0.00    -0.744 OA
ENDBRANCH  98  99
ENDBRANCH  72  93
ENDBRANCH  46  47
ENDBRANCH  38  41
ENDBRANCH  36  37
ENDBRANCH  35  36
ENDBRANCH  34  35
ENDBRANCH   1  34
TORSDOF 19
