REMARK SMILES Cc1cccc([C@H]([NH3+])[C@H](O)C(=O)NCCCCNC(=O)c2ccc(-c3c4nc(c(-c5ccc(S(=O)(=O)[O-])cc5)c5ccc([nH]5)c(-c5ccc(S(=O)(=O)[O-])cc5)c5nc(c(-c6ccc(S(=O)(=O)[O-])cc6)c6ccc3[nH]6)C=C5)C=C4)cc2)c1
REMARK SMILES IDX 16 1 15 2 14 3 13 4 11 5 12 6 9 8 7 9 6 10 1 11 2 12 3 13
REMARK SMILES IDX 81 14 4 15 5 16 8 17 10 21 17 23 18 24 19 25 20 27 21 28
REMARK SMILES IDX 22 29 80 30 23 31 79 32 24 33 25 34 26 35 73 36 27 37 78 38
REMARK SMILES IDX 72 39 74 40 28 41 77 42 71 43 70 44 29 46 59 47 40 48 58 49
REMARK SMILES IDX 41 50 44 51 57 52 75 53 42 54 43 55 56 57 76 58 45 59 30 60
REMARK SMILES IDX 31 61 39 62 32 63 38 64 33 65 34 66 35 67 36 68 37 69 60 70
REMARK SMILES IDX 61 71 69 72 62 73 68 74 63 75 64 76 65 77 66 78 67 79 46 80
REMARK SMILES IDX 47 81 55 82 48 83 54 84 49 85 50 86 51 87 52 88 53 89
REMARK H PARENT 13 7 8 18 8 19 8 20 10 22 18 26 74 45 44 56
REMARK Flexibility Score: inf
ROOT
ATOM      1  C   UNL     1      -1.418   7.174  -1.071  1.00  0.00     0.023 C 
ENDROOT
BRANCH   1   2
ATOM      2  C   UNL     1      -0.824   5.786  -0.854  1.00  0.00     0.023 C 
BRANCH   2   3
ATOM      3  C   UNL     1      -1.153   5.112   0.477  1.00  0.00     0.116 C 
BRANCH   3   4
ATOM      4  N   UNL     1      -2.567   4.987   0.768  1.00  0.00    -0.354 N 
ATOM      5  C   UNL     1      -3.256   3.906   1.232  1.00  0.00     0.255 C 
ATOM      6  O   UNL     1      -4.432   4.085   1.574  1.00  0.00    -0.272 OA
ATOM      7  H   UNL     1      -3.106   5.795   0.607  1.00  0.00     0.163 HD
BRANCH   5   8
ATOM      8  C   UNL     1      -2.627   2.499   1.340  1.00  0.00     0.266 C 
BRANCH   8   9
ATOM      9  C   UNL     1      -1.744   2.309   2.626  1.00  0.00     0.250 C 
BRANCH   9  10
ATOM     10  C   UNL     1      -0.237   2.378   2.403  1.00  0.00     0.013 A 
ATOM     11  C   UNL     1       2.571   0.271   0.880  1.00  0.00     0.044 C 
ATOM     12  C   UNL     1       1.841   1.405   1.536  1.00  0.00    -0.051 A 
ATOM     13  C   UNL     1       2.513   2.590   1.845  1.00  0.00     0.003 A 
ATOM     14  C   UNL     1       0.469   1.314   1.807  1.00  0.00     0.013 A 
ATOM     15  C   UNL     1       1.840   3.637   2.472  1.00  0.00     0.001 A 
ATOM     16  C   UNL     1       0.483   3.521   2.778  1.00  0.00     0.010 A 
ENDBRANCH   9  10
BRANCH   9  17
ATOM     17  N   UNL     1      -2.058   1.008   3.277  1.00  0.00    -0.349 N 
ATOM     18  H   UNL     1      -1.800   0.244   2.652  1.00  0.00     0.345 HD
ATOM     19  H   UNL     1      -3.056   0.960   3.478  1.00  0.00     0.345 HD
ATOM     20  H   UNL     1      -1.531   0.928   4.147  1.00  0.00     0.345 HD
ENDBRANCH   9  17
ENDBRANCH   8   9
BRANCH   8  21
ATOM     21  O   UNL     1      -2.038   2.034   0.129  1.00  0.00    -0.378 OA
ATOM     22  H   UNL     1      -1.272   2.587  -0.091  1.00  0.00     0.211 HD
ENDBRANCH   8  21
ENDBRANCH   5   8
ENDBRANCH   3   4
ENDBRANCH   2   3
ENDBRANCH   1   2
BRANCH   1  23
ATOM     23  C   UNL     1      -0.972   8.235  -0.071  1.00  0.00     0.116 C 
BRANCH  23  24
ATOM     24  N   UNL     1       0.073   9.112  -0.575  1.00  0.00    -0.352 N 
ATOM     25  C   UNL     1       0.440  10.362  -0.102  1.00  0.00     0.251 C 
ATOM     26  H   UNL     1       0.584   8.775  -1.346  1.00  0.00     0.163 HD
ATOM     27  O   UNL     1       1.080  11.148  -0.782  1.00  0.00    -0.269 OA
BRANCH  25  28
ATOM     28  C   UNL     1       0.155  10.662   1.319  1.00  0.00     0.039 A 
ATOM     29  C   UNL     1       1.254  10.829   2.171  1.00  0.00     0.014 A 
ATOM     30  C   UNL     1      -1.131  10.535   1.833  1.00  0.00     0.014 A 
ATOM     31  C   UNL     1       1.088  10.672   3.544  1.00  0.00     0.010 A 
ATOM     32  C   UNL     1      -1.278  10.275   3.180  1.00  0.00     0.010 A 
ATOM     33  C   UNL     1      -0.162  10.293   4.028  1.00  0.00    -0.014 A 
BRANCH  33  34
ATOM     34  C   UNL     1      -0.409   9.825   5.386  1.00  0.00     0.031 A 
ATOM     35  C   UNL     1      -1.151  10.687   6.336  1.00  0.00     0.074 A 
ATOM     36  C   UNL     1      -0.080   8.558   5.727  1.00  0.00     0.049 A 
ATOM     37  N   UNL     1      -1.203  10.492   7.611  1.00  0.00    -0.248 NA
ATOM     38  C   UNL     1      -1.839  11.911   5.920  1.00  0.00     0.031 C 
ATOM     39  C   UNL     1      -0.576   7.803   6.875  1.00  0.00     0.029 A 
ATOM     40  N   UNL     1       0.951   7.759   5.223  1.00  0.00    -0.354 N 
ATOM     41  C   UNL     1      -2.156  11.344   8.121  1.00  0.00     0.074 A 
ATOM     42  C   UNL     1      -2.418  12.287   7.064  1.00  0.00     0.031 C 
ATOM     43  C   UNL     1       0.312   6.842   7.173  1.00  0.00     0.029 A 
ATOM     44  C   UNL     1       1.472   7.057   6.323  1.00  0.00     0.049 A 
ATOM     45  H   UNL     1       1.252   7.701   4.287  1.00  0.00     0.167 HD
ATOM     46  C   UNL     1      -2.722  11.066   9.329  1.00  0.00     0.031 A 
ATOM     47  C   UNL     1       2.756   7.177   6.772  1.00  0.00     0.031 A 
ATOM     48  C   UNL     1      -1.972  10.032  10.040  1.00  0.00     0.049 A 
ATOM     49  C   UNL     1       2.841   7.628   8.215  1.00  0.00     0.074 A 
ATOM     50  C   UNL     1      -2.198   8.690  10.289  1.00  0.00     0.029 A 
ATOM     51  N   UNL     1      -0.646  10.280  10.379  1.00  0.00    -0.354 N 
ATOM     52  N   UNL     1       1.841   8.140   8.880  1.00  0.00    -0.248 NA
ATOM     53  C   UNL     1       4.067   7.582   9.008  1.00  0.00     0.031 C 
ATOM     54  C   UNL     1      -0.956   8.105  10.664  1.00  0.00     0.029 A 
ATOM     55  C   UNL     1       0.005   9.103  10.693  1.00  0.00     0.049 A 
ATOM     56  H   UNL     1      -0.229  11.172  10.394  1.00  0.00     0.167 HD
ATOM     57  C   UNL     1       2.258   8.508  10.131  1.00  0.00     0.074 A 
ATOM     58  C   UNL     1       3.656   8.118  10.171  1.00  0.00     0.031 C 
ATOM     59  C   UNL     1       1.425   9.119  11.024  1.00  0.00     0.031 A 
BRANCH  46  60
ATOM     60  C   UNL     1      -4.086  11.564   9.773  1.00  0.00    -0.014 A 
ATOM     61  C   UNL     1      -4.651  11.076  10.971  1.00  0.00     0.010 A 
ATOM     62  C   UNL     1      -4.917  12.404   9.005  1.00  0.00     0.010 A 
ATOM     63  C   UNL     1      -5.972  11.377  11.353  1.00  0.00     0.020 A 
ATOM     64  C   UNL     1      -6.227  12.733   9.383  1.00  0.00     0.020 A 
ATOM     65  C   UNL     1      -6.758  12.198  10.546  1.00  0.00     0.054 A 
BRANCH  65  66
ATOM     66  S   UNL     1      -8.478  12.535  11.003  1.00  0.00     0.124 S 
ATOM     67  O   UNL     1      -9.095  11.216  10.885  1.00  0.00    -0.237 OA
ATOM     68  O   UNL     1      -8.352  13.056  12.361  1.00  0.00    -0.237 OA
ATOM     69  O   UNL     1      -8.917  13.511  10.006  1.00  0.00    -0.744 OA
ENDBRANCH  65  66
ENDBRANCH  46  60
BRANCH  47  70
ATOM     70  C   UNL     1       3.751   7.510   5.716  1.00  0.00    -0.014 A 
ATOM     71  C   UNL     1       4.059   6.500   4.780  1.00  0.00     0.010 A 
ATOM     72  C   UNL     1       4.007   8.852   5.382  1.00  0.00     0.010 A 
ATOM     73  C   UNL     1       4.424   6.834   3.475  1.00  0.00     0.020 A 
ATOM     74  C   UNL     1       4.375   9.188   4.072  1.00  0.00     0.020 A 
ATOM     75  C   UNL     1       4.503   8.179   3.113  1.00  0.00     0.054 A 
BRANCH  75  76
ATOM     76  S   UNL     1       4.548   8.579   1.339  1.00  0.00     0.124 S 
ATOM     77  O   UNL     1       5.716   7.835   0.880  1.00  0.00    -0.237 OA
ATOM     78  O   UNL     1       3.255   8.062   0.891  1.00  0.00    -0.237 OA
ATOM     79  O   UNL     1       4.679  10.032   1.328  1.00  0.00    -0.744 OA
ENDBRANCH  75  76
ENDBRANCH  47  70
BRANCH  59  80
ATOM     80  C   UNL     1       1.852   9.747  12.330  1.00  0.00    -0.014 A 
ATOM     81  C   UNL     1       3.147  10.223  12.587  1.00  0.00     0.010 A 
ATOM     82  C   UNL     1       0.871   9.994  13.320  1.00  0.00     0.010 A 
ATOM     83  C   UNL     1       3.468  10.848  13.801  1.00  0.00     0.020 A 
ATOM     84  C   UNL     1       1.169  10.657  14.514  1.00  0.00     0.020 A 
ATOM     85  C   UNL     1       2.477  11.055  14.761  1.00  0.00     0.054 A 
BRANCH  85  86
ATOM     86  S   UNL     1       2.883  11.912  16.304  1.00  0.00     0.124 S 
ATOM     87  O   UNL     1       3.267  10.801  17.171  1.00  0.00    -0.237 OA
ATOM     88  O   UNL     1       3.972  12.803  15.911  1.00  0.00    -0.237 OA
ATOM     89  O   UNL     1       1.635  12.584  16.657  1.00  0.00    -0.744 OA
ENDBRANCH  85  86
ENDBRANCH  59  80
ENDBRANCH  33  34
ENDBRANCH  25  28
ENDBRANCH  23  24
ENDBRANCH   1  23
TORSDOF 18
