REMARK SMILES O=C(NCCCCNC(=O)[C@@H]1CCCN1S(=O)(=O)c1ccc2c3c(cccc13)C(=O)N2)c1ccc(-c2c3nc(c(-c4ccc(S(=O)(=O)[O-])cc4)c4ccc([nH]4)c(-c4ccc(S(=O)(=O)[O-])cc4)c4nc(c(-c5ccc(S(=O)(=O)[O-])cc5)c5ccc2[nH]5)C=C4)C=C3)cc1
REMARK SMILES IDX 5 1 4 2 3 3 1 4 2 5 32 7 33 8 91 9 34 10 90 11 35 12 36 13
REMARK SMILES IDX 37 14 84 15 38 16 89 17 83 18 85 19 39 20 88 21 82 22 81 23
REMARK SMILES IDX 40 25 70 26 51 27 69 28 52 29 55 30 68 31 86 32 53 33 54 34
REMARK SMILES IDX 67 36 87 37 56 38 41 39 42 40 50 41 43 42 49 43 44 44 45 45
REMARK SMILES IDX 46 46 47 47 48 48 71 49 72 50 80 51 73 52 79 53 74 54 75 55
REMARK SMILES IDX 76 56 77 57 78 58 57 59 58 60 66 61 59 62 65 63 60 64 61 65
REMARK SMILES IDX 62 66 63 67 64 68 6 69 7 70 8 71 9 72 10 74 11 75 12 76
REMARK SMILES IDX 15 77 13 78 14 79 16 80 17 81 18 82 19 83 20 84 28 85 21 86
REMARK SMILES IDX 23 87 27 88 22 89 24 90 26 91 31 92 25 93 29 94 30 96
REMARK H PARENT 3 6 85 24 55 35 8 73 31 95
REMARK Flexibility Score: inf
ROOT
ATOM      1  C   UNL     1       4.348  -0.264  -3.214  1.00  0.00     0.023 C 
ENDROOT
BRANCH   1   2
ATOM      2  C   UNL     1       3.630   0.218  -1.195  1.00  0.00     0.116 C 
BRANCH   2   3
ATOM      3  N   UNL     1       2.162   0.500  -0.596  1.00  0.00    -0.352 N 
ATOM      4  O   UNL     1       0.386   0.200   0.777  1.00  0.00    -0.269 OA
ATOM      5  C   UNL     1       1.566  -0.020   0.529  1.00  0.00     0.251 C 
ATOM      6  H   UNL     1       1.613   1.137  -1.108  1.00  0.00     0.163 HD
BRANCH   5   7
ATOM      7  C   UNL     1       2.375  -0.836   1.450  1.00  0.00     0.039 A 
ATOM      8  C   UNL     1       3.437  -0.235   2.134  1.00  0.00     0.014 A 
ATOM      9  C   UNL     1       2.066  -2.184   1.644  1.00  0.00     0.014 A 
ATOM     10  C   UNL     1       4.213  -0.999   2.999  1.00  0.00     0.010 A 
ATOM     11  C   UNL     1       2.819  -2.936   2.549  1.00  0.00     0.010 A 
ATOM     12  C   UNL     1       3.886  -2.344   3.244  1.00  0.00    -0.014 A 
BRANCH  12  13
ATOM     13  C   UNL     1       4.560  -3.058   4.356  1.00  0.00     0.031 A 
ATOM     14  C   UNL     1       5.507  -4.191   4.111  1.00  0.00     0.074 A 
ATOM     15  C   UNL     1       4.289  -2.652   5.613  1.00  0.00     0.049 A 
ATOM     16  N   UNL     1       6.218  -4.857   4.984  1.00  0.00    -0.248 NA
ATOM     17  C   UNL     1       5.678  -4.643   2.722  1.00  0.00     0.031 C 
ATOM     18  C   UNL     1       3.354  -1.577   5.960  1.00  0.00     0.029 A 
ATOM     19  N   UNL     1       4.776  -3.071   6.825  1.00  0.00    -0.354 N 
ATOM     20  C   UNL     1       6.912  -5.815   4.257  1.00  0.00     0.074 A 
ATOM     21  C   UNL     1       6.519  -5.659   2.872  1.00  0.00     0.031 C 
ATOM     22  C   UNL     1       3.374  -1.387   7.285  1.00  0.00     0.029 A 
ATOM     23  C   UNL     1       4.279  -2.358   7.891  1.00  0.00     0.049 A 
ATOM     24  H   UNL     1       5.418  -3.811   6.922  1.00  0.00     0.167 HD
ATOM     25  C   UNL     1       7.797  -6.734   4.712  1.00  0.00     0.031 A 
ATOM     26  C   UNL     1       4.513  -2.469   9.213  1.00  0.00     0.031 A 
ATOM     27  C   UNL     1       8.169  -6.876   6.096  1.00  0.00     0.049 A 
ATOM     28  C   UNL     1       5.484  -3.503   9.695  1.00  0.00     0.074 A 
ATOM     29  C   UNL     1       9.104  -7.736   6.644  1.00  0.00     0.029 A 
ATOM     30  N   UNL     1       7.616  -6.160   7.148  1.00  0.00    -0.354 N 
ATOM     31  N   UNL     1       6.183  -4.355   8.984  1.00  0.00    -0.248 NA
ATOM     32  C   UNL     1       5.703  -3.599  11.143  1.00  0.00     0.031 C 
ATOM     33  C   UNL     1       9.063  -7.594   8.033  1.00  0.00     0.029 A 
ATOM     34  C   UNL     1       8.159  -6.590   8.347  1.00  0.00     0.049 A 
ATOM     35  H   UNL     1       6.938  -5.452   7.056  1.00  0.00     0.167 HD
ATOM     36  C   UNL     1       6.937  -5.082   9.896  1.00  0.00     0.074 A 
ATOM     37  C   UNL     1       6.611  -4.568  11.211  1.00  0.00     0.031 C 
ATOM     38  C   UNL     1       7.823  -6.077   9.653  1.00  0.00     0.031 A 
BRANCH  25  39
ATOM     39  C   UNL     1       8.411  -7.684   3.719  1.00  0.00    -0.014 A 
ATOM     40  C   UNL     1       9.369  -7.251   2.786  1.00  0.00     0.010 A 
ATOM     41  C   UNL     1       8.086  -9.053   3.780  1.00  0.00     0.010 A 
ATOM     42  C   UNL     1       9.969  -8.164   1.913  1.00  0.00     0.020 A 
ATOM     43  C   UNL     1       8.702  -9.973   2.926  1.00  0.00     0.020 A 
ATOM     44  C   UNL     1       9.634  -9.520   1.991  1.00  0.00     0.054 A 
BRANCH  44  45
ATOM     45  S   UNL     1      10.433 -10.678   0.846  1.00  0.00     0.124 S 
ATOM     46  O   UNL     1      10.063 -10.128  -0.456  1.00  0.00    -0.237 OA
ATOM     47  O   UNL     1      11.843 -10.550   1.203  1.00  0.00    -0.237 OA
ATOM     48  O   UNL     1       9.822 -11.966   1.167  1.00  0.00    -0.744 OA
ENDBRANCH  44  45
ENDBRANCH  25  39
BRANCH  26  49
ATOM     49  C   UNL     1       3.804  -1.544  10.137  1.00  0.00    -0.014 A 
ATOM     50  C   UNL     1       4.466  -0.434  10.685  1.00  0.00     0.010 A 
ATOM     51  C   UNL     1       2.418  -1.690  10.347  1.00  0.00     0.010 A 
ATOM     52  C   UNL     1       3.751   0.531  11.403  1.00  0.00     0.020 A 
ATOM     53  C   UNL     1       1.697  -0.717  11.045  1.00  0.00     0.020 A 
ATOM     54  C   UNL     1       2.368   0.393  11.560  1.00  0.00     0.054 A 
BRANCH  54  55
ATOM     55  S   UNL     1       1.452   1.712  12.407  1.00  0.00     0.124 S 
ATOM     56  O   UNL     1       2.102   1.750  13.713  1.00  0.00    -0.237 OA
ATOM     57  O   UNL     1       1.701   2.862  11.542  1.00  0.00    -0.237 OA
ATOM     58  O   UNL     1       0.074   1.227  12.412  1.00  0.00    -0.744 OA
ENDBRANCH  54  55
ENDBRANCH  26  49
BRANCH  38  59
ATOM     59  C   UNL     1       8.539  -6.698  10.822  1.00  0.00    -0.014 A 
ATOM     60  C   UNL     1       7.902  -7.649  11.635  1.00  0.00     0.010 A 
ATOM     61  C   UNL     1       9.915  -6.453  10.992  1.00  0.00     0.010 A 
ATOM     62  C   UNL     1       8.635  -8.360  12.589  1.00  0.00     0.020 A 
ATOM     63  C   UNL     1      10.655  -7.178  11.928  1.00  0.00     0.020 A 
ATOM     64  C   UNL     1      10.010  -8.134  12.716  1.00  0.00     0.054 A 
BRANCH  64  65
ATOM     65  S   UNL     1      10.950  -9.138  13.899  1.00  0.00     0.124 S 
ATOM     66  O   UNL     1      10.275  -8.843  15.160  1.00  0.00    -0.237 OA
ATOM     67  O   UNL     1      10.757 -10.490  13.384  1.00  0.00    -0.237 OA
ATOM     68  O   UNL     1      12.312  -8.620  13.791  1.00  0.00    -0.744 OA
ENDBRANCH  64  65
ENDBRANCH  38  59
ENDBRANCH  12  13
ENDBRANCH   5   7
ENDBRANCH   2   3
ENDBRANCH   1   2
BRANCH   1  69
ATOM     69  C   UNL     1       4.213   0.337  -4.803  1.00  0.00     0.023 C 
BRANCH  69  70
ATOM     70  C   UNL     1       4.915   1.595  -5.311  1.00  0.00     0.116 C 
BRANCH  70  71
ATOM     71  N   UNL     1       6.302   1.830  -4.918  1.00  0.00    -0.355 N 
ATOM     72  C   UNL     1       6.949   3.061  -4.895  1.00  0.00     0.238 C 
ATOM     73  H   UNL     1       6.828   1.044  -4.644  1.00  0.00     0.163 HD
ATOM     74  O   UNL     1       8.146   3.136  -4.626  1.00  0.00    -0.273 OA
BRANCH  72  75
ATOM     75  C   UNL     1       6.111   4.269  -5.269  1.00  0.00     0.162 C 
ATOM     76  C   UNL     1       6.690   5.675  -5.246  1.00  0.00     0.032 C 
ATOM     77  N   UNL     1       4.816   4.441  -4.552  1.00  0.00    -0.185 NA
ATOM     78  C   UNL     1       5.452   6.513  -5.595  1.00  0.00     0.019 C 
ATOM     79  C   UNL     1       4.242   5.668  -5.169  1.00  0.00     0.103 C 
BRANCH  77  80
ATOM     80  S   UNL     1       4.747   4.395  -2.842  1.00  0.00     0.244 S 
ATOM     81  O   UNL     1       5.593   5.456  -2.340  1.00  0.00    -0.207 OA
ATOM     82  O   UNL     1       3.340   4.370  -2.499  1.00  0.00    -0.207 OA
BRANCH  80  83
ATOM     83  C   UNL     1       5.447   2.842  -2.318  1.00  0.00     0.090 A 
ATOM     84  C   UNL     1       6.821   2.811  -1.834  1.00  0.00     0.024 A 
ATOM     85  C   UNL     1       4.668   1.668  -2.362  1.00  0.00     0.005 A 
ATOM     86  C   UNL     1       7.596   1.657  -1.416  1.00  0.00     0.028 A 
ATOM     87  C   UNL     1       5.642   0.395  -1.699  1.00  0.00     0.019 A 
ATOM     88  C   UNL     1       2.976   1.234  -2.857  1.00  0.00     0.010 A 
ATOM     89  C   UNL     1       6.947   0.439  -1.361  1.00  0.00     0.050 A 
ATOM     90  C   UNL     1       5.135  -1.262  -1.542  1.00  0.00     0.050 A 
ATOM     91  C   UNL     1       2.407  -0.477  -2.681  1.00  0.00     0.002 A 
ATOM     92  N   UNL     1       7.337  -0.880  -1.046  1.00  0.00    -0.321 N 
ATOM     93  C   UNL     1       3.465  -1.766  -1.934  1.00  0.00     0.014 A 
ATOM     94  C   UNL     1       6.345  -1.930  -1.112  1.00  0.00     0.256 C 
ATOM     95  H   UNL     1       8.265  -1.081  -0.787  1.00  0.00     0.170 HD
ATOM     96  O   UNL     1       6.579  -3.106  -0.878  1.00  0.00    -0.269 OA
ENDBRANCH  80  83
ENDBRANCH  77  80
ENDBRANCH  72  75
ENDBRANCH  70  71
ENDBRANCH  69  70
ENDBRANCH   1  69
TORSDOF 16
