REMARK SMILES O=C(NCCCCNC(=O)c1ccc(N2C(=O)[C@@H]3N=NC(c4ccccc4)=C3[C@H]2c2cccc(Br)c2)cc1)c1ccc(-c2c3nc(c(-c4ccc(S(=O)(=O)[O-])cc4)c4ccc([nH]4)c(-c4ccc(S(=O)(=O)[O-])cc4)c4nc(c(-c5ccc(S(=O)(=O)[O-])cc5)c5ccc2[nH]5)C=C4)C=C3)cc1
REMARK SMILES IDX 5 1 4 2 3 3 1 4 2 5 39 7 40 8 98 9 41 10 97 11 42 12 43 13
REMARK SMILES IDX 44 14 91 15 45 16 96 17 90 18 92 19 46 20 95 21 89 22 88 23
REMARK SMILES IDX 47 25 77 26 58 27 76 28 59 29 62 30 75 31 93 32 60 33 61 34
REMARK SMILES IDX 74 36 94 37 63 38 48 39 49 40 57 41 50 42 56 43 51 44 52 45
REMARK SMILES IDX 53 46 54 47 55 48 78 49 79 50 87 51 80 52 86 53 81 54 82 55
REMARK SMILES IDX 83 56 84 57 85 58 64 59 65 60 73 61 66 62 72 63 67 64 68 65
REMARK SMILES IDX 69 66 70 67 71 68 6 69 7 70 8 71 9 72 10 74 11 75 12 76
REMARK SMILES IDX 38 77 13 78 37 79 14 80 15 81 16 82 29 83 18 84 17 85 28 86
REMARK SMILES IDX 19 87 21 88 20 89 30 90 31 91 36 92 32 93 34 94 33 95 35 96
REMARK SMILES IDX 22 97 23 98 27 99 24 100 26 101 25 102
REMARK H PARENT 3 6 92 24 62 35 8 73
REMARK Flexibility Score: inf
ROOT
ATOM      1  C   UNL     1       4.912   1.676   1.468  1.00  0.00     0.023 C 
ENDROOT
BRANCH   1   2
ATOM      2  C   UNL     1       4.549   0.330   0.843  1.00  0.00     0.116 C 
BRANCH   2   3
ATOM      3  N   UNL     1       3.131   0.040   0.790  1.00  0.00    -0.352 N 
ATOM      4  O   UNL     1       1.095  -0.424   0.106  1.00  0.00    -0.269 OA
ATOM      5  C   UNL     1       2.131   0.208  -0.130  1.00  0.00     0.251 C 
ATOM      6  H   UNL     1       2.807  -0.382   1.619  1.00  0.00     0.163 HD
BRANCH   5   7
ATOM      7  C   UNL     1       2.155   1.116  -1.315  1.00  0.00     0.039 A 
ATOM      8  C   UNL     1       3.268   1.770  -1.840  1.00  0.00     0.014 A 
ATOM      9  C   UNL     1       0.903   1.343  -1.929  1.00  0.00     0.014 A 
ATOM     10  C   UNL     1       3.116   2.673  -2.903  1.00  0.00     0.010 A 
ATOM     11  C   UNL     1       0.746   2.248  -2.979  1.00  0.00     0.010 A 
ATOM     12  C   UNL     1       1.852   2.940  -3.454  1.00  0.00    -0.014 A 
BRANCH  12  13
ATOM     13  C   UNL     1       1.757   3.769  -4.663  1.00  0.00     0.031 A 
ATOM     14  C   UNL     1       2.417   3.152  -5.848  1.00  0.00     0.074 A 
ATOM     15  C   UNL     1       1.047   4.911  -4.811  1.00  0.00     0.049 A 
ATOM     16  N   UNL     1       3.526   3.514  -6.403  1.00  0.00    -0.248 NA
ATOM     17  C   UNL     1       1.861   1.901  -6.386  1.00  0.00     0.031 C 
ATOM     18  C   UNL     1       0.108   5.524  -3.869  1.00  0.00     0.029 A 
ATOM     19  N   UNL     1       0.960   5.741  -5.898  1.00  0.00    -0.354 N 
ATOM     20  C   UNL     1       3.694   2.680  -7.505  1.00  0.00     0.074 A 
ATOM     21  C   UNL     1       2.746   1.607  -7.341  1.00  0.00     0.031 C 
ATOM     22  C   UNL     1      -0.604   6.490  -4.501  1.00  0.00     0.029 A 
ATOM     23  C   UNL     1      -0.081   6.670  -5.846  1.00  0.00     0.049 A 
ATOM     24  H   UNL     1       1.584   5.687  -6.657  1.00  0.00     0.167 HD
ATOM     25  C   UNL     1       4.428   3.071  -8.585  1.00  0.00     0.031 A 
ATOM     26  C   UNL     1      -0.497   7.507  -6.838  1.00  0.00     0.031 A 
ATOM     27  C   UNL     1       5.233   4.228  -8.286  1.00  0.00     0.049 A 
ATOM     28  C   UNL     1       0.627   7.656  -7.790  1.00  0.00     0.074 A 
ATOM     29  C   UNL     1       6.216   4.527  -7.364  1.00  0.00     0.029 A 
ATOM     30  N   UNL     1       4.780   5.435  -8.763  1.00  0.00    -0.354 N 
ATOM     31  N   UNL     1       1.736   8.272  -7.498  1.00  0.00    -0.248 NA
ATOM     32  C   UNL     1       0.691   6.748  -8.921  1.00  0.00     0.031 C 
ATOM     33  C   UNL     1       5.960   5.876  -6.982  1.00  0.00     0.029 A 
ATOM     34  C   UNL     1       4.894   6.348  -7.751  1.00  0.00     0.049 A 
ATOM     35  H   UNL     1       4.437   5.610  -9.669  1.00  0.00     0.167 HD
ATOM     36  C   UNL     1       2.725   7.504  -8.091  1.00  0.00     0.074 A 
ATOM     37  C   UNL     1       2.017   6.633  -9.028  1.00  0.00     0.031 C 
ATOM     38  C   UNL     1       3.985   7.457  -7.568  1.00  0.00     0.031 A 
BRANCH  25  39
ATOM     39  C   UNL     1       4.095   2.693 -10.012  1.00  0.00    -0.014 A 
ATOM     40  C   UNL     1       4.909   3.201 -11.048  1.00  0.00     0.010 A 
ATOM     41  C   UNL     1       2.863   2.124 -10.393  1.00  0.00     0.010 A 
ATOM     42  C   UNL     1       4.469   3.227 -12.377  1.00  0.00     0.020 A 
ATOM     43  C   UNL     1       2.435   2.103 -11.722  1.00  0.00     0.020 A 
ATOM     44  C   UNL     1       3.225   2.689 -12.702  1.00  0.00     0.054 A 
BRANCH  44  45
ATOM     45  S   UNL     1       2.626   2.812 -14.404  1.00  0.00     0.124 S 
ATOM     46  O   UNL     1       2.451   4.252 -14.557  1.00  0.00    -0.237 OA
ATOM     47  O   UNL     1       3.728   2.222 -15.160  1.00  0.00    -0.237 OA
ATOM     48  O   UNL     1       1.395   2.026 -14.390  1.00  0.00    -0.744 OA
ENDBRANCH  44  45
ENDBRANCH  25  39
BRANCH  26  49
ATOM     49  C   UNL     1      -1.868   7.974  -7.192  1.00  0.00    -0.014 A 
ATOM     50  C   UNL     1      -2.072   9.003  -8.139  1.00  0.00     0.010 A 
ATOM     51  C   UNL     1      -2.983   7.188  -6.843  1.00  0.00     0.010 A 
ATOM     52  C   UNL     1      -3.320   9.184  -8.767  1.00  0.00     0.020 A 
ATOM     53  C   UNL     1      -4.231   7.366  -7.461  1.00  0.00     0.020 A 
ATOM     54  C   UNL     1      -4.388   8.345  -8.440  1.00  0.00     0.054 A 
BRANCH  54  55
ATOM     55  S   UNL     1      -5.938   8.445  -9.392  1.00  0.00     0.124 S 
ATOM     56  O   UNL     1      -6.505   9.710  -8.935  1.00  0.00    -0.237 OA
ATOM     57  O   UNL     1      -5.468   8.426 -10.774  1.00  0.00    -0.237 OA
ATOM     58  O   UNL     1      -6.673   7.251  -8.976  1.00  0.00    -0.744 OA
ENDBRANCH  54  55
ENDBRANCH  26  49
BRANCH  38  59
ATOM     59  C   UNL     1       4.406   8.515  -6.578  1.00  0.00    -0.014 A 
ATOM     60  C   UNL     1       3.754   8.784  -5.359  1.00  0.00     0.010 A 
ATOM     61  C   UNL     1       5.606   9.192  -6.859  1.00  0.00     0.010 A 
ATOM     62  C   UNL     1       4.274   9.735  -4.466  1.00  0.00     0.020 A 
ATOM     63  C   UNL     1       6.141  10.120  -5.967  1.00  0.00     0.020 A 
ATOM     64  C   UNL     1       5.464  10.400  -4.780  1.00  0.00     0.054 A 
BRANCH  64  65
ATOM     65  S   UNL     1       6.145  11.620  -3.624  1.00  0.00     0.124 S 
ATOM     66  O   UNL     1       5.160  12.696  -3.682  1.00  0.00    -0.237 OA
ATOM     67  O   UNL     1       6.199  10.880  -2.366  1.00  0.00    -0.237 OA
ATOM     68  O   UNL     1       7.452  11.949  -4.194  1.00  0.00    -0.744 OA
ENDBRANCH  64  65
ENDBRANCH  38  59
ENDBRANCH  12  13
ENDBRANCH   5   7
ENDBRANCH   2   3
ENDBRANCH   1   2
BRANCH   1  69
ATOM     69  C   UNL     1       4.389   1.938   2.890  1.00  0.00     0.023 C 
BRANCH  69  70
ATOM     70  C   UNL     1       4.764   0.929   3.982  1.00  0.00     0.116 C 
BRANCH  70  71
ATOM     71  N   UNL     1       6.187   0.889   4.274  1.00  0.00    -0.352 N 
ATOM     72  C   UNL     1       6.846   0.963   5.479  1.00  0.00     0.251 C 
ATOM     73  H   UNL     1       6.771   0.793   3.487  1.00  0.00     0.163 HD
ATOM     74  O   UNL     1       8.076   0.993   5.496  1.00  0.00    -0.269 OA
BRANCH  72  75
ATOM     75  C   UNL     1       6.116   1.046   6.771  1.00  0.00     0.039 A 
ATOM     76  C   UNL     1       6.471   2.074   7.645  1.00  0.00     0.016 A 
ATOM     77  C   UNL     1       5.153   0.110   7.175  1.00  0.00     0.016 A 
ATOM     78  C   UNL     1       5.811   2.209   8.871  1.00  0.00     0.027 A 
ATOM     79  C   UNL     1       4.495   0.240   8.421  1.00  0.00     0.027 A 
ATOM     80  C   UNL     1       4.801   1.308   9.268  1.00  0.00     0.045 A 
BRANCH  80  81
ATOM     81  N   UNL     1       4.037   1.575  10.462  1.00  0.00    -0.299 N 
ATOM     82  C   UNL     1       3.679   2.959  10.627  1.00  0.00     0.259 C 
ATOM     83  C   UNL     1       4.472   1.003  11.766  1.00  0.00     0.152 C 
ATOM     84  C   UNL     1       3.955   3.349  12.044  1.00  0.00     0.248 C 
ATOM     85  O   UNL     1       3.278   3.717   9.748  1.00  0.00    -0.271 OA
ATOM     86  C   UNL     1       4.918   2.274  12.368  1.00  0.00     0.021 C 
ATOM     87  N   UNL     1       4.771   4.552  12.262  1.00  0.00    -0.170 NA
ATOM     88  C   UNL     1       5.965   2.857  12.938  1.00  0.00     0.097 C 
ATOM     89  N   UNL     1       5.823   4.230  12.895  1.00  0.00    -0.154 NA
BRANCH  83  90
ATOM     90  C   UNL     1       3.375   0.378  12.669  1.00  0.00    -0.020 A 
ATOM     91  C   UNL     1       3.150   0.868  13.988  1.00  0.00     0.006 A 
ATOM     92  C   UNL     1       2.641  -0.756  12.294  1.00  0.00     0.022 A 
ATOM     93  C   UNL     1       2.246   0.287  14.876  1.00  0.00     0.002 A 
ATOM     94  C   UNL     1       1.750  -1.359  13.206  1.00  0.00     0.018 A 
ATOM     95  C   UNL     1       1.550  -0.843  14.488  1.00  0.00     0.016 A 
ATOM     96  Br  UNL     1       0.822  -2.938  12.725  1.00  0.00    -0.051 Br
ENDBRANCH  83  90
BRANCH  88  97
ATOM     97  C   UNL     1       7.212   2.281  13.432  1.00  0.00     0.002 A 
ATOM     98  C   UNL     1       7.283   1.731  14.720  1.00  0.00     0.010 A 
ATOM     99  C   UNL     1       8.392   2.503  12.714  1.00  0.00     0.010 A 
ATOM    100  C   UNL     1       8.528   1.509  15.318  1.00  0.00     0.001 A 
ATOM    101  C   UNL     1       9.632   2.278  13.312  1.00  0.00     0.001 A 
ATOM    102  C   UNL     1       9.699   1.812  14.624  1.00  0.00     0.000 A 
ENDBRANCH  88  97
ENDBRANCH  80  81
ENDBRANCH  72  75
ENDBRANCH  70  71
ENDBRANCH  69  70
ENDBRANCH   1  69
TORSDOF 17
