REMARK SMILES Cn1nccc1/C=C/C(=O)N[C@H](CO)C(=O)NCCCCNC(=O)c1ccc(-c2c3nc(c(-c4ccc(S(=O)(=O)[O-])cc4)c4ccc([nH]4)c(-c4ccc(S(=O)(=O)[O-])cc4)c4nc(c(-c5ccc(S(=O)(=O)[O-])cc5)c5ccc2[nH]5)C=C4)C=C3)cc1
REMARK SMILES IDX 19 1 18 2 17 3 15 4 16 5 12 7 11 8 9 9 10 10 8 12 7 13 6 14
REMARK SMILES IDX 1 15 2 16 3 17 4 18 5 19 13 20 14 21 20 23 21 24 22 25 23 26
REMARK SMILES IDX 24 28 25 29 26 30 84 31 27 32 83 33 28 34 29 35 30 36 77 37
REMARK SMILES IDX 31 38 82 39 76 40 78 41 32 42 81 43 75 44 74 45 33 47 63 48
REMARK SMILES IDX 44 49 62 50 45 51 48 52 61 53 79 54 46 55 47 56 60 58 80 59
REMARK SMILES IDX 49 60 34 61 35 62 43 63 36 64 42 65 37 66 38 67 39 68 40 69
REMARK SMILES IDX 41 70 64 71 65 72 73 73 66 74 72 75 67 76 68 77 69 78 70 79
REMARK SMILES IDX 71 80 50 81 51 82 59 83 52 84 58 85 53 86 54 87 55 88 56 89
REMARK SMILES IDX 57 90
REMARK H PARENT 17 6 11 11 14 22 22 27 78 46 48 57
REMARK Flexibility Score: inf
ROOT
ATOM      1  C   UNL     1      -3.744  -7.507   1.627  1.00  0.00     0.023 C 
ENDROOT
BRANCH   1   2
ATOM      2  C   UNL     1      -4.438  -6.218   1.184  1.00  0.00     0.116 C 
BRANCH   2   3
ATOM      3  N   UNL     1      -3.777  -5.070   1.775  1.00  0.00    -0.354 N 
ATOM      4  C   UNL     1      -2.735  -4.313   1.350  1.00  0.00     0.244 C 
ATOM      5  O   UNL     1      -2.189  -3.607   2.213  1.00  0.00    -0.273 OA
ATOM      6  H   UNL     1      -4.152  -4.790   2.641  1.00  0.00     0.163 HD
BRANCH   4   7
ATOM      7  C   UNL     1      -2.258  -4.183  -0.122  1.00  0.00     0.197 C 
BRANCH   7   8
ATOM      8  N   UNL     1      -2.823  -4.918  -1.261  1.00  0.00    -0.339 N 
ATOM      9  C   UNL     1      -2.634  -6.104  -1.872  1.00  0.00     0.244 C 
ATOM     10  O   UNL     1      -3.209  -6.268  -2.952  1.00  0.00    -0.270 OA
ATOM     11  H   UNL     1      -3.538  -4.401  -1.698  1.00  0.00     0.164 HD
BRANCH   9  12
ATOM     12  C   UNL     1      -1.892  -7.255  -1.317  1.00  0.00     0.073 C 
ATOM     13  C   UNL     1      -1.136  -7.333  -0.217  1.00  0.00     0.033 C 
BRANCH  13  14
ATOM     14  C   UNL     1      -0.707  -8.590   0.293  1.00  0.00     0.061 A 
ATOM     15  C   UNL     1       0.422  -7.611   2.364  1.00  0.00     0.174 C 
ATOM     16  N   UNL     1      -0.013  -8.676   1.486  1.00  0.00    -0.269 N 
ATOM     17  N   UNL     1       0.248  -9.946   1.859  1.00  0.00    -0.181 NA
ATOM     18  C   UNL     1      -0.314 -10.687   0.906  1.00  0.00     0.136 A 
ATOM     19  C   UNL     1      -0.906  -9.903  -0.096  1.00  0.00     0.050 A 
ENDBRANCH  13  14
ENDBRANCH   9  12
ENDBRANCH   7   8
BRANCH   7  20
ATOM     20  C   UNL     1      -0.722  -3.966  -0.234  1.00  0.00     0.191 C 
BRANCH  20  21
ATOM     21  O   UNL     1       0.022  -4.365   0.917  1.00  0.00    -0.394 OA
ATOM     22  H   UNL     1      -0.248  -3.829   1.679  1.00  0.00     0.210 HD
ENDBRANCH  20  21
ENDBRANCH   7  20
ENDBRANCH   4   7
ENDBRANCH   2   3
ENDBRANCH   1   2
BRANCH   1  23
ATOM     23  C   UNL     1      -4.350  -8.203   2.840  1.00  0.00     0.023 C 
BRANCH  23  24
ATOM     24  C   UNL     1      -5.715  -8.824   2.590  1.00  0.00     0.116 C 
BRANCH  24  25
ATOM     25  N   UNL     1      -5.721  -9.845   1.550  1.00  0.00    -0.352 N 
ATOM     26  C   UNL     1      -6.491 -10.984   1.481  1.00  0.00     0.251 C 
ATOM     27  H   UNL     1      -5.097  -9.701   0.802  1.00  0.00     0.163 HD
ATOM     28  O   UNL     1      -6.335 -11.788   0.567  1.00  0.00    -0.269 OA
BRANCH  26  29
ATOM     29  C   UNL     1      -7.464 -11.251   2.561  1.00  0.00     0.039 A 
ATOM     30  C   UNL     1      -7.439 -12.490   3.204  1.00  0.00     0.014 A 
ATOM     31  C   UNL     1      -8.322 -10.241   3.001  1.00  0.00     0.014 A 
ATOM     32  C   UNL     1      -8.207 -12.681   4.354  1.00  0.00     0.010 A 
ATOM     33  C   UNL     1      -9.010 -10.401   4.196  1.00  0.00     0.010 A 
ATOM     34  C   UNL     1      -8.957 -11.620   4.889  1.00  0.00    -0.014 A 
BRANCH  34  35
ATOM     35  C   UNL     1      -9.688 -11.753   6.174  1.00  0.00     0.031 A 
ATOM     36  C   UNL     1     -11.182 -11.569   6.207  1.00  0.00     0.074 A 
ATOM     37  C   UNL     1      -9.004 -11.943   7.321  1.00  0.00     0.049 A 
ATOM     38  N   UNL     1     -11.986 -11.534   7.237  1.00  0.00    -0.248 NA
ATOM     39  C   UNL     1     -11.853 -11.357   4.913  1.00  0.00     0.031 C 
ATOM     40  C   UNL     1      -7.548 -12.074   7.433  1.00  0.00     0.029 A 
ATOM     41  N   UNL     1      -9.444 -12.049   8.616  1.00  0.00    -0.354 N 
ATOM     42  C   UNL     1     -13.247 -11.262   6.721  1.00  0.00     0.074 A 
ATOM     43  C   UNL     1     -13.094 -11.092   5.293  1.00  0.00     0.031 C 
ATOM     44  C   UNL     1      -7.222 -12.277   8.720  1.00  0.00     0.029 A 
ATOM     45  C   UNL     1      -8.436 -12.252   9.529  1.00  0.00     0.049 A 
ATOM     46  H   UNL     1     -10.394 -11.986   8.869  1.00  0.00     0.167 HD
ATOM     47  C   UNL     1     -14.432 -11.184   7.371  1.00  0.00     0.031 A 
ATOM     48  C   UNL     1      -8.483 -12.401  10.867  1.00  0.00     0.031 A 
ATOM     49  C   UNL     1     -14.590 -11.397   8.784  1.00  0.00     0.049 A 
ATOM     50  C   UNL     1      -9.816 -12.358  11.562  1.00  0.00     0.074 A 
ATOM     51  C   UNL     1     -15.756 -11.408   9.528  1.00  0.00     0.029 A 
ATOM     52  N   UNL     1     -13.549 -11.649   9.664  1.00  0.00    -0.354 N 
ATOM     53  N   UNL     1     -11.005 -12.155  11.047  1.00  0.00    -0.248 NA
ATOM     54  C   UNL     1      -9.815 -12.576  13.015  1.00  0.00     0.031 C 
ATOM     55  C   UNL     1     -15.416 -11.640  10.866  1.00  0.00     0.029 A 
ATOM     56  C   UNL     1     -14.043 -11.812  10.945  1.00  0.00     0.049 A 
ATOM     57  H   UNL     1     -12.598 -11.704   9.414  1.00  0.00     0.167 HD
ATOM     58  C   UNL     1     -11.897 -12.246  12.110  1.00  0.00     0.074 A 
ATOM     59  C   UNL     1     -11.111 -12.534  13.293  1.00  0.00     0.031 C 
ATOM     60  C   UNL     1     -13.245 -12.104  12.107  1.00  0.00     0.031 A 
BRANCH  47  61
ATOM     61  C   UNL     1     -15.651 -10.864   6.548  1.00  0.00    -0.014 A 
ATOM     62  C   UNL     1     -16.180 -11.802   5.643  1.00  0.00     0.010 A 
ATOM     63  C   UNL     1     -16.283  -9.616   6.689  1.00  0.00     0.010 A 
ATOM     64  C   UNL     1     -17.287 -11.479   4.856  1.00  0.00     0.020 A 
ATOM     65  C   UNL     1     -17.409  -9.299   5.923  1.00  0.00     0.020 A 
ATOM     66  C   UNL     1     -17.890 -10.226   4.996  1.00  0.00     0.054 A 
BRANCH  66  67
ATOM     67  S   UNL     1     -19.332  -9.833   3.968  1.00  0.00     0.124 S 
ATOM     68  O   UNL     1     -18.711  -9.550   2.677  1.00  0.00    -0.237 OA
ATOM     69  O   UNL     1     -20.118 -11.062   4.030  1.00  0.00    -0.237 OA
ATOM     70  O   UNL     1     -19.930  -8.681   4.638  1.00  0.00    -0.744 OA
ENDBRANCH  66  67
ENDBRANCH  47  61
BRANCH  48  71
ATOM     71  C   UNL     1      -7.231 -12.639  11.635  1.00  0.00    -0.014 A 
ATOM     72  C   UNL     1      -6.953 -13.915  12.156  1.00  0.00     0.010 A 
ATOM     73  C   UNL     1      -6.308 -11.599  11.841  1.00  0.00     0.010 A 
ATOM     74  C   UNL     1      -5.783 -14.143  12.886  1.00  0.00     0.020 A 
ATOM     75  C   UNL     1      -5.126 -11.829  12.552  1.00  0.00     0.020 A 
ATOM     76  C   UNL     1      -4.877 -13.097  13.081  1.00  0.00     0.054 A 
BRANCH  76  77
ATOM     77  S   UNL     1      -3.341 -13.425  13.991  1.00  0.00     0.124 S 
ATOM     78  O   UNL     1      -3.809 -13.451  15.373  1.00  0.00    -0.237 OA
ATOM     79  O   UNL     1      -2.915 -14.710  13.443  1.00  0.00    -0.237 OA
ATOM     80  O   UNL     1      -2.489 -12.293  13.637  1.00  0.00    -0.744 OA
ENDBRANCH  76  77
ENDBRANCH  48  71
BRANCH  60  81
ATOM     81  C   UNL     1     -13.961 -12.292  13.416  1.00  0.00    -0.014 A 
ATOM     82  C   UNL     1     -13.922 -11.303  14.413  1.00  0.00     0.010 A 
ATOM     83  C   UNL     1     -14.731 -13.451  13.623  1.00  0.00     0.010 A 
ATOM     84  C   UNL     1     -14.622 -11.480  15.608  1.00  0.00     0.020 A 
ATOM     85  C   UNL     1     -15.451 -13.621  14.808  1.00  0.00     0.020 A 
ATOM     86  C   UNL     1     -15.381 -12.640  15.799  1.00  0.00     0.054 A 
BRANCH  86  87
ATOM     87  S   UNL     1     -16.323 -12.826  17.337  1.00  0.00     0.124 S 
ATOM     88  O   UNL     1     -15.280 -13.202  18.288  1.00  0.00    -0.237 OA
ATOM     89  O   UNL     1     -16.898 -11.497  17.528  1.00  0.00    -0.237 OA
ATOM     90  O   UNL     1     -17.290 -13.876  17.024  1.00  0.00    -0.744 OA
ENDBRANCH  86  87
ENDBRANCH  60  81
ENDBRANCH  34  35
ENDBRANCH  26  29
ENDBRANCH  24  25
ENDBRANCH  23  24
ENDBRANCH   1  23
TORSDOF 19
