REMARK SMILES C[C@@H](C(=O)NCCCCNC(=O)c1ccc(-c2c3nc(c(-c4ccc(S(=O)(=O)[O-])cc4)c4ccc([nH]4)c(-c4ccc(S(=O)(=O)[O-])cc4)c4nc(c(-c5ccc(S(=O)(=O)[O-])cc5)c5ccc2[nH]5)C=C4)C=C3)cc1)c1ccc(C[C@H]2CCC[C@H]2O)cc1
REMARK SMILES IDX 7 1 6 2 5 3 3 4 4 5 2 7 1 8 73 9 74 10 85 11 75 12 84 13
REMARK SMILES IDX 76 14 77 15 78 16 79 17 82 18 80 19 81 20 83 21 8 23 9 24
REMARK SMILES IDX 10 25 11 26 12 28 13 29 14 30 72 31 15 32 71 33 16 34 17 35
REMARK SMILES IDX 18 36 65 37 19 38 70 39 64 40 66 41 20 42 69 43 63 44 62 45
REMARK SMILES IDX 21 47 51 48 32 49 50 50 33 51 36 52 49 53 67 54 34 55 35 56
REMARK SMILES IDX 48 58 68 59 37 60 22 61 23 62 31 63 24 64 30 65 25 66 26 67
REMARK SMILES IDX 27 68 28 69 29 70 52 71 53 72 61 73 54 74 60 75 55 76 56 77
REMARK SMILES IDX 57 78 58 79 59 80 38 81 39 82 47 83 40 84 46 85 41 86 42 87
REMARK SMILES IDX 43 88 44 89 45 90
REMARK H PARENT 5 6 83 22 10 27 66 46 36 57
REMARK Flexibility Score: inf
ROOT
ATOM      1  C   UNL     1       4.153   0.845   0.812  1.00  0.00     0.023 C 
ENDROOT
BRANCH   1   2
ATOM      2  C   UNL     1       3.410  -0.044   1.810  1.00  0.00     0.116 C 
BRANCH   2   3
ATOM      3  N   UNL     1       2.330   0.678   2.442  1.00  0.00    -0.356 N 
ATOM      4  C   UNL     1       0.991   0.655   2.180  1.00  0.00     0.227 C 
ATOM      5  O   UNL     1       0.292   1.421   2.848  1.00  0.00    -0.274 OA
ATOM      6  H   UNL     1       2.601   1.279   3.174  1.00  0.00     0.163 HD
BRANCH   4   7
ATOM      7  C   UNL     1       0.419  -0.332   1.140  1.00  0.00     0.105 C 
ATOM      8  C   UNL     1       0.873  -0.045  -0.294  1.00  0.00     0.023 C 
BRANCH   7   9
ATOM      9  C   UNL     1      -1.105  -0.358   1.163  1.00  0.00    -0.036 A 
ATOM     10  C   UNL     1      -1.837   0.779   0.791  1.00  0.00     0.005 A 
ATOM     11  C   UNL     1      -1.799  -1.506   1.563  1.00  0.00     0.005 A 
ATOM     12  C   UNL     1      -3.224   0.785   0.863  1.00  0.00     0.004 A 
ATOM     13  C   UNL     1      -3.192  -1.486   1.662  1.00  0.00     0.004 A 
ATOM     14  C   UNL     1      -3.912  -0.321   1.365  1.00  0.00    -0.048 A 
BRANCH  14  15
ATOM     15  C   UNL     1      -5.388  -0.220   1.648  1.00  0.00     0.041 C 
BRANCH  15  16
ATOM     16  C   UNL     1      -5.793   0.356   3.019  1.00  0.00     0.022 C 
ATOM     17  C   UNL     1      -5.202  -0.355   4.248  1.00  0.00     0.007 C 
ATOM     18  C   UNL     1      -5.570   1.854   3.291  1.00  0.00     0.117 C 
ATOM     19  C   UNL     1      -5.094   0.707   5.345  1.00  0.00     0.003 C 
ATOM     20  C   UNL     1      -5.782   1.953   4.797  1.00  0.00     0.032 C 
BRANCH  18  21
ATOM     21  O   UNL     1      -4.280   2.346   2.987  1.00  0.00    -0.393 OA
ATOM     22  H   UNL     1      -3.619   1.867   3.512  1.00  0.00     0.210 HD
ENDBRANCH  18  21
ENDBRANCH  15  16
ENDBRANCH  14  15
ENDBRANCH   7   9
ENDBRANCH   4   7
ENDBRANCH   2   3
ENDBRANCH   1   2
BRANCH   1  23
ATOM     23  C   UNL     1       4.920   2.009   1.443  1.00  0.00     0.023 C 
BRANCH  23  24
ATOM     24  C   UNL     1       5.925   1.610   2.514  1.00  0.00     0.116 C 
BRANCH  24  25
ATOM     25  N   UNL     1       6.908   0.655   2.031  1.00  0.00    -0.352 N 
ATOM     26  C   UNL     1       8.261   0.616   2.261  1.00  0.00     0.251 C 
ATOM     27  H   UNL     1       6.554  -0.064   1.459  1.00  0.00     0.163 HD
ATOM     28  O   UNL     1       8.958  -0.179   1.641  1.00  0.00    -0.269 OA
BRANCH  26  29
ATOM     29  C   UNL     1       8.870   1.545   3.238  1.00  0.00     0.039 A 
ATOM     30  C   UNL     1      10.090   2.147   2.922  1.00  0.00     0.014 A 
ATOM     31  C   UNL     1       8.255   1.809   4.465  1.00  0.00     0.014 A 
ATOM     32  C   UNL     1      10.678   3.032   3.827  1.00  0.00     0.010 A 
ATOM     33  C   UNL     1       8.796   2.761   5.323  1.00  0.00     0.010 A 
ATOM     34  C   UNL     1      10.029   3.358   5.029  1.00  0.00    -0.014 A 
BRANCH  34  35
ATOM     35  C   UNL     1      10.660   4.274   6.013  1.00  0.00     0.031 A 
ATOM     36  C   UNL     1      11.046   3.762   7.377  1.00  0.00     0.074 A 
ATOM     37  C   UNL     1      10.864   5.567   5.692  1.00  0.00     0.049 A 
ATOM     38  N   UNL     1      11.620   4.398   8.365  1.00  0.00    -0.248 NA
ATOM     39  C   UNL     1      10.721   2.357   7.682  1.00  0.00     0.031 C 
ATOM     40  C   UNL     1      10.496   6.194   4.420  1.00  0.00     0.029 A 
ATOM     41  N   UNL     1      11.442   6.585   6.408  1.00  0.00    -0.354 N 
ATOM     42  C   UNL     1      11.707   3.482   9.408  1.00  0.00     0.074 A 
ATOM     43  C   UNL     1      11.072   2.265   8.955  1.00  0.00     0.031 C 
ATOM     44  C   UNL     1      10.897   7.476   4.430  1.00  0.00     0.029 A 
ATOM     45  C   UNL     1      11.516   7.772   5.718  1.00  0.00     0.049 A 
ATOM     46  H   UNL     1      11.772   6.476   7.329  1.00  0.00     0.167 HD
ATOM     47  C   UNL     1      12.286   3.628  10.623  1.00  0.00     0.031 A 
ATOM     48  C   UNL     1      12.031   8.963   6.080  1.00  0.00     0.031 A 
ATOM     49  C   UNL     1      12.931   4.836  11.063  1.00  0.00     0.049 A 
ATOM     50  C   UNL     1      12.673   9.101   7.435  1.00  0.00     0.074 A 
ATOM     51  C   UNL     1      13.600   5.070  12.252  1.00  0.00     0.029 A 
ATOM     52  N   UNL     1      12.987   6.014  10.334  1.00  0.00    -0.354 N 
ATOM     53  N   UNL     1      12.809   8.200   8.379  1.00  0.00    -0.248 NA
ATOM     54  C   UNL     1      13.250  10.411   7.762  1.00  0.00     0.031 C 
ATOM     55  C   UNL     1      14.008   6.407  12.266  1.00  0.00     0.029 A 
ATOM     56  C   UNL     1      13.659   6.985  11.055  1.00  0.00     0.049 A 
ATOM     57  H   UNL     1      12.604   6.140   9.435  1.00  0.00     0.167 HD
ATOM     58  C   UNL     1      13.527   8.824   9.395  1.00  0.00     0.074 A 
ATOM     59  C   UNL     1      13.802  10.172   8.943  1.00  0.00     0.031 C 
ATOM     60  C   UNL     1      13.928   8.323  10.591  1.00  0.00     0.031 A 
BRANCH  47  61
ATOM     61  C   UNL     1      12.235   2.453  11.567  1.00  0.00    -0.014 A 
ATOM     62  C   UNL     1      12.949   1.269  11.303  1.00  0.00     0.010 A 
ATOM     63  C   UNL     1      11.486   2.545  12.755  1.00  0.00     0.010 A 
ATOM     64  C   UNL     1      12.877   0.185  12.182  1.00  0.00     0.020 A 
ATOM     65  C   UNL     1      11.439   1.476  13.654  1.00  0.00     0.020 A 
ATOM     66  C   UNL     1      12.120   0.295  13.352  1.00  0.00     0.054 A 
BRANCH  66  67
ATOM     67  S   UNL     1      12.061  -1.120  14.485  1.00  0.00     0.124 S 
ATOM     68  O   UNL     1      11.235  -2.067  13.741  1.00  0.00    -0.237 OA
ATOM     69  O   UNL     1      13.470  -1.483  14.615  1.00  0.00    -0.237 OA
ATOM     70  O   UNL     1      11.447  -0.573  15.693  1.00  0.00    -0.744 OA
ENDBRANCH  66  67
ENDBRANCH  47  61
BRANCH  48  71
ATOM     71  C   UNL     1      12.000  10.110   5.129  1.00  0.00    -0.014 A 
ATOM     72  C   UNL     1      13.188  10.594   4.553  1.00  0.00     0.010 A 
ATOM     73  C   UNL     1      10.780  10.724   4.793  1.00  0.00     0.010 A 
ATOM     74  C   UNL     1      13.161  11.686   3.680  1.00  0.00     0.020 A 
ATOM     75  C   UNL     1      10.745  11.796   3.895  1.00  0.00     0.020 A 
ATOM     76  C   UNL     1      11.938  12.279   3.355  1.00  0.00     0.054 A 
BRANCH  76  77
ATOM     77  S   UNL     1      11.923  13.667   2.187  1.00  0.00     0.124 S 
ATOM     78  O   UNL     1      12.508  14.741   2.984  1.00  0.00    -0.237 OA
ATOM     79  O   UNL     1      12.750  13.166   1.093  1.00  0.00    -0.237 OA
ATOM     80  O   UNL     1      10.507  13.828   1.865  1.00  0.00    -0.744 OA
ENDBRANCH  76  77
ENDBRANCH  48  71
BRANCH  60  81
ATOM     81  C   UNL     1      14.763   9.217  11.471  1.00  0.00    -0.014 A 
ATOM     82  C   UNL     1      14.223  10.355  12.096  1.00  0.00     0.010 A 
ATOM     83  C   UNL     1      16.113   8.887  11.699  1.00  0.00     0.010 A 
ATOM     84  C   UNL     1      15.032  11.175  12.888  1.00  0.00     0.020 A 
ATOM     85  C   UNL     1      16.914   9.683  12.519  1.00  0.00     0.020 A 
ATOM     86  C   UNL     1      16.373  10.836  13.091  1.00  0.00     0.054 A 
BRANCH  86  87
ATOM     87  S   UNL     1      17.399  11.908  14.133  1.00  0.00     0.124 S 
ATOM     88  O   UNL     1      17.596  13.070  13.271  1.00  0.00    -0.237 OA
ATOM     89  O   UNL     1      16.549  12.128  15.300  1.00  0.00    -0.237 OA
ATOM     90  O   UNL     1      18.595  11.108  14.383  1.00  0.00    -0.744 OA
ENDBRANCH  86  87
ENDBRANCH  60  81
ENDBRANCH  34  35
ENDBRANCH  26  29
ENDBRANCH  24  25
ENDBRANCH  23  24
ENDBRANCH   1  23
TORSDOF 18
