REMARK SMILES O=C(NCCCCNC(=O)c1ccc(-c2c3nc(c(-c4ccc(S(=O)(=O)[O-])cc4)c4ccc([nH]4)c(-c4ccc(S(=O)(=O)[O-])cc4)c4nc(c(-c5ccc(S(=O)(=O)[O-])cc5)c5ccc2[nH]5)C=C4)C=C3)cc1)C1=Cc2cc(Cl)ccc2O[C@@H]1C(F)(F)F
REMARK SMILES IDX 6 1 5 2 4 3 3 4 1 5 2 6 71 8 72 9 81 10 73 11 80 12 74 13
REMARK SMILES IDX 79 14 75 15 78 16 76 17 77 18 82 19 83 20 84 21 85 22 7 23
REMARK SMILES IDX 8 24 9 25 10 27 11 28 12 29 70 30 13 31 69 32 14 33 15 34
REMARK SMILES IDX 16 35 63 36 17 37 68 38 62 39 64 40 18 41 67 42 61 43 60 44
REMARK SMILES IDX 19 46 49 47 30 48 48 49 31 50 34 51 47 52 65 53 32 54 33 55
REMARK SMILES IDX 46 57 66 58 35 59 20 60 21 61 29 62 22 63 28 64 23 65 24 66
REMARK SMILES IDX 25 67 26 68 27 69 50 70 51 71 59 72 52 73 58 74 53 75 54 76
REMARK SMILES IDX 55 77 56 78 57 79 36 80 37 81 45 82 38 83 44 84 39 85 40 86
REMARK SMILES IDX 41 87 42 88 43 89
REMARK H PARENT 3 7 8 26 64 45 34 56
REMARK Flexibility Score: inf
ROOT
ATOM      1  C   UNL     1       4.050   3.442   2.795  1.00  0.00     0.023 C 
ENDROOT
BRANCH   1   2
ATOM      2  C   UNL     1       4.327   3.047   1.348  1.00  0.00     0.023 C 
BRANCH   2   3
ATOM      3  C   UNL     1       3.922   1.626   0.967  1.00  0.00     0.116 C 
BRANCH   3   4
ATOM      4  N   UNL     1       2.706   1.530   0.168  1.00  0.00    -0.352 N 
ATOM      5  O   UNL     1       1.181   0.566  -1.181  1.00  0.00    -0.270 OA
ATOM      6  C   UNL     1       2.344   0.611  -0.784  1.00  0.00     0.251 C 
ATOM      7  H   UNL     1       2.041   2.236   0.338  1.00  0.00     0.163 HD
BRANCH   6   8
ATOM      8  C   UNL     1       3.304  -0.417  -1.279  1.00  0.00     0.067 C 
ATOM      9  C   UNL     1       4.543  -0.057  -1.642  1.00  0.00     0.025 C 
ATOM     10  C   UNL     1       3.055  -1.801  -0.736  1.00  0.00     0.314 C 
ATOM     11  C   UNL     1       5.604  -0.643  -0.814  1.00  0.00     0.019 A 
ATOM     12  O   UNL     1       4.048  -2.206   0.240  1.00  0.00    -0.475 OA
ATOM     13  C   UNL     1       6.838   0.017  -0.761  1.00  0.00     0.032 A 
ATOM     14  C   UNL     1       5.276  -1.599   0.159  1.00  0.00     0.128 A 
ATOM     15  C   UNL     1       7.702  -0.234   0.304  1.00  0.00     0.041 A 
ATOM     16  C   UNL     1       6.164  -1.872   1.196  1.00  0.00     0.048 A 
ATOM     17  Cl  UNL     1       9.140   0.695   0.461  1.00  0.00    -0.084 Cl
ATOM     18  C   UNL     1       7.368  -1.169   1.284  1.00  0.00     0.024 A 
BRANCH  10  19
ATOM     19  C   UNL     1       2.962  -2.820  -1.888  1.00  0.00     0.429 C 
ATOM     20  F   UNL     1       2.628  -4.052  -1.435  1.00  0.00    -0.167 F 
ATOM     21  F   UNL     1       2.022  -2.470  -2.798  1.00  0.00    -0.167 F 
ATOM     22  F   UNL     1       4.132  -2.948  -2.562  1.00  0.00    -0.167 F 
ENDBRANCH  10  19
ENDBRANCH   6   8
ENDBRANCH   3   4
ENDBRANCH   2   3
ENDBRANCH   1   2
BRANCH   1  23
ATOM     23  C   UNL     1       4.629   2.532   3.878  1.00  0.00     0.116 C 
BRANCH  23  24
ATOM     24  N   UNL     1       6.067   2.318   3.803  1.00  0.00    -0.352 N 
ATOM     25  C   UNL     1       7.003   2.321   4.824  1.00  0.00     0.251 C 
ATOM     26  H   UNL     1       6.423   2.146   2.901  1.00  0.00     0.163 HD
ATOM     27  O   UNL     1       8.178   2.131   4.583  1.00  0.00    -0.269 OA
BRANCH  25  28
ATOM     28  C   UNL     1       6.559   2.616   6.209  1.00  0.00     0.039 A 
ATOM     29  C   UNL     1       7.213   3.624   6.921  1.00  0.00     0.014 A 
ATOM     30  C   UNL     1       5.463   1.958   6.770  1.00  0.00     0.014 A 
ATOM     31  C   UNL     1       6.695   4.049   8.148  1.00  0.00     0.010 A 
ATOM     32  C   UNL     1       4.901   2.438   7.951  1.00  0.00     0.010 A 
ATOM     33  C   UNL     1       5.500   3.501   8.644  1.00  0.00    -0.014 A 
BRANCH  33  34
ATOM     34  C   UNL     1       4.842   4.063   9.853  1.00  0.00     0.031 A 
ATOM     35  C   UNL     1       4.655   3.224  11.088  1.00  0.00     0.074 A 
ATOM     36  C   UNL     1       4.345   5.317   9.815  1.00  0.00     0.049 A 
ATOM     37  N   UNL     1       4.101   3.548  12.228  1.00  0.00    -0.248 NA
ATOM     38  C   UNL     1       5.126   1.832  11.023  1.00  0.00     0.031 C 
ATOM     39  C   UNL     1       4.399   6.218   8.660  1.00  0.00     0.029 A 
ATOM     40  N   UNL     1       3.699   6.055  10.776  1.00  0.00    -0.354 N 
ATOM     41  C   UNL     1       4.137   2.398  13.007  1.00  0.00     0.074 A 
ATOM     42  C   UNL     1       4.722   1.356  12.191  1.00  0.00     0.031 C 
ATOM     43  C   UNL     1       3.857   7.399   8.995  1.00  0.00     0.029 A 
ATOM     44  C   UNL     1       3.386   7.333  10.375  1.00  0.00     0.049 A 
ATOM     45  H   UNL     1       3.480   5.702  11.669  1.00  0.00     0.167 HD
ATOM     46  C   UNL     1       3.738   2.226  14.291  1.00  0.00     0.031 A 
ATOM     47  C   UNL     1       2.801   8.344  11.045  1.00  0.00     0.031 A 
ATOM     48  C   UNL     1       3.171   3.265  15.109  1.00  0.00     0.049 A 
ATOM     49  C   UNL     1       2.389   8.138  12.475  1.00  0.00     0.074 A 
ATOM     50  C   UNL     1       2.808   3.210  16.444  1.00  0.00     0.029 A 
ATOM     51  N   UNL     1       2.882   4.547  14.669  1.00  0.00    -0.354 N 
ATOM     52  N   UNL     1       2.510   7.066  13.221  1.00  0.00    -0.248 NA
ATOM     53  C   UNL     1       1.776   9.286  13.158  1.00  0.00     0.031 C 
ATOM     54  C   UNL     1       2.259   4.448  16.799  1.00  0.00     0.029 A 
ATOM     55  C   UNL     1       2.324   5.288  15.698  1.00  0.00     0.049 A 
ATOM     56  H   UNL     1       3.048   4.883  13.758  1.00  0.00     0.167 HD
ATOM     57  C   UNL     1       2.012   7.419  14.471  1.00  0.00     0.074 A 
ATOM     58  C   UNL     1       1.601   8.806  14.381  1.00  0.00     0.031 C 
ATOM     59  C   UNL     1       1.909   6.663  15.592  1.00  0.00     0.031 A 
BRANCH  46  60
ATOM     60  C   UNL     1       3.898   0.849  14.879  1.00  0.00    -0.014 A 
ATOM     61  C   UNL     1       5.171   0.323  15.165  1.00  0.00     0.010 A 
ATOM     62  C   UNL     1       2.760   0.067  15.148  1.00  0.00     0.010 A 
ATOM     63  C   UNL     1       5.307  -0.981  15.648  1.00  0.00     0.020 A 
ATOM     64  C   UNL     1       2.890  -1.228  15.658  1.00  0.00     0.020 A 
ATOM     65  C   UNL     1       4.165  -1.753  15.880  1.00  0.00     0.054 A 
BRANCH  65  66
ATOM     66  S   UNL     1       4.367  -3.449  16.491  1.00  0.00     0.124 S 
ATOM     67  O   UNL     1       4.775  -4.156  15.279  1.00  0.00    -0.237 OA
ATOM     68  O   UNL     1       5.402  -3.304  17.511  1.00  0.00    -0.237 OA
ATOM     69  O   UNL     1       3.041  -3.793  16.997  1.00  0.00    -0.744 OA
ENDBRANCH  65  66
ENDBRANCH  46  60
BRANCH  47  70
ATOM     70  C   UNL     1       2.622   9.666  10.385  1.00  0.00    -0.014 A 
ATOM     71  C   UNL     1       3.442  10.749  10.748  1.00  0.00     0.010 A 
ATOM     72  C   UNL     1       1.653   9.846   9.383  1.00  0.00     0.010 A 
ATOM     73  C   UNL     1       3.289  11.993  10.129  1.00  0.00     0.020 A 
ATOM     74  C   UNL     1       1.512  11.083   8.746  1.00  0.00     0.020 A 
ATOM     75  C   UNL     1       2.326  12.151   9.129  1.00  0.00     0.054 A 
BRANCH  75  76
ATOM     76  S   UNL     1       2.188  13.756   8.293  1.00  0.00     0.124 S 
ATOM     77  O   UNL     1       1.501  14.563   9.296  1.00  0.00    -0.237 OA
ATOM     78  O   UNL     1       3.585  14.106   8.047  1.00  0.00    -0.237 OA
ATOM     79  O   UNL     1       1.412  13.449   7.094  1.00  0.00    -0.744 OA
ENDBRANCH  75  76
ENDBRANCH  47  70
BRANCH  59  80
ATOM     80  C   UNL     1       1.354   7.333  16.820  1.00  0.00    -0.014 A 
ATOM     81  C   UNL     1      -0.014   7.644  16.925  1.00  0.00     0.010 A 
ATOM     82  C   UNL     1       2.212   7.639  17.891  1.00  0.00     0.010 A 
ATOM     83  C   UNL     1      -0.505   8.289  18.062  1.00  0.00     0.020 A 
ATOM     84  C   UNL     1       1.719   8.261  19.041  1.00  0.00     0.020 A 
ATOM     85  C   UNL     1       0.366   8.600  19.111  1.00  0.00     0.054 A 
BRANCH  85  86
ATOM     86  S   UNL     1      -0.294   9.422  20.587  1.00  0.00     0.124 S 
ATOM     87  O   UNL     1      -0.422  10.804  20.132  1.00  0.00    -0.237 OA
ATOM     88  O   UNL     1      -1.553   8.717  20.814  1.00  0.00    -0.237 OA
ATOM     89  O   UNL     1       0.734   9.191  21.599  1.00  0.00    -0.744 OA
ENDBRANCH  85  86
ENDBRANCH  59  80
ENDBRANCH  33  34
ENDBRANCH  25  28
ENDBRANCH  23  24
ENDBRANCH   1  23
TORSDOF 15
