REMARK SMILES [NH3+][C@@H]1CCCCC[C@H]1C(=O)N1[C@@H](C2CC2)SC[C@H]1C(=O)NCCCCNC(=O)c1ccc(-c2c3nc(c(-c4ccc(S(=O)(=O)[O-])cc4)c4ccc([nH]4)c(-c4ccc(S(=O)(=O)[O-])cc4)c4nc(c(-c5ccc(S(=O)(=O)[O-])cc5)c5ccc2[nH]5)C=C4)C=C3)cc1
REMARK SMILES IDX 22 1 21 2 19 3 20 4 18 6 11 7 12 8 16 9 17 10 9 11 10 12
REMARK SMILES IDX 8 13 2 14 1 15 3 19 7 21 6 22 5 23 4 24 13 26 14 27 15 28
REMARK SMILES IDX 23 29 24 30 25 31 26 32 27 33 28 35 29 36 30 37 88 38 31 39
REMARK SMILES IDX 87 40 32 41 33 42 34 43 81 44 35 45 86 46 80 47 82 48 36 49
REMARK SMILES IDX 85 50 79 51 78 52 37 54 67 55 48 56 66 57 49 58 52 59 65 60
REMARK SMILES IDX 83 61 50 62 51 63 64 65 84 66 53 67 38 68 39 69 47 70 40 71
REMARK SMILES IDX 46 72 41 73 42 74 43 75 44 76 45 77 68 78 69 79 77 80 70 81
REMARK SMILES IDX 76 82 71 83 72 84 73 85 74 86 75 87 54 88 55 89 63 90 56 91
REMARK SMILES IDX 62 92 57 93 58 94 59 95 60 96 61 97
REMARK H PARENT 21 5 1 16 1 17 1 18 26 34 82 53 52 64
REMARK Flexibility Score: 90.00
ROOT
ATOM      1  C   UNL     1       6.430   1.143   0.864  1.00  0.00     0.116 C 
ENDROOT
BRANCH   1   2
ATOM      2  N   UNL     1       6.117   2.550   0.927  1.00  0.00    -0.354 N 
ATOM      3  C   UNL     1       5.261   3.212   1.754  1.00  0.00     0.243 C 
ATOM      4  O   UNL     1       5.388   4.440   1.830  1.00  0.00    -0.273 OA
ATOM      5  H   UNL     1       6.592   3.115   0.276  1.00  0.00     0.163 HD
BRANCH   3   6
ATOM      6  C   UNL     1       4.297   2.490   2.719  1.00  0.00     0.185 C 
ATOM      7  N   UNL     1       3.438   1.406   2.208  1.00  0.00    -0.317 N 
ATOM      8  C   UNL     1       3.320   0.246   3.086  1.00  0.00     0.147 C 
ATOM      9  S   UNL     1       4.021   0.730   4.671  1.00  0.00    -0.134 SA
ATOM     10  C   UNL     1       5.063   2.015   3.950  1.00  0.00     0.107 C 
BRANCH   7  11
ATOM     11  C   UNL     1       2.540   1.776   1.223  1.00  0.00     0.233 C 
ATOM     12  O   UNL     1       2.938   2.398   0.232  1.00  0.00    -0.274 OA
BRANCH  11  13
ATOM     13  C   UNL     1       1.021   1.619   1.421  1.00  0.00     0.136 C 
BRANCH  13  14
ATOM     14  C   UNL     1       0.458   0.200   1.213  1.00  0.00     0.193 C 
BRANCH  14  15
ATOM     15  N   UNL     1       0.688  -0.262  -0.165  1.00  0.00    -0.354 N 
ATOM     16  H   UNL     1       0.307  -1.202  -0.277  1.00  0.00     0.344 HD
ATOM     17  H   UNL     1       1.690  -0.276  -0.357  1.00  0.00     0.344 HD
ATOM     18  H   UNL     1       0.226   0.372  -0.818  1.00  0.00     0.344 HD
ENDBRANCH  14  15
BRANCH  14  19
ATOM     19  C   UNL     1      -1.058   0.069   1.477  1.00  0.00     0.066 CG0
ATOM     20  G   UNL     1      -1.447   0.259   2.943  1.00  0.00     0.000 G0
ENDBRANCH  14  19
ENDBRANCH  13  14
BRANCH  13  21
ATOM     21  C   UNL     1       0.624   2.355   2.719  1.00  0.00     0.020 C 
BRANCH  21  22
ATOM     22  C   UNL     1      -0.845   2.764   2.759  1.00  0.00     0.001 C 
BRANCH  22  23
ATOM     23  C   UNL     1      -1.765   1.698   3.337  1.00  0.00     0.000 C 
BRANCH  23  24
ATOM     24  C   UNL     1      -1.447   0.259   2.943  1.00  0.00     0.006 CG0
ATOM     25  G   UNL     1      -1.058   0.069   1.477  1.00  0.00     0.000 G0
ENDBRANCH  23  24
ENDBRANCH  22  23
ENDBRANCH  21  22
ENDBRANCH  13  21
ENDBRANCH  11  13
ENDBRANCH   7  11
BRANCH   8  26
ATOM     26  C   UNL     1       3.962  -0.945   2.415  1.00  0.00     0.022 C 
ATOM     27  C   UNL     1       5.281  -1.583   2.823  1.00  0.00     0.007 C 
ATOM     28  C   UNL     1       3.993  -2.314   3.060  1.00  0.00     0.007 C 
ENDBRANCH   8  26
ENDBRANCH   3   6
ENDBRANCH   1   2
BRANCH   1  29
ATOM     29  C   UNL     1       5.890   0.453  -0.387  1.00  0.00     0.023 C 
BRANCH  29  30
ATOM     30  C   UNL     1       6.948   0.146  -1.447  1.00  0.00     0.023 C 
BRANCH  30  31
ATOM     31  C   UNL     1       8.107  -0.741  -0.996  1.00  0.00     0.116 C 
BRANCH  31  32
ATOM     32  N   UNL     1       7.723  -2.076  -0.559  1.00  0.00    -0.352 N 
ATOM     33  C   UNL     1       8.467  -3.238  -0.647  1.00  0.00     0.251 C 
ATOM     34  H   UNL     1       6.830  -2.162  -0.155  1.00  0.00     0.163 HD
ATOM     35  O   UNL     1       8.009  -4.304  -0.259  1.00  0.00    -0.269 OA
BRANCH  33  36
ATOM     36  C   UNL     1       9.802  -3.178  -1.288  1.00  0.00     0.039 A 
ATOM     37  C   UNL     1      10.051  -3.996  -2.393  1.00  0.00     0.014 A 
ATOM     38  C   UNL     1      10.742  -2.228  -0.884  1.00  0.00     0.014 A 
ATOM     39  C   UNL     1      11.195  -3.778  -3.166  1.00  0.00     0.010 A 
ATOM     40  C   UNL     1      11.840  -1.963  -1.699  1.00  0.00     0.010 A 
ATOM     41  C   UNL     1      12.063  -2.715  -2.863  1.00  0.00    -0.014 A 
BRANCH  41  42
ATOM     42  C   UNL     1      13.173  -2.334  -3.777  1.00  0.00     0.031 A 
ATOM     43  C   UNL     1      14.598  -2.383  -3.301  1.00  0.00     0.074 A 
ATOM     44  C   UNL     1      12.891  -1.849  -5.004  1.00  0.00     0.049 A 
ATOM     45  N   UNL     1      15.686  -1.994  -3.916  1.00  0.00    -0.248 NA
ATOM     46  C   UNL     1      14.828  -2.910  -1.947  1.00  0.00     0.031 C 
ATOM     47  C   UNL     1      11.548  -1.697  -5.571  1.00  0.00     0.029 A 
ATOM     48  N   UNL     1      13.720  -1.382  -5.995  1.00  0.00    -0.354 N 
ATOM     49  C   UNL     1      16.723  -2.202  -3.016  1.00  0.00     0.074 A 
ATOM     50  C   UNL     1      16.129  -2.712  -1.798  1.00  0.00     0.031 C 
ATOM     51  C   UNL     1      11.647  -1.202  -6.815  1.00  0.00     0.029 A 
ATOM     52  C   UNL     1      13.053  -0.961  -7.122  1.00  0.00     0.049 A 
ATOM     53  H   UNL     1      14.700  -1.352  -5.906  1.00  0.00     0.167 HD
ATOM     54  C   UNL     1      18.052  -2.005  -3.189  1.00  0.00     0.031 A 
ATOM     55  C   UNL     1      13.517  -0.436  -8.273  1.00  0.00     0.031 A 
ATOM     56  C   UNL     1      18.646  -1.518  -4.405  1.00  0.00     0.049 A 
ATOM     57  C   UNL     1      14.997  -0.242  -8.451  1.00  0.00     0.074 A 
ATOM     58  C   UNL     1      19.988  -1.341  -4.697  1.00  0.00     0.029 A 
ATOM     59  N   UNL     1      17.938  -1.135  -5.533  1.00  0.00    -0.354 N 
ATOM     60  N   UNL     1      15.967  -0.501  -7.607  1.00  0.00    -0.248 NA
ATOM     61  C   UNL     1      15.446   0.306  -9.738  1.00  0.00     0.031 C 
ATOM     62  C   UNL     1      20.088  -0.818  -5.990  1.00  0.00     0.029 A 
ATOM     63  C   UNL     1      18.812  -0.710  -6.519  1.00  0.00     0.049 A 
ATOM     64  H   UNL     1      16.957  -1.161  -5.620  1.00  0.00     0.167 HD
ATOM     65  C   UNL     1      17.143  -0.171  -8.271  1.00  0.00     0.074 A 
ATOM     66  C   UNL     1      16.764   0.298  -9.588  1.00  0.00     0.031 C 
ATOM     67  C   UNL     1      18.421  -0.251  -7.827  1.00  0.00     0.031 A 
BRANCH  54  68
ATOM     68  C   UNL     1      18.951  -2.317  -2.023  1.00  0.00    -0.014 A 
ATOM     69  C   UNL     1      19.179  -3.646  -1.622  1.00  0.00     0.010 A 
ATOM     70  C   UNL     1      19.584  -1.272  -1.327  1.00  0.00     0.010 A 
ATOM     71  C   UNL     1      19.979  -3.921  -0.510  1.00  0.00     0.020 A 
ATOM     72  C   UNL     1      20.407  -1.545  -0.230  1.00  0.00     0.020 A 
ATOM     73  C   UNL     1      20.579  -2.867   0.185  1.00  0.00     0.054 A 
BRANCH  73  74
ATOM     74  S   UNL     1      21.609  -3.250   1.628  1.00  0.00     0.124 S 
ATOM     75  O   UNL     1      20.602  -3.539   2.646  1.00  0.00    -0.237 OA
ATOM     76  O   UNL     1      22.389  -4.398   1.174  1.00  0.00    -0.237 OA
ATOM     77  O   UNL     1      22.376  -2.025   1.841  1.00  0.00    -0.744 OA
ENDBRANCH  73  74
ENDBRANCH  54  68
BRANCH  55  78
ATOM     78  C   UNL     1      12.567  -0.079  -9.362  1.00  0.00    -0.014 A 
ATOM     79  C   UNL     1      12.481  -0.878 -10.515  1.00  0.00     0.010 A 
ATOM     80  C   UNL     1      11.731   1.046  -9.244  1.00  0.00     0.010 A 
ATOM     81  C   UNL     1      11.585  -0.553 -11.537  1.00  0.00     0.020 A 
ATOM     82  C   UNL     1      10.817   1.361 -10.254  1.00  0.00     0.020 A 
ATOM     83  C   UNL     1      10.757   0.564 -11.399  1.00  0.00     0.054 A 
BRANCH  83  84
ATOM     84  S   UNL     1       9.557   0.933 -12.710  1.00  0.00     0.124 S 
ATOM     85  O   UNL     1      10.406   1.516 -13.743  1.00  0.00    -0.237 OA
ATOM     86  O   UNL     1       9.004  -0.385 -13.014  1.00  0.00    -0.237 OA
ATOM     87  O   UNL     1       8.625   1.857 -12.068  1.00  0.00    -0.744 OA
ENDBRANCH  83  84
ENDBRANCH  55  78
BRANCH  67  88
ATOM     88  C   UNL     1      19.513   0.144  -8.784  1.00  0.00    -0.014 A 
ATOM     89  C   UNL     1      19.771   1.494  -9.075  1.00  0.00     0.010 A 
ATOM     90  C   UNL     1      20.332  -0.851  -9.348  1.00  0.00     0.010 A 
ATOM     91  C   UNL     1      20.821   1.843  -9.930  1.00  0.00     0.020 A 
ATOM     92  C   UNL     1      21.395  -0.505 -10.185  1.00  0.00     0.020 A 
ATOM     93  C   UNL     1      21.626   0.840 -10.479  1.00  0.00     0.054 A 
BRANCH  93  94
ATOM     94  S   UNL     1      23.019   1.318 -11.539  1.00  0.00     0.124 S 
ATOM     95  O   UNL     1      22.346   1.654 -12.791  1.00  0.00    -0.237 OA
ATOM     96  O   UNL     1      23.602   2.446 -10.817  1.00  0.00    -0.237 OA
ATOM     97  O   UNL     1      23.850   0.117 -11.580  1.00  0.00    -0.744 OA
ENDBRANCH  93  94
ENDBRANCH  67  88
ENDBRANCH  41  42
ENDBRANCH  33  36
ENDBRANCH  31  32
ENDBRANCH  30  31
ENDBRANCH  29  30
ENDBRANCH   1  29
TORSDOF 18
