REMARK SMILES O=C(NCCCCNC(=O)c1ccc(-c2c3nc(c(-c4ccc(S(=O)(=O)[O-])cc4)c4ccc([nH]4)c(-c4ccc(S(=O)(=O)[O-])cc4)c4nc(c(-c5ccc(S(=O)(=O)[O-])cc5)c5ccc2[nH]5)C=C4)C=C3)cc1)C1=Cc2c(ccc(Cl)c2Cl)O[C@H]1C(F)(F)F
REMARK SMILES IDX 6 1 5 2 4 3 3 4 1 5 2 6 71 8 72 9 82 10 73 11 81 12 74 13
REMARK SMILES IDX 79 14 75 15 77 16 80 17 76 18 78 19 83 20 84 21 85 22 86 23
REMARK SMILES IDX 7 24 8 25 9 26 10 28 11 29 12 30 70 31 13 32 69 33 14 34
REMARK SMILES IDX 15 35 16 36 63 37 17 38 68 39 62 40 64 41 18 42 67 43 61 44
REMARK SMILES IDX 60 45 19 47 49 48 30 49 48 50 31 51 34 52 47 53 65 54 32 55
REMARK SMILES IDX 33 56 46 58 66 59 35 60 20 61 21 62 29 63 22 64 28 65 23 66
REMARK SMILES IDX 24 67 25 68 26 69 27 70 50 71 51 72 59 73 52 74 58 75 53 76
REMARK SMILES IDX 54 77 55 78 56 79 57 80 36 81 37 82 45 83 38 84 44 85 39 86
REMARK SMILES IDX 40 87 41 88 42 89 43 90
REMARK H PARENT 3 7 8 27 64 46 34 57
REMARK Flexibility Score: inf
ROOT
ATOM      1  C   UNL     1       3.921   4.189   0.649  1.00  0.00     0.023 C 
ENDROOT
BRANCH   1   2
ATOM      2  C   UNL     1       4.253   3.089  -0.354  1.00  0.00     0.023 C 
BRANCH   2   3
ATOM      3  C   UNL     1       3.997   1.661   0.107  1.00  0.00     0.116 C 
BRANCH   3   4
ATOM      4  N   UNL     1       2.626   1.200  -0.003  1.00  0.00    -0.352 N 
ATOM      5  O   UNL     1       0.964  -0.319  -0.197  1.00  0.00    -0.270 OA
ATOM      6  C   UNL     1       2.159  -0.089  -0.045  1.00  0.00     0.251 C 
ATOM      7  H   UNL     1       1.940   1.905  -0.053  1.00  0.00     0.163 HD
BRANCH   6   8
ATOM      8  C   UNL     1       3.107  -1.230   0.062  1.00  0.00     0.067 C 
ATOM      9  C   UNL     1       3.574  -1.496   1.294  1.00  0.00     0.027 C 
ATOM     10  C   UNL     1       3.912  -1.543  -1.170  1.00  0.00     0.314 C 
ATOM     11  C   UNL     1       5.007  -1.144   1.437  1.00  0.00     0.037 A 
ATOM     12  O   UNL     1       5.355  -1.497  -0.954  1.00  0.00    -0.475 OA
ATOM     13  C   UNL     1       5.802  -1.103   0.280  1.00  0.00     0.129 A 
ATOM     14  C   UNL     1       5.523  -0.676   2.660  1.00  0.00     0.070 A 
ATOM     15  C   UNL     1       7.081  -0.554   0.326  1.00  0.00     0.049 A 
ATOM     16  C   UNL     1       6.800  -0.098   2.691  1.00  0.00     0.060 A 
ATOM     17  Cl  UNL     1       4.541  -0.746   4.091  1.00  0.00    -0.082 Cl
ATOM     18  C   UNL     1       7.566  -0.025   1.522  1.00  0.00     0.026 A 
ATOM     19  Cl  UNL     1       7.464   0.598   4.125  1.00  0.00    -0.083 Cl
BRANCH  10  20
ATOM     20  C   UNL     1       3.505  -2.895  -1.796  1.00  0.00     0.429 C 
ATOM     21  F   UNL     1       2.652  -3.605  -1.022  1.00  0.00    -0.167 F 
ATOM     22  F   UNL     1       2.902  -2.713  -2.996  1.00  0.00    -0.167 F 
ATOM     23  F   UNL     1       4.579  -3.694  -2.017  1.00  0.00    -0.167 F 
ENDBRANCH  10  20
ENDBRANCH   6   8
ENDBRANCH   3   4
ENDBRANCH   2   3
ENDBRANCH   1   2
BRANCH   1  24
ATOM     24  C   UNL     1       4.539   4.072   2.043  1.00  0.00     0.116 C 
BRANCH  24  25
ATOM     25  N   UNL     1       5.986   3.904   2.061  1.00  0.00    -0.352 N 
ATOM     26  C   UNL     1       6.930   4.483   2.883  1.00  0.00     0.251 C 
ATOM     27  H   UNL     1       6.344   3.284   1.385  1.00  0.00     0.163 HD
ATOM     28  O   UNL     1       8.118   4.216   2.713  1.00  0.00    -0.269 OA
BRANCH  26  29
ATOM     29  C   UNL     1       6.530   5.476   3.912  1.00  0.00     0.039 A 
ATOM     30  C   UNL     1       7.256   6.668   4.005  1.00  0.00     0.014 A 
ATOM     31  C   UNL     1       5.421   5.277   4.737  1.00  0.00     0.014 A 
ATOM     32  C   UNL     1       6.797   7.701   4.829  1.00  0.00     0.010 A 
ATOM     33  C   UNL     1       4.920   6.336   5.497  1.00  0.00     0.010 A 
ATOM     34  C   UNL     1       5.586   7.570   5.529  1.00  0.00    -0.014 A 
BRANCH  34  35
ATOM     35  C   UNL     1       4.973   8.744   6.210  1.00  0.00     0.031 A 
ATOM     36  C   UNL     1       4.760   8.767   7.698  1.00  0.00     0.074 A 
ATOM     37  C   UNL     1       4.548   9.784   5.462  1.00  0.00     0.049 A 
ATOM     38  N   UNL     1       4.282   9.732   8.445  1.00  0.00    -0.248 NA
ATOM     39  C   UNL     1       5.103   7.546   8.442  1.00  0.00     0.031 C 
ATOM     40  C   UNL     1       4.620   9.862   4.000  1.00  0.00     0.029 A 
ATOM     41  N   UNL     1       3.976  10.979   5.826  1.00  0.00    -0.354 N 
ATOM     42  C   UNL     1       4.255   9.232   9.742  1.00  0.00     0.074 A 
ATOM     43  C   UNL     1       4.720   7.863   9.671  1.00  0.00     0.031 C 
ATOM     44  C   UNL     1       4.162  11.058   3.598  1.00  0.00     0.029 A 
ATOM     45  C   UNL     1       3.735  11.821   4.765  1.00  0.00     0.049 A 
ATOM     46  H   UNL     1       3.759  11.210   6.758  1.00  0.00     0.167 HD
ATOM     47  C   UNL     1       3.893   9.858  10.889  1.00  0.00     0.031 A 
ATOM     48  C   UNL     1       3.244  13.075   4.731  1.00  0.00     0.031 A 
ATOM     49  C   UNL     1       3.433  11.220  10.963  1.00  0.00     0.049 A 
ATOM     50  C   UNL     1       2.879  13.759   6.017  1.00  0.00     0.074 A 
ATOM     51  C   UNL     1       3.118  11.965  12.087  1.00  0.00     0.029 A 
ATOM     52  N   UNL     1       3.211  12.043   9.868  1.00  0.00    -0.354 N 
ATOM     53  N   UNL     1       2.954  13.302   7.244  1.00  0.00    -0.248 NA
ATOM     54  C   UNL     1       2.378  15.136   5.913  1.00  0.00     0.031 C 
ATOM     55  C   UNL     1       2.663  13.222  11.669  1.00  0.00     0.029 A 
ATOM     56  C   UNL     1       2.741  13.277  10.287  1.00  0.00     0.049 A 
ATOM     57  H   UNL     1       3.366  11.787   8.930  1.00  0.00     0.167 HD
ATOM     58  C   UNL     1       2.530  14.343   8.061  1.00  0.00     0.074 A 
ATOM     59  C   UNL     1       2.218  15.459   7.189  1.00  0.00     0.031 C 
ATOM     60  C   UNL     1       2.413  14.373   9.412  1.00  0.00     0.031 A 
BRANCH  47  61
ATOM     61  C   UNL     1       3.978   9.060  12.164  1.00  0.00    -0.014 A 
ATOM     62  C   UNL     1       5.222   8.701  12.715  1.00  0.00     0.010 A 
ATOM     63  C   UNL     1       2.800   8.676  12.830  1.00  0.00     0.010 A 
ATOM     64  C   UNL     1       5.287   7.927  13.876  1.00  0.00     0.020 A 
ATOM     65  C   UNL     1       2.861   7.924  14.008  1.00  0.00     0.020 A 
ATOM     66  C   UNL     1       4.104   7.535  14.510  1.00  0.00     0.054 A 
BRANCH  66  67
ATOM     67  S   UNL     1       4.214   6.526  16.014  1.00  0.00     0.124 S 
ATOM     68  O   UNL     1       4.547   5.212  15.470  1.00  0.00    -0.237 OA
ATOM     69  O   UNL     1       5.280   7.182  16.766  1.00  0.00    -0.237 OA
ATOM     70  O   UNL     1       2.882   6.637  16.603  1.00  0.00    -0.744 OA
ENDBRANCH  66  67
ENDBRANCH  47  61
BRANCH  48  71
ATOM     71  C   UNL     1       3.123  13.786   3.429  1.00  0.00    -0.014 A 
ATOM     72  C   UNL     1       4.026  14.813   3.100  1.00  0.00     0.010 A 
ATOM     73  C   UNL     1       2.129  13.424   2.504  1.00  0.00     0.010 A 
ATOM     74  C   UNL     1       3.931  15.472   1.871  1.00  0.00     0.020 A 
ATOM     75  C   UNL     1       2.046  14.065   1.264  1.00  0.00     0.020 A 
ATOM     76  C   UNL     1       2.943  15.091   0.959  1.00  0.00     0.054 A 
BRANCH  76  77
ATOM     77  S   UNL     1       2.884  15.909  -0.660  1.00  0.00     0.124 S 
ATOM     78  O   UNL     1       2.284  17.196  -0.328  1.00  0.00    -0.237 OA
ATOM     79  O   UNL     1       4.293  15.947  -1.047  1.00  0.00    -0.237 OA
ATOM     80  O   UNL     1       2.052  15.015  -1.462  1.00  0.00    -0.744 OA
ENDBRANCH  76  77
ENDBRANCH  48  71
BRANCH  60  81
ATOM     81  C   UNL     1       1.940  15.664  10.026  1.00  0.00    -0.014 A 
ATOM     82  C   UNL     1       0.604  16.085   9.897  1.00  0.00     0.010 A 
ATOM     83  C   UNL     1       2.845  16.465  10.745  1.00  0.00     0.010 A 
ATOM     84  C   UNL     1       0.194  17.309  10.433  1.00  0.00     0.020 A 
ATOM     85  C   UNL     1       2.432  17.677  11.305  1.00  0.00     0.020 A 
ATOM     86  C   UNL     1       1.114  18.102  11.125  1.00  0.00     0.054 A 
BRANCH  86  87
ATOM     87  S   UNL     1       0.562  19.687  11.815  1.00  0.00     0.124 S 
ATOM     88  O   UNL     1       0.545  20.542  10.632  1.00  0.00    -0.237 OA
ATOM     89  O   UNL     1      -0.747  19.359  12.373  1.00  0.00    -0.237 OA
ATOM     90  O   UNL     1       1.590  20.009  12.803  1.00  0.00    -0.744 OA
ENDBRANCH  86  87
ENDBRANCH  60  81
ENDBRANCH  34  35
ENDBRANCH  26  29
ENDBRANCH  24  25
ENDBRANCH   1  24
TORSDOF 15
