REMARK SMILES COc1ncccc1C[C@H](C(=O)NCCCCNC(=O)c1ccc(-c2c3nc(c(-c4ccc(S(=O)(=O)[O-])cc4)c4ccc([nH]4)c(-c4ccc(S(=O)(=O)[O-])cc4)c4nc(c(-c5ccc(S(=O)(=O)[O-])cc5)c5ccc2[nH]5)C=C4)C=C3)cc1)c1ccc(F)cc1
REMARK SMILES IDX 15 1 14 2 13 3 11 4 12 5 10 7 9 8 8 9 3 10 4 11 5 12 7 13
REMARK SMILES IDX 6 14 2 15 1 16 81 17 82 18 87 19 83 20 86 21 84 22 85 23
REMARK SMILES IDX 16 24 17 25 18 26 19 27 20 29 21 30 22 31 80 32 23 33 79 34
REMARK SMILES IDX 24 35 25 36 26 37 73 38 27 39 78 40 72 41 74 42 28 43 77 44
REMARK SMILES IDX 71 45 70 46 29 48 59 49 40 50 58 51 41 52 44 53 57 54 75 55
REMARK SMILES IDX 42 56 43 57 56 59 76 60 45 61 30 62 31 63 39 64 32 65 38 66
REMARK SMILES IDX 33 67 34 68 35 69 36 70 37 71 60 72 61 73 69 74 62 75 68 76
REMARK SMILES IDX 63 77 64 78 65 79 66 80 67 81 46 82 47 83 55 84 48 85 54 86
REMARK SMILES IDX 49 87 50 88 51 89 52 90 53 91
REMARK H PARENT 13 6 18 28 74 47 44 58
REMARK Flexibility Score: inf
ROOT
ATOM      1  C   UNL     1       4.729   1.465   3.543  1.00  0.00     0.023 C 
ENDROOT
BRANCH   1   2
ATOM      2  C   UNL     1       3.337   1.779   2.996  1.00  0.00     0.116 C 
BRANCH   2   3
ATOM      3  N   UNL     1       3.363   2.363   1.665  1.00  0.00    -0.356 N 
ATOM      4  C   UNL     1       3.301   1.744   0.444  1.00  0.00     0.227 C 
ATOM      5  O   UNL     1       3.222   2.448  -0.563  1.00  0.00    -0.274 OA
ATOM      6  H   UNL     1       3.436   3.344   1.637  1.00  0.00     0.163 HD
BRANCH   4   7
ATOM      7  C   UNL     1       3.297   0.210   0.378  1.00  0.00     0.113 C 
BRANCH   7   8
ATOM      8  C   UNL     1       1.832  -0.222   0.105  1.00  0.00     0.059 C 
BRANCH   8   9
ATOM      9  C   UNL     1       1.273  -1.470   0.773  1.00  0.00     0.015 A 
ATOM     10  C   UNL     1       2.001  -2.575   1.214  1.00  0.00     0.216 A 
ATOM     11  N   UNL     1       1.455  -3.696   1.741  1.00  0.00    -0.222 NA
ATOM     12  C   UNL     1       0.114  -3.732   1.854  1.00  0.00     0.115 A 
ATOM     13  C   UNL     1      -0.121  -1.552   0.932  1.00  0.00     0.011 A 
ATOM     14  C   UNL     1      -0.710  -2.690   1.479  1.00  0.00     0.021 A 
BRANCH  10  15
ATOM     15  O   UNL     1       3.353  -2.618   1.022  1.00  0.00    -0.481 OA
ATOM     16  C   UNL     1       4.045  -2.849   2.242  1.00  0.00     0.280 C 
ENDBRANCH  10  15
ENDBRANCH   8   9
ENDBRANCH   7   8
BRANCH   7  17
ATOM     17  C   UNL     1       4.394  -0.326  -0.553  1.00  0.00    -0.035 A 
ATOM     18  C   UNL     1       4.184  -1.400  -1.438  1.00  0.00     0.007 A 
ATOM     19  C   UNL     1       5.710   0.154  -0.401  1.00  0.00     0.007 A 
ATOM     20  C   UNL     1       5.259  -2.025  -2.076  1.00  0.00     0.039 A 
ATOM     21  C   UNL     1       6.781  -0.454  -1.060  1.00  0.00     0.039 A 
ATOM     22  C   UNL     1       6.548  -1.555  -1.871  1.00  0.00     0.123 A 
ATOM     23  F   UNL     1       7.580  -2.186  -2.446  1.00  0.00    -0.207 F 
ENDBRANCH   7  17
ENDBRANCH   4   7
ENDBRANCH   2   3
ENDBRANCH   1   2
BRANCH   1  24
ATOM     24  C   UNL     1       5.633   2.682   3.762  1.00  0.00     0.023 C 
BRANCH  24  25
ATOM     25  C   UNL     1       5.074   3.779   4.666  1.00  0.00     0.116 C 
BRANCH  25  26
ATOM     26  N   UNL     1       4.793   3.329   6.019  1.00  0.00    -0.352 N 
ATOM     27  C   UNL     1       5.040   3.958   7.221  1.00  0.00     0.251 C 
ATOM     28  H   UNL     1       4.364   2.445   6.087  1.00  0.00     0.163 HD
ATOM     29  O   UNL     1       4.819   3.368   8.268  1.00  0.00    -0.269 OA
BRANCH  27  30
ATOM     30  C   UNL     1       5.606   5.330   7.245  1.00  0.00     0.039 A 
ATOM     31  C   UNL     1       6.647   5.610   8.136  1.00  0.00     0.014 A 
ATOM     32  C   UNL     1       5.124   6.335   6.403  1.00  0.00     0.014 A 
ATOM     33  C   UNL     1       7.254   6.870   8.128  1.00  0.00     0.010 A 
ATOM     34  C   UNL     1       5.774   7.568   6.348  1.00  0.00     0.010 A 
ATOM     35  C   UNL     1       6.850   7.848   7.205  1.00  0.00    -0.014 A 
BRANCH  35  36
ATOM     36  C   UNL     1       7.555   9.153   7.098  1.00  0.00     0.031 A 
ATOM     37  C   UNL     1       6.832  10.440   7.390  1.00  0.00     0.074 A 
ATOM     38  C   UNL     1       8.825   9.190   6.649  1.00  0.00     0.049 A 
ATOM     39  N   UNL     1       7.261  11.671   7.277  1.00  0.00    -0.248 NA
ATOM     40  C   UNL     1       5.436  10.327   7.839  1.00  0.00     0.031 C 
ATOM     41  C   UNL     1       9.625   8.021   6.278  1.00  0.00     0.029 A 
ATOM     42  N   UNL     1       9.660  10.253   6.410  1.00  0.00    -0.354 N 
ATOM     43  C   UNL     1       6.184  12.481   7.617  1.00  0.00     0.074 A 
ATOM     44  C   UNL     1       5.069  11.599   7.896  1.00  0.00     0.031 C 
ATOM     45  C   UNL     1      10.836   8.430   5.869  1.00  0.00     0.029 A 
ATOM     46  C   UNL     1      10.888   9.889   5.911  1.00  0.00     0.049 A 
ATOM     47  H   UNL     1       9.404  11.189   6.579  1.00  0.00     0.167 HD
ATOM     48  C   UNL     1       6.127  13.833   7.702  1.00  0.00     0.031 A 
ATOM     49  C   UNL     1      11.938  10.637   5.518  1.00  0.00     0.031 A 
ATOM     50  C   UNL     1       7.234  14.709   7.425  1.00  0.00     0.049 A 
ATOM     51  C   UNL     1      11.863  12.133   5.630  1.00  0.00     0.074 A 
ATOM     52  C   UNL     1       7.295  16.086   7.552  1.00  0.00     0.029 A 
ATOM     53  N   UNL     1       8.473  14.297   6.955  1.00  0.00    -0.354 N 
ATOM     54  N   UNL     1      10.861  12.877   6.034  1.00  0.00    -0.248 NA
ATOM     55  C   UNL     1      13.063  12.889   5.247  1.00  0.00     0.031 C 
ATOM     56  C   UNL     1       8.553  16.511   7.107  1.00  0.00     0.029 A 
ATOM     57  C   UNL     1       9.296  15.394   6.758  1.00  0.00     0.049 A 
ATOM     58  H   UNL     1       8.729  13.362   6.785  1.00  0.00     0.167 HD
ATOM     59  C   UNL     1      11.315  14.190   5.971  1.00  0.00     0.074 A 
ATOM     60  C   UNL     1      12.686  14.136   5.504  1.00  0.00     0.031 C 
ATOM     61  C   UNL     1      10.655  15.334   6.278  1.00  0.00     0.031 A 
BRANCH  48  62
ATOM     62  C   UNL     1       4.802  14.440   8.088  1.00  0.00    -0.014 A 
ATOM     63  C   UNL     1       4.272  14.274   9.381  1.00  0.00     0.010 A 
ATOM     64  C   UNL     1       4.071  15.180   7.141  1.00  0.00     0.010 A 
ATOM     65  C   UNL     1       3.004  14.771   9.697  1.00  0.00     0.020 A 
ATOM     66  C   UNL     1       2.816  15.706   7.462  1.00  0.00     0.020 A 
ATOM     67  C   UNL     1       2.278  15.471   8.729  1.00  0.00     0.054 A 
BRANCH  67  68
ATOM     68  S   UNL     1       0.621  16.075   9.150  1.00  0.00     0.124 S 
ATOM     69  O   UNL     1      -0.166  14.845   9.101  1.00  0.00    -0.237 OA
ATOM     70  O   UNL     1       0.812  16.644  10.482  1.00  0.00    -0.237 OA
ATOM     71  O   UNL     1       0.327  17.045   8.098  1.00  0.00    -0.744 OA
ENDBRANCH  67  68
ENDBRANCH  48  62
BRANCH  49  72
ATOM     72  C   UNL     1      13.156   9.959   4.998  1.00  0.00    -0.014 A 
ATOM     73  C   UNL     1      14.310   9.857   5.793  1.00  0.00     0.010 A 
ATOM     74  C   UNL     1      13.138   9.344   3.732  1.00  0.00     0.010 A 
ATOM     75  C   UNL     1      15.421   9.142   5.337  1.00  0.00     0.020 A 
ATOM     76  C   UNL     1      14.238   8.609   3.284  1.00  0.00     0.020 A 
ATOM     77  C   UNL     1      15.374   8.513   4.090  1.00  0.00     0.054 A 
BRANCH  77  78
ATOM     78  S   UNL     1      16.785   7.497   3.569  1.00  0.00     0.124 S 
ATOM     79  O   UNL     1      17.777   8.510   3.222  1.00  0.00    -0.237 OA
ATOM     80  O   UNL     1      17.071   6.715   4.769  1.00  0.00    -0.237 OA
ATOM     81  O   UNL     1      16.255   6.727   2.446  1.00  0.00    -0.744 OA
ENDBRANCH  77  78
ENDBRANCH  49  72
BRANCH  61  82
ATOM     82  C   UNL     1      11.408  16.630   6.138  1.00  0.00    -0.014 A 
ATOM     83  C   UNL     1      11.698  17.172   4.873  1.00  0.00     0.010 A 
ATOM     84  C   UNL     1      11.778  17.347   7.291  1.00  0.00     0.010 A 
ATOM     85  C   UNL     1      12.366  18.396   4.764  1.00  0.00     0.020 A 
ATOM     86  C   UNL     1      12.423  18.582   7.186  1.00  0.00     0.020 A 
ATOM     87  C   UNL     1      12.724  19.093   5.922  1.00  0.00     0.054 A 
BRANCH  87  88
ATOM     88  S   UNL     1      13.545  20.703   5.755  1.00  0.00     0.124 S 
ATOM     89  O   UNL     1      14.893  20.316   5.349  1.00  0.00    -0.237 OA
ATOM     90  O   UNL     1      12.745  21.367   4.729  1.00  0.00    -0.237 OA
ATOM     91  O   UNL     1      13.440  21.285   7.091  1.00  0.00    -0.744 OA
ENDBRANCH  87  88
ENDBRANCH  61  82
ENDBRANCH  35  36
ENDBRANCH  27  30
ENDBRANCH  25  26
ENDBRANCH  24  25
ENDBRANCH   1  24
TORSDOF 18
