REMARK SMILES O=C(COc1ccccc1/C=C1/SC(=S)N(c2ccc(F)c(Cl)c2)C1=O)NCCCCNC(=O)c1ccc(-c2c3nc(c(-c4ccc(S(=O)(=O)[O-])cc4)c4ccc([nH]4)c(-c4ccc(S(=O)(=O)[O-])cc4)c4nc(c(-c5ccc(S(=O)(=O)[O-])cc5)c5ccc2[nH]5)C=C4)C=C3)cc1
REMARK SMILES IDX 29 1 28 2 27 3 1 4 2 5 3 7 4 8 5 9 6 10 10 11 7 12 9 13 8 14
REMARK SMILES IDX 11 15 12 16 13 17 25 18 14 19 16 20 26 21 15 22 17 23 18 24
REMARK SMILES IDX 24 25 19 26 22 27 20 28 23 29 21 30 30 31 31 32 32 33 33 34
REMARK SMILES IDX 34 36 35 37 36 38 94 39 37 40 93 41 38 42 39 43 40 44 87 45
REMARK SMILES IDX 41 46 92 47 86 48 88 49 42 50 91 51 85 52 84 53 43 55 73 56
REMARK SMILES IDX 54 57 72 58 55 59 58 60 71 61 89 62 56 63 57 64 70 66 90 67
REMARK SMILES IDX 59 68 44 69 45 70 53 71 46 72 52 73 47 74 48 75 49 76 50 77
REMARK SMILES IDX 51 78 74 79 75 80 83 81 76 82 82 83 77 84 78 85 79 86 80 87
REMARK SMILES IDX 81 88 60 89 61 90 69 91 62 92 68 93 63 94 64 95 65 96 66 97
REMARK SMILES IDX 67 98
REMARK H PARENT 27 6 32 35 88 54 58 65
REMARK Flexibility Score: inf
ROOT
ATOM      1  C   UNL     1       2.694  -3.516  -1.817  1.00  0.00     0.023 C 
ENDROOT
BRANCH   1   2
ATOM      2  C   UNL     1       2.733  -2.463  -0.484  1.00  0.00     0.116 C 
BRANCH   2   3
ATOM      3  N   UNL     1       3.073  -0.391  -0.342  1.00  0.00    -0.353 N 
ATOM      4  O   UNL     1       1.743   1.521  -1.127  1.00  0.00    -0.271 OA
ATOM      5  C   UNL     1       2.610   1.016  -0.421  1.00  0.00     0.257 C 
ATOM      6  H   UNL     1       4.025  -0.319  -0.099  1.00  0.00     0.163 HD
BRANCH   5   7
ATOM      7  C   UNL     1       3.350   1.908   0.586  1.00  0.00     0.329 C 
BRANCH   7   8
ATOM      8  O   UNL     1       3.925   1.195   1.666  1.00  0.00    -0.483 OA
BRANCH   8   9
ATOM      9  C   UNL     1       3.149   1.036   2.793  1.00  0.00     0.127 A 
ATOM     10  C   UNL     1       3.782   1.496   3.953  1.00  0.00     0.047 A 
ATOM     11  C   UNL     1       1.951   0.281   2.889  1.00  0.00     0.018 A 
ATOM     12  C   UNL     1       3.252   1.216   5.209  1.00  0.00     0.004 A 
ATOM     13  C   UNL     1       1.436   0.008   4.166  1.00  0.00     0.012 A 
ATOM     14  C   UNL     1       2.088   0.461   5.316  1.00  0.00     0.001 A 
BRANCH  11  15
ATOM     15  C   UNL     1       1.216  -0.309   1.758  1.00  0.00     0.033 C 
ATOM     16  C   UNL     1       1.833  -1.169   0.927  1.00  0.00     0.081 C 
ATOM     17  S   UNL     1       1.208  -1.069  -1.269  1.00  0.00    -0.054 SA
ATOM     18  C   UNL     1       3.760  -1.546   1.089  1.00  0.00     0.270 C 
ATOM     19  C   UNL     1       3.432  -1.209  -2.002  1.00  0.00     0.152 C 
ATOM     20  N   UNL     1       4.512  -1.561  -0.576  1.00  0.00    -0.261 N 
ATOM     21  O   UNL     1       4.311  -1.803   2.150  1.00  0.00    -0.268 OA
ATOM     22  S   UNL     1       3.751  -0.783  -3.604  1.00  0.00    -0.051 S 
BRANCH  20  23
ATOM     23  C   UNL     1       5.946  -1.746  -0.651  1.00  0.00     0.052 A 
ATOM     24  C   UNL     1       6.635  -2.321   0.435  1.00  0.00     0.030 A 
ATOM     25  C   UNL     1       6.707  -1.384  -1.765  1.00  0.00     0.050 A 
ATOM     26  C   UNL     1       8.020  -2.516   0.420  1.00  0.00     0.043 A 
ATOM     27  C   UNL     1       8.099  -1.579  -1.785  1.00  0.00     0.078 A 
ATOM     28  C   UNL     1       8.749  -2.141  -0.694  1.00  0.00     0.141 A 
ATOM     29  Cl  UNL     1       8.995  -1.095  -3.173  1.00  0.00    -0.081 Cl
ATOM     30  F   UNL     1      10.075  -2.324  -0.691  1.00  0.00    -0.205 F 
ENDBRANCH  20  23
ENDBRANCH  11  15
ENDBRANCH   8   9
ENDBRANCH   7   8
ENDBRANCH   5   7
ENDBRANCH   2   3
ENDBRANCH   1   2
BRANCH   1  31
ATOM     31  C   UNL     1       4.005  -4.195  -2.237  1.00  0.00     0.023 C 
BRANCH  31  32
ATOM     32  C   UNL     1       4.697  -5.022  -1.164  1.00  0.00     0.116 C 
BRANCH  32  33
ATOM     33  N   UNL     1       4.073  -6.315  -0.957  1.00  0.00    -0.352 N 
ATOM     34  C   UNL     1       4.717  -7.530  -0.877  1.00  0.00     0.251 C 
ATOM     35  H   UNL     1       3.093  -6.325  -0.865  1.00  0.00     0.163 HD
ATOM     36  O   UNL     1       4.086  -8.580  -0.853  1.00  0.00    -0.269 OA
BRANCH  34  37
ATOM     37  C   UNL     1       6.195  -7.530  -0.854  1.00  0.00     0.039 A 
ATOM     38  C   UNL     1       6.893  -8.235  -1.834  1.00  0.00     0.014 A 
ATOM     39  C   UNL     1       6.874  -6.739   0.080  1.00  0.00     0.014 A 
ATOM     40  C   UNL     1       8.283  -8.120  -1.899  1.00  0.00     0.010 A 
ATOM     41  C   UNL     1       8.248  -6.561  -0.043  1.00  0.00     0.010 A 
ATOM     42  C   UNL     1       8.970  -7.268  -1.017  1.00  0.00    -0.014 A 
BRANCH  42  43
ATOM     43  C   UNL     1      10.451  -7.155  -1.058  1.00  0.00     0.031 A 
ATOM     44  C   UNL     1      11.262  -7.605   0.129  1.00  0.00     0.074 A 
ATOM     45  C   UNL     1      11.063  -6.624  -2.136  1.00  0.00     0.049 A 
ATOM     46  N   UNL     1      12.558  -7.576   0.303  1.00  0.00    -0.248 NA
ATOM     47  C   UNL     1      10.516  -8.129   1.286  1.00  0.00     0.031 C 
ATOM     48  C   UNL     1      10.387  -6.110  -3.330  1.00  0.00     0.029 A 
ATOM     49  N   UNL     1      12.396  -6.434  -2.403  1.00  0.00    -0.354 N 
ATOM     50  C   UNL     1      12.776  -8.050   1.592  1.00  0.00     0.074 A 
ATOM     51  C   UNL     1      11.480  -8.303   2.177  1.00  0.00     0.031 C 
ATOM     52  C   UNL     1      11.311  -5.703  -4.216  1.00  0.00     0.029 A 
ATOM     53  C   UNL     1      12.640  -5.892  -3.643  1.00  0.00     0.049 A 
ATOM     54  H   UNL     1      13.110  -6.665  -1.766  1.00  0.00     0.167 HD
ATOM     55  C   UNL     1      13.950  -8.282   2.225  1.00  0.00     0.031 A 
ATOM     56  C   UNL     1      13.804  -5.588  -4.252  1.00  0.00     0.031 A 
ATOM     57  C   UNL     1      15.239  -8.061   1.628  1.00  0.00     0.049 A 
ATOM     58  C   UNL     1      15.098  -5.867  -3.534  1.00  0.00     0.074 A 
ATOM     59  C   UNL     1      16.489  -8.329   2.156  1.00  0.00     0.029 A 
ATOM     60  N   UNL     1      15.442  -7.521   0.367  1.00  0.00    -0.354 N 
ATOM     61  N   UNL     1      15.286  -6.387  -2.343  1.00  0.00    -0.248 NA
ATOM     62  C   UNL     1      16.339  -5.532  -4.247  1.00  0.00     0.031 C 
ATOM     63  C   UNL     1      17.450  -7.904   1.234  1.00  0.00     0.029 A 
ATOM     64  C   UNL     1      16.797  -7.426   0.108  1.00  0.00     0.049 A 
ATOM     65  H   UNL     1      14.727  -7.246  -0.252  1.00  0.00     0.167 HD
ATOM     66  C   UNL     1      16.664  -6.465  -2.176  1.00  0.00     0.074 A 
ATOM     67  C   UNL     1      17.262  -5.956  -3.394  1.00  0.00     0.031 C 
ATOM     68  C   UNL     1      17.372  -6.919  -1.113  1.00  0.00     0.031 A 
BRANCH  55  69
ATOM     69  C   UNL     1      13.888  -8.801   3.638  1.00  0.00    -0.014 A 
ATOM     70  C   UNL     1      13.424 -10.099   3.919  1.00  0.00     0.010 A 
ATOM     71  C   UNL     1      14.323  -7.987   4.700  1.00  0.00     0.010 A 
ATOM     72  C   UNL     1      13.348 -10.555   5.238  1.00  0.00     0.020 A 
ATOM     73  C   UNL     1      14.278  -8.450   6.018  1.00  0.00     0.020 A 
ATOM     74  C   UNL     1      13.772  -9.725   6.280  1.00  0.00     0.054 A 
BRANCH  74  75
ATOM     75  S   UNL     1      13.678 -10.349   7.980  1.00  0.00     0.124 S 
ATOM     76  O   UNL     1      12.240 -10.305   8.236  1.00  0.00    -0.237 OA
ATOM     77  O   UNL     1      14.254 -11.686   7.864  1.00  0.00    -0.237 OA
ATOM     78  O   UNL     1      14.476  -9.394   8.745  1.00  0.00    -0.744 OA
ENDBRANCH  74  75
ENDBRANCH  55  69
BRANCH  56  79
ATOM     79  C   UNL     1      13.802  -5.019  -5.628  1.00  0.00    -0.014 A 
ATOM     80  C   UNL     1      14.254  -5.785  -6.718  1.00  0.00     0.010 A 
ATOM     81  C   UNL     1      13.339  -3.711  -5.861  1.00  0.00     0.010 A 
ATOM     82  C   UNL     1      14.261  -5.250  -8.009  1.00  0.00     0.020 A 
ATOM     83  C   UNL     1      13.319  -3.181  -7.156  1.00  0.00     0.020 A 
ATOM     84  C   UNL     1      13.791  -3.950  -8.221  1.00  0.00     0.054 A 
BRANCH  84  85
ATOM     85  S   UNL     1      13.764  -3.296  -9.913  1.00  0.00     0.124 S 
ATOM     86  O   UNL     1      15.180  -3.056 -10.170  1.00  0.00    -0.237 OA
ATOM     87  O   UNL     1      13.161  -4.393 -10.666  1.00  0.00    -0.237 OA
ATOM     88  O   UNL     1      12.934  -2.098  -9.803  1.00  0.00    -0.744 OA
ENDBRANCH  84  85
ENDBRANCH  56  79
BRANCH  68  89
ATOM     89  C   UNL     1      18.873  -6.920  -1.226  1.00  0.00    -0.014 A 
ATOM     90  C   UNL     1      19.609  -5.723  -1.181  1.00  0.00     0.010 A 
ATOM     91  C   UNL     1      19.560  -8.145  -1.312  1.00  0.00     0.010 A 
ATOM     92  C   UNL     1      21.004  -5.750  -1.251  1.00  0.00     0.020 A 
ATOM     93  C   UNL     1      20.956  -8.178  -1.353  1.00  0.00     0.020 A 
ATOM     94  C   UNL     1      21.669  -6.978  -1.336  1.00  0.00     0.054 A 
BRANCH  94  95
ATOM     95  S   UNL     1      23.482  -6.988  -1.376  1.00  0.00     0.124 S 
ATOM     96  O   UNL     1      23.758  -6.519  -2.731  1.00  0.00    -0.237 OA
ATOM     97  O   UNL     1      23.832  -6.059  -0.305  1.00  0.00    -0.237 OA
ATOM     98  O   UNL     1      23.826  -8.384  -1.118  1.00  0.00    -0.744 OA
ENDBRANCH  94  95
ENDBRANCH  68  89
ENDBRANCH  42  43
ENDBRANCH  34  37
ENDBRANCH  32  33
ENDBRANCH  31  32
ENDBRANCH   1  31
TORSDOF 18
