REMARK SMILES O=C(Nc1c(F)cc(F)cc1F)N[C@H]1C=C[C@@H](C(=O)NCCCCNC(=O)c2ccc(-c3c4nc(c(-c5ccc(S(=O)(=O)[O-])cc5)c5ccc([nH]5)c(-c5ccc(S(=O)(=O)[O-])cc5)c5nc(c(-c6ccc(S(=O)(=O)[O-])cc6)c6ccc3[nH]6)C=C5)C=C4)cc2)C1
REMARK SMILES IDX 23 1 22 2 21 3 20 4 18 5 19 6 17 8 14 9 15 10 88 11 16 12
REMARK SMILES IDX 13 13 1 14 2 15 3 16 4 19 5 20 11 21 6 22 7 23 10 24 12 25
REMARK SMILES IDX 8 26 9 27 24 28 25 29 26 30 27 32 28 33 29 34 87 35 30 36
REMARK SMILES IDX 86 37 31 38 32 39 33 40 80 41 34 42 85 43 79 44 81 45 35 46
REMARK SMILES IDX 84 47 78 48 77 49 36 51 66 52 47 53 65 54 48 55 51 56 64 57
REMARK SMILES IDX 82 58 49 59 50 60 63 62 83 63 52 64 37 65 38 66 46 67 39 68
REMARK SMILES IDX 45 69 40 70 41 71 42 72 43 73 44 74 67 75 68 76 76 77 69 78
REMARK SMILES IDX 75 79 70 80 71 81 72 82 73 83 74 84 53 85 54 86 62 87 55 88
REMARK SMILES IDX 61 89 56 90 57 91 58 92 59 93 60 94
REMARK H PARENT 20 7 3 17 13 18 25 31 81 50 51 61
REMARK Flexibility Score: inf
ROOT
ATOM      1  C   UNL     1       6.795   4.224  -0.035  1.00  0.00     0.023 C 
ENDROOT
BRANCH   1   2
ATOM      2  C   UNL     1       5.646   3.321   0.412  1.00  0.00     0.023 C 
BRANCH   2   3
ATOM      3  C   UNL     1       5.344   3.363   1.908  1.00  0.00     0.116 C 
BRANCH   3   4
ATOM      4  N   UNL     1       4.756   4.623   2.307  1.00  0.00    -0.356 N 
ATOM      5  C   UNL     1       3.516   4.913   2.787  1.00  0.00     0.227 C 
ATOM      6  O   UNL     1       3.294   6.090   3.094  1.00  0.00    -0.274 OA
ATOM      7  H   UNL     1       5.352   5.401   2.216  1.00  0.00     0.163 HD
BRANCH   5   8
ATOM      8  C   UNL     1       2.421   3.857   2.974  1.00  0.00     0.103 C 
ATOM      9  C   UNL     1       1.909   1.620   2.078  1.00  0.00     0.107 C 
ATOM     10  C   UNL     1       2.496   1.559   3.451  1.00  0.00    -0.006 C 
ATOM     11  C   UNL     1       1.994   3.111   1.703  1.00  0.00     0.047 C 
ATOM     12  C   UNL     1       2.784   2.771   3.939  1.00  0.00    -0.016 C 
BRANCH   9  13
ATOM     13  N   UNL     1       2.712   0.799   1.206  1.00  0.00    -0.332 N 
ATOM     14  O   UNL     1       1.033   0.311  -0.233  1.00  0.00    -0.248 OA
ATOM     15  C   UNL     1       2.223   0.251   0.071  1.00  0.00     0.319 C 
ATOM     16  N   UNL     1       3.094  -0.286  -0.822  1.00  0.00    -0.303 N 
ATOM     17  H   UNL     1       2.657  -0.556  -1.662  1.00  0.00     0.172 HD
ATOM     18  H   UNL     1       3.652   0.632   1.446  1.00  0.00     0.165 HD
BRANCH  16  19
ATOM     19  C   UNL     1       4.481  -0.546  -0.824  1.00  0.00     0.115 A 
ATOM     20  C   UNL     1       5.312  -0.663   0.294  1.00  0.00     0.152 A 
ATOM     21  C   UNL     1       5.073  -0.723  -2.084  1.00  0.00     0.152 A 
ATOM     22  F   UNL     1       4.823  -0.566   1.538  1.00  0.00    -0.204 F 
ATOM     23  C   UNL     1       6.677  -0.917   0.164  1.00  0.00     0.081 A 
ATOM     24  C   UNL     1       6.434  -0.958  -2.237  1.00  0.00     0.081 A 
ATOM     25  F   UNL     1       4.310  -0.636  -3.186  1.00  0.00    -0.204 F 
ATOM     26  C   UNL     1       7.225  -1.057  -1.104  1.00  0.00     0.129 A 
ATOM     27  F   UNL     1       8.530  -1.314  -1.236  1.00  0.00    -0.207 F 
ENDBRANCH  16  19
ENDBRANCH   9  13
ENDBRANCH   5   8
ENDBRANCH   3   4
ENDBRANCH   2   3
ENDBRANCH   1   2
BRANCH   1  28
ATOM     28  C   UNL     1       8.123   3.994   0.678  1.00  0.00     0.116 C 
BRANCH  28  29
ATOM     29  N   UNL     1       8.587   2.616   0.596  1.00  0.00    -0.352 N 
ATOM     30  C   UNL     1       9.855   2.147   0.351  1.00  0.00     0.251 C 
ATOM     31  H   UNL     1       7.898   1.927   0.734  1.00  0.00     0.163 HD
ATOM     32  O   UNL     1      10.049   0.941   0.229  1.00  0.00    -0.269 OA
BRANCH  30  33
ATOM     33  C   UNL     1      10.970   3.105   0.213  1.00  0.00     0.039 A 
ATOM     34  C   UNL     1      11.815   3.011  -0.896  1.00  0.00     0.014 A 
ATOM     35  C   UNL     1      11.157   4.112   1.163  1.00  0.00     0.014 A 
ATOM     36  C   UNL     1      12.809   3.974  -1.087  1.00  0.00     0.010 A 
ATOM     37  C   UNL     1      12.100   5.108   0.934  1.00  0.00     0.010 A 
ATOM     38  C   UNL     1      12.937   5.049  -0.192  1.00  0.00    -0.014 A 
BRANCH  38  39
ATOM     39  C   UNL     1      13.937   6.124  -0.408  1.00  0.00     0.031 A 
ATOM     40  C   UNL     1      15.051   6.325   0.583  1.00  0.00     0.074 A 
ATOM     41  C   UNL     1      13.800   6.966  -1.451  1.00  0.00     0.049 A 
ATOM     42  N   UNL     1      15.974   7.252   0.610  1.00  0.00    -0.248 NA
ATOM     43  C   UNL     1      15.119   5.375   1.705  1.00  0.00     0.031 C 
ATOM     44  C   UNL     1      12.740   6.900  -2.461  1.00  0.00     0.029 A 
ATOM     45  N   UNL     1      14.551   8.050  -1.831  1.00  0.00    -0.354 N 
ATOM     46  C   UNL     1      16.718   7.010   1.759  1.00  0.00     0.074 A 
ATOM     47  C   UNL     1      16.107   5.881   2.427  1.00  0.00     0.031 C 
ATOM     48  C   UNL     1      12.927   7.881  -3.358  1.00  0.00     0.029 A 
ATOM     49  C   UNL     1      14.090   8.671  -2.968  1.00  0.00     0.049 A 
ATOM     50  H   UNL     1      15.346   8.354  -1.336  1.00  0.00     0.167 HD
ATOM     51  C   UNL     1      17.822   7.654   2.208  1.00  0.00     0.031 A 
ATOM     52  C   UNL     1      14.549   9.756  -3.620  1.00  0.00     0.031 A 
ATOM     53  C   UNL     1      18.429   8.773   1.537  1.00  0.00     0.049 A 
ATOM     54  C   UNL     1      15.768  10.465  -3.098  1.00  0.00     0.074 A 
ATOM     55  C   UNL     1      19.577   9.464   1.882  1.00  0.00     0.029 A 
ATOM     56  N   UNL     1      17.936   9.366   0.385  1.00  0.00    -0.354 N 
ATOM     57  N   UNL     1      16.494  10.185  -2.042  1.00  0.00    -0.248 NA
ATOM     58  C   UNL     1      16.236  11.629  -3.862  1.00  0.00     0.031 C 
ATOM     59  C   UNL     1      19.751  10.506   0.965  1.00  0.00     0.029 A 
ATOM     60  C   UNL     1      18.743  10.429   0.016  1.00  0.00     0.049 A 
ATOM     61  H   UNL     1      17.130   9.075  -0.100  1.00  0.00     0.167 HD
ATOM     62  C   UNL     1      17.521  11.122  -2.029  1.00  0.00     0.074 A 
ATOM     63  C   UNL     1      17.328  11.969  -3.189  1.00  0.00     0.031 C 
ATOM     64  C   UNL     1      18.534  11.266  -1.139  1.00  0.00     0.031 A 
BRANCH  51  65
ATOM     65  C   UNL     1      18.428   7.165   3.498  1.00  0.00    -0.014 A 
ATOM     66  C   UNL     1      19.063   5.911   3.573  1.00  0.00     0.010 A 
ATOM     67  C   UNL     1      18.369   7.970   4.649  1.00  0.00     0.010 A 
ATOM     68  C   UNL     1      19.573   5.447   4.788  1.00  0.00     0.020 A 
ATOM     69  C   UNL     1      18.906   7.522   5.860  1.00  0.00     0.020 A 
ATOM     70  C   UNL     1      19.483   6.252   5.927  1.00  0.00     0.054 A 
BRANCH  70  71
ATOM     71  S   UNL     1      20.144   5.621   7.493  1.00  0.00     0.124 S 
ATOM     72  O   UNL     1      19.134   4.635   7.869  1.00  0.00    -0.237 OA
ATOM     73  O   UNL     1      21.439   5.073   7.098  1.00  0.00    -0.237 OA
ATOM     74  O   UNL     1      20.206   6.805   8.346  1.00  0.00    -0.744 OA
ENDBRANCH  70  71
ENDBRANCH  51  65
BRANCH  52  75
ATOM     75  C   UNL     1      13.865  10.217  -4.859  1.00  0.00    -0.014 A 
ATOM     76  C   UNL     1      14.470  10.032  -6.114  1.00  0.00     0.010 A 
ATOM     77  C   UNL     1      12.591  10.811  -4.794  1.00  0.00     0.010 A 
ATOM     78  C   UNL     1      13.817  10.436  -7.282  1.00  0.00     0.020 A 
ATOM     79  C   UNL     1      11.924  11.194  -5.962  1.00  0.00     0.020 A 
ATOM     80  C   UNL     1      12.545  11.010  -7.199  1.00  0.00     0.054 A 
BRANCH  80  81
ATOM     81  S   UNL     1      11.687  11.459  -8.734  1.00  0.00     0.124 S 
ATOM     82  O   UNL     1      12.417  12.651  -9.153  1.00  0.00    -0.237 OA
ATOM     83  O   UNL     1      11.883  10.272  -9.563  1.00  0.00    -0.237 OA
ATOM     84  O   UNL     1      10.310  11.686  -8.301  1.00  0.00    -0.744 OA
ENDBRANCH  80  81
ENDBRANCH  52  75
BRANCH  64  85
ATOM     85  C   UNL     1      19.533  12.362  -1.399  1.00  0.00    -0.014 A 
ATOM     86  C   UNL     1      19.201  13.714  -1.202  1.00  0.00     0.010 A 
ATOM     87  C   UNL     1      20.841  12.027  -1.793  1.00  0.00     0.010 A 
ATOM     88  C   UNL     1      20.152  14.713  -1.423  1.00  0.00     0.020 A 
ATOM     89  C   UNL     1      21.803  13.021  -1.988  1.00  0.00     0.020 A 
ATOM     90  C   UNL     1      21.448  14.360  -1.815  1.00  0.00     0.054 A 
BRANCH  90  91
ATOM     91  S   UNL     1      22.678  15.672  -2.050  1.00  0.00     0.124 S 
ATOM     92  O   UNL     1      22.254  16.262  -3.317  1.00  0.00    -0.237 OA
ATOM     93  O   UNL     1      22.483  16.510  -0.870  1.00  0.00    -0.237 OA
ATOM     94  O   UNL     1      23.948  14.952  -2.093  1.00  0.00    -0.744 OA
ENDBRANCH  90  91
ENDBRANCH  64  85
ENDBRANCH  38  39
ENDBRANCH  30  33
ENDBRANCH  28  29
ENDBRANCH   1  28
TORSDOF 16
