REMARK SMILES C[NH+]1CCC2(CC1)OC[C@@H](C(=O)NCCCCNC(=O)c1ccc(-c3c4nc(c(-c5ccc(S(=O)(=O)[O-])cc5)c5ccc([nH]5)c(-c5ccc(S(=O)(=O)[O-])cc5)c5nc(c(-c6ccc(S(=O)(=O)[O-])cc6)c6ccc3[nH]6)C=C5)C=C4)cc1)N2C(=O)c1ccc(C(C)(C)C)cc1
REMARK SMILES IDX 15 1 14 2 13 3 11 4 12 5 10 7 1 8 2 9 3 10 7 11 4 13 6 14
REMARK SMILES IDX 5 15 8 16 81 17 9 18 82 19 83 20 84 21 85 22 93 23 86 24
REMARK SMILES IDX 92 25 87 26 88 27 89 28 90 29 91 30 16 31 17 32 18 33 19 34
REMARK SMILES IDX 20 36 21 37 22 38 80 39 23 40 79 41 24 42 25 43 26 44 73 45
REMARK SMILES IDX 27 46 78 47 72 48 74 49 28 50 77 51 71 52 70 53 29 55 59 56
REMARK SMILES IDX 40 57 58 58 41 59 44 60 57 61 75 62 42 63 43 64 56 66 76 67
REMARK SMILES IDX 45 68 30 69 31 70 39 71 32 72 38 73 33 74 34 75 35 76 36 77
REMARK SMILES IDX 37 78 60 79 61 80 69 81 62 82 68 83 63 84 64 85 65 86 66 87
REMARK SMILES IDX 67 88 46 89 47 90 55 91 48 92 54 93 49 94 50 95 51 96 52 97
REMARK SMILES IDX 53 98
REMARK H PARENT 13 6 2 12 18 35 74 54 44 65
REMARK Flexibility Score: inf
ROOT
ATOM      1  C   UNL     1      -5.196  -1.171  -2.611  1.00  0.00     0.023 C 
ENDROOT
BRANCH   1   2
ATOM      2  C   UNL     1      -5.489  -0.855  -1.152  1.00  0.00     0.116 C 
BRANCH   2   3
ATOM      3  N   UNL     1      -5.889  -2.038  -0.430  1.00  0.00    -0.354 N 
ATOM      4  C   UNL     1      -5.177  -2.820   0.426  1.00  0.00     0.245 C 
ATOM      5  O   UNL     1      -5.810  -3.702   1.021  1.00  0.00    -0.273 OA
ATOM      6  H   UNL     1      -6.819  -2.324  -0.581  1.00  0.00     0.163 HD
BRANCH   4   7
ATOM      7  C   UNL     1      -3.740  -2.483   0.869  1.00  0.00     0.203 C 
ATOM      8  C   UNL     1       1.619   0.756   0.656  1.00  0.00     0.332 C 
ATOM      9  N   UNL     1       0.899  -0.272  -0.073  1.00  0.00    -0.337 N 
ATOM     10  C   UNL     1       0.522  -1.418   0.745  1.00  0.00     0.267 C 
ATOM     11  C   UNL     1      -0.163   0.255  -0.922  1.00  0.00     0.267 C 
ATOM     12  H   UNL     1       1.572  -0.661  -0.734  1.00  0.00     0.347 HD
ATOM     13  C   UNL     1      -0.817  -1.300   1.448  1.00  0.00     0.120 C 
ATOM     14  C   UNL     1      -1.577   0.292  -0.355  1.00  0.00     0.120 C 
ATOM     15  C   UNL     1      -1.980  -0.894   0.523  1.00  0.00     0.155 C 
ATOM     16  O   UNL     1      -2.978  -0.319   1.423  1.00  0.00    -0.352 OA
ATOM     17  N   UNL     1      -2.714  -2.028  -0.073  1.00  0.00    -0.295 N 
ATOM     18  C   UNL     1      -3.831  -1.369   1.894  1.00  0.00     0.198 C 
BRANCH  17  19
ATOM     19  C   UNL     1      -2.403  -2.929  -1.090  1.00  0.00     0.256 C 
ATOM     20  O   UNL     1      -2.986  -4.006  -1.206  1.00  0.00    -0.269 OA
BRANCH  19  21
ATOM     21  C   UNL     1      -1.386  -2.646  -2.112  1.00  0.00     0.040 A 
ATOM     22  C   UNL     1      -1.666  -1.834  -3.209  1.00  0.00     0.014 A 
ATOM     23  C   UNL     1      -0.161  -3.302  -2.053  1.00  0.00     0.014 A 
ATOM     24  C   UNL     1      -0.658  -1.520  -4.126  1.00  0.00     0.005 A 
ATOM     25  C   UNL     1       0.863  -2.946  -2.938  1.00  0.00     0.005 A 
ATOM     26  C   UNL     1       0.657  -1.977  -3.938  1.00  0.00    -0.043 A 
BRANCH  26  27
ATOM     27  C   UNL     1       1.819  -1.398  -4.762  1.00  0.00    -0.013 C 
ATOM     28  C   UNL     1       1.947  -2.180  -6.077  1.00  0.00     0.016 C 
ATOM     29  C   UNL     1       1.592   0.101  -5.084  1.00  0.00     0.016 C 
ATOM     30  C   UNL     1       3.165  -1.465  -4.002  1.00  0.00     0.016 C 
ENDBRANCH  26  27
ENDBRANCH  19  21
ENDBRANCH  17  19
ENDBRANCH   4   7
ENDBRANCH   2   3
ENDBRANCH   1   2
BRANCH   1  31
ATOM     31  C   UNL     1      -6.391  -1.601  -3.452  1.00  0.00     0.023 C 
BRANCH  31  32
ATOM     32  C   UNL     1      -7.583  -0.662  -3.412  1.00  0.00     0.116 C 
BRANCH  32  33
ATOM     33  N   UNL     1      -7.260   0.693  -3.834  1.00  0.00    -0.352 N 
ATOM     34  C   UNL     1      -7.957   1.508  -4.698  1.00  0.00     0.251 C 
ATOM     35  H   UNL     1      -6.437   1.077  -3.453  1.00  0.00     0.163 HD
ATOM     36  O   UNL     1      -7.493   2.585  -5.045  1.00  0.00    -0.269 OA
BRANCH  34  37
ATOM     37  C   UNL     1      -9.255   1.037  -5.228  1.00  0.00     0.039 A 
ATOM     38  C   UNL     1      -9.479   1.074  -6.605  1.00  0.00     0.014 A 
ATOM     39  C   UNL     1     -10.211   0.494  -4.366  1.00  0.00     0.014 A 
ATOM     40  C   UNL     1     -10.636   0.491  -7.127  1.00  0.00     0.010 A 
ATOM     41  C   UNL     1     -11.316  -0.161  -4.895  1.00  0.00     0.010 A 
ATOM     42  C   UNL     1     -11.542  -0.167  -6.280  1.00  0.00    -0.014 A 
BRANCH  42  43
ATOM     43  C   UNL     1     -12.743  -0.858  -6.810  1.00  0.00     0.031 A 
ATOM     44  C   UNL     1     -14.113  -0.383  -6.409  1.00  0.00     0.074 A 
ATOM     45  C   UNL     1     -12.605  -1.951  -7.586  1.00  0.00     0.049 A 
ATOM     46  N   UNL     1     -15.282  -0.899  -6.691  1.00  0.00    -0.248 NA
ATOM     47  C   UNL     1     -14.175   0.813  -5.553  1.00  0.00     0.031 C 
ATOM     48  C   UNL     1     -11.332  -2.532  -8.018  1.00  0.00     0.029 A 
ATOM     49  N   UNL     1     -13.551  -2.773  -8.146  1.00  0.00    -0.354 N 
ATOM     50  C   UNL     1     -16.212  -0.105  -6.031  1.00  0.00     0.074 A 
ATOM     51  C   UNL     1     -15.469   0.890  -5.289  1.00  0.00     0.031 C 
ATOM     52  C   UNL     1     -11.578  -3.591  -8.807  1.00  0.00     0.029 A 
ATOM     53  C   UNL     1     -13.020  -3.793  -8.900  1.00  0.00     0.049 A 
ATOM     54  H   UNL     1     -14.519  -2.644  -8.021  1.00  0.00     0.167 HD
ATOM     55  C   UNL     1     -17.564  -0.178  -6.058  1.00  0.00     0.031 A 
ATOM     56  C   UNL     1     -13.627  -4.779  -9.588  1.00  0.00     0.031 A 
ATOM     57  C   UNL     1     -18.301  -1.161  -6.805  1.00  0.00     0.049 A 
ATOM     58  C   UNL     1     -15.129  -4.855  -9.589  1.00  0.00     0.074 A 
ATOM     59  C   UNL     1     -19.671  -1.298  -6.932  1.00  0.00     0.029 A 
ATOM     60  N   UNL     1     -17.724  -2.177  -7.554  1.00  0.00    -0.354 N 
ATOM     61  N   UNL     1     -15.995  -4.068  -8.995  1.00  0.00    -0.248 NA
ATOM     62  C   UNL     1     -15.736  -5.949 -10.360  1.00  0.00     0.031 C 
ATOM     63  C   UNL     1     -19.924  -2.422  -7.726  1.00  0.00     0.029 A 
ATOM     64  C   UNL     1     -18.711  -2.954  -8.135  1.00  0.00     0.049 A 
ATOM     65  H   UNL     1     -16.756  -2.323  -7.657  1.00  0.00     0.167 HD
ATOM     66  C   UNL     1     -17.250  -4.553  -9.346  1.00  0.00     0.074 A 
ATOM     67  C   UNL     1     -17.030  -5.697 -10.208  1.00  0.00     0.031 C 
ATOM     68  C   UNL     1     -18.473  -4.088  -8.992  1.00  0.00     0.031 A 
BRANCH  55  69
ATOM     69  C   UNL     1     -18.320   0.838  -5.243  1.00  0.00    -0.014 A 
ATOM     70  C   UNL     1     -18.326   2.198  -5.606  1.00  0.00     0.010 A 
ATOM     71  C   UNL     1     -19.022   0.434  -4.094  1.00  0.00     0.010 A 
ATOM     72  C   UNL     1     -18.963   3.144  -4.800  1.00  0.00     0.020 A 
ATOM     73  C   UNL     1     -19.688   1.374  -3.300  1.00  0.00     0.020 A 
ATOM     74  C   UNL     1     -19.630   2.726  -3.645  1.00  0.00     0.054 A 
BRANCH  74  75
ATOM     75  S   UNL     1     -20.432   3.976  -2.603  1.00  0.00     0.124 S 
ATOM     76  O   UNL     1     -19.288   4.580  -1.925  1.00  0.00    -0.237 OA
ATOM     77  O   UNL     1     -21.103   4.829  -3.581  1.00  0.00    -0.237 OA
ATOM     78  O   UNL     1     -21.322   3.195  -1.748  1.00  0.00    -0.744 OA
ENDBRANCH  74  75
ENDBRANCH  55  69
BRANCH  56  79
ATOM     79  C   UNL     1     -12.812  -5.747 -10.370  1.00  0.00    -0.014 A 
ATOM     80  C   UNL     1     -12.788  -5.676 -11.774  1.00  0.00     0.010 A 
ATOM     81  C   UNL     1     -12.034  -6.724  -9.722  1.00  0.00     0.010 A 
ATOM     82  C   UNL     1     -12.010  -6.567 -12.517  1.00  0.00     0.020 A 
ATOM     83  C   UNL     1     -11.236  -7.603 -10.461  1.00  0.00     0.020 A 
ATOM     84  C   UNL     1     -11.235  -7.523 -11.855  1.00  0.00     0.054 A 
BRANCH  84  85
ATOM     85  S   UNL     1     -10.182  -8.627 -12.839  1.00  0.00     0.124 S 
ATOM     86  O   UNL     1     -11.160  -9.539 -13.423  1.00  0.00    -0.237 OA
ATOM     87  O   UNL     1      -9.542  -7.702 -13.772  1.00  0.00    -0.237 OA
ATOM     88  O   UNL     1      -9.286  -9.218 -11.848  1.00  0.00    -0.744 OA
ENDBRANCH  84  85
ENDBRANCH  56  79
BRANCH  68  89
ATOM     89  C   UNL     1     -19.674  -4.791  -9.566  1.00  0.00    -0.014 A 
ATOM     90  C   UNL     1     -20.071  -6.056  -9.100  1.00  0.00     0.010 A 
ATOM     91  C   UNL     1     -20.450  -4.143 -10.544  1.00  0.00     0.010 A 
ATOM     92  C   UNL     1     -21.212  -6.672  -9.621  1.00  0.00     0.020 A 
ATOM     93  C   UNL     1     -21.606  -4.744 -11.048  1.00  0.00     0.020 A 
ATOM     94  C   UNL     1     -21.973  -6.011 -10.591  1.00  0.00     0.054 A 
BRANCH  94  95
ATOM     95  S   UNL     1     -23.481  -6.806 -11.211  1.00  0.00     0.124 S 
ATOM     96  O   UNL     1     -22.940  -7.837 -12.093  1.00  0.00    -0.237 OA
ATOM     97  O   UNL     1     -24.114  -7.294  -9.988  1.00  0.00    -0.237 OA
ATOM     98  O   UNL     1     -24.193  -5.722 -11.883  1.00  0.00    -0.744 OA
ENDBRANCH  94  95
ENDBRANCH  68  89
ENDBRANCH  42  43
ENDBRANCH  34  37
ENDBRANCH  32  33
ENDBRANCH  31  32
ENDBRANCH   1  31
TORSDOF 17
