REMARK SMILES O=C(NCCCCNC(=O)[C@@H](Cc1ccc(O)cc1)Nc1c2ccccc2nc2ccccc12)c1ccc(-c2c3nc(c(-c4ccc(S(=O)(=O)[O-])cc4)c4ccc([nH]4)c(-c4ccc(S(=O)(=O)[O-])cc4)c4nc(c(-c5ccc(S(=O)(=O)[O-])cc5)c5ccc2[nH]5)C=C4)C=C3)cc1
REMARK SMILES IDX 5 1 4 2 3 3 1 4 2 5 35 7 36 8 94 9 37 10 93 11 38 12 39 13
REMARK SMILES IDX 40 14 87 15 41 16 92 17 86 18 88 19 42 20 91 21 85 22 84 23
REMARK SMILES IDX 43 25 73 26 54 27 72 28 55 29 58 30 71 31 89 32 56 33 57 34
REMARK SMILES IDX 70 36 90 37 59 38 44 39 45 40 53 41 46 42 52 43 47 44 48 45
REMARK SMILES IDX 49 46 50 47 51 48 74 49 75 50 83 51 76 52 82 53 77 54 78 55
REMARK SMILES IDX 79 56 80 57 81 58 60 59 61 60 69 61 62 62 68 63 63 64 64 65
REMARK SMILES IDX 65 66 66 67 67 68 6 69 7 70 8 71 9 72 10 74 11 75 12 76
REMARK SMILES IDX 13 77 14 78 19 79 15 80 18 81 16 82 17 83 20 85 21 87 22 88
REMARK SMILES IDX 34 89 23 90 27 91 29 92 33 93 24 94 26 95 28 96 30 97 32 98
REMARK SMILES IDX 25 99 31 100
REMARK H PARENT 3 6 88 24 58 35 8 73 17 84 20 86
REMARK Flexibility Score: inf
ROOT
ATOM      1  C   UNL     1       5.601   1.562  -1.062  1.00  0.00     0.023 C 
ENDROOT
BRANCH   1   2
ATOM      2  C   UNL     1       4.860   0.911   0.095  1.00  0.00     0.116 C 
BRANCH   2   3
ATOM      3  N   UNL     1       3.404   0.974  -0.009  1.00  0.00    -0.352 N 
ATOM      4  O   UNL     1       1.284   0.182  -0.041  1.00  0.00    -0.269 OA
ATOM      5  C   UNL     1       2.477  -0.034   0.148  1.00  0.00     0.251 C 
ATOM      6  H   UNL     1       3.032   1.860  -0.222  1.00  0.00     0.163 HD
BRANCH   5   7
ATOM      7  C   UNL     1       2.958  -1.385   0.507  1.00  0.00     0.039 A 
ATOM      8  C   UNL     1       3.923  -1.523   1.502  1.00  0.00     0.014 A 
ATOM      9  C   UNL     1       2.537  -2.496  -0.228  1.00  0.00     0.014 A 
ATOM     10  C   UNL     1       4.639  -2.704   1.588  1.00  0.00     0.010 A 
ATOM     11  C   UNL     1       3.164  -3.731  -0.030  1.00  0.00     0.010 A 
ATOM     12  C   UNL     1       4.259  -3.834   0.841  1.00  0.00    -0.014 A 
BRANCH  12  13
ATOM     13  C   UNL     1       5.011  -5.099   1.050  1.00  0.00     0.031 A 
ATOM     14  C   UNL     1       5.754  -5.778  -0.071  1.00  0.00     0.074 A 
ATOM     15  C   UNL     1       5.093  -5.584   2.307  1.00  0.00     0.049 A 
ATOM     16  N   UNL     1       6.493  -6.859  -0.023  1.00  0.00    -0.248 NA
ATOM     17  C   UNL     1       5.652  -5.187  -1.415  1.00  0.00     0.031 C 
ATOM     18  C   UNL     1       4.413  -5.010   3.475  1.00  0.00     0.029 A 
ATOM     19  N   UNL     1       5.819  -6.621   2.829  1.00  0.00    -0.354 N 
ATOM     20  C   UNL     1       6.905  -7.102  -1.329  1.00  0.00     0.074 A 
ATOM     21  C   UNL     1       6.334  -6.056  -2.150  1.00  0.00     0.031 C 
ATOM     22  C   UNL     1       4.840  -5.629   4.582  1.00  0.00     0.029 A 
ATOM     23  C   UNL     1       5.736  -6.711   4.199  1.00  0.00     0.049 A 
ATOM     24  H   UNL     1       6.348  -7.242   2.278  1.00  0.00     0.167 HD
ATOM     25  C   UNL     1       7.682  -8.109  -1.797  1.00  0.00     0.031 A 
ATOM     26  C   UNL     1       6.300  -7.577   5.060  1.00  0.00     0.031 A 
ATOM     27  C   UNL     1       8.267  -9.132  -0.968  1.00  0.00     0.049 A 
ATOM     28  C   UNL     1       7.164  -8.671   4.516  1.00  0.00     0.074 A 
ATOM     29  C   UNL     1       9.077 -10.190  -1.346  1.00  0.00     0.029 A 
ATOM     30  N   UNL     1       8.113  -9.221   0.408  1.00  0.00    -0.354 N 
ATOM     31  N   UNL     1       7.518  -8.893   3.273  1.00  0.00    -0.248 NA
ATOM     32  C   UNL     1       7.686  -9.642   5.484  1.00  0.00     0.031 C 
ATOM     33  C   UNL     1       9.381 -10.939  -0.203  1.00  0.00     0.029 A 
ATOM     34  C   UNL     1       8.799 -10.323   0.892  1.00  0.00     0.049 A 
ATOM     35  H   UNL     1       7.593  -8.593   0.960  1.00  0.00     0.167 HD
ATOM     36  C   UNL     1       8.295 -10.042   3.306  1.00  0.00     0.074 A 
ATOM     37  C   UNL     1       8.392 -10.443   4.697  1.00  0.00     0.031 C 
ATOM     38  C   UNL     1       8.865 -10.713   2.276  1.00  0.00     0.031 A 
BRANCH  25  39
ATOM     39  C   UNL     1       7.919  -8.184  -3.284  1.00  0.00    -0.014 A 
ATOM     40  C   UNL     1       8.804  -7.306  -3.932  1.00  0.00     0.010 A 
ATOM     41  C   UNL     1       7.289  -9.196  -4.034  1.00  0.00     0.010 A 
ATOM     42  C   UNL     1       9.033  -7.419  -5.308  1.00  0.00     0.020 A 
ATOM     43  C   UNL     1       7.531  -9.325  -5.405  1.00  0.00     0.020 A 
ATOM     44  C   UNL     1       8.392  -8.426  -6.037  1.00  0.00     0.054 A 
BRANCH  44  45
ATOM     45  S   UNL     1       8.728  -8.571  -7.814  1.00  0.00     0.124 S 
ATOM     46  O   UNL     1       7.954  -7.458  -8.358  1.00  0.00    -0.237 OA
ATOM     47  O   UNL     1      10.179  -8.418  -7.882  1.00  0.00    -0.237 OA
ATOM     48  O   UNL     1       8.229  -9.901  -8.154  1.00  0.00    -0.744 OA
ENDBRANCH  44  45
ENDBRANCH  25  39
BRANCH  26  49
ATOM     49  C   UNL     1       6.016  -7.454   6.514  1.00  0.00    -0.014 A 
ATOM     50  C   UNL     1       7.013  -7.027   7.407  1.00  0.00     0.010 A 
ATOM     51  C   UNL     1       4.721  -7.710   7.001  1.00  0.00     0.010 A 
ATOM     52  C   UNL     1       6.717  -6.857   8.763  1.00  0.00     0.020 A 
ATOM     53  C   UNL     1       4.414  -7.511   8.348  1.00  0.00     0.020 A 
ATOM     54  C   UNL     1       5.418  -7.095   9.224  1.00  0.00     0.054 A 
BRANCH  54  55
ATOM     55  S   UNL     1       5.027  -6.789  10.968  1.00  0.00     0.124 S 
ATOM     56  O   UNL     1       5.522  -8.004  11.606  1.00  0.00    -0.237 OA
ATOM     57  O   UNL     1       5.779  -5.570  11.256  1.00  0.00    -0.237 OA
ATOM     58  O   UNL     1       3.575  -6.626  10.965  1.00  0.00    -0.744 OA
ENDBRANCH  54  55
ENDBRANCH  26  49
BRANCH  38  59
ATOM     59  C   UNL     1       9.641 -11.950   2.628  1.00  0.00    -0.014 A 
ATOM     60  C   UNL     1       8.977 -13.138   2.982  1.00  0.00     0.010 A 
ATOM     61  C   UNL     1      11.046 -11.927   2.593  1.00  0.00     0.010 A 
ATOM     62  C   UNL     1       9.708 -14.274   3.334  1.00  0.00     0.020 A 
ATOM     63  C   UNL     1      11.779 -13.068   2.922  1.00  0.00     0.020 A 
ATOM     64  C   UNL     1      11.105 -14.230   3.308  1.00  0.00     0.054 A 
BRANCH  64  65
ATOM     65  S   UNL     1      12.036 -15.722   3.750  1.00  0.00     0.124 S 
ATOM     66  O   UNL     1      11.948 -15.712   5.207  1.00  0.00    -0.237 OA
ATOM     67  O   UNL     1      11.286 -16.782   3.081  1.00  0.00    -0.237 OA
ATOM     68  O   UNL     1      13.368 -15.470   3.203  1.00  0.00    -0.744 OA
ENDBRANCH  64  65
ENDBRANCH  38  59
ENDBRANCH  12  13
ENDBRANCH   5   7
ENDBRANCH   2   3
ENDBRANCH   1   2
BRANCH   1  69
ATOM     69  C   UNL     1       5.217   3.007  -1.310  1.00  0.00     0.023 C 
BRANCH  69  70
ATOM     70  C   UNL     1       5.537   3.977  -0.181  1.00  0.00     0.116 C 
BRANCH  70  71
ATOM     71  N   UNL     1       6.827   4.592  -0.382  1.00  0.00    -0.354 N 
ATOM     72  C   UNL     1       7.184   5.762  -0.978  1.00  0.00     0.242 C 
ATOM     73  H   UNL     1       7.584   4.073  -0.025  1.00  0.00     0.163 HD
ATOM     74  O   UNL     1       8.394   5.913  -1.190  1.00  0.00    -0.273 OA
BRANCH  72  75
ATOM     75  C   UNL     1       6.186   6.870  -1.402  1.00  0.00     0.173 C 
BRANCH  75  76
ATOM     76  C   UNL     1       5.444   6.593  -2.737  1.00  0.00     0.070 C 
BRANCH  76  77
ATOM     77  C   UNL     1       4.200   5.731  -2.828  1.00  0.00    -0.045 A 
ATOM     78  C   UNL     1       3.080   5.916  -2.005  1.00  0.00     0.007 A 
ATOM     79  C   UNL     1       4.122   4.751  -3.837  1.00  0.00     0.007 A 
ATOM     80  C   UNL     1       1.976   5.057  -2.088  1.00  0.00     0.046 A 
ATOM     81  C   UNL     1       3.013   3.906  -3.936  1.00  0.00     0.046 A 
ATOM     82  C   UNL     1       1.964   4.043  -3.038  1.00  0.00     0.115 A 
BRANCH  82  83
ATOM     83  O   UNL     1       0.943   3.146  -3.116  1.00  0.00    -0.508 OA
ATOM     84  H   UNL     1       0.218   3.209  -2.525  1.00  0.00     0.293 HD
ENDBRANCH  82  83
ENDBRANCH  76  77
ENDBRANCH  75  76
BRANCH  75  85
ATOM     85  N   UNL     1       5.313   7.332  -0.303  1.00  0.00    -0.372 N 
ATOM     86  H   UNL     1       4.461   6.866  -0.141  1.00  0.00     0.161 HD
BRANCH  85  87
ATOM     87  C   UNL     1       5.664   8.422   0.520  1.00  0.00     0.054 A 
ATOM     88  C   UNL     1       5.855   9.732  -0.012  1.00  0.00     0.024 A 
ATOM     89  C   UNL     1       5.848   8.213   1.922  1.00  0.00     0.024 A 
ATOM     90  C   UNL     1       5.663  10.097  -1.369  1.00  0.00     0.012 A 
ATOM     91  C   UNL     1       6.218  10.753   0.887  1.00  0.00     0.073 A 
ATOM     92  C   UNL     1       6.166   9.337   2.709  1.00  0.00     0.073 A 
ATOM     93  C   UNL     1       5.736   6.958   2.579  1.00  0.00     0.012 A 
ATOM     94  C   UNL     1       5.899  11.390  -1.833  1.00  0.00     0.001 A 
ATOM     95  C   UNL     1       6.436  12.040   0.411  1.00  0.00     0.029 A 
ATOM     96  N   UNL     1       6.352  10.560   2.203  1.00  0.00    -0.248 NA
ATOM     97  C   UNL     1       6.303   9.195   4.084  1.00  0.00     0.029 A 
ATOM     98  C   UNL     1       5.890   6.835   3.962  1.00  0.00     0.001 A 
ATOM     99  C   UNL     1       6.296  12.367  -0.937  1.00  0.00     0.002 A 
ATOM    100  C   UNL     1       6.163   7.962   4.719  1.00  0.00     0.002 A 
ENDBRANCH  85  87
ENDBRANCH  75  85
ENDBRANCH  72  75
ENDBRANCH  70  71
ENDBRANCH  69  70
ENDBRANCH   1  69
TORSDOF 19
