REMARK SMILES CC(C)Nc1ncc(C(=O)N2CCC[C@H](c3cccc(C(=O)NCCCCNC(=O)c4ccc(-c5c6nc(c(-c7ccc(S(=O)(=O)[O-])cc7)c7ccc([nH]7)c(-c7ccc(S(=O)(=O)[O-])cc7)c7nc(c(-c8ccc(S(=O)(=O)[O-])cc8)c8ccc5[nH]8)C=C7)C=C6)cc4)c3)C2)cn1
REMARK SMILES IDX 24 1 23 2 21 3 22 4 20 6 16 7 17 8 91 9 18 10 19 11 15 12
REMARK SMILES IDX 11 13 12 14 92 15 13 16 14 17 9 18 10 19 8 20 5 21 6 22
REMARK SMILES IDX 94 23 7 24 93 25 4 26 2 28 1 29 3 30 25 31 26 32 27 33 28 34
REMARK SMILES IDX 29 35 30 37 31 38 32 39 90 40 33 41 89 42 34 43 35 44 36 45
REMARK SMILES IDX 83 46 37 47 88 48 82 49 84 50 38 51 87 52 81 53 80 54 39 56
REMARK SMILES IDX 69 57 50 58 68 59 51 60 54 61 67 62 85 63 52 64 53 65 66 67
REMARK SMILES IDX 86 68 55 69 40 70 41 71 49 72 42 73 48 74 43 75 44 76 45 77
REMARK SMILES IDX 46 78 47 79 70 80 71 81 79 82 72 83 78 84 73 85 74 86 75 87
REMARK SMILES IDX 76 88 77 89 56 90 57 91 65 92 58 93 64 94 59 95 60 96 61 97
REMARK SMILES IDX 62 98 63 99
REMARK H PARENT 23 5 4 27 28 36 84 55 54 66
REMARK Flexibility Score: inf
ROOT
ATOM      1  C   UNL     1      -4.730   2.634 -11.176  1.00  0.00     0.116 C 
ENDROOT
BRANCH   1   2
ATOM      2  N   UNL     1      -4.029   1.681 -12.024  1.00  0.00    -0.352 N 
ATOM      3  C   UNL     1      -3.327   0.536 -11.709  1.00  0.00     0.251 C 
ATOM      4  O   UNL     1      -2.801  -0.113 -12.610  1.00  0.00    -0.269 OA
ATOM      5  H   UNL     1      -4.061   1.889 -12.986  1.00  0.00     0.163 HD
BRANCH   3   6
ATOM      6  C   UNL     1      -3.137   0.106 -10.299  1.00  0.00     0.040 A 
ATOM      7  C   UNL     1      -3.879   0.130  -7.963  1.00  0.00    -0.042 A 
ATOM      8  C   UNL     1      -2.616  -0.364  -7.602  1.00  0.00     0.004 A 
ATOM      9  C   UNL     1      -4.139   0.265  -9.337  1.00  0.00     0.018 A 
ATOM     10  C   UNL     1      -1.656  -0.681  -8.572  1.00  0.00     0.001 A 
ATOM     11  C   UNL     1      -1.905  -0.422  -9.918  1.00  0.00     0.014 A 
BRANCH   7  12
ATOM     12  C   UNL     1      -4.888   0.684  -6.947  1.00  0.00     0.039 C 
ATOM     13  N   UNL     1      -5.138  -1.203  -5.343  1.00  0.00    -0.338 N 
ATOM     14  C   UNL     1      -6.472  -1.542  -5.836  1.00  0.00     0.120 C 
ATOM     15  C   UNL     1      -4.723   0.198  -5.489  1.00  0.00     0.128 C 
ATOM     16  C   UNL     1      -6.749  -1.000  -7.233  1.00  0.00     0.022 C 
ATOM     17  C   UNL     1      -6.370   0.475  -7.330  1.00  0.00     0.012 C 
BRANCH  13  18
ATOM     18  C   UNL     1      -4.361  -2.201  -4.769  1.00  0.00     0.257 C 
ATOM     19  O   UNL     1      -4.503  -3.398  -4.997  1.00  0.00    -0.269 OA
BRANCH  18  20
ATOM     20  C   UNL     1      -3.381  -1.825  -3.744  1.00  0.00     0.076 A 
ATOM     21  C   UNL     1      -1.677  -1.309  -1.692  1.00  0.00     0.222 A 
ATOM     22  N   UNL     1      -2.899  -0.756  -1.653  1.00  0.00    -0.221 NA
ATOM     23  N   UNL     1      -1.247  -2.102  -2.686  1.00  0.00    -0.221 NA
ATOM     24  C   UNL     1      -3.728  -1.028  -2.680  1.00  0.00     0.130 A 
ATOM     25  C   UNL     1      -2.123  -2.370  -3.684  1.00  0.00     0.130 A 
BRANCH  21  26
ATOM     26  N   UNL     1      -0.882  -1.012  -0.625  1.00  0.00    -0.352 N 
ATOM     27  H   UNL     1      -1.308  -0.636   0.179  1.00  0.00     0.163 HD
BRANCH  26  28
ATOM     28  C   UNL     1       0.546  -1.215  -0.603  1.00  0.00     0.076 C 
ATOM     29  C   UNL     1       1.192   0.053  -0.042  1.00  0.00     0.030 C 
ATOM     30  C   UNL     1       0.887  -2.418   0.269  1.00  0.00     0.030 C 
ENDBRANCH  26  28
ENDBRANCH  21  26
ENDBRANCH  18  20
ENDBRANCH  13  18
ENDBRANCH   7  12
ENDBRANCH   3   6
ENDBRANCH   1   2
BRANCH   1  31
ATOM     31  C   UNL     1      -4.386   4.094 -11.430  1.00  0.00     0.023 C 
BRANCH  31  32
ATOM     32  C   UNL     1      -4.721   4.638 -12.810  1.00  0.00     0.023 C 
BRANCH  32  33
ATOM     33  C   UNL     1      -6.127   4.351 -13.322  1.00  0.00     0.116 C 
BRANCH  33  34
ATOM     34  N   UNL     1      -7.188   4.817 -12.440  1.00  0.00    -0.352 N 
ATOM     35  C   UNL     1      -8.305   5.567 -12.739  1.00  0.00     0.251 C 
ATOM     36  H   UNL     1      -7.093   4.560 -11.495  1.00  0.00     0.163 HD
ATOM     37  O   UNL     1      -9.066   5.917 -11.845  1.00  0.00    -0.269 OA
BRANCH  35  38
ATOM     38  C   UNL     1      -8.549   5.987 -14.137  1.00  0.00     0.039 A 
ATOM     39  C   UNL     1      -8.808   7.335 -14.399  1.00  0.00     0.014 A 
ATOM     40  C   UNL     1      -8.462   5.070 -15.186  1.00  0.00     0.014 A 
ATOM     41  C   UNL     1      -8.877   7.780 -15.721  1.00  0.00     0.010 A 
ATOM     42  C   UNL     1      -8.452   5.527 -16.500  1.00  0.00     0.010 A 
ATOM     43  C   UNL     1      -8.646   6.889 -16.782  1.00  0.00    -0.014 A 
BRANCH  43  44
ATOM     44  C   UNL     1      -8.577   7.356 -18.191  1.00  0.00     0.031 A 
ATOM     45  C   UNL     1      -9.569   6.849 -19.202  1.00  0.00     0.074 A 
ATOM     46  C   UNL     1      -7.567   8.160 -18.581  1.00  0.00     0.049 A 
ATOM     47  N   UNL     1      -9.605   7.053 -20.494  1.00  0.00    -0.248 NA
ATOM     48  C   UNL     1     -10.641   5.975 -18.699  1.00  0.00     0.031 C 
ATOM     49  C   UNL     1      -6.510   8.682 -17.710  1.00  0.00     0.029 A 
ATOM     50  N   UNL     1      -7.254   8.667 -19.818  1.00  0.00    -0.354 N 
ATOM     51  C   UNL     1     -10.683   6.311 -20.962  1.00  0.00     0.074 A 
ATOM     52  C   UNL     1     -11.249   5.622 -19.822  1.00  0.00     0.031 C 
ATOM     53  C   UNL     1      -5.680   9.450 -18.435  1.00  0.00     0.029 A 
ATOM     54  C   UNL     1      -6.119   9.445 -19.826  1.00  0.00     0.049 A 
ATOM     55  H   UNL     1      -7.792   8.491 -20.623  1.00  0.00     0.167 HD
ATOM     56  C   UNL     1     -11.169   6.223 -22.223  1.00  0.00     0.031 A 
ATOM     57  C   UNL     1      -5.495  10.075 -20.840  1.00  0.00     0.031 A 
ATOM     58  C   UNL     1     -10.622   6.928 -23.350  1.00  0.00     0.049 A 
ATOM     59  C   UNL     1      -6.065   9.980 -22.228  1.00  0.00     0.074 A 
ATOM     60  C   UNL     1     -11.083   6.952 -24.655  1.00  0.00     0.029 A 
ATOM     61  N   UNL     1      -9.496   7.735 -23.308  1.00  0.00    -0.354 N 
ATOM     62  N   UNL     1      -7.122   9.321 -22.639  1.00  0.00    -0.248 NA
ATOM     63  C   UNL     1      -5.365  10.721 -23.287  1.00  0.00     0.031 C 
ATOM     64  C   UNL     1     -10.214   7.747 -25.410  1.00  0.00     0.029 A 
ATOM     65  C   UNL     1      -9.239   8.253 -24.565  1.00  0.00     0.049 A 
ATOM     66  H   UNL     1      -8.959   7.914 -22.502  1.00  0.00     0.167 HD
ATOM     67  C   UNL     1      -7.229   9.590 -23.999  1.00  0.00     0.074 A 
ATOM     68  C   UNL     1      -6.136  10.478 -24.339  1.00  0.00     0.031 C 
ATOM     69  C   UNL     1      -8.152   9.142 -24.885  1.00  0.00     0.031 A 
BRANCH  56  70
ATOM     70  C   UNL     1     -12.358   5.327 -22.445  1.00  0.00    -0.014 A 
ATOM     71  C   UNL     1     -13.632   5.682 -21.966  1.00  0.00     0.010 A 
ATOM     72  C   UNL     1     -12.205   4.127 -23.164  1.00  0.00     0.010 A 
ATOM     73  C   UNL     1     -14.723   4.832 -22.162  1.00  0.00     0.020 A 
ATOM     74  C   UNL     1     -13.300   3.287 -23.385  1.00  0.00     0.020 A 
ATOM     75  C   UNL     1     -14.548   3.636 -22.865  1.00  0.00     0.054 A 
BRANCH  75  76
ATOM     76  S   UNL     1     -15.984   2.556 -23.116  1.00  0.00     0.124 S 
ATOM     77  O   UNL     1     -16.134   1.947 -21.797  1.00  0.00    -0.237 OA
ATOM     78  O   UNL     1     -17.034   3.498 -23.495  1.00  0.00    -0.237 OA
ATOM     79  O   UNL     1     -15.553   1.648 -24.177  1.00  0.00    -0.744 OA
ENDBRANCH  75  76
ENDBRANCH  56  70
BRANCH  57  80
ATOM     80  C   UNL     1      -4.266  10.872 -20.575  1.00  0.00    -0.014 A 
ATOM     81  C   UNL     1      -4.312  12.277 -20.600  1.00  0.00     0.010 A 
ATOM     82  C   UNL     1      -3.049  10.232 -20.279  1.00  0.00     0.010 A 
ATOM     83  C   UNL     1      -3.160  13.028 -20.349  1.00  0.00     0.020 A 
ATOM     84  C   UNL     1      -1.901  10.980 -20.004  1.00  0.00     0.020 A 
ATOM     85  C   UNL     1      -1.961  12.374 -20.051  1.00  0.00     0.054 A 
BRANCH  85  86
ATOM     86  S   UNL     1      -0.491  13.368 -19.670  1.00  0.00     0.124 S 
ATOM     87  O   UNL     1      -0.076  13.815 -20.996  1.00  0.00    -0.237 OA
ATOM     88  O   UNL     1      -1.028  14.405 -18.792  1.00  0.00    -0.237 OA
ATOM     89  O   UNL     1       0.404  12.415 -19.019  1.00  0.00    -0.744 OA
ENDBRANCH  85  86
ENDBRANCH  57  80
BRANCH  69  90
ATOM     90  C   UNL     1      -8.048   9.633 -26.303  1.00  0.00    -0.014 A 
ATOM     91  C   UNL     1      -7.065   9.135 -27.175  1.00  0.00     0.010 A 
ATOM     92  C   UNL     1      -8.992  10.559 -26.785  1.00  0.00     0.010 A 
ATOM     93  C   UNL     1      -7.016   9.570 -28.502  1.00  0.00     0.020 A 
ATOM     94  C   UNL     1      -8.958  10.979 -28.116  1.00  0.00     0.020 A 
ATOM     95  C   UNL     1      -7.963  10.489 -28.965  1.00  0.00     0.054 A 
BRANCH  95  96
ATOM     96  S   UNL     1      -7.914  10.997 -30.706  1.00  0.00     0.124 S 
ATOM     97  O   UNL     1      -6.793  11.932 -30.718  1.00  0.00    -0.237 OA
ATOM     98  O   UNL     1      -7.687   9.733 -31.404  1.00  0.00    -0.237 OA
ATOM     99  O   UNL     1      -9.229  11.595 -30.928  1.00  0.00    -0.744 OA
ENDBRANCH  95  96
ENDBRANCH  69  90
ENDBRANCH  43  44
ENDBRANCH  35  38
ENDBRANCH  33  34
ENDBRANCH  32  33
ENDBRANCH  31  32
ENDBRANCH   1  31
TORSDOF 19
