REMARK SMILES CCOc1ccc(NC(=O)Nc2cccc(C(=O)NCCCCNC(=O)c3ccc(-c4c5nc(c(-c6ccc(S(=O)(=O)[O-])cc6)c6ccc([nH]6)c(-c6ccc(S(=O)(=O)[O-])cc6)c6nc(c(-c7ccc(S(=O)(=O)[O-])cc7)c7ccc4[nH]7)C=C6)C=C5)cc3)c2)cc1
REMARK SMILES IDX 21 1 20 2 19 3 17 4 18 5 16 7 12 8 13 9 87 10 14 11 15 12
REMARK SMILES IDX 11 13 8 14 9 15 10 17 7 19 4 20 5 21 89 22 6 23 88 24 3 25
REMARK SMILES IDX 2 26 1 27 22 28 23 29 24 30 25 31 26 33 27 34 28 35 86 36
REMARK SMILES IDX 29 37 85 38 30 39 31 40 32 41 79 42 33 43 84 44 78 45 80 46
REMARK SMILES IDX 34 47 83 48 77 49 76 50 35 52 65 53 46 54 64 55 47 56 50 57
REMARK SMILES IDX 63 58 81 59 48 60 49 61 62 63 82 64 51 65 36 66 37 67 45 68
REMARK SMILES IDX 38 69 44 70 39 71 40 72 41 73 42 74 43 75 66 76 67 77 75 78
REMARK SMILES IDX 68 79 74 80 69 81 70 82 71 83 72 84 73 85 52 86 53 87 61 88
REMARK SMILES IDX 54 89 60 90 55 91 56 92 57 93 58 94 59 95
REMARK H PARENT 19 6 8 16 11 18 24 32 80 51 50 62
REMARK Flexibility Score: inf
ROOT
ATOM      1  C   UNL     1       5.610  -0.672   4.259  1.00  0.00     0.023 C 
ENDROOT
BRANCH   1   2
ATOM      2  C   UNL     1       4.520  -0.174   3.314  1.00  0.00     0.116 C 
BRANCH   2   3
ATOM      3  N   UNL     1       3.251  -0.047   3.993  1.00  0.00    -0.352 N 
ATOM      4  C   UNL     1       2.616   1.004   4.603  1.00  0.00     0.251 C 
ATOM      5  O   UNL     1       1.496   0.771   5.064  1.00  0.00    -0.269 OA
ATOM      6  H   UNL     1       2.737  -0.886   4.023  1.00  0.00     0.163 HD
BRANCH   4   7
ATOM      7  C   UNL     1       3.156   2.396   4.703  1.00  0.00     0.041 A 
ATOM      8  C   UNL     1       4.818   4.138   4.377  1.00  0.00     0.043 A 
ATOM      9  C   UNL     1       3.922   5.109   4.823  1.00  0.00     0.026 A 
ATOM     10  C   UNL     1       4.470   2.785   4.433  1.00  0.00     0.040 A 
ATOM     11  C   UNL     1       2.623   4.739   5.156  1.00  0.00     0.003 A 
ATOM     12  C   UNL     1       2.237   3.399   5.062  1.00  0.00     0.014 A 
BRANCH   8  13
ATOM     13  N   UNL     1       6.023   4.577   3.803  1.00  0.00    -0.308 N 
ATOM     14  N   UNL     1       6.317   3.221   1.852  1.00  0.00    -0.308 N 
ATOM     15  C   UNL     1       6.796   4.030   2.832  1.00  0.00     0.323 C 
ATOM     16  H   UNL     1       7.013   2.660   1.442  1.00  0.00     0.171 HD
ATOM     17  O   UNL     1       8.001   4.298   2.825  1.00  0.00    -0.248 OA
ATOM     18  H   UNL     1       6.364   5.426   4.168  1.00  0.00     0.171 HD
BRANCH  14  19
ATOM     19  C   UNL     1       5.039   3.010   1.294  1.00  0.00     0.043 A 
ATOM     20  C   UNL     1       2.475   2.215   0.483  1.00  0.00     0.119 A 
ATOM     21  C   UNL     1       2.661   3.447   1.099  1.00  0.00     0.048 A 
ATOM     22  C   UNL     1       3.581   1.450   0.130  1.00  0.00     0.048 A 
ATOM     23  C   UNL     1       3.946   3.853   1.480  1.00  0.00     0.030 A 
ATOM     24  C   UNL     1       4.862   1.854   0.522  1.00  0.00     0.030 A 
BRANCH  20  25
ATOM     25  O   UNL     1       1.196   1.849   0.176  1.00  0.00    -0.494 OA
BRANCH  25  26
ATOM     26  C   UNL     1       0.807   0.584   0.731  1.00  0.00     0.226 C 
ATOM     27  C   UNL     1       0.676  -0.451  -0.374  1.00  0.00     0.049 C 
ENDBRANCH  25  26
ENDBRANCH  20  25
ENDBRANCH  14  19
ENDBRANCH   8  13
ENDBRANCH   4   7
ENDBRANCH   2   3
ENDBRANCH   1   2
BRANCH   1  28
ATOM     28  C   UNL     1       5.678  -2.196   4.334  1.00  0.00     0.023 C 
BRANCH  28  29
ATOM     29  C   UNL     1       6.127  -2.869   3.040  1.00  0.00     0.116 C 
BRANCH  29  30
ATOM     30  N   UNL     1       7.471  -2.487   2.631  1.00  0.00    -0.352 N 
ATOM     31  C   UNL     1       8.442  -3.280   2.062  1.00  0.00     0.251 C 
ATOM     32  H   UNL     1       7.715  -1.545   2.780  1.00  0.00     0.163 HD
ATOM     33  O   UNL     1       9.567  -2.846   1.868  1.00  0.00    -0.269 OA
BRANCH  31  34
ATOM     34  C   UNL     1       8.102  -4.679   1.729  1.00  0.00     0.039 A 
ATOM     35  C   UNL     1       8.898  -5.706   2.239  1.00  0.00     0.014 A 
ATOM     36  C   UNL     1       6.961  -4.967   0.976  1.00  0.00     0.014 A 
ATOM     37  C   UNL     1       8.510  -7.033   2.048  1.00  0.00     0.010 A 
ATOM     38  C   UNL     1       6.540  -6.285   0.847  1.00  0.00     0.010 A 
ATOM     39  C   UNL     1       7.310  -7.331   1.381  1.00  0.00    -0.014 A 
BRANCH  39  40
ATOM     40  C   UNL     1       6.841  -8.730   1.224  1.00  0.00     0.031 A 
ATOM     41  C   UNL     1       6.724  -9.329  -0.152  1.00  0.00     0.074 A 
ATOM     42  C   UNL     1       6.454  -9.434   2.306  1.00  0.00     0.049 A 
ATOM     43  N   UNL     1       6.260 -10.499  -0.504  1.00  0.00    -0.248 NA
ATOM     44  C   UNL     1       7.159  -8.490  -1.281  1.00  0.00     0.031 C 
ATOM     45  C   UNL     1       6.480  -8.950   3.689  1.00  0.00     0.029 A 
ATOM     46  N   UNL     1       5.953 -10.708   2.411  1.00  0.00    -0.354 N 
ATOM     47  C   UNL     1       6.327 -10.529  -1.892  1.00  0.00     0.074 A 
ATOM     48  C   UNL     1       6.831  -9.243  -2.320  1.00  0.00     0.031 C 
ATOM     49  C   UNL     1       6.037  -9.922   4.504  1.00  0.00     0.029 A 
ATOM     50  C   UNL     1       5.661 -11.082   3.702  1.00  0.00     0.049 A 
ATOM     51  H   UNL     1       5.815 -11.298   1.635  1.00  0.00     0.167 HD
ATOM     52  C   UNL     1       6.016 -11.543  -2.734  1.00  0.00     0.031 A 
ATOM     53  C   UNL     1       5.144 -12.229   4.185  1.00  0.00     0.031 A 
ATOM     54  C   UNL     1       5.537 -12.828  -2.304  1.00  0.00     0.049 A 
ATOM     55  C   UNL     1       4.813 -13.343   3.230  1.00  0.00     0.074 A 
ATOM     56  C   UNL     1       5.249 -13.941  -3.075  1.00  0.00     0.029 A 
ATOM     57  N   UNL     1       5.281 -13.176  -0.986  1.00  0.00    -0.354 N 
ATOM     58  N   UNL     1       4.940 -13.373   1.924  1.00  0.00    -0.248 NA
ATOM     59  C   UNL     1       4.281 -14.582   3.813  1.00  0.00     0.031 C 
ATOM     60  C   UNL     1       4.777 -14.948  -2.227  1.00  0.00     0.029 A 
ATOM     61  C   UNL     1       4.822 -14.480  -0.923  1.00  0.00     0.049 A 
ATOM     62  H   UNL     1       5.406 -12.583  -0.210  1.00  0.00     0.167 HD
ATOM     63  C   UNL     1       4.532 -14.644   1.534  1.00  0.00     0.074 A 
ATOM     64  C   UNL     1       4.166 -15.355   2.742  1.00  0.00     0.031 C 
ATOM     65  C   UNL     1       4.470 -15.175   0.288  1.00  0.00     0.031 A 
BRANCH  52  66
ATOM     66  C   UNL     1       6.188 -11.298  -4.209  1.00  0.00    -0.014 A 
ATOM     67  C   UNL     1       7.468 -11.187  -4.782  1.00  0.00     0.010 A 
ATOM     68  C   UNL     1       5.056 -11.215  -5.040  1.00  0.00     0.010 A 
ATOM     69  C   UNL     1       7.613 -10.957  -6.152  1.00  0.00     0.020 A 
ATOM     70  C   UNL     1       5.197 -11.013  -6.416  1.00  0.00     0.020 A 
ATOM     71  C   UNL     1       6.476 -10.868  -6.960  1.00  0.00     0.054 A 
BRANCH  71  72
ATOM     72  S   UNL     1       6.694 -10.593  -8.739  1.00  0.00     0.124 S 
ATOM     73  O   UNL     1       7.077  -9.184  -8.780  1.00  0.00    -0.237 OA
ATOM     74  O   UNL     1       7.750 -11.541  -9.084  1.00  0.00    -0.237 OA
ATOM     75  O   UNL     1       5.380 -10.897  -9.301  1.00  0.00    -0.744 OA
ENDBRANCH  71  72
ENDBRANCH  52  66
BRANCH  53  76
ATOM     76  C   UNL     1       4.921 -12.389   5.648  1.00  0.00    -0.014 A 
ATOM     77  C   UNL     1       5.732 -13.258   6.401  1.00  0.00     0.010 A 
ATOM     78  C   UNL     1       3.899 -11.675   6.298  1.00  0.00     0.010 A 
ATOM     79  C   UNL     1       5.509 -13.427   7.770  1.00  0.00     0.020 A 
ATOM     80  C   UNL     1       3.690 -11.821   7.672  1.00  0.00     0.020 A 
ATOM     81  C   UNL     1       4.488 -12.708   8.397  1.00  0.00     0.054 A 
BRANCH  81  82
ATOM     82  S   UNL     1       4.242 -12.912  10.184  1.00  0.00     0.124 S 
ATOM     83  O   UNL     1       3.595 -14.218  10.253  1.00  0.00    -0.237 OA
ATOM     84  O   UNL     1       5.607 -12.852  10.700  1.00  0.00    -0.237 OA
ATOM     85  O   UNL     1       3.399 -11.773  10.543  1.00  0.00    -0.744 OA
ENDBRANCH  81  82
ENDBRANCH  53  76
BRANCH  65  86
ATOM     86  C   UNL     1       4.027 -16.608   0.167  1.00  0.00    -0.014 A 
ATOM     87  C   UNL     1       2.683 -16.974   0.348  1.00  0.00     0.010 A 
ATOM     88  C   UNL     1       4.965 -17.591  -0.198  1.00  0.00     0.010 A 
ATOM     89  C   UNL     1       2.288 -18.306   0.193  1.00  0.00     0.020 A 
ATOM     90  C   UNL     1       4.570 -18.919  -0.379  1.00  0.00     0.020 A 
ATOM     91  C   UNL     1       3.235 -19.270  -0.170  1.00  0.00     0.054 A 
BRANCH  91  92
ATOM     92  S   UNL     1       2.689 -20.982  -0.415  1.00  0.00     0.124 S 
ATOM     93  O   UNL     1       2.498 -21.439   0.959  1.00  0.00    -0.237 OA
ATOM     94  O   UNL     1       1.468 -20.821  -1.200  1.00  0.00    -0.237 OA
ATOM     95  O   UNL     1       3.804 -21.602  -1.129  1.00  0.00    -0.744 OA
ENDBRANCH  91  92
ENDBRANCH  65  86
ENDBRANCH  39  40
ENDBRANCH  31  34
ENDBRANCH  29  30
ENDBRANCH  28  29
ENDBRANCH   1  28
TORSDOF 18
