REMARK SMILES COCCN(CC(=O)NCCCCNC(=O)c1ccc(-c2c3nc(c(-c4ccc(S(=O)(=O)[O-])cc4)c4ccc([nH]4)c(-c4ccc(S(=O)(=O)[O-])cc4)c4nc(c(-c5ccc(S(=O)(=O)[O-])cc5)c5ccc2[nH]5)C=C4)C=C3)cc1)C(=O)N1CCC[C@@H]1C
REMARK SMILES IDX 11 1 10 2 9 3 7 4 8 5 6 7 5 8 4 9 3 10 2 11 1 12 77 13 78 14
REMARK SMILES IDX 79 15 80 16 83 17 81 18 82 19 84 20 12 21 13 22 14 23 15 24
REMARK SMILES IDX 16 26 17 27 18 28 76 29 19 30 75 31 20 32 21 33 22 34 69 35
REMARK SMILES IDX 23 36 74 37 68 38 70 39 24 40 73 41 67 42 66 43 25 45 55 46
REMARK SMILES IDX 36 47 54 48 37 49 40 50 53 51 71 52 38 53 39 54 52 56 72 57
REMARK SMILES IDX 41 58 26 59 27 60 35 61 28 62 34 63 29 64 30 65 31 66 32 67
REMARK SMILES IDX 33 68 56 69 57 70 65 71 58 72 64 73 59 74 60 75 61 76 62 77
REMARK SMILES IDX 63 78 42 79 43 80 51 81 44 82 50 83 45 84 46 85 47 86 48 87
REMARK SMILES IDX 49 88
REMARK H PARENT 9 6 14 25 70 44 40 55
REMARK Flexibility Score: inf
ROOT
ATOM      1  C   UNL     1      -1.938   3.801   1.609  1.00  0.00     0.023 C 
ENDROOT
BRANCH   1   2
ATOM      2  C   UNL     1      -0.792   4.808   1.592  1.00  0.00     0.116 C 
BRANCH   2   3
ATOM      3  N   UNL     1       0.147   4.664   2.680  1.00  0.00    -0.355 N 
ATOM      4  C   UNL     1       1.385   4.096   2.676  1.00  0.00     0.239 C 
ATOM      5  O   UNL     1       2.182   4.503   3.531  1.00  0.00    -0.273 OA
ATOM      6  H   UNL     1      -0.150   5.027   3.546  1.00  0.00     0.163 HD
BRANCH   4   7
ATOM      7  C   UNL     1       1.861   3.111   1.589  1.00  0.00     0.221 C 
BRANCH   7   8
ATOM      8  N   UNL     1       0.906   2.114   1.098  1.00  0.00    -0.313 N 
BRANCH   8   9
ATOM      9  C   UNL     1       0.450   2.251  -0.300  1.00  0.00     0.150 C 
BRANCH   9  10
ATOM     10  C   UNL     1       1.357   1.590  -1.355  1.00  0.00     0.181 C 
BRANCH  10  11
ATOM     11  O   UNL     1       1.017   0.227  -1.593  1.00  0.00    -0.383 OA
ATOM     12  C   UNL     1       1.835  -0.694  -0.889  1.00  0.00     0.194 C 
ENDBRANCH  10  11
ENDBRANCH   9  10
ENDBRANCH   8   9
BRANCH   8  13
ATOM     13  C   UNL     1       0.589   0.928   1.749  1.00  0.00     0.320 C 
ATOM     14  O   UNL     1      -0.181   0.106   1.251  1.00  0.00    -0.248 OA
BRANCH  13  15
ATOM     15  N   UNL     1       1.291   0.599   2.883  1.00  0.00    -0.322 N 
ATOM     16  C   UNL     1       1.700  -0.778   3.063  1.00  0.00     0.122 C 
ATOM     17  C   UNL     1       1.191   1.242   4.197  1.00  0.00     0.083 C 
ATOM     18  C   UNL     1       2.639  -0.707   4.247  1.00  0.00     0.024 C 
ATOM     19  C   UNL     1       1.957   0.307   5.156  1.00  0.00     0.027 C 
ATOM     20  C   UNL     1      -0.254   1.413   4.659  1.00  0.00     0.031 C 
ENDBRANCH  13  15
ENDBRANCH   8  13
ENDBRANCH   7   8
ENDBRANCH   4   7
ENDBRANCH   2   3
ENDBRANCH   1   2
BRANCH   1  21
ATOM     21  C   UNL     1      -2.951   3.973   2.741  1.00  0.00     0.023 C 
BRANCH  21  22
ATOM     22  C   UNL     1      -3.516   5.375   2.914  1.00  0.00     0.116 C 
BRANCH  22  23
ATOM     23  N   UNL     1      -4.090   5.926   1.697  1.00  0.00    -0.352 N 
ATOM     24  C   UNL     1      -5.184   6.746   1.559  1.00  0.00     0.251 C 
ATOM     25  H   UNL     1      -3.634   5.680   0.860  1.00  0.00     0.163 HD
ATOM     26  O   UNL     1      -5.582   7.055   0.439  1.00  0.00    -0.269 OA
BRANCH  24  27
ATOM     27  C   UNL     1      -5.904   7.212   2.763  1.00  0.00     0.039 A 
ATOM     28  C   UNL     1      -7.295   7.100   2.797  1.00  0.00     0.014 A 
ATOM     29  C   UNL     1      -5.211   7.722   3.865  1.00  0.00     0.014 A 
ATOM     30  C   UNL     1      -7.986   7.436   3.963  1.00  0.00     0.010 A 
ATOM     31  C   UNL     1      -5.893   7.983   5.050  1.00  0.00     0.010 A 
ATOM     32  C   UNL     1      -7.287   7.845   5.111  1.00  0.00    -0.014 A 
BRANCH  32  33
ATOM     33  C   UNL     1      -8.001   8.125   6.383  1.00  0.00     0.031 A 
ATOM     34  C   UNL     1      -7.991   9.511   6.968  1.00  0.00     0.074 A 
ATOM     35  C   UNL     1      -8.614   7.119   7.038  1.00  0.00     0.049 A 
ATOM     36  N   UNL     1      -8.533   9.940   8.079  1.00  0.00    -0.248 NA
ATOM     37  C   UNL     1      -7.256  10.545   6.221  1.00  0.00     0.031 C 
ATOM     38  C   UNL     1      -8.654   5.721   6.599  1.00  0.00     0.029 A 
ATOM     39  N   UNL     1      -9.321   7.116   8.214  1.00  0.00    -0.354 N 
ATOM     40  C   UNL     1      -8.195  11.285   8.171  1.00  0.00     0.074 A 
ATOM     41  C   UNL     1      -7.357  11.588   7.032  1.00  0.00     0.031 C 
ATOM     42  C   UNL     1      -9.378   5.006   7.474  1.00  0.00     0.029 A 
ATOM     43  C   UNL     1      -9.821   5.881   8.554  1.00  0.00     0.049 A 
ATOM     44  H   UNL     1      -9.457   7.922   8.762  1.00  0.00     0.167 HD
ATOM     45  C   UNL     1      -8.568  12.193   9.104  1.00  0.00     0.031 A 
ATOM     46  C   UNL     1     -10.556   5.496   9.616  1.00  0.00     0.031 A 
ATOM     47  C   UNL     1      -9.410  11.891  10.231  1.00  0.00     0.049 A 
ATOM     48  C   UNL     1     -10.956   6.521  10.640  1.00  0.00     0.074 A 
ATOM     49  C   UNL     1      -9.886  12.751  11.205  1.00  0.00     0.029 A 
ATOM     50  N   UNL     1      -9.902  10.630  10.536  1.00  0.00    -0.354 N 
ATOM     51  N   UNL     1     -10.680   7.804  10.675  1.00  0.00    -0.248 NA
ATOM     52  C   UNL     1     -11.780   6.050  11.762  1.00  0.00     0.031 C 
ATOM     53  C   UNL     1     -10.627  12.002  12.126  1.00  0.00     0.029 A 
ATOM     54  C   UNL     1     -10.661  10.686  11.694  1.00  0.00     0.049 A 
ATOM     55  H   UNL     1      -9.737   9.816  10.008  1.00  0.00     0.167 HD
ATOM     56  C   UNL     1     -11.319   8.297  11.807  1.00  0.00     0.074 A 
ATOM     57  C   UNL     1     -12.008   7.179  12.419  1.00  0.00     0.031 C 
ATOM     58  C   UNL     1     -11.336   9.563  12.294  1.00  0.00     0.031 A 
BRANCH  45  59
ATOM     59  C   UNL     1      -8.062  13.602   8.942  1.00  0.00    -0.014 A 
ATOM     60  C   UNL     1      -8.528  14.425   7.900  1.00  0.00     0.010 A 
ATOM     61  C   UNL     1      -7.132  14.124   9.860  1.00  0.00     0.010 A 
ATOM     62  C   UNL     1      -8.041  15.726   7.752  1.00  0.00     0.020 A 
ATOM     63  C   UNL     1      -6.664  15.435   9.732  1.00  0.00     0.020 A 
ATOM     64  C   UNL     1      -7.108  16.221   8.667  1.00  0.00     0.054 A 
BRANCH  64  65
ATOM     65  S   UNL     1      -6.506  17.920   8.460  1.00  0.00     0.124 S 
ATOM     66  O   UNL     1      -5.621  17.786   7.306  1.00  0.00    -0.237 OA
ATOM     67  O   UNL     1      -7.737  18.670   8.224  1.00  0.00    -0.237 OA
ATOM     68  O   UNL     1      -5.838  18.208   9.727  1.00  0.00    -0.744 OA
ENDBRANCH  64  65
ENDBRANCH  45  59
BRANCH  46  69
ATOM     69  C   UNL     1     -10.983   4.076   9.748  1.00  0.00    -0.014 A 
ATOM     70  C   UNL     1     -12.331   3.718   9.566  1.00  0.00     0.010 A 
ATOM     71  C   UNL     1     -10.043   3.072  10.043  1.00  0.00     0.010 A 
ATOM     72  C   UNL     1     -12.734   2.386   9.696  1.00  0.00     0.020 A 
ATOM     73  C   UNL     1     -10.438   1.735  10.146  1.00  0.00     0.020 A 
ATOM     74  C   UNL     1     -11.784   1.402   9.984  1.00  0.00     0.054 A 
BRANCH  74  75
ATOM     75  S   UNL     1     -12.322  -0.327  10.098  1.00  0.00     0.124 S 
ATOM     76  O   UNL     1     -13.012  -0.346  11.383  1.00  0.00    -0.237 OA
ATOM     77  O   UNL     1     -13.172  -0.472   8.919  1.00  0.00    -0.237 OA
ATOM     78  O   UNL     1     -11.069  -1.077  10.048  1.00  0.00    -0.744 OA
ENDBRANCH  74  75
ENDBRANCH  46  69
BRANCH  58  79
ATOM     79  C   UNL     1     -12.151   9.813  13.535  1.00  0.00    -0.014 A 
ATOM     80  C   UNL     1     -11.732   9.341  14.791  1.00  0.00     0.010 A 
ATOM     81  C   UNL     1     -13.334  10.569  13.446  1.00  0.00     0.010 A 
ATOM     82  C   UNL     1     -12.503   9.587  15.931  1.00  0.00     0.020 A 
ATOM     83  C   UNL     1     -14.092  10.842  14.587  1.00  0.00     0.020 A 
ATOM     84  C   UNL     1     -13.680  10.334  15.820  1.00  0.00     0.054 A 
BRANCH  84  85
ATOM     85  S   UNL     1     -14.647  10.667  17.318  1.00  0.00     0.124 S 
ATOM     86  O   UNL     1     -15.276   9.372  17.567  1.00  0.00    -0.237 OA
ATOM     87  O   UNL     1     -13.623  11.064  18.281  1.00  0.00    -0.237 OA
ATOM     88  O   UNL     1     -15.558  11.734  16.912  1.00  0.00    -0.744 OA
ENDBRANCH  84  85
ENDBRANCH  58  79
ENDBRANCH  32  33
ENDBRANCH  24  27
ENDBRANCH  22  23
ENDBRANCH  21  22
ENDBRANCH   1  21
TORSDOF 20
