REMARK SMILES COc1cccc(NC(=O)NC2(C(=O)NCCCCNC(=O)c3ccc(-c4c5nc(c(-c6ccc(S(=O)(=O)[O-])cc6)c6ccc([nH]6)c(-c6ccc(S(=O)(=O)[O-])cc6)c6nc(c(-c7ccc(S(=O)(=O)[O-])cc7)c7ccc4[nH]7)C=C6)C=C5)cc3)CCCCC2)c1
REMARK SMILES IDX 17 1 16 2 15 3 13 4 14 5 12 7 83 8 87 9 84 10 86 11 85 12
REMARK SMILES IDX 11 13 8 14 9 15 10 17 7 19 3 20 4 21 88 22 5 23 6 24 2 25
REMARK SMILES IDX 1 26 18 27 19 28 20 29 21 30 22 32 23 33 24 34 82 35 25 36
REMARK SMILES IDX 81 37 26 38 27 39 28 40 75 41 29 42 80 43 74 44 76 45 30 46
REMARK SMILES IDX 79 47 73 48 72 49 31 51 61 52 42 53 60 54 43 55 46 56 59 57
REMARK SMILES IDX 77 58 44 59 45 60 58 62 78 63 47 64 32 65 33 66 41 67 34 68
REMARK SMILES IDX 40 69 35 70 36 71 37 72 38 73 39 74 62 75 63 76 71 77 64 78
REMARK SMILES IDX 70 79 65 80 66 81 67 82 68 83 69 84 48 85 49 86 57 87 50 88
REMARK SMILES IDX 56 89 51 90 52 91 53 92 54 93 55 94
REMARK H PARENT 15 6 8 16 11 18 20 31 76 50 46 61
REMARK Flexibility Score: inf
ROOT
ATOM      1  C   UNL     1      -2.170  -1.504  -6.607  1.00  0.00     0.023 C 
ENDROOT
BRANCH   1   2
ATOM      2  C   UNL     1      -1.442  -2.748  -7.124  1.00  0.00     0.116 C 
BRANCH   2   3
ATOM      3  N   UNL     1      -0.136  -2.466  -7.685  1.00  0.00    -0.354 N 
ATOM      4  C   UNL     1       1.125  -2.511  -7.179  1.00  0.00     0.245 C 
ATOM      5  O   UNL     1       2.034  -2.426  -8.020  1.00  0.00    -0.272 OA
ATOM      6  H   UNL     1      -0.169  -2.183  -8.627  1.00  0.00     0.163 HD
BRANCH   4   7
ATOM      7  C   UNL     1       1.466  -2.691  -5.639  1.00  0.00     0.120 C 
ATOM      8  C   UNL     1       1.101  -4.135  -5.257  1.00  0.00     0.039 C 
ATOM      9  C   UNL     1       0.799  -1.529  -4.888  1.00  0.00     0.039 C 
ATOM     10  C   UNL     1       0.010  -4.394  -4.226  1.00  0.00     0.003 C 
ATOM     11  C   UNL     1      -0.081  -1.866  -3.692  1.00  0.00     0.003 C 
ATOM     12  C   UNL     1      -0.765  -3.216  -3.670  1.00  0.00     0.000 C 
BRANCH   7  13
ATOM     13  N   UNL     1       2.974  -2.587  -5.690  1.00  0.00    -0.323 N 
ATOM     14  N   UNL     1       3.861  -1.558  -3.750  1.00  0.00    -0.308 N 
ATOM     15  C   UNL     1       3.986  -2.049  -4.994  1.00  0.00     0.320 C 
ATOM     16  H   UNL     1       4.332  -0.706  -3.605  1.00  0.00     0.171 HD
ATOM     17  O   UNL     1       5.058  -1.876  -5.580  1.00  0.00    -0.248 OA
ATOM     18  H   UNL     1       3.321  -3.062  -6.480  1.00  0.00     0.166 HD
BRANCH  14  19
ATOM     19  C   UNL     1       3.186  -2.035  -2.624  1.00  0.00     0.046 A 
ATOM     20  C   UNL     1       2.102  -1.502  -0.521  1.00  0.00     0.120 A 
ATOM     21  C   UNL     1       1.748  -2.846  -0.380  1.00  0.00     0.046 A 
ATOM     22  C   UNL     1       2.865  -1.109  -1.623  1.00  0.00     0.072 A 
ATOM     23  C   UNL     1       2.144  -3.785  -1.332  1.00  0.00     0.006 A 
ATOM     24  C   UNL     1       2.864  -3.378  -2.456  1.00  0.00     0.026 A 
BRANCH  20  25
ATOM     25  O   UNL     1       1.630  -0.672   0.458  1.00  0.00    -0.497 OA
ATOM     26  C   UNL     1       1.634   0.721   0.159  1.00  0.00     0.278 C 
ENDBRANCH  20  25
ENDBRANCH  14  19
ENDBRANCH   7  13
ENDBRANCH   4   7
ENDBRANCH   2   3
ENDBRANCH   1   2
BRANCH   1  27
ATOM     27  C   UNL     1      -3.644  -1.449  -6.989  1.00  0.00     0.023 C 
BRANCH  27  28
ATOM     28  C   UNL     1      -4.461  -2.684  -6.636  1.00  0.00     0.116 C 
BRANCH  28  29
ATOM     29  N   UNL     1      -4.824  -2.799  -5.230  1.00  0.00    -0.352 N 
ATOM     30  C   UNL     1      -6.060  -3.134  -4.708  1.00  0.00     0.251 C 
ATOM     31  H   UNL     1      -4.108  -2.618  -4.578  1.00  0.00     0.163 HD
ATOM     32  O   UNL     1      -6.247  -3.163  -3.497  1.00  0.00    -0.269 OA
BRANCH  30  33
ATOM     33  C   UNL     1      -7.173  -3.391  -5.651  1.00  0.00     0.039 A 
ATOM     34  C   UNL     1      -8.318  -2.596  -5.579  1.00  0.00     0.014 A 
ATOM     35  C   UNL     1      -7.000  -4.292  -6.704  1.00  0.00     0.014 A 
ATOM     36  C   UNL     1      -9.234  -2.616  -6.635  1.00  0.00     0.010 A 
ATOM     37  C   UNL     1      -7.856  -4.230  -7.798  1.00  0.00     0.010 A 
ATOM     38  C   UNL     1      -8.975  -3.380  -7.787  1.00  0.00    -0.014 A 
BRANCH  38  39
ATOM     39  C   UNL     1      -9.837  -3.288  -8.998  1.00  0.00     0.031 A 
ATOM     40  C   UNL     1     -10.502  -4.525  -9.543  1.00  0.00     0.074 A 
ATOM     41  C   UNL     1      -9.951  -2.118  -9.663  1.00  0.00     0.049 A 
ATOM     42  N   UNL     1     -11.202  -4.671 -10.639  1.00  0.00    -0.248 NA
ATOM     43  C   UNL     1     -10.322  -5.769  -8.776  1.00  0.00     0.031 C 
ATOM     44  C   UNL     1      -9.310  -0.855  -9.287  1.00  0.00     0.029 A 
ATOM     45  N   UNL     1     -10.647  -1.802 -10.806  1.00  0.00    -0.354 N 
ATOM     46  C   UNL     1     -11.514  -6.024 -10.709  1.00  0.00     0.074 A 
ATOM     47  C   UNL     1     -10.879  -6.664  -9.578  1.00  0.00     0.031 C 
ATOM     48  C   UNL     1      -9.676   0.104 -10.154  1.00  0.00     0.029 A 
ATOM     49  C   UNL     1     -10.541  -0.479 -11.173  1.00  0.00     0.049 A 
ATOM     50  H   UNL     1     -11.173  -2.460 -11.314  1.00  0.00     0.167 HD
ATOM     51  C   UNL     1     -12.283  -6.676 -11.613  1.00  0.00     0.031 A 
ATOM     52  C   UNL     1     -11.080   0.191 -12.211  1.00  0.00     0.031 A 
ATOM     53  C   UNL     1     -12.952  -6.035 -12.712  1.00  0.00     0.049 A 
ATOM     54  C   UNL     1     -11.961  -0.546 -13.184  1.00  0.00     0.074 A 
ATOM     55  C   UNL     1     -13.810  -6.597 -13.641  1.00  0.00     0.029 A 
ATOM     56  N   UNL     1     -12.849  -4.689 -13.023  1.00  0.00    -0.354 N 
ATOM     57  N   UNL     1     -12.292  -1.815 -13.195  1.00  0.00    -0.248 NA
ATOM     58  C   UNL     1     -12.551   0.242 -14.275  1.00  0.00     0.031 C 
ATOM     59  C   UNL     1     -14.200  -5.594 -14.536  1.00  0.00     0.029 A 
ATOM     60  C   UNL     1     -13.621  -4.401 -14.135  1.00  0.00     0.049 A 
ATOM     61  H   UNL     1     -12.307  -4.034 -12.527  1.00  0.00     0.167 HD
ATOM     62  C   UNL     1     -13.150  -1.971 -14.279  1.00  0.00     0.074 A 
ATOM     63  C   UNL     1     -13.297  -0.666 -14.890  1.00  0.00     0.031 C 
ATOM     64  C   UNL     1     -13.762  -3.095 -14.726  1.00  0.00     0.031 A 
BRANCH  51  65
ATOM     65  C   UNL     1     -12.448  -8.161 -11.436  1.00  0.00    -0.014 A 
ATOM     66  C   UNL     1     -13.194  -8.683 -10.363  1.00  0.00     0.010 A 
ATOM     67  C   UNL     1     -11.865  -9.047 -12.360  1.00  0.00     0.010 A 
ATOM     68  C   UNL     1     -13.309 -10.064 -10.187  1.00  0.00     0.020 A 
ATOM     69  C   UNL     1     -12.004 -10.430 -12.204  1.00  0.00     0.020 A 
ATOM     70  C   UNL     1     -12.708 -10.928 -11.105  1.00  0.00     0.054 A 
BRANCH  70  71
ATOM     71  S   UNL     1     -12.881 -12.716 -10.857  1.00  0.00     0.124 S 
ATOM     72  O   UNL     1     -11.951 -12.957  -9.756  1.00  0.00    -0.237 OA
ATOM     73  O   UNL     1     -14.296 -12.860 -10.525  1.00  0.00    -0.237 OA
ATOM     74  O   UNL     1     -12.485 -13.284 -12.143  1.00  0.00    -0.744 OA
ENDBRANCH  70  71
ENDBRANCH  51  65
BRANCH  52  75
ATOM     75  C   UNL     1     -10.833   1.651 -12.369  1.00  0.00    -0.014 A 
ATOM     76  C   UNL     1     -11.861   2.576 -12.110  1.00  0.00     0.010 A 
ATOM     77  C   UNL     1      -9.573   2.128 -12.774  1.00  0.00     0.010 A 
ATOM     78  C   UNL     1     -11.641   3.947 -12.269  1.00  0.00     0.020 A 
ATOM     79  C   UNL     1      -9.341   3.500 -12.910  1.00  0.00     0.020 A 
ATOM     80  C   UNL     1     -10.381   4.401 -12.668  1.00  0.00     0.054 A 
BRANCH  80  81
ATOM     81  S   UNL     1     -10.101   6.188 -12.818  1.00  0.00     0.124 S 
ATOM     82  O   UNL     1     -10.786   6.499 -14.068  1.00  0.00    -0.237 OA
ATOM     83  O   UNL     1     -10.726   6.709 -11.605  1.00  0.00    -0.237 OA
ATOM     84  O   UNL     1      -8.644   6.302 -12.855  1.00  0.00    -0.744 OA
ENDBRANCH  80  81
ENDBRANCH  52  75
BRANCH  64  85
ATOM     85  C   UNL     1     -14.678  -2.962 -15.912  1.00  0.00    -0.014 A 
ATOM     86  C   UNL     1     -14.167  -2.783 -17.209  1.00  0.00     0.010 A 
ATOM     87  C   UNL     1     -16.067  -3.083 -15.730  1.00  0.00     0.010 A 
ATOM     88  C   UNL     1     -15.034  -2.702 -18.302  1.00  0.00     0.020 A 
ATOM     89  C   UNL     1     -16.935  -3.027 -16.823  1.00  0.00     0.020 A 
ATOM     90  C   UNL     1     -16.412  -2.825 -18.102  1.00  0.00     0.054 A 
BRANCH  90  91
ATOM     91  S   UNL     1     -17.514  -2.769 -19.542  1.00  0.00     0.124 S 
ATOM     92  O   UNL     1     -17.527  -1.344 -19.858  1.00  0.00    -0.237 OA
ATOM     93  O   UNL     1     -16.824  -3.621 -20.508  1.00  0.00    -0.237 OA
ATOM     94  O   UNL     1     -18.774  -3.308 -19.035  1.00  0.00    -0.744 OA
ENDBRANCH  90  91
ENDBRANCH  64  85
ENDBRANCH  38  39
ENDBRANCH  30  33
ENDBRANCH  28  29
ENDBRANCH  27  28
ENDBRANCH   1  27
TORSDOF 17
