REMARK SMILES CC(C)(O)CC[C@@H](C(=O)NCCCCNC(=O)c1ccc(-c2c3nc(c(-c4ccc(S(=O)(=O)[O-])cc4)c4ccc([nH]4)c(-c4ccc(S(=O)(=O)[O-])cc4)c4nc(c(-c5ccc(S(=O)(=O)[O-])cc5)c5ccc2[nH]5)C=C4)C=C3)cc1)[C@@H]1CCS(=O)(=O)C1
REMARK SMILES IDX 12 1 11 2 10 3 8 4 9 5 7 7 6 8 5 9 2 10 1 11 3 12 4 13 78 15
REMARK SMILES IDX 79 16 84 17 80 18 81 19 82 20 83 21 13 22 14 23 15 24 16 25
REMARK SMILES IDX 17 27 18 28 19 29 77 30 20 31 76 32 21 33 22 34 23 35 70 36
REMARK SMILES IDX 24 37 75 38 69 39 71 40 25 41 74 42 68 43 67 44 26 46 56 47
REMARK SMILES IDX 37 48 55 49 38 50 41 51 54 52 72 53 39 54 40 55 53 57 73 58
REMARK SMILES IDX 42 59 27 60 28 61 36 62 29 63 35 64 30 65 31 66 32 67 33 68
REMARK SMILES IDX 34 69 57 70 58 71 66 72 59 73 65 74 60 75 61 76 62 77 63 78
REMARK SMILES IDX 64 79 43 80 44 81 52 82 45 83 51 84 46 85 47 86 48 87 49 88
REMARK SMILES IDX 50 89
REMARK H PARENT 10 6 4 14 15 26 71 45 41 56
REMARK Flexibility Score: inf
ROOT
ATOM      1  C   UNL     1       3.581  -0.301   2.684  1.00  0.00     0.023 C 
ENDROOT
BRANCH   1   2
ATOM      2  C   UNL     1       3.430  -0.494   1.170  1.00  0.00     0.116 C 
BRANCH   2   3
ATOM      3  N   UNL     1       3.650  -1.877   0.832  1.00  0.00    -0.356 N 
ATOM      4  C   UNL     1       2.751  -2.889   0.715  1.00  0.00     0.223 C 
ATOM      5  O   UNL     1       3.172  -4.010   0.997  1.00  0.00    -0.275 OA
ATOM      6  H   UNL     1       4.587  -2.125   0.660  1.00  0.00     0.163 HD
BRANCH   4   7
ATOM      7  C   UNL     1       1.304  -2.646   0.231  1.00  0.00     0.082 C 
BRANCH   7   8
ATOM      8  C   UNL     1       0.292  -2.387   1.388  1.00  0.00     0.017 C 
BRANCH   8   9
ATOM      9  C   UNL     1       0.223  -1.011   2.070  1.00  0.00     0.035 C 
BRANCH   9  10
ATOM     10  C   UNL     1      -0.339   0.232   1.323  1.00  0.00     0.059 C 
ATOM     11  C   UNL     1      -0.058   0.360  -0.174  1.00  0.00     0.042 C 
ATOM     12  C   UNL     1       0.148   1.505   2.040  1.00  0.00     0.042 C 
BRANCH  10  13
ATOM     13  O   UNL     1      -1.767   0.179   1.454  1.00  0.00    -0.390 OA
ATOM     14  H   UNL     1      -2.161   0.940   1.000  1.00  0.00     0.211 HD
ENDBRANCH  10  13
ENDBRANCH   9  10
ENDBRANCH   8   9
ENDBRANCH   7   8
BRANCH   7  15
ATOM     15  C   UNL     1       0.724  -3.843  -0.633  1.00  0.00     0.017 C 
ATOM     16  C   UNL     1       1.124  -5.295  -0.288  1.00  0.00     0.021 C 
ATOM     17  C   UNL     1       0.948  -3.695  -2.140  1.00  0.00     0.141 C 
ATOM     18  C   UNL     1       2.325  -5.735  -1.135  1.00  0.00     0.137 C 
ATOM     19  S   UNL     1       2.370  -4.663  -2.557  1.00  0.00     0.150 S 
ATOM     20  O   UNL     1       3.527  -3.802  -2.488  1.00  0.00    -0.229 OA
ATOM     21  O   UNL     1       2.054  -5.439  -3.744  1.00  0.00    -0.229 OA
ENDBRANCH   7  15
ENDBRANCH   4   7
ENDBRANCH   2   3
ENDBRANCH   1   2
BRANCH   1  22
ATOM     22  C   UNL     1       4.986   0.071   3.129  1.00  0.00     0.023 C 
BRANCH  22  23
ATOM     23  C   UNL     1       5.462   1.413   2.597  1.00  0.00     0.116 C 
BRANCH  23  24
ATOM     24  N   UNL     1       4.601   2.536   2.957  1.00  0.00    -0.352 N 
ATOM     25  C   UNL     1       4.990   3.820   3.267  1.00  0.00     0.251 C 
ATOM     26  H   UNL     1       3.634   2.354   2.981  1.00  0.00     0.163 HD
ATOM     27  O   UNL     1       4.174   4.661   3.623  1.00  0.00    -0.269 OA
BRANCH  25  28
ATOM     28  C   UNL     1       6.431   4.129   3.204  1.00  0.00     0.039 A 
ATOM     29  C   UNL     1       7.079   4.568   4.358  1.00  0.00     0.014 A 
ATOM     30  C   UNL     1       7.150   3.807   2.051  1.00  0.00     0.014 A 
ATOM     31  C   UNL     1       8.473   4.603   4.380  1.00  0.00     0.010 A 
ATOM     32  C   UNL     1       8.534   3.743   2.113  1.00  0.00     0.010 A 
ATOM     33  C   UNL     1       9.212   4.140   3.277  1.00  0.00    -0.014 A 
BRANCH  33  34
ATOM     34  C   UNL     1      10.694   4.066   3.313  1.00  0.00     0.031 A 
ATOM     35  C   UNL     1      11.502   4.864   2.325  1.00  0.00     0.074 A 
ATOM     36  C   UNL     1      11.307   3.233   4.179  1.00  0.00     0.049 A 
ATOM     37  N   UNL     1      12.798   4.893   2.155  1.00  0.00    -0.248 NA
ATOM     38  C   UNL     1      10.754   5.714   1.383  1.00  0.00     0.031 C 
ATOM     39  C   UNL     1      10.633   2.365   5.150  1.00  0.00     0.029 A 
ATOM     40  N   UNL     1      12.640   2.977   4.382  1.00  0.00    -0.354 N 
ATOM     41  C   UNL     1      13.016   5.741   1.076  1.00  0.00     0.074 A 
ATOM     42  C   UNL     1      11.719   6.157   0.592  1.00  0.00     0.031 C 
ATOM     43  C   UNL     1      11.556   1.708   5.870  1.00  0.00     0.029 A 
ATOM     44  C   UNL     1      12.885   2.069   5.387  1.00  0.00     0.049 A 
ATOM     45  H   UNL     1      13.356   3.404   3.858  1.00  0.00     0.167 HD
ATOM     46  C   UNL     1      14.190   6.160   0.550  1.00  0.00     0.031 A 
ATOM     47  C   UNL     1      14.047   1.583   5.864  1.00  0.00     0.031 A 
ATOM     48  C   UNL     1      15.478   5.765   1.050  1.00  0.00     0.049 A 
ATOM     49  C   UNL     1      15.341   2.066   5.264  1.00  0.00     0.074 A 
ATOM     50  C   UNL     1      16.727   6.187   0.634  1.00  0.00     0.029 A 
ATOM     51  N   UNL     1      15.681   4.855   2.077  1.00  0.00    -0.354 N 
ATOM     52  N   UNL     1      15.527   2.931   4.296  1.00  0.00    -0.248 NA
ATOM     53  C   UNL     1      16.581   1.517   5.830  1.00  0.00     0.031 C 
ATOM     54  C   UNL     1      17.689   5.490   1.372  1.00  0.00     0.029 A 
ATOM     55  C   UNL     1      17.037   4.683   2.291  1.00  0.00     0.049 A 
ATOM     56  H   UNL     1      14.967   4.400   2.579  1.00  0.00     0.167 HD
ATOM     57  C   UNL     1      16.906   3.053   4.157  1.00  0.00     0.074 A 
ATOM     58  C   UNL     1      17.504   2.184   5.151  1.00  0.00     0.031 C 
ATOM     59  C   UNL     1      17.614   3.816   3.288  1.00  0.00     0.031 A 
BRANCH  46  60
ATOM     60  C   UNL     1      14.131   7.096  -0.629  1.00  0.00    -0.014 A 
ATOM     61  C   UNL     1      13.664   8.416  -0.488  1.00  0.00     0.010 A 
ATOM     62  C   UNL     1      14.579   6.660  -1.889  1.00  0.00     0.010 A 
ATOM     63  C   UNL     1      13.607   9.268  -1.593  1.00  0.00     0.020 A 
ATOM     64  C   UNL     1      14.553   7.520  -2.990  1.00  0.00     0.020 A 
ATOM     65  C   UNL     1      14.051   8.814  -2.838  1.00  0.00     0.054 A 
BRANCH  65  66
ATOM     66  S   UNL     1      13.991   9.952  -4.249  1.00  0.00     0.124 S 
ATOM     67  O   UNL     1      12.556  10.020  -4.519  1.00  0.00    -0.237 OA
ATOM     68  O   UNL     1      14.585  11.169  -3.702  1.00  0.00    -0.237 OA
ATOM     69  O   UNL     1      14.786   9.279  -5.273  1.00  0.00    -0.744 OA
ENDBRANCH  65  66
ENDBRANCH  46  60
BRANCH  47  70
ATOM     70  C   UNL     1      14.047   0.603   6.987  1.00  0.00    -0.014 A 
ATOM     71  C   UNL     1      14.520   0.976   8.258  1.00  0.00     0.010 A 
ATOM     72  C   UNL     1      13.574  -0.708   6.794  1.00  0.00     0.010 A 
ATOM     73  C   UNL     1      14.543   0.051   9.307  1.00  0.00     0.020 A 
ATOM     74  C   UNL     1      13.568  -1.626   7.848  1.00  0.00     0.020 A 
ATOM     75  C   UNL     1      14.064  -1.244   9.096  1.00  0.00     0.054 A 
BRANCH  75  76
ATOM     76  S   UNL     1      14.062  -2.414  10.483  1.00  0.00     0.124 S 
ATOM     77  O   UNL     1      15.482  -2.721  10.623  1.00  0.00    -0.237 OA
ATOM     78  O   UNL     1      13.476  -1.621  11.562  1.00  0.00    -0.237 OA
ATOM     79  O   UNL     1      13.227  -3.512  10.003  1.00  0.00    -0.744 OA
ENDBRANCH  75  76
ENDBRANCH  47  70
BRANCH  59  80
ATOM     80  C   UNL     1      19.115   3.780   3.395  1.00  0.00    -0.014 A 
ATOM     81  C   UNL     1      19.851   2.654   2.989  1.00  0.00     0.010 A 
ATOM     82  C   UNL     1      19.802   4.921   3.850  1.00  0.00     0.010 A 
ATOM     83  C   UNL     1      21.246   2.657   3.066  1.00  0.00     0.020 A 
ATOM     84  C   UNL     1      21.197   4.940   3.900  1.00  0.00     0.020 A 
ATOM     85  C   UNL     1      21.910   3.801   3.520  1.00  0.00     0.054 A 
BRANCH  85  86
ATOM     86  S   UNL     1      23.723   3.797   3.566  1.00  0.00     0.124 S 
ATOM     87  O   UNL     1      23.996   2.925   4.705  1.00  0.00    -0.237 OA
ATOM     88  O   UNL     1      24.075   3.251   2.258  1.00  0.00    -0.237 OA
ATOM     89  O   UNL     1      24.068   5.204   3.761  1.00  0.00    -0.744 OA
ENDBRANCH  85  86
ENDBRANCH  59  80
ENDBRANCH  33  34
ENDBRANCH  25  28
ENDBRANCH  23  24
ENDBRANCH  22  23
ENDBRANCH   1  22
TORSDOF 19
