REMARK SMILES Cc1ccccc1CN1C(=O)[C@H](CC(=O)NCCCCNC(=O)c2ccc(-c3c4nc(c(-c5ccc(S(=O)(=O)[O-])cc5)c5ccc([nH]5)c(-c5ccc(S(=O)(=O)[O-])cc5)c5nc(c(-c6ccc(S(=O)(=O)[O-])cc6)c6ccc3[nH]6)C=C5)C=C4)cc2)n2c(nc3ccccc32)[C@H]1C
REMARK SMILES IDX 18 1 17 2 16 3 14 4 15 5 13 7 12 8 9 9 10 10 93 11 11 12
REMARK SMILES IDX 85 13 94 14 84 15 86 16 92 17 87 18 91 19 88 20 90 21 89 22
REMARK SMILES IDX 8 23 7 24 1 25 2 26 3 27 4 28 6 29 5 30 19 31 20 32 21 33
REMARK SMILES IDX 22 34 23 36 24 37 25 38 83 39 26 40 82 41 27 42 28 43 29 44
REMARK SMILES IDX 76 45 30 46 81 47 75 48 77 49 31 50 80 51 74 52 73 53 32 55
REMARK SMILES IDX 62 56 43 57 61 58 44 59 47 60 60 61 78 62 45 63 46 64 59 66
REMARK SMILES IDX 79 67 48 68 33 69 34 70 42 71 35 72 41 73 36 74 37 75 38 76
REMARK SMILES IDX 39 77 40 78 63 79 64 80 72 81 65 82 71 83 66 84 67 85 68 86
REMARK SMILES IDX 69 87 70 88 49 89 50 90 58 91 51 92 57 93 52 94 53 95 54 96
REMARK SMILES IDX 55 97 56 98
REMARK H PARENT 16 6 21 35 77 54 47 65
REMARK Flexibility Score: inf
ROOT
ATOM      1  C   UNL     1       4.147   4.897  -0.958  1.00  0.00     0.023 C 
ENDROOT
BRANCH   1   2
ATOM      2  C   UNL     1       4.196   5.144  -2.472  1.00  0.00     0.116 C 
BRANCH   2   3
ATOM      3  N   UNL     1       4.336   3.888  -3.205  1.00  0.00    -0.356 N 
ATOM      4  C   UNL     1       3.477   3.275  -4.067  1.00  0.00     0.222 C 
ATOM      5  O   UNL     1       3.826   2.193  -4.558  1.00  0.00    -0.275 OA
ATOM      6  H   UNL     1       5.183   3.410  -3.053  1.00  0.00     0.163 HD
BRANCH   4   7
ATOM      7  C   UNL     1       2.081   3.807  -4.338  1.00  0.00     0.135 C 
BRANCH   7   8
ATOM      8  C   UNL     1       1.069   2.974  -3.550  1.00  0.00     0.187 C 
ATOM      9  N   UNL     1       0.045   2.850  -1.340  1.00  0.00    -0.327 N 
ATOM     10  C   UNL     1       1.053   3.435  -2.092  1.00  0.00     0.247 C 
ATOM     11  C   UNL     1      -1.203   3.514  -1.723  1.00  0.00     0.149 C 
ATOM     12  O   UNL     1       1.665   4.370  -1.610  1.00  0.00    -0.272 OA
ATOM     13  C   UNL     1      -1.398   3.230  -3.195  1.00  0.00     0.133 A 
ATOM     14  C   UNL     1      -2.454   3.213  -0.920  1.00  0.00     0.040 C 
ATOM     15  N   UNL     1      -0.314   3.005  -4.035  1.00  0.00    -0.313 N 
ATOM     16  N   UNL     1      -2.536   3.162  -3.853  1.00  0.00    -0.231 NA
ATOM     17  C   UNL     1      -0.811   2.643  -5.264  1.00  0.00     0.069 A 
ATOM     18  C   UNL     1      -2.190   2.807  -5.130  1.00  0.00     0.089 A 
ATOM     19  C   UNL     1      -0.228   2.208  -6.460  1.00  0.00     0.028 A 
ATOM     20  C   UNL     1      -3.031   2.584  -6.229  1.00  0.00     0.030 A 
ATOM     21  C   UNL     1      -1.085   1.987  -7.547  1.00  0.00     0.002 A 
ATOM     22  C   UNL     1      -2.463   2.180  -7.440  1.00  0.00     0.002 A 
BRANCH   9  23
ATOM     23  C   UNL     1       0.387   2.480   0.035  1.00  0.00     0.156 C 
BRANCH  23  24
ATOM     24  C   UNL     1       0.066   1.014   0.274  1.00  0.00    -0.026 A 
ATOM     25  C   UNL     1       2.418   0.090  -0.277  1.00  0.00     0.044 C 
ATOM     26  C   UNL     1       0.939  -0.053  -0.030  1.00  0.00    -0.046 A 
ATOM     27  C   UNL     1       0.426  -1.366  -0.057  1.00  0.00     0.004 A 
ATOM     28  C   UNL     1      -0.911  -1.628   0.235  1.00  0.00     0.000 A 
ATOM     29  C   UNL     1      -1.239   0.705   0.693  1.00  0.00     0.006 A 
ATOM     30  C   UNL     1      -1.737  -0.593   0.642  1.00  0.00     0.000 A 
ENDBRANCH  23  24
ENDBRANCH   9  23
ENDBRANCH   7   8
ENDBRANCH   4   7
ENDBRANCH   2   3
ENDBRANCH   1   2
BRANCH   1  31
ATOM     31  C   UNL     1       5.451   5.170  -0.220  1.00  0.00     0.023 C 
BRANCH  31  32
ATOM     32  C   UNL     1       5.835   6.660  -0.155  1.00  0.00     0.116 C 
BRANCH  32  33
ATOM     33  N   UNL     1       4.833   7.451   0.554  1.00  0.00    -0.352 N 
ATOM     34  C   UNL     1       5.012   8.709   1.088  1.00  0.00     0.251 C 
ATOM     35  H   UNL     1       3.942   7.046   0.662  1.00  0.00     0.163 HD
ATOM     36  O   UNL     1       4.857   8.820   2.307  1.00  0.00    -0.269 OA
BRANCH  34  37
ATOM     37  C   UNL     1       5.240   9.945   0.256  1.00  0.00     0.039 A 
ATOM     38  C   UNL     1       5.381  11.164   0.942  1.00  0.00     0.014 A 
ATOM     39  C   UNL     1       5.227  10.008  -1.138  1.00  0.00     0.014 A 
ATOM     40  C   UNL     1       5.545  12.394   0.261  1.00  0.00     0.010 A 
ATOM     41  C   UNL     1       5.389  11.255  -1.818  1.00  0.00     0.010 A 
ATOM     42  C   UNL     1       5.577  12.472  -1.146  1.00  0.00    -0.014 A 
BRANCH  42  43
ATOM     43  C   UNL     1       6.262  13.698  -1.740  1.00  0.00     0.031 A 
ATOM     44  C   UNL     1       7.741  13.284  -1.854  1.00  0.00     0.074 A 
ATOM     45  C   UNL     1       5.995  14.667  -2.697  1.00  0.00     0.049 A 
ATOM     46  N   UNL     1       8.110  12.419  -2.753  1.00  0.00    -0.248 NA
ATOM     47  C   UNL     1       8.824  13.551  -0.896  1.00  0.00     0.031 C 
ATOM     48  C   UNL     1       6.582  16.018  -2.540  1.00  0.00     0.029 A 
ATOM     49  N   UNL     1       5.192  14.858  -3.858  1.00  0.00    -0.354 N 
ATOM     50  C   UNL     1       9.502  12.381  -2.753  1.00  0.00     0.074 A 
ATOM     51  C   UNL     1       9.878  12.918  -1.463  1.00  0.00     0.031 C 
ATOM     52  C   UNL     1       6.278  16.820  -3.586  1.00  0.00     0.029 A 
ATOM     53  C   UNL     1       5.511  16.081  -4.582  1.00  0.00     0.049 A 
ATOM     54  H   UNL     1       4.492  14.227  -4.143  1.00  0.00     0.167 HD
ATOM     55  C   UNL     1      10.155  12.268  -3.959  1.00  0.00     0.031 A 
ATOM     56  C   UNL     1       5.421  16.457  -5.923  1.00  0.00     0.031 A 
ATOM     57  C   UNL     1       9.202  12.688  -4.948  1.00  0.00     0.049 A 
ATOM     58  C   UNL     1       4.945  15.336  -6.800  1.00  0.00     0.074 A 
ATOM     59  C   UNL     1       8.921  14.015  -5.122  1.00  0.00     0.029 A 
ATOM     60  N   UNL     1       8.324  11.905  -5.673  1.00  0.00    -0.354 N 
ATOM     61  N   UNL     1       5.798  14.597  -7.447  1.00  0.00    -0.248 NA
ATOM     62  C   UNL     1       3.593  14.786  -6.835  1.00  0.00     0.031 C 
ATOM     63  C   UNL     1       7.700  13.980  -5.717  1.00  0.00     0.029 A 
ATOM     64  C   UNL     1       7.306  12.728  -6.141  1.00  0.00     0.049 A 
ATOM     65  H   UNL     1       8.405  10.936  -5.831  1.00  0.00     0.167 HD
ATOM     66  C   UNL     1       5.297  13.332  -7.302  1.00  0.00     0.074 A 
ATOM     67  C   UNL     1       3.855  13.532  -7.244  1.00  0.00     0.031 C 
ATOM     68  C   UNL     1       6.039  12.313  -6.750  1.00  0.00     0.031 A 
BRANCH  55  69
ATOM     69  C   UNL     1      11.591  12.414  -4.437  1.00  0.00    -0.014 A 
ATOM     70  C   UNL     1      11.766  12.965  -5.750  1.00  0.00     0.010 A 
ATOM     71  C   UNL     1      12.747  11.955  -3.808  1.00  0.00     0.010 A 
ATOM     72  C   UNL     1      12.972  13.023  -6.425  1.00  0.00     0.020 A 
ATOM     73  C   UNL     1      13.991  11.999  -4.494  1.00  0.00     0.020 A 
ATOM     74  C   UNL     1      14.084  12.507  -5.802  1.00  0.00     0.054 A 
BRANCH  74  75
ATOM     75  S   UNL     1      15.597  12.452  -6.792  1.00  0.00     0.124 S 
ATOM     76  O   UNL     1      15.208  11.590  -7.907  1.00  0.00    -0.237 OA
ATOM     77  O   UNL     1      15.810  13.857  -7.128  1.00  0.00    -0.237 OA
ATOM     78  O   UNL     1      16.580  11.876  -5.878  1.00  0.00    -0.744 OA
ENDBRANCH  74  75
ENDBRANCH  55  69
BRANCH  56  79
ATOM     79  C   UNL     1       6.371  17.435  -6.681  1.00  0.00    -0.014 A 
ATOM     80  C   UNL     1       6.012  18.718  -7.123  1.00  0.00     0.010 A 
ATOM     81  C   UNL     1       7.596  16.951  -7.225  1.00  0.00     0.010 A 
ATOM     82  C   UNL     1       6.837  19.448  -8.036  1.00  0.00     0.020 A 
ATOM     83  C   UNL     1       8.416  17.650  -8.124  1.00  0.00     0.020 A 
ATOM     84  C   UNL     1       8.033  18.908  -8.531  1.00  0.00     0.054 A 
BRANCH  84  85
ATOM     85  S   UNL     1       9.052  19.811  -9.741  1.00  0.00     0.124 S 
ATOM     86  O   UNL     1       8.099  20.096 -10.811  1.00  0.00    -0.237 OA
ATOM     87  O   UNL     1       9.490  20.971  -8.969  1.00  0.00    -0.237 OA
ATOM     88  O   UNL     1      10.110  18.868 -10.097  1.00  0.00    -0.744 OA
ENDBRANCH  84  85
ENDBRANCH  56  79
BRANCH  68  89
ATOM     89  C   UNL     1       5.388  10.994  -6.525  1.00  0.00    -0.014 A 
ATOM     90  C   UNL     1       4.504  10.475  -7.486  1.00  0.00     0.010 A 
ATOM     91  C   UNL     1       5.647  10.229  -5.378  1.00  0.00     0.010 A 
ATOM     92  C   UNL     1       3.837   9.275  -7.277  1.00  0.00     0.020 A 
ATOM     93  C   UNL     1       5.011   9.005  -5.173  1.00  0.00     0.020 A 
ATOM     94  C   UNL     1       4.101   8.544  -6.125  1.00  0.00     0.054 A 
BRANCH  94  95
ATOM     95  S   UNL     1       3.376   6.909  -5.955  1.00  0.00     0.124 S 
ATOM     96  O   UNL     1       2.132   7.192  -5.246  1.00  0.00    -0.237 OA
ATOM     97  O   UNL     1       3.223   6.452  -7.334  1.00  0.00    -0.237 OA
ATOM     98  O   UNL     1       4.388   6.195  -5.188  1.00  0.00    -0.744 OA
ENDBRANCH  94  95
ENDBRANCH  68  89
ENDBRANCH  42  43
ENDBRANCH  34  37
ENDBRANCH  32  33
ENDBRANCH  31  32
ENDBRANCH   1  31
TORSDOF 17
