REMARK SMILES NC(=O)C1CC[NH+](CC[C@H]2CN(C(=O)c3ccccc3)CC[C@H]2CC(=O)NCCCCNC(=O)c2ccc(-c3c4nc(c(-c5ccc(S(=O)(=O)[O-])cc5)c5ccc([nH]5)c(-c5ccc(S(=O)(=O)[O-])cc5)c5nc(c(-c6ccc(S(=O)(=O)[O-])cc6)c6ccc3[nH]6)C=C5)C=C4)cc2)CC1
REMARK SMILES IDX 28 1 27 2 25 3 26 4 24 6 23 7 10 8 11 9 12 10 22 11 21 12
REMARK SMILES IDX 9 13 8 14 7 15 4 16 5 17 96 18 6 19 95 20 2 22 1 23 3 26
REMARK SMILES IDX 13 27 14 28 15 29 16 30 20 31 17 32 19 33 18 34 29 35 30 36
REMARK SMILES IDX 31 37 32 38 33 39 34 41 35 42 36 43 94 44 37 45 93 46 38 47
REMARK SMILES IDX 39 48 40 49 87 50 41 51 92 52 86 53 88 54 42 55 91 56 85 57
REMARK SMILES IDX 84 58 43 60 73 61 54 62 72 63 55 64 58 65 71 66 89 67 56 68
REMARK SMILES IDX 57 69 70 71 90 72 59 73 44 74 45 75 53 76 46 77 52 78 47 79
REMARK SMILES IDX 48 80 49 81 50 82 51 83 74 84 75 85 83 86 76 87 82 88 77 89
REMARK SMILES IDX 78 90 79 91 80 92 81 93 60 94 61 95 69 96 62 97 68 98 63 99
REMARK SMILES IDX 64 100 65 101 66 102 67 103
REMARK H PARENT 27 5 7 21 1 24 1 25 32 40 88 59 58 70
REMARK Flexibility Score: inf
ROOT
ATOM      1  C   UNL     1      -1.544  -3.263  -3.406  1.00  0.00     0.116 C 
ENDROOT
BRANCH   1   2
ATOM      2  N   UNL     1      -2.413  -2.150  -3.037  1.00  0.00    -0.356 N 
ATOM      3  C   UNL     1      -2.724  -1.564  -1.845  1.00  0.00     0.220 C 
ATOM      4  O   UNL     1      -3.388  -0.522  -1.885  1.00  0.00    -0.275 OA
ATOM      5  H   UNL     1      -2.868  -1.738  -3.806  1.00  0.00     0.163 HD
BRANCH   3   6
ATOM      6  C   UNL     1      -2.376  -2.192  -0.500  1.00  0.00     0.104 C 
BRANCH   6   7
ATOM      7  C   UNL     1      -3.302  -3.371  -0.186  1.00  0.00     0.005 C 
ATOM      8  C   UNL     1      -2.626  -4.734  -0.430  1.00  0.00     0.018 C 
ATOM      9  C   UNL     1      -3.752  -5.771  -0.437  1.00  0.00     0.124 C 
ATOM     10  N   UNL     1      -4.495  -5.804   0.816  1.00  0.00    -0.338 N 
ATOM     11  C   UNL     1      -3.936  -3.372   1.218  1.00  0.00     0.026 C 
ATOM     12  C   UNL     1      -4.958  -4.518   1.357  1.00  0.00     0.120 C 
BRANCH   8  13
ATOM     13  C   UNL     1      -1.451  -5.125   0.517  1.00  0.00     0.067 C 
BRANCH  13  14
ATOM     14  C   UNL     1      -0.071  -5.246  -0.190  1.00  0.00     0.262 C 
BRANCH  14  15
ATOM     15  N   UNL     1       0.633  -3.967  -0.362  1.00  0.00    -0.335 N 
ATOM     16  C   UNL     1       2.383  -1.693  -0.597  1.00  0.00     0.089 C 
ATOM     17  C   UNL     1       1.909  -2.492  -1.817  1.00  0.00     0.075 C 
ATOM     18  C   UNL     1       2.502  -2.586   0.643  1.00  0.00     0.075 C 
ATOM     19  C   UNL     1       1.579  -3.948  -1.472  1.00  0.00     0.263 C 
ATOM     20  C   UNL     1       1.256  -3.467   0.874  1.00  0.00     0.263 C 
ATOM     21  H   UNL     1      -0.112  -3.317  -0.610  1.00  0.00     0.348 HD
BRANCH  16  22
ATOM     22  C   UNL     1       1.483  -0.506  -0.282  1.00  0.00     0.220 C 
ATOM     23  N   UNL     1       2.127   0.578   0.240  1.00  0.00    -0.369 N 
ATOM     24  H   UNL     1       1.619   1.388   0.472  1.00  0.00     0.159 HD
ATOM     25  H   UNL     1       3.101   0.549   0.385  1.00  0.00     0.159 HD
ATOM     26  O   UNL     1       0.267  -0.485  -0.418  1.00  0.00    -0.275 OA
ENDBRANCH  16  22
ENDBRANCH  14  15
ENDBRANCH  13  14
ENDBRANCH   8  13
BRANCH  10  27
ATOM     27  C   UNL     1      -4.897  -7.065   1.250  1.00  0.00     0.253 C 
ATOM     28  O   UNL     1      -4.562  -8.115   0.702  1.00  0.00    -0.269 OA
BRANCH  27  29
ATOM     29  C   UNL     1      -5.737  -7.204   2.448  1.00  0.00     0.040 A 
ATOM     30  C   UNL     1      -5.190  -7.883   3.541  1.00  0.00     0.014 A 
ATOM     31  C   UNL     1      -7.080  -6.818   2.445  1.00  0.00     0.014 A 
ATOM     32  C   UNL     1      -5.982  -8.152   4.654  1.00  0.00     0.001 A 
ATOM     33  C   UNL     1      -7.869  -7.091   3.563  1.00  0.00     0.001 A 
ATOM     34  C   UNL     1      -7.319  -7.755   4.665  1.00  0.00     0.000 A 
ENDBRANCH  27  29
ENDBRANCH  10  27
ENDBRANCH   6   7
ENDBRANCH   3   6
ENDBRANCH   1   2
BRANCH   1  35
ATOM     35  C   UNL     1      -2.311  -4.426  -4.069  1.00  0.00     0.023 C 
BRANCH  35  36
ATOM     36  C   UNL     1      -1.514  -5.248  -5.097  1.00  0.00     0.023 C 
BRANCH  36  37
ATOM     37  C   UNL     1      -0.189  -5.842  -4.628  1.00  0.00     0.116 C 
BRANCH  37  38
ATOM     38  N   UNL     1      -0.240  -7.236  -4.216  1.00  0.00    -0.352 N 
ATOM     39  C   UNL     1       0.619  -8.263  -4.565  1.00  0.00     0.251 C 
ATOM     40  H   UNL     1      -0.980  -7.480  -3.613  1.00  0.00     0.163 HD
ATOM     41  O   UNL     1       0.469  -9.389  -4.113  1.00  0.00    -0.269 OA
BRANCH  39  42
ATOM     42  C   UNL     1       1.696  -8.000  -5.548  1.00  0.00     0.039 A 
ATOM     43  C   UNL     1       1.672  -8.698  -6.758  1.00  0.00     0.014 A 
ATOM     44  C   UNL     1       2.667  -7.021  -5.317  1.00  0.00     0.014 A 
ATOM     45  C   UNL     1       2.557  -8.341  -7.779  1.00  0.00     0.010 A 
ATOM     46  C   UNL     1       3.516  -6.633  -6.357  1.00  0.00     0.010 A 
ATOM     47  C   UNL     1       3.450  -7.270  -7.607  1.00  0.00    -0.014 A 
BRANCH  47  48
ATOM     48  C   UNL     1       4.264  -6.775  -8.750  1.00  0.00     0.031 A 
ATOM     49  C   UNL     1       5.760  -6.916  -8.750  1.00  0.00     0.074 A 
ATOM     50  C   UNL     1       3.653  -6.155  -9.781  1.00  0.00     0.049 A 
ATOM     51  N   UNL     1       6.622  -6.540  -9.662  1.00  0.00    -0.248 NA
ATOM     52  C   UNL     1       6.368  -7.547  -7.569  1.00  0.00     0.031 C 
ATOM     53  C   UNL     1       2.211  -5.919  -9.893  1.00  0.00     0.029 A 
ATOM     54  N   UNL     1       4.166  -5.611 -10.934  1.00  0.00    -0.354 N 
ATOM     55  C   UNL     1       7.873  -6.883  -9.165  1.00  0.00     0.074 A 
ATOM     56  C   UNL     1       7.661  -7.457  -7.853  1.00  0.00     0.031 C 
ATOM     57  C   UNL     1       1.954  -5.306 -11.060  1.00  0.00     0.029 A 
ATOM     58  C   UNL     1       3.211  -5.074 -11.766  1.00  0.00     0.049 A 
ATOM     59  H   UNL     1       5.127  -5.605 -11.145  1.00  0.00     0.167 HD
ATOM     60  C   UNL     1       9.087  -6.751  -9.753  1.00  0.00     0.031 A 
ATOM     61  C   UNL     1       3.327  -4.465 -12.963  1.00  0.00     0.031 A 
ATOM     62  C   UNL     1       9.303  -6.181 -11.057  1.00  0.00     0.049 A 
ATOM     63  C   UNL     1       4.686  -4.311 -13.587  1.00  0.00     0.074 A 
ATOM     64  C   UNL     1      10.494  -6.046 -11.750  1.00  0.00     0.029 A 
ATOM     65  N   UNL     1       8.310  -5.646 -11.863  1.00  0.00    -0.354 N 
ATOM     66  N   UNL     1       5.851  -4.703 -13.128  1.00  0.00    -0.248 NA
ATOM     67  C   UNL     1       4.747  -3.643 -14.896  1.00  0.00     0.031 C 
ATOM     68  C   UNL     1      10.227  -5.390 -12.957  1.00  0.00     0.029 A 
ATOM     69  C   UNL     1       8.863  -5.161 -13.037  1.00  0.00     0.049 A 
ATOM     70  H   UNL     1       7.352  -5.616 -11.636  1.00  0.00     0.167 HD
ATOM     71  C   UNL     1       6.778  -4.353 -14.103  1.00  0.00     0.074 A 
ATOM     72  C   UNL     1       6.040  -3.725 -15.180  1.00  0.00     0.031 C 
ATOM     73  C   UNL     1       8.121  -4.540 -14.104  1.00  0.00     0.031 A 
BRANCH  60  74
ATOM     74  C   UNL     1      10.284  -7.228  -8.976  1.00  0.00    -0.014 A 
ATOM     75  C   UNL     1      10.520  -8.601  -8.783  1.00  0.00     0.010 A 
ATOM     76  C   UNL     1      11.199  -6.295  -8.455  1.00  0.00     0.010 A 
ATOM     77  C   UNL     1      11.622  -9.031  -8.040  1.00  0.00     0.020 A 
ATOM     78  C   UNL     1      12.316  -6.723  -7.733  1.00  0.00     0.020 A 
ATOM     79  C   UNL     1      12.508  -8.088  -7.511  1.00  0.00     0.054 A 
BRANCH  79  80
ATOM     80  S   UNL     1      13.930  -8.672  -6.548  1.00  0.00     0.124 S 
ATOM     81  O   UNL     1      13.302  -9.042  -5.282  1.00  0.00    -0.237 OA
ATOM     82  O   UNL     1      14.429  -9.786  -7.351  1.00  0.00    -0.237 OA
ATOM     83  O   UNL     1      14.810  -7.508  -6.489  1.00  0.00    -0.744 OA
ENDBRANCH  79  80
ENDBRANCH  60  74
BRANCH  61  84
ATOM     84  C   UNL     1       2.111  -3.969 -13.663  1.00  0.00    -0.014 A 
ATOM     85  C   UNL     1       1.625  -4.633 -14.803  1.00  0.00     0.010 A 
ATOM     86  C   UNL     1       1.424  -2.838 -13.185  1.00  0.00     0.010 A 
ATOM     87  C   UNL     1       0.481  -4.168 -15.460  1.00  0.00     0.020 A 
ATOM     88  C   UNL     1       0.267  -2.385 -13.825  1.00  0.00     0.020 A 
ATOM     89  C   UNL     1      -0.191  -3.047 -14.965  1.00  0.00     0.054 A 
BRANCH  89  90
ATOM     90  S   UNL     1      -1.706  -2.495 -15.798  1.00  0.00     0.124 S 
ATOM     91  O   UNL     1      -1.176  -1.838 -16.988  1.00  0.00    -0.237 OA
ATOM     92  O   UNL     1      -2.416  -3.751 -16.029  1.00  0.00    -0.237 OA
ATOM     93  O   UNL     1      -2.329  -1.609 -14.816  1.00  0.00    -0.744 OA
ENDBRANCH  89  90
ENDBRANCH  61  84
BRANCH  73  94
ATOM     94  C   UNL     1       8.887  -4.090 -15.319  1.00  0.00    -0.014 A 
ATOM     95  C   UNL     1       9.141  -2.727 -15.555  1.00  0.00     0.010 A 
ATOM     96  C   UNL     1       9.423  -5.050 -16.196  1.00  0.00     0.010 A 
ATOM     97  C   UNL     1       9.905  -2.333 -16.657  1.00  0.00     0.020 A 
ATOM     98  C   UNL     1      10.206  -4.661 -17.286  1.00  0.00     0.020 A 
ATOM     99  C   UNL     1      10.435  -3.302 -17.515  1.00  0.00     0.054 A 
BRANCH  99 100
ATOM    100  S   UNL     1      11.480  -2.770 -18.899  1.00  0.00     0.124 S 
ATOM    101  O   UNL     1      10.494  -2.250 -19.842  1.00  0.00    -0.237 OA
ATOM    102  O   UNL     1      12.348  -1.769 -18.282  1.00  0.00    -0.237 OA
ATOM    103  O   UNL     1      12.155  -3.997 -19.316  1.00  0.00    -0.744 OA
ENDBRANCH  99 100
ENDBRANCH  73  94
ENDBRANCH  47  48
ENDBRANCH  39  42
ENDBRANCH  37  38
ENDBRANCH  36  37
ENDBRANCH  35  36
ENDBRANCH   1  35
TORSDOF 21
