REMARK SMILES O=C(Cn1c(-c2nc(-c3ccc(C(F)(F)F)cc3)no2)cc2ccccc21)NCCCCNC(=O)c1ccc(-c2c3nc(c(-c4ccc(S(=O)(=O)[O-])cc4)c4ccc([nH]4)c(-c4ccc(S(=O)(=O)[O-])cc4)c4nc(c(-c5ccc(S(=O)(=O)[O-])cc5)c5ccc2[nH]5)C=C4)C=C3)cc1
REMARK SMILES IDX 30 1 29 2 28 3 1 4 2 5 3 7 4 8 5 9 27 10 21 11 22 12 26 13
REMARK SMILES IDX 23 14 25 15 24 16 6 17 7 18 20 19 8 20 19 21 9 22 10 23
REMARK SMILES IDX 18 24 11 25 17 26 12 27 13 28 14 29 15 30 16 31 31 32 32 33
REMARK SMILES IDX 33 34 34 35 35 37 36 38 37 39 95 40 38 41 94 42 39 43 40 44
REMARK SMILES IDX 41 45 88 46 42 47 93 48 87 49 89 50 43 51 92 52 86 53 85 54
REMARK SMILES IDX 44 56 74 57 55 58 73 59 56 60 59 61 72 62 90 63 57 64 58 65
REMARK SMILES IDX 71 67 91 68 60 69 45 70 46 71 54 72 47 73 53 74 48 75 49 76
REMARK SMILES IDX 50 77 51 78 52 79 75 80 76 81 84 82 77 83 83 84 78 85 79 86
REMARK SMILES IDX 80 87 81 88 82 89 61 90 62 91 70 92 63 93 69 94 64 95 65 96
REMARK SMILES IDX 66 97 67 98 68 99
REMARK H PARENT 28 6 33 36 89 55 59 66
REMARK Flexibility Score: inf
ROOT
ATOM      1  C   UNL     1       2.517  -2.106   2.758  1.00  0.00     0.023 C 
ENDROOT
BRANCH   1   2
ATOM      2  C   UNL     1       2.057  -0.729   2.278  1.00  0.00     0.116 C 
BRANCH   2   3
ATOM      3  N   UNL     1       2.723  -0.315   1.055  1.00  0.00    -0.355 N 
ATOM      4  O   UNL     1       0.790  -0.016  -0.140  1.00  0.00    -0.273 OA
ATOM      5  C   UNL     1       2.017   0.023  -0.081  1.00  0.00     0.239 C 
ATOM      6  H   UNL     1       3.706  -0.275   1.037  1.00  0.00     0.163 HD
BRANCH   5   7
ATOM      7  C   UNL     1       2.845   0.391  -1.296  1.00  0.00     0.222 C 
BRANCH   7   8
ATOM      8  N   UNL     1       3.611   1.621  -1.121  1.00  0.00    -0.327 N 
ATOM      9  C   UNL     1       3.150   2.911  -1.345  1.00  0.00     0.109 A 
ATOM     10  C   UNL     1       4.949   1.639  -0.744  1.00  0.00     0.049 A 
ATOM     11  C   UNL     1       4.210   3.760  -1.072  1.00  0.00     0.042 A 
ATOM     12  C   UNL     1       5.331   2.979  -0.664  1.00  0.00     0.000 A 
ATOM     13  C   UNL     1       5.853   0.596  -0.452  1.00  0.00     0.027 A 
ATOM     14  C   UNL     1       6.639   3.289  -0.231  1.00  0.00     0.010 A 
ATOM     15  C   UNL     1       7.147   0.928  -0.040  1.00  0.00     0.002 A 
ATOM     16  C   UNL     1       7.535   2.257   0.081  1.00  0.00     0.001 A 
BRANCH   9  17
ATOM     17  C   UNL     1       1.785   3.258  -1.659  1.00  0.00     0.274 A 
ATOM     18  N   UNL     1       1.361   4.002  -2.673  1.00  0.00    -0.185 NA
ATOM     19  O   UNL     1       0.756   2.876  -0.841  1.00  0.00    -0.332 OA
ATOM     20  C   UNL     1      -0.007   4.081  -2.447  1.00  0.00     0.202 A 
ATOM     21  N   UNL     1      -0.406   3.432  -1.344  1.00  0.00    -0.057 NA
BRANCH  20  22
ATOM     22  C   UNL     1      -0.996   4.769  -3.284  1.00  0.00     0.023 A 
ATOM     23  C   UNL     1      -1.918   5.643  -2.680  1.00  0.00     0.013 A 
ATOM     24  C   UNL     1      -1.186   4.439  -4.632  1.00  0.00     0.013 A 
ATOM     25  C   UNL     1      -3.035   6.122  -3.379  1.00  0.00     0.014 A 
ATOM     26  C   UNL     1      -2.315   4.911  -5.332  1.00  0.00     0.014 A 
ATOM     27  C   UNL     1      -3.267   5.733  -4.705  1.00  0.00     0.056 A 
BRANCH  27  28
ATOM     28  C   UNL     1      -4.548   6.150  -5.397  1.00  0.00     0.416 C 
ATOM     29  F   UNL     1      -5.659   5.663  -4.774  1.00  0.00    -0.166 F 
ATOM     30  F   UNL     1      -4.713   7.503  -5.434  1.00  0.00    -0.166 F 
ATOM     31  F   UNL     1      -4.638   5.731  -6.690  1.00  0.00    -0.166 F 
ENDBRANCH  27  28
ENDBRANCH  20  22
ENDBRANCH   9  17
ENDBRANCH   7   8
ENDBRANCH   5   7
ENDBRANCH   2   3
ENDBRANCH   1   2
BRANCH   1  32
ATOM     32  C   UNL     1       4.000  -2.192   3.140  1.00  0.00     0.023 C 
BRANCH  32  33
ATOM     33  C   UNL     1       4.438  -1.137   4.149  1.00  0.00     0.116 C 
BRANCH  33  34
ATOM     34  N   UNL     1       3.720  -1.205   5.401  1.00  0.00    -0.352 N 
ATOM     35  C   UNL     1       4.087  -1.573   6.654  1.00  0.00     0.251 C 
ATOM     36  H   UNL     1       2.777  -0.929   5.331  1.00  0.00     0.163 HD
ATOM     37  O   UNL     1       3.343  -1.215   7.586  1.00  0.00    -0.269 OA
BRANCH  35  38
ATOM     38  C   UNL     1       5.169  -2.531   6.927  1.00  0.00     0.039 A 
ATOM     39  C   UNL     1       6.193  -2.920   6.061  1.00  0.00     0.014 A 
ATOM     40  C   UNL     1       5.045  -3.200   8.137  1.00  0.00     0.014 A 
ATOM     41  C   UNL     1       6.702  -4.210   6.174  1.00  0.00     0.010 A 
ATOM     42  C   UNL     1       5.830  -4.295   8.352  1.00  0.00     0.010 A 
ATOM     43  C   UNL     1       6.334  -4.984   7.272  1.00  0.00    -0.014 A 
BRANCH  43  44
ATOM     44  C   UNL     1       6.848  -6.329   7.531  1.00  0.00     0.031 A 
ATOM     45  C   UNL     1       8.349  -6.239   7.618  1.00  0.00     0.074 A 
ATOM     46  C   UNL     1       6.028  -7.408   7.761  1.00  0.00     0.049 A 
ATOM     47  N   UNL     1       9.180  -6.634   6.711  1.00  0.00    -0.248 NA
ATOM     48  C   UNL     1       9.007  -5.340   8.603  1.00  0.00     0.031 C 
ATOM     49  C   UNL     1       4.549  -7.513   7.779  1.00  0.00     0.029 A 
ATOM     50  N   UNL     1       6.361  -8.714   8.069  1.00  0.00    -0.354 N 
ATOM     51  C   UNL     1      10.454  -6.372   7.211  1.00  0.00     0.074 A 
ATOM     52  C   UNL     1      10.289  -5.384   8.230  1.00  0.00     0.031 C 
ATOM     53  C   UNL     1       4.147  -8.689   8.343  1.00  0.00     0.029 A 
ATOM     54  C   UNL     1       5.310  -9.517   8.604  1.00  0.00     0.049 A 
ATOM     55  H   UNL     1       7.268  -9.068   7.927  1.00  0.00     0.167 HD
ATOM     56  C   UNL     1      11.471  -7.238   6.955  1.00  0.00     0.031 A 
ATOM     57  C   UNL     1       5.385 -10.827   9.042  1.00  0.00     0.031 A 
ATOM     58  C   UNL     1      11.094  -8.107   5.871  1.00  0.00     0.049 A 
ATOM     59  C   UNL     1       6.647 -11.352   8.451  1.00  0.00     0.074 A 
ATOM     60  C   UNL     1      10.876  -7.941   4.523  1.00  0.00     0.029 A 
ATOM     61  N   UNL     1      10.375  -9.204   6.272  1.00  0.00    -0.354 N 
ATOM     62  N   UNL     1       6.790 -11.504   7.163  1.00  0.00    -0.248 NA
ATOM     63  C   UNL     1       7.856 -11.098   9.220  1.00  0.00     0.031 C 
ATOM     64  C   UNL     1       9.721  -8.726   4.241  1.00  0.00     0.029 A 
ATOM     65  C   UNL     1       9.388  -9.481   5.368  1.00  0.00     0.049 A 
ATOM     66  H   UNL     1      10.546  -9.718   7.094  1.00  0.00     0.167 HD
ATOM     67  C   UNL     1       8.011 -10.908   6.888  1.00  0.00     0.074 A 
ATOM     68  C   UNL     1       8.621 -10.675   8.209  1.00  0.00     0.031 C 
ATOM     69  C   UNL     1       8.257 -10.336   5.669  1.00  0.00     0.031 A 
BRANCH  56  70
ATOM     70  C   UNL     1      12.547  -7.625   7.944  1.00  0.00    -0.014 A 
ATOM     71  C   UNL     1      12.555  -7.279   9.312  1.00  0.00     0.010 A 
ATOM     72  C   UNL     1      13.486  -8.596   7.532  1.00  0.00     0.010 A 
ATOM     73  C   UNL     1      13.483  -7.833  10.209  1.00  0.00     0.020 A 
ATOM     74  C   UNL     1      14.395  -9.177   8.424  1.00  0.00     0.020 A 
ATOM     75  C   UNL     1      14.406  -8.772   9.755  1.00  0.00     0.054 A 
BRANCH  75  76
ATOM     76  S   UNL     1      15.640  -9.436  10.904  1.00  0.00     0.124 S 
ATOM     77  O   UNL     1      16.405  -8.240  11.246  1.00  0.00    -0.237 OA
ATOM     78  O   UNL     1      14.812  -9.983  11.979  1.00  0.00    -0.237 OA
ATOM     79  O   UNL     1      16.359 -10.424  10.107  1.00  0.00    -0.744 OA
ENDBRANCH  75  76
ENDBRANCH  56  70
BRANCH  57  80
ATOM     80  C   UNL     1       4.906 -11.437  10.349  1.00  0.00    -0.014 A 
ATOM     81  C   UNL     1       4.730 -10.583  11.450  1.00  0.00     0.010 A 
ATOM     82  C   UNL     1       4.978 -12.831  10.641  1.00  0.00     0.010 A 
ATOM     83  C   UNL     1       4.738 -11.062  12.773  1.00  0.00     0.020 A 
ATOM     84  C   UNL     1       4.959 -13.326  11.976  1.00  0.00     0.020 A 
ATOM     85  C   UNL     1       4.892 -12.423  13.036  1.00  0.00     0.054 A 
BRANCH  85  86
ATOM     86  S   UNL     1       5.115 -12.930  14.778  1.00  0.00     0.124 S 
ATOM     87  O   UNL     1       6.403 -12.324  15.107  1.00  0.00    -0.237 OA
ATOM     88  O   UNL     1       3.957 -12.325  15.434  1.00  0.00    -0.237 OA
ATOM     89  O   UNL     1       5.105 -14.389  14.729  1.00  0.00    -0.744 OA
ENDBRANCH  85  86
ENDBRANCH  57  80
BRANCH  69  90
ATOM     90  C   UNL     1       7.275 -10.531   4.524  1.00  0.00    -0.014 A 
ATOM     91  C   UNL     1       7.816 -11.155   3.388  1.00  0.00     0.010 A 
ATOM     92  C   UNL     1       6.000  -9.928   4.407  1.00  0.00     0.010 A 
ATOM     93  C   UNL     1       7.162 -11.126   2.159  1.00  0.00     0.020 A 
ATOM     94  C   UNL     1       5.312  -9.933   3.172  1.00  0.00     0.020 A 
ATOM     95  C   UNL     1       5.917 -10.508   2.050  1.00  0.00     0.054 A 
BRANCH  95  96
ATOM     96  S   UNL     1       5.154 -10.459   0.404  1.00  0.00     0.124 S 
ATOM     97  O   UNL     1       6.036  -9.546  -0.320  1.00  0.00    -0.237 OA
ATOM     98  O   UNL     1       5.220 -11.855  -0.021  1.00  0.00    -0.237 OA
ATOM     99  O   UNL     1       3.806  -9.950   0.651  1.00  0.00    -0.744 OA
ENDBRANCH  95  96
ENDBRANCH  69  90
ENDBRANCH  43  44
ENDBRANCH  35  38
ENDBRANCH  33  34
ENDBRANCH  32  33
ENDBRANCH   1  32
TORSDOF 18
