REMARK SMILES CC[C@](C)([NH3+])C(=O)N1CC[NH+]([C@H](C)C(=O)NCCCCNC(=O)c2ccc(-c3c4nc(c(-c5ccc(S(=O)(=O)[O-])cc5)c5ccc([nH]5)c(-c5ccc(S(=O)(=O)[O-])cc5)c5nc(c(-c6ccc(S(=O)(=O)[O-])cc6)c6ccc3[nH]6)C=C5)C=C4)cc2)CC1
REMARK SMILES IDX 18 1 17 2 16 3 14 4 15 5 12 7 13 8 11 9 6 10 7 11 8 12 9 13
REMARK SMILES IDX 85 14 10 15 84 16 3 18 4 19 2 20 1 21 5 22 19 26 20 27 21 28
REMARK SMILES IDX 22 29 23 31 24 32 25 33 83 34 26 35 82 36 27 37 28 38 29 39
REMARK SMILES IDX 76 40 30 41 81 42 75 43 77 44 31 45 80 46 74 47 73 48 32 50
REMARK SMILES IDX 62 51 43 52 61 53 44 54 47 55 60 56 78 57 45 58 46 59 59 61
REMARK SMILES IDX 79 62 48 63 33 64 34 65 42 66 35 67 41 68 36 69 37 70 38 71
REMARK SMILES IDX 39 72 40 73 63 74 64 75 72 76 65 77 71 78 66 79 67 80 68 81
REMARK SMILES IDX 69 82 70 83 49 84 50 85 58 86 51 87 57 88 52 89 53 90 54 91
REMARK SMILES IDX 55 92 56 93
REMARK H PARENT 16 6 11 17 5 23 5 24 5 25 21 30 77 49 47 60
REMARK Flexibility Score: inf
ROOT
ATOM      1  C   UNL     1       5.339   2.309   4.825  1.00  0.00     0.023 C 
ENDROOT
BRANCH   1   2
ATOM      2  C   UNL     1       5.537   0.802   4.736  1.00  0.00     0.116 C 
BRANCH   2   3
ATOM      3  N   UNL     1       6.218   0.226   5.878  1.00  0.00    -0.351 N 
ATOM      4  C   UNL     1       6.082  -1.005   6.459  1.00  0.00     0.278 C 
ATOM      5  O   UNL     1       6.945  -1.330   7.282  1.00  0.00    -0.268 OA
ATOM      6  H   UNL     1       6.884   0.813   6.303  1.00  0.00     0.163 HD
BRANCH   4   7
ATOM      7  C   UNL     1       4.901  -1.957   6.136  1.00  0.00     0.271 C 
ATOM      8  C   UNL     1       3.534  -1.264   6.216  1.00  0.00     0.086 C 
BRANCH   7   9
ATOM      9  N   UNL     1       5.155  -2.867   4.979  1.00  0.00    -0.322 N 
ATOM     10  C   UNL     1       3.946  -3.407   1.134  1.00  0.00     0.283 C 
ATOM     11  O   UNL     1       4.603  -2.893   0.214  1.00  0.00    -0.268 OA
ATOM     12  N   UNL     1       4.608  -3.795   2.287  1.00  0.00    -0.326 N 
ATOM     13  C   UNL     1       5.897  -3.175   2.578  1.00  0.00     0.181 C 
ATOM     14  C   UNL     1       4.155  -4.607   3.413  1.00  0.00     0.181 C 
ATOM     15  C   UNL     1       5.698  -2.218   3.770  1.00  0.00     0.284 C 
ATOM     16  C   UNL     1       3.995  -3.740   4.680  1.00  0.00     0.284 C 
ATOM     17  H   UNL     1       5.917  -3.466   5.299  1.00  0.00     0.348 HD
BRANCH  10  18
ATOM     18  C   UNL     1       2.377  -3.363   1.027  1.00  0.00     0.171 C 
ATOM     19  C   UNL     1       2.013  -3.283  -0.472  1.00  0.00     0.090 C 
BRANCH  18  20
ATOM     20  C   UNL     1       1.905  -2.086   1.772  1.00  0.00     0.075 C 
ATOM     21  C   UNL     1       0.439  -1.712   1.585  1.00  0.00     0.011 C 
ENDBRANCH  18  20
BRANCH  18  22
ATOM     22  N   UNL     1       1.708  -4.566   1.567  1.00  0.00    -0.345 N 
ATOM     23  H   UNL     1       2.034  -5.391   1.063  1.00  0.00     0.345 HD
ATOM     24  H   UNL     1       0.699  -4.474   1.453  1.00  0.00     0.345 HD
ATOM     25  H   UNL     1       1.931  -4.663   2.558  1.00  0.00     0.345 HD
ENDBRANCH  18  22
ENDBRANCH  10  18
ENDBRANCH   7   9
ENDBRANCH   4   7
ENDBRANCH   2   3
ENDBRANCH   1   2
BRANCH   1  26
ATOM     26  C   UNL     1       6.622   3.134   4.834  1.00  0.00     0.023 C 
BRANCH  26  27
ATOM     27  C   UNL     1       7.652   2.775   3.766  1.00  0.00     0.116 C 
BRANCH  27  28
ATOM     28  N   UNL     1       7.137   2.866   2.407  1.00  0.00    -0.352 N 
ATOM     29  C   UNL     1       7.607   3.598   1.340  1.00  0.00     0.251 C 
ATOM     30  H   UNL     1       6.335   2.325   2.225  1.00  0.00     0.163 HD
ATOM     31  O   UNL     1       6.973   3.634   0.293  1.00  0.00    -0.269 OA
BRANCH  29  32
ATOM     32  C   UNL     1       8.856   4.377   1.484  1.00  0.00     0.039 A 
ATOM     33  C   UNL     1       8.861   5.719   1.099  1.00  0.00     0.014 A 
ATOM     34  C   UNL     1       9.999   3.799   2.041  1.00  0.00     0.014 A 
ATOM     35  C   UNL     1       9.984   6.507   1.360  1.00  0.00     0.010 A 
ATOM     36  C   UNL     1      11.084   4.604   2.375  1.00  0.00     0.010 A 
ATOM     37  C   UNL     1      11.085   5.968   2.046  1.00  0.00    -0.014 A 
BRANCH  37  38
ATOM     38  C   UNL     1      12.246   6.811   2.433  1.00  0.00     0.031 A 
ATOM     39  C   UNL     1      13.612   6.512   1.875  1.00  0.00     0.074 A 
ATOM     40  C   UNL     1      12.086   7.802   3.334  1.00  0.00     0.049 A 
ATOM     41  N   UNL     1      14.759   7.071   2.161  1.00  0.00    -0.248 NA
ATOM     42  C   UNL     1      13.703   5.424   0.887  1.00  0.00     0.031 C 
ATOM     43  C   UNL     1      10.823   8.173   3.978  1.00  0.00     0.029 A 
ATOM     44  N   UNL     1      12.997   8.678   3.871  1.00  0.00    -0.354 N 
ATOM     45  C   UNL     1      15.707   6.396   1.401  1.00  0.00     0.074 A 
ATOM     46  C   UNL     1      15.010   5.352   0.683  1.00  0.00     0.031 C 
ATOM     47  C   UNL     1      11.034   9.217   4.797  1.00  0.00     0.029 A 
ATOM     48  C   UNL     1      12.450   9.564   4.771  1.00  0.00     0.049 A 
ATOM     49  H   UNL     1      13.953   8.673   3.635  1.00  0.00     0.167 HD
ATOM     50  C   UNL     1      17.035   6.639   1.288  1.00  0.00     0.031 A 
ATOM     51  C   UNL     1      13.026  10.543   5.497  1.00  0.00     0.031 A 
ATOM     52  C   UNL     1      17.727   7.689   1.986  1.00  0.00     0.049 A 
ATOM     53  C   UNL     1      14.506  10.783   5.362  1.00  0.00     0.074 A 
ATOM     54  C   UNL     1      19.065   8.034   1.914  1.00  0.00     0.029 A 
ATOM     55  N   UNL     1      17.133   8.572   2.874  1.00  0.00    -0.354 N 
ATOM     56  N   UNL     1      15.377  10.156   4.609  1.00  0.00    -0.248 NA
ATOM     57  C   UNL     1      15.077  11.870   6.169  1.00  0.00     0.031 C 
ATOM     58  C   UNL     1      19.287   9.106   2.784  1.00  0.00     0.029 A 
ATOM     59  C   UNL     1      18.078   9.458   3.360  1.00  0.00     0.049 A 
ATOM     60  H   UNL     1      16.180   8.569   3.121  1.00  0.00     0.167 HD
ATOM     61  C   UNL     1      16.592  10.796   4.825  1.00  0.00     0.074 A 
ATOM     62  C   UNL     1      16.342  11.865   5.770  1.00  0.00     0.031 C 
ATOM     63  C   UNL     1      17.807  10.526   4.288  1.00  0.00     0.031 A 
BRANCH  50  64
ATOM     64  C   UNL     1      17.825   5.756   0.359  1.00  0.00    -0.014 A 
ATOM     65  C   UNL     1      17.671   5.862  -1.036  1.00  0.00     0.010 A 
ATOM     66  C   UNL     1      18.761   4.844   0.878  1.00  0.00     0.010 A 
ATOM     67  C   UNL     1      18.413   5.047  -1.893  1.00  0.00     0.020 A 
ATOM     68  C   UNL     1      19.525   4.046   0.022  1.00  0.00     0.020 A 
ATOM     69  C   UNL     1      19.334   4.142  -1.359  1.00  0.00     0.054 A 
BRANCH  69  70
ATOM     70  S   UNL     1      20.308   3.121  -2.498  1.00  0.00     0.124 S 
ATOM     71  O   UNL     1      19.317   2.150  -2.953  1.00  0.00    -0.237 OA
ATOM     72  O   UNL     1      20.746   4.088  -3.502  1.00  0.00    -0.237 OA
ATOM     73  O   UNL     1      21.371   2.579  -1.655  1.00  0.00    -0.744 OA
ENDBRANCH  69  70
ENDBRANCH  50  64
BRANCH  51  74
ATOM     74  C   UNL     1      12.206  11.387   6.408  1.00  0.00    -0.014 A 
ATOM     75  C   UNL     1      11.971  12.740   6.104  1.00  0.00     0.010 A 
ATOM     76  C   UNL     1      11.677  10.853   7.597  1.00  0.00     0.010 A 
ATOM     77  C   UNL     1      11.255  13.553   6.987  1.00  0.00     0.020 A 
ATOM     78  C   UNL     1      10.936  11.656   8.470  1.00  0.00     0.020 A 
ATOM     79  C   UNL     1      10.746  13.006   8.168  1.00  0.00     0.054 A 
BRANCH  79  80
ATOM     80  S   UNL     1       9.803  14.072   9.294  1.00  0.00     0.124 S 
ATOM     81  O   UNL     1      10.861  14.845   9.936  1.00  0.00    -0.237 OA
ATOM     82  O   UNL     1       8.941  14.817   8.379  1.00  0.00    -0.237 OA
ATOM     83  O   UNL     1       9.107  13.122  10.158  1.00  0.00    -0.744 OA
ENDBRANCH  79  80
ENDBRANCH  51  74
BRANCH  63  84
ATOM     84  C   UNL     1      18.949  11.429   4.667  1.00  0.00    -0.014 A 
ATOM     85  C   UNL     1      19.543  11.361   5.939  1.00  0.00     0.010 A 
ATOM     86  C   UNL     1      19.469  12.322   3.712  1.00  0.00     0.010 A 
ATOM     87  C   UNL     1      20.619  12.193   6.259  1.00  0.00     0.020 A 
ATOM     88  C   UNL     1      20.561  13.136   4.020  1.00  0.00     0.020 A 
ATOM     89  C   UNL     1      21.120  13.076   5.298  1.00  0.00     0.054 A 
BRANCH  89  90
ATOM     90  S   UNL     1      22.547  14.113   5.721  1.00  0.00     0.124 S 
ATOM     91  O   UNL     1      21.940  15.133   6.572  1.00  0.00    -0.237 OA
ATOM     92  O   UNL     1      23.436  13.174   6.402  1.00  0.00    -0.237 OA
ATOM     93  O   UNL     1      23.027  14.587   4.425  1.00  0.00    -0.744 OA
ENDBRANCH  89  90
ENDBRANCH  63  84
ENDBRANCH  37  38
ENDBRANCH  29  32
ENDBRANCH  27  28
ENDBRANCH  26  27
ENDBRANCH   1  26
TORSDOF 18
