REMARK SMILES Cc1ccsc1/C=C/C(=O)NC[C@H](CC(C)C)C(=O)NCCCCNC(=O)c1ccc(-c2c3nc(c(-c4ccc(S(=O)(=O)[O-])cc4)c4ccc([nH]4)c(-c4ccc(S(=O)(=O)[O-])cc4)c4nc(c(-c5ccc(S(=O)(=O)[O-])cc5)c5ccc2[nH]5)C=C4)C=C3)cc1
REMARK SMILES IDX 22 1 21 2 20 3 18 4 19 5 13 7 12 8 11 9 9 10 10 11 8 13 7 14
REMARK SMILES IDX 6 15 1 16 2 17 3 18 4 19 5 20 14 21 15 22 16 23 17 24 23 25
REMARK SMILES IDX 24 26 25 27 26 28 27 30 28 31 29 32 87 33 30 34 86 35 31 36
REMARK SMILES IDX 32 37 33 38 80 39 34 40 85 41 79 42 81 43 35 44 84 45 78 46
REMARK SMILES IDX 77 47 36 49 66 50 47 51 65 52 48 53 51 54 64 55 82 56 49 57
REMARK SMILES IDX 50 58 63 60 83 61 52 62 37 63 38 64 46 65 39 66 45 67 40 68
REMARK SMILES IDX 41 69 42 70 43 71 44 72 67 73 68 74 76 75 69 76 75 77 70 78
REMARK SMILES IDX 71 79 72 80 73 81 74 82 53 83 54 84 62 85 55 86 61 87 56 88
REMARK SMILES IDX 57 89 58 90 59 91 60 92
REMARK H PARENT 20 6 11 12 25 29 81 48 51 59
REMARK Flexibility Score: inf
ROOT
ATOM      1  C   UNL     1       5.247  -3.356  -2.062  1.00  0.00     0.023 C 
ENDROOT
BRANCH   1   2
ATOM      2  C   UNL     1       5.492  -4.175  -0.795  1.00  0.00     0.116 C 
BRANCH   2   3
ATOM      3  N   UNL     1       5.143  -3.450   0.408  1.00  0.00    -0.356 N 
ATOM      4  C   UNL     1       4.155  -3.605   1.324  1.00  0.00     0.224 C 
ATOM      5  O   UNL     1       4.175  -2.822   2.282  1.00  0.00    -0.275 OA
ATOM      6  H   UNL     1       5.743  -2.694   0.600  1.00  0.00     0.163 HD
BRANCH   4   7
ATOM      7  C   UNL     1       3.027  -4.637   1.238  1.00  0.00     0.098 C 
BRANCH   7   8
ATOM      8  C   UNL     1       3.454  -6.103   1.231  1.00  0.00     0.129 C 
BRANCH   8   9
ATOM      9  N   UNL     1       3.879  -6.640   2.506  1.00  0.00    -0.352 N 
ATOM     10  C   UNL     1       4.016  -7.939   2.890  1.00  0.00     0.244 C 
ATOM     11  O   UNL     1       4.370  -8.178   4.045  1.00  0.00    -0.270 OA
ATOM     12  H   UNL     1       4.099  -5.971   3.194  1.00  0.00     0.163 HD
BRANCH  10  13
ATOM     13  C   UNL     1       3.691  -9.096   2.003  1.00  0.00     0.072 C 
ATOM     14  C   UNL     1       3.696  -9.182   0.662  1.00  0.00     0.025 C 
BRANCH  14  15
ATOM     15  C   UNL     1       3.396 -10.382  -0.070  1.00  0.00     0.030 A 
ATOM     16  C   UNL     1       2.499  -9.363  -2.260  1.00  0.00     0.046 C 
ATOM     17  C   UNL     1       2.897 -10.496  -1.371  1.00  0.00    -0.033 A 
ATOM     18  C   UNL     1       2.791 -11.863  -1.792  1.00  0.00     0.016 A 
ATOM     19  C   UNL     1       3.201 -12.746  -0.827  1.00  0.00     0.066 A 
ATOM     20  S   UNL     1       3.709 -11.950   0.587  1.00  0.00    -0.144 S 
ENDBRANCH  14  15
ENDBRANCH  10  13
ENDBRANCH   8   9
ENDBRANCH   7   8
BRANCH   7  21
ATOM     21  C   UNL     1       1.920  -4.265   0.217  1.00  0.00     0.018 C 
BRANCH  21  22
ATOM     22  C   UNL     1       2.058  -4.588  -1.284  1.00  0.00    -0.017 C 
ATOM     23  C   UNL     1       2.235  -6.059  -1.627  1.00  0.00     0.007 C 
ATOM     24  C   UNL     1       0.838  -4.063  -2.049  1.00  0.00     0.007 C 
ENDBRANCH  21  22
ENDBRANCH   7  21
ENDBRANCH   4   7
ENDBRANCH   2   3
ENDBRANCH   1   2
BRANCH   1  25
ATOM     25  C   UNL     1       6.411  -2.509  -2.547  1.00  0.00     0.023 C 
BRANCH  25  26
ATOM     26  C   UNL     1       7.691  -3.268  -2.854  1.00  0.00     0.116 C 
BRANCH  26  27
ATOM     27  N   UNL     1       7.535  -4.356  -3.811  1.00  0.00    -0.352 N 
ATOM     28  C   UNL     1       8.420  -4.749  -4.797  1.00  0.00     0.251 C 
ATOM     29  H   UNL     1       6.700  -4.873  -3.747  1.00  0.00     0.163 HD
ATOM     30  O   UNL     1       8.140  -5.648  -5.569  1.00  0.00    -0.269 OA
BRANCH  28  31
ATOM     31  C   UNL     1       9.693  -4.004  -4.921  1.00  0.00     0.039 A 
ATOM     32  C   UNL     1      10.011  -3.409  -6.143  1.00  0.00     0.014 A 
ATOM     33  C   UNL     1      10.483  -3.782  -3.792  1.00  0.00     0.014 A 
ATOM     34  C   UNL     1      11.074  -2.505  -6.206  1.00  0.00     0.010 A 
ATOM     35  C   UNL     1      11.473  -2.810  -3.835  1.00  0.00     0.010 A 
ATOM     36  C   UNL     1      11.777  -2.157  -5.040  1.00  0.00    -0.014 A 
BRANCH  36  37
ATOM     37  C   UNL     1      12.834  -1.115  -5.050  1.00  0.00     0.031 A 
ATOM     38  C   UNL     1      14.241  -1.478  -4.660  1.00  0.00     0.074 A 
ATOM     39  C   UNL     1      12.517   0.167  -5.325  1.00  0.00     0.049 A 
ATOM     40  N   UNL     1      15.285  -0.703  -4.518  1.00  0.00    -0.248 NA
ATOM     41  C   UNL     1      14.500  -2.896  -4.354  1.00  0.00     0.031 C 
ATOM     42  C   UNL     1      11.179   0.661  -5.663  1.00  0.00     0.029 A 
ATOM     43  N   UNL     1      13.301   1.293  -5.359  1.00  0.00    -0.354 N 
ATOM     44  C   UNL     1      16.311  -1.531  -4.082  1.00  0.00     0.074 A 
ATOM     45  C   UNL     1      15.752  -2.855  -3.925  1.00  0.00     0.031 C 
ATOM     46  C   UNL     1      11.245   1.981  -5.908  1.00  0.00     0.029 A 
ATOM     47  C   UNL     1      12.617   2.435  -5.707  1.00  0.00     0.049 A 
ATOM     48  H   UNL     1      14.264   1.285  -5.153  1.00  0.00     0.167 HD
ATOM     49  C   UNL     1      17.612  -1.228  -3.858  1.00  0.00     0.031 A 
ATOM     50  C   UNL     1      13.047   3.703  -5.851  1.00  0.00     0.031 A 
ATOM     51  C   UNL     1      18.174   0.081  -4.044  1.00  0.00     0.049 A 
ATOM     52  C   UNL     1      14.500   4.015  -5.615  1.00  0.00     0.074 A 
ATOM     53  C   UNL     1      19.491   0.481  -3.902  1.00  0.00     0.029 A 
ATOM     54  N   UNL     1      17.452   1.203  -4.422  1.00  0.00    -0.354 N 
ATOM     55  N   UNL     1      15.468   3.205  -5.257  1.00  0.00    -0.248 NA
ATOM     56  C   UNL     1      14.920   5.410  -5.812  1.00  0.00     0.031 C 
ATOM     57  C   UNL     1      19.559   1.854  -4.161  1.00  0.00     0.029 A 
ATOM     58  C   UNL     1      18.293   2.298  -4.508  1.00  0.00     0.049 A 
ATOM     59  H   UNL     1      16.485   1.217  -4.602  1.00  0.00     0.167 HD
ATOM     60  C   UNL     1      16.617   3.987  -5.212  1.00  0.00     0.074 A 
ATOM     61  C   UNL     1      16.225   5.330  -5.590  1.00  0.00     0.031 C 
ATOM     62  C   UNL     1      17.883   3.626  -4.889  1.00  0.00     0.031 A 
BRANCH  49  63
ATOM     63  C   UNL     1      18.507  -2.345  -3.395  1.00  0.00    -0.014 A 
ATOM     64  C   UNL     1      18.855  -3.398  -4.262  1.00  0.00     0.010 A 
ATOM     65  C   UNL     1      19.006  -2.346  -2.081  1.00  0.00     0.010 A 
ATOM     66  C   UNL     1      19.640  -4.460  -3.806  1.00  0.00     0.020 A 
ATOM     67  C   UNL     1      19.816  -3.393  -1.630  1.00  0.00     0.020 A 
ATOM     68  C   UNL     1      20.108  -4.455  -2.490  1.00  0.00     0.054 A 
BRANCH  68  69
ATOM     69  S   UNL     1      21.124  -5.845  -1.923  1.00  0.00     0.124 S 
ATOM     70  O   UNL     1      20.121  -6.889  -1.729  1.00  0.00    -0.237 OA
ATOM     71  O   UNL     1      22.039  -6.054  -3.042  1.00  0.00    -0.237 OA
ATOM     72  O   UNL     1      21.746  -5.343  -0.700  1.00  0.00    -0.744 OA
ENDBRANCH  68  69
ENDBRANCH  49  63
BRANCH  50  73
ATOM     73  C   UNL     1      12.099   4.769  -6.277  1.00  0.00    -0.014 A 
ATOM     74  C   UNL     1      12.167   5.295  -7.579  1.00  0.00     0.010 A 
ATOM     75  C   UNL     1      11.118   5.253  -5.394  1.00  0.00     0.010 A 
ATOM     76  C   UNL     1      11.281   6.296  -7.987  1.00  0.00     0.020 A 
ATOM     77  C   UNL     1      10.215   6.238  -5.805  1.00  0.00     0.020 A 
ATOM     78  C   UNL     1      10.309   6.761  -7.097  1.00  0.00     0.054 A 
BRANCH  78  79
ATOM     79  S   UNL     1       9.132   8.020  -7.666  1.00  0.00     0.124 S 
ATOM     80  O   UNL     1       9.948   9.229  -7.647  1.00  0.00    -0.237 OA
ATOM     81  O   UNL     1       8.757   7.529  -8.990  1.00  0.00    -0.237 OA
ATOM     82  O   UNL     1       8.067   7.965  -6.667  1.00  0.00    -0.744 OA
ENDBRANCH  78  79
ENDBRANCH  50  73
BRANCH  62  83
ATOM     83  C   UNL     1      18.944   4.688  -4.961  1.00  0.00    -0.014 A 
ATOM     84  C   UNL     1      19.036   5.691  -3.981  1.00  0.00     0.010 A 
ATOM     85  C   UNL     1      19.898   4.645  -5.994  1.00  0.00     0.010 A 
ATOM     86  C   UNL     1      20.050   6.650  -4.047  1.00  0.00     0.020 A 
ATOM     87  C   UNL     1      20.927   5.587  -6.050  1.00  0.00     0.020 A 
ATOM     88  C   UNL     1      20.989   6.592  -5.082  1.00  0.00     0.054 A 
BRANCH  88  89
ATOM     89  S   UNL     1      22.325   7.818  -5.121  1.00  0.00     0.124 S 
ATOM     90  O   UNL     1      21.634   9.004  -5.617  1.00  0.00    -0.237 OA
ATOM     91  O   UNL     1      22.750   7.875  -3.724  1.00  0.00    -0.237 OA
ATOM     92  O   UNL     1      23.302   7.235  -6.038  1.00  0.00    -0.744 OA
ENDBRANCH  88  89
ENDBRANCH  62  83
ENDBRANCH  36  37
ENDBRANCH  28  31
ENDBRANCH  26  27
ENDBRANCH  25  26
ENDBRANCH   1  25
TORSDOF 20
