REMARK SMILES CCOc1cc(/C=C(/F)C(=O)NCCCCNC(=O)c2ccc(-c3c4nc(c(-c5ccc(S(=O)(=O)[O-])cc5)c5ccc([nH]5)c(-c5ccc(S(=O)(=O)[O-])cc5)c5nc(c(-c6ccc(S(=O)(=O)[O-])cc6)c6ccc3[nH]6)C=C5)C=C4)cc2)ccc1O
REMARK SMILES IDX 14 1 13 2 12 3 10 4 11 5 8 7 7 8 9 9 6 10 4 11 5 12 82 13
REMARK SMILES IDX 81 14 80 15 3 16 2 17 1 18 83 19 15 21 16 22 17 23 18 24
REMARK SMILES IDX 19 26 20 27 21 28 79 29 22 30 78 31 23 32 24 33 25 34 72 35
REMARK SMILES IDX 26 36 77 37 71 38 73 39 27 40 76 41 70 42 69 43 28 45 58 46
REMARK SMILES IDX 39 47 57 48 40 49 43 50 56 51 74 52 41 53 42 54 55 56 75 57
REMARK SMILES IDX 44 58 29 59 30 60 38 61 31 62 37 63 32 64 33 65 34 66 35 67
REMARK SMILES IDX 36 68 59 69 60 70 68 71 61 72 67 73 62 74 63 75 64 76 65 77
REMARK SMILES IDX 66 78 45 79 46 80 54 81 47 82 53 83 48 84 49 85 50 86 51 87
REMARK SMILES IDX 52 88
REMARK H PARENT 12 6 83 20 17 25 73 44 43 55
REMARK Flexibility Score: inf
ROOT
ATOM      1  C   UNL     1       4.531  -0.580  -8.126  1.00  0.00     0.023 C 
ENDROOT
BRANCH   1   2
ATOM      2  C   UNL     1       3.189   0.108  -8.362  1.00  0.00     0.116 C 
BRANCH   2   3
ATOM      3  N   UNL     1       2.333   0.138  -7.190  1.00  0.00    -0.350 N 
ATOM      4  C   UNL     1       1.820   1.160  -6.446  1.00  0.00     0.280 C 
ATOM      5  O   UNL     1       0.943   0.866  -5.635  1.00  0.00    -0.267 OA
ATOM      6  H   UNL     1       2.071  -0.755  -6.869  1.00  0.00     0.163 HD
BRANCH   4   7
ATOM      7  C   UNL     1       2.299   2.565  -6.624  1.00  0.00     0.188 C 
ATOM      8  C   UNL     1       2.234   3.594  -5.760  1.00  0.00     0.053 C 
ATOM      9  F   UNL     1       2.811   2.849  -7.842  1.00  0.00    -0.201 F 
BRANCH   8  10
ATOM     10  C   UNL     1       1.733   3.701  -4.379  1.00  0.00    -0.019 A 
ATOM     11  C   UNL     1       1.186   2.753  -2.178  1.00  0.00     0.161 A 
ATOM     12  C   UNL     1       1.717   2.637  -3.474  1.00  0.00     0.058 A 
ATOM     13  C   UNL     1       0.730   4.001  -1.759  1.00  0.00     0.157 A 
ATOM     14  C   UNL     1       0.823   5.102  -2.611  1.00  0.00     0.051 A 
ATOM     15  C   UNL     1       1.309   4.952  -3.914  1.00  0.00     0.012 A 
BRANCH  11  16
ATOM     16  O   UNL     1       1.237   1.566  -1.513  1.00  0.00    -0.490 OA
BRANCH  16  17
ATOM     17  C   UNL     1       0.623   1.390  -0.249  1.00  0.00     0.226 C 
ATOM     18  C   UNL     1       0.881  -0.050   0.165  1.00  0.00     0.049 C 
ENDBRANCH  16  17
ENDBRANCH  11  16
BRANCH  13  19
ATOM     19  O   UNL     1       0.183   4.260  -0.537  1.00  0.00    -0.504 OA
ATOM     20  H   UNL     1       0.088   3.570   0.090  1.00  0.00     0.293 HD
ENDBRANCH  13  19
ENDBRANCH   8  10
ENDBRANCH   4   7
ENDBRANCH   2   3
ENDBRANCH   1   2
BRANCH   1  21
ATOM     21  C   UNL     1       4.470  -2.008  -7.579  1.00  0.00     0.023 C 
BRANCH  21  22
ATOM     22  C   UNL     1       3.511  -2.962  -8.284  1.00  0.00     0.116 C 
BRANCH  22  23
ATOM     23  N   UNL     1       3.781  -3.100  -9.704  1.00  0.00    -0.352 N 
ATOM     24  C   UNL     1       3.910  -4.232 -10.471  1.00  0.00     0.251 C 
ATOM     25  H   UNL     1       3.887  -2.251 -10.192  1.00  0.00     0.163 HD
ATOM     26  O   UNL     1       4.260  -4.125 -11.643  1.00  0.00    -0.269 OA
BRANCH  24  27
ATOM     27  C   UNL     1       3.660  -5.575  -9.894  1.00  0.00     0.039 A 
ATOM     28  C   UNL     1       4.523  -6.618 -10.240  1.00  0.00     0.014 A 
ATOM     29  C   UNL     1       2.576  -5.824  -9.047  1.00  0.00     0.014 A 
ATOM     30  C   UNL     1       4.326  -7.894  -9.705  1.00  0.00     0.010 A 
ATOM     31  C   UNL     1       2.429  -7.076  -8.450  1.00  0.00     0.010 A 
ATOM     32  C   UNL     1       3.292  -8.130  -8.784  1.00  0.00    -0.014 A 
BRANCH  32  33
ATOM     33  C   UNL     1       3.098  -9.479  -8.188  1.00  0.00     0.031 A 
ATOM     34  C   UNL     1       1.839 -10.261  -8.463  1.00  0.00     0.074 A 
ATOM     35  C   UNL     1       4.048  -9.997  -7.383  1.00  0.00     0.049 A 
ATOM     36  N   UNL     1       1.506 -11.458  -8.049  1.00  0.00    -0.248 NA
ATOM     37  C   UNL     1       0.813  -9.608  -9.291  1.00  0.00     0.031 C 
ATOM     38  C   UNL     1       5.293  -9.325  -7.001  1.00  0.00     0.029 A 
ATOM     39  N   UNL     1       4.118 -11.210  -6.743  1.00  0.00    -0.354 N 
ATOM     40  C   UNL     1       0.233 -11.695  -8.557  1.00  0.00     0.074 A 
ATOM     41  C   UNL     1      -0.170 -10.496  -9.259  1.00  0.00     0.031 C 
ATOM     42  C   UNL     1       6.019 -10.149  -6.229  1.00  0.00     0.029 A 
ATOM     43  C   UNL     1       5.279 -11.390  -6.027  1.00  0.00     0.049 A 
ATOM     44  H   UNL     1       3.405 -11.887  -6.793  1.00  0.00     0.167 HD
ATOM     45  C   UNL     1      -0.524 -12.815  -8.470  1.00  0.00     0.031 A 
ATOM     46  C   UNL     1       5.703 -12.437  -5.292  1.00  0.00     0.031 A 
ATOM     47  C   UNL     1      -0.120 -14.010  -7.775  1.00  0.00     0.049 A 
ATOM     48  C   UNL     1       4.840 -13.667  -5.202  1.00  0.00     0.074 A 
ATOM     49  C   UNL     1      -0.793 -15.215  -7.673  1.00  0.00     0.029 A 
ATOM     50  N   UNL     1       1.059 -14.150  -7.060  1.00  0.00    -0.354 N 
ATOM     51  N   UNL     1       3.671 -13.898  -5.753  1.00  0.00    -0.248 NA
ATOM     52  C   UNL     1       5.363 -14.785  -4.406  1.00  0.00     0.031 C 
ATOM     53  C   UNL     1      -0.049 -16.063  -6.847  1.00  0.00     0.029 A 
ATOM     54  C   UNL     1       1.121 -15.412  -6.491  1.00  0.00     0.049 A 
ATOM     55  H   UNL     1       1.751 -13.455  -6.969  1.00  0.00     0.167 HD
ATOM     56  C   UNL     1       3.333 -15.197  -5.391  1.00  0.00     0.074 A 
ATOM     57  C   UNL     1       4.430 -15.708  -4.595  1.00  0.00     0.031 C 
ATOM     58  C   UNL     1       2.215 -15.905  -5.691  1.00  0.00     0.031 A 
BRANCH  45  59
ATOM     59  C   UNL     1      -1.875 -12.798  -9.141  1.00  0.00    -0.014 A 
ATOM     60  C   UNL     1      -1.992 -12.765 -10.544  1.00  0.00     0.010 A 
ATOM     61  C   UNL     1      -3.045 -12.856  -8.362  1.00  0.00     0.010 A 
ATOM     62  C   UNL     1      -3.250 -12.744 -11.151  1.00  0.00     0.020 A 
ATOM     63  C   UNL     1      -4.306 -12.867  -8.967  1.00  0.00     0.020 A 
ATOM     64  C   UNL     1      -4.400 -12.794 -10.358  1.00  0.00     0.054 A 
BRANCH  64  65
ATOM     65  S   UNL     1      -6.019 -12.788 -11.175  1.00  0.00     0.124 S 
ATOM     66  O   UNL     1      -6.106 -11.413 -11.661  1.00  0.00    -0.237 OA
ATOM     67  O   UNL     1      -5.860 -13.809 -12.207  1.00  0.00    -0.237 OA
ATOM     68  O   UNL     1      -6.951 -13.129 -10.103  1.00  0.00    -0.744 OA
ENDBRANCH  64  65
ENDBRANCH  45  59
BRANCH  46  69
ATOM     69  C   UNL     1       7.020 -12.376  -4.598  1.00  0.00    -0.014 A 
ATOM     70  C   UNL     1       8.091 -13.184  -5.018  1.00  0.00     0.010 A 
ATOM     71  C   UNL     1       7.210 -11.503  -3.510  1.00  0.00     0.010 A 
ATOM     72  C   UNL     1       9.320 -13.137  -4.351  1.00  0.00     0.020 A 
ATOM     73  C   UNL     1       8.445 -11.430  -2.861  1.00  0.00     0.020 A 
ATOM     74  C   UNL     1       9.489 -12.257  -3.278  1.00  0.00     0.054 A 
BRANCH  74  75
ATOM     75  S   UNL     1      11.106 -12.180  -2.458  1.00  0.00     0.124 S 
ATOM     76  O   UNL     1      11.139 -13.444  -1.730  1.00  0.00    -0.237 OA
ATOM     77  O   UNL     1      12.027 -12.075  -3.587  1.00  0.00    -0.237 OA
ATOM     78  O   UNL     1      11.011 -10.981  -1.628  1.00  0.00    -0.744 OA
ENDBRANCH  74  75
ENDBRANCH  46  69
BRANCH  58  79
ATOM     79  C   UNL     1       2.136 -17.321  -5.182  1.00  0.00    -0.014 A 
ATOM     80  C   UNL     1       1.987 -17.601  -3.812  1.00  0.00     0.010 A 
ATOM     81  C   UNL     1       2.185 -18.390  -6.096  1.00  0.00     0.010 A 
ATOM     82  C   UNL     1       1.939 -18.923  -3.361  1.00  0.00     0.020 A 
ATOM     83  C   UNL     1       2.102 -19.712  -5.653  1.00  0.00     0.020 A 
ATOM     84  C   UNL     1       2.000 -19.971  -4.285  1.00  0.00     0.054 A 
BRANCH  84  85
ATOM     85  S   UNL     1       1.919 -21.677  -3.676  1.00  0.00     0.124 S 
ATOM     86  O   UNL     1       3.235 -21.845  -3.066  1.00  0.00    -0.237 OA
ATOM     87  O   UNL     1       0.795 -21.631  -2.743  1.00  0.00    -0.237 OA
ATOM     88  O   UNL     1       1.687 -22.466  -4.884  1.00  0.00    -0.744 OA
ENDBRANCH  84  85
ENDBRANCH  58  79
ENDBRANCH  32  33
ENDBRANCH  24  27
ENDBRANCH  22  23
ENDBRANCH  21  22
ENDBRANCH   1  21
TORSDOF 18
