REMARK SMILES Cc1cc(OC(F)(F)F)cc2c1O[C@H](C(F)(F)F)C(C(=O)NCCCCNC(=O)c1ccc(-c3c4nc(c(-c5ccc(S(=O)(=O)[O-])cc5)c5ccc([nH]5)c(-c5ccc(S(=O)(=O)[O-])cc5)c5nc(c(-c6ccc(S(=O)(=O)[O-])cc6)c6ccc3[nH]6)C=C5)C=C4)cc1)=C2
REMARK SMILES IDX 25 1 24 2 23 3 22 4 20 5 21 6 19 8 1 9 2 10 3 11 12 12 4 13
REMARK SMILES IDX 11 14 13 15 10 16 90 17 14 18 5 19 6 20 7 21 8 22 9 23 15 24
REMARK SMILES IDX 16 25 17 26 18 27 26 28 27 29 28 30 29 32 30 33 31 34 89 35
REMARK SMILES IDX 32 36 88 37 33 38 34 39 35 40 82 41 36 42 87 43 81 44 83 45
REMARK SMILES IDX 37 46 86 47 80 48 79 49 38 51 68 52 49 53 67 54 50 55 53 56
REMARK SMILES IDX 66 57 84 58 51 59 52 60 65 62 85 63 54 64 39 65 40 66 48 67
REMARK SMILES IDX 41 68 47 69 42 70 43 71 44 72 45 73 46 74 69 75 70 76 78 77
REMARK SMILES IDX 71 78 77 79 72 80 73 81 74 82 75 83 76 84 55 85 56 86 64 87
REMARK SMILES IDX 57 88 63 89 58 90 59 91 60 92 61 93 62 94
REMARK H PARENT 22 7 27 31 83 50 53 61
REMARK Flexibility Score: inf
ROOT
ATOM      1  C   UNL     1      -0.971  -5.496   6.429  1.00  0.00     0.023 C 
ENDROOT
BRANCH   1   2
ATOM      2  C   UNL     1      -0.784  -4.542   5.247  1.00  0.00     0.023 C 
BRANCH   2   3
ATOM      3  C   UNL     1      -2.001  -3.669   4.955  1.00  0.00     0.116 C 
BRANCH   3   4
ATOM      4  N   UNL     1      -2.002  -2.454   5.749  1.00  0.00    -0.352 N 
ATOM      5  C   UNL     1      -1.645  -1.161   5.570  1.00  0.00     0.251 C 
ATOM      6  O   UNL     1      -1.812  -0.427   6.548  1.00  0.00    -0.270 OA
ATOM      7  H   UNL     1      -2.354  -2.612   6.655  1.00  0.00     0.163 HD
BRANCH   5   8
ATOM      8  C   UNL     1      -1.086  -0.589   4.310  1.00  0.00     0.067 C 
ATOM      9  C   UNL     1       1.078   0.319  -0.281  1.00  0.00     0.048 C 
ATOM     10  C   UNL     1       0.685   1.144   0.912  1.00  0.00    -0.005 A 
ATOM     11  C   UNL     1       0.893   2.534   0.887  1.00  0.00     0.054 A 
ATOM     12  C   UNL     1       0.160   0.559   2.070  1.00  0.00     0.131 A 
ATOM     13  C   UNL     1       0.570   3.326   1.992  1.00  0.00     0.130 A 
ATOM     14  C   UNL     1      -0.166   1.339   3.182  1.00  0.00     0.021 A 
ATOM     15  O   UNL     1       0.019  -0.802   2.092  1.00  0.00    -0.475 OA
ATOM     16  C   UNL     1       0.039   2.720   3.136  1.00  0.00     0.058 A 
ATOM     17  C   UNL     1      -0.683   0.694   4.383  1.00  0.00     0.025 C 
ATOM     18  C   UNL     1      -0.992  -1.321   3.002  1.00  0.00     0.314 C 
BRANCH  13  19
ATOM     19  O   UNL     1       0.721   4.680   2.090  1.00  0.00    -0.406 OA
BRANCH  19  20
ATOM     20  C   UNL     1       1.312   5.361   0.998  1.00  0.00     0.573 C 
ATOM     21  F   UNL     1       2.558   4.903   0.751  1.00  0.00    -0.132 F 
ATOM     22  F   UNL     1       0.560   5.241  -0.118  1.00  0.00    -0.132 F 
ATOM     23  F   UNL     1       1.402   6.675   1.301  1.00  0.00    -0.132 F 
ENDBRANCH  19  20
ENDBRANCH  13  19
BRANCH  18  24
ATOM     24  C   UNL     1      -2.345  -1.406   2.269  1.00  0.00     0.429 C 
ATOM     25  F   UNL     1      -2.279  -2.311   1.260  1.00  0.00    -0.167 F 
ATOM     26  F   UNL     1      -3.352  -1.807   3.080  1.00  0.00    -0.167 F 
ATOM     27  F   UNL     1      -2.723  -0.227   1.726  1.00  0.00    -0.167 F 
ENDBRANCH  18  24
ENDBRANCH   5   8
ENDBRANCH   3   4
ENDBRANCH   2   3
ENDBRANCH   1   2
BRANCH   1  28
ATOM     28  C   UNL     1      -2.166  -6.443   6.321  1.00  0.00     0.116 C 
BRANCH  28  29
ATOM     29  N   UNL     1      -2.205  -7.197   5.076  1.00  0.00    -0.352 N 
ATOM     30  C   UNL     1      -2.728  -8.454   4.882  1.00  0.00     0.251 C 
ATOM     31  H   UNL     1      -1.813  -6.759   4.286  1.00  0.00     0.163 HD
ATOM     32  O   UNL     1      -2.659  -9.012   3.794  1.00  0.00    -0.269 OA
BRANCH  30  33
ATOM     33  C   UNL     1      -3.338  -9.123   6.042  1.00  0.00     0.039 A 
ATOM     34  C   UNL     1      -2.712 -10.254   6.568  1.00  0.00     0.014 A 
ATOM     35  C   UNL     1      -4.444  -8.545   6.672  1.00  0.00     0.014 A 
ATOM     36  C   UNL     1      -3.163 -10.776   7.778  1.00  0.00     0.010 A 
ATOM     37  C   UNL     1      -4.865  -9.044   7.899  1.00  0.00     0.010 A 
ATOM     38  C   UNL     1      -4.221 -10.156   8.463  1.00  0.00    -0.014 A 
BRANCH  38  39
ATOM     39  C   UNL     1      -4.667 -10.673   9.776  1.00  0.00     0.031 A 
ATOM     40  C   UNL     1      -5.979 -11.390   9.882  1.00  0.00     0.074 A 
ATOM     41  C   UNL     1      -3.905 -10.472  10.867  1.00  0.00     0.049 A 
ATOM     42  N   UNL     1      -6.536 -11.925  10.936  1.00  0.00    -0.248 NA
ATOM     43  C   UNL     1      -6.774 -11.511   8.649  1.00  0.00     0.031 C 
ATOM     44  C   UNL     1      -2.626  -9.758  10.888  1.00  0.00     0.029 A 
ATOM     45  N   UNL     1      -4.093 -10.857  12.170  1.00  0.00    -0.354 N 
ATOM     46  C   UNL     1      -7.745 -12.445  10.495  1.00  0.00     0.074 A 
ATOM     47  C   UNL     1      -7.863 -12.123   9.090  1.00  0.00     0.031 C 
ATOM     48  C   UNL     1      -2.129  -9.785  12.137  1.00  0.00     0.029 A 
ATOM     49  C   UNL     1      -3.060 -10.501  13.005  1.00  0.00     0.049 A 
ATOM     50  H   UNL     1      -4.892 -11.342  12.479  1.00  0.00     0.167 HD
ATOM     51  C   UNL     1      -8.663 -13.152  11.193  1.00  0.00     0.031 A 
ATOM     52  C   UNL     1      -2.878 -10.736  14.319  1.00  0.00     0.031 A 
ATOM     53  C   UNL     1      -8.536 -13.487  12.582  1.00  0.00     0.049 A 
ATOM     54  C   UNL     1      -3.916 -11.514  15.077  1.00  0.00     0.074 A 
ATOM     55  C   UNL     1      -9.391 -14.240  13.365  1.00  0.00     0.029 A 
ATOM     56  N   UNL     1      -7.484 -13.093  13.393  1.00  0.00    -0.354 N 
ATOM     57  N   UNL     1      -5.031 -12.039  14.632  1.00  0.00    -0.248 NA
ATOM     58  C   UNL     1      -3.671 -11.736  16.510  1.00  0.00     0.031 C 
ATOM     59  C   UNL     1      -8.867 -14.282  14.661  1.00  0.00     0.029 A 
ATOM     60  C   UNL     1      -7.673 -13.576  14.674  1.00  0.00     0.049 A 
ATOM     61  H   UNL     1      -6.717 -12.550  13.101  1.00  0.00     0.167 HD
ATOM     62  C   UNL     1      -5.616 -12.667  15.725  1.00  0.00     0.074 A 
ATOM     63  C   UNL     1      -4.732 -12.458  16.853  1.00  0.00     0.031 C 
ATOM     64  C   UNL     1      -6.779 -13.357  15.783  1.00  0.00     0.031 A 
BRANCH  51  65
ATOM     65  C   UNL     1      -9.877 -13.621  10.447  1.00  0.00    -0.014 A 
ATOM     66  C   UNL     1      -9.794 -14.715   9.567  1.00  0.00     0.010 A 
ATOM     67  C   UNL     1     -11.113 -12.979  10.637  1.00  0.00     0.010 A 
ATOM     68  C   UNL     1     -10.921 -15.139   8.862  1.00  0.00     0.020 A 
ATOM     69  C   UNL     1     -12.248 -13.412   9.945  1.00  0.00     0.020 A 
ATOM     70  C   UNL     1     -12.141 -14.482   9.053  1.00  0.00     0.054 A 
BRANCH  70  71
ATOM     71  S   UNL     1     -13.584 -15.056   8.118  1.00  0.00     0.124 S 
ATOM     72  O   UNL     1     -13.200 -14.738   6.744  1.00  0.00    -0.237 OA
ATOM     73  O   UNL     1     -13.628 -16.478   8.444  1.00  0.00    -0.237 OA
ATOM     74  O   UNL     1     -14.686 -14.259   8.653  1.00  0.00    -0.744 OA
ENDBRANCH  70  71
ENDBRANCH  51  65
BRANCH  52  75
ATOM     75  C   UNL     1      -1.636 -10.263  14.980  1.00  0.00    -0.014 A 
ATOM     76  C   UNL     1      -0.575 -11.156  15.205  1.00  0.00     0.010 A 
ATOM     77  C   UNL     1      -1.484  -8.910  15.331  1.00  0.00     0.010 A 
ATOM     78  C   UNL     1       0.623 -10.703  15.763  1.00  0.00     0.020 A 
ATOM     79  C   UNL     1      -0.282  -8.451  15.879  1.00  0.00     0.020 A 
ATOM     80  C   UNL     1       0.766  -9.351  16.088  1.00  0.00     0.054 A 
BRANCH  80  81
ATOM     81  S   UNL     1       2.359  -8.781  16.744  1.00  0.00     0.124 S 
ATOM     82  O   UNL     1       2.446  -9.502  18.010  1.00  0.00    -0.237 OA
ATOM     83  O   UNL     1       3.291  -9.212  15.704  1.00  0.00    -0.237 OA
ATOM     84  O   UNL     1       2.187  -7.335  16.858  1.00  0.00    -0.744 OA
ENDBRANCH  80  81
ENDBRANCH  52  75
BRANCH  64  85
ATOM     85  C   UNL     1      -7.183 -13.952  17.100  1.00  0.00    -0.014 A 
ATOM     86  C   UNL     1      -7.859 -13.173  18.052  1.00  0.00     0.010 A 
ATOM     87  C   UNL     1      -7.025 -15.333  17.317  1.00  0.00     0.010 A 
ATOM     88  C   UNL     1      -8.393 -13.771  19.196  1.00  0.00     0.020 A 
ATOM     89  C   UNL     1      -7.568 -15.936  18.454  1.00  0.00     0.020 A 
ATOM     90  C   UNL     1      -8.257 -15.151  19.381  1.00  0.00     0.054 A 
BRANCH  90  91
ATOM     91  S   UNL     1      -9.058 -15.913  20.820  1.00  0.00     0.124 S 
ATOM     92  O   UNL     1      -8.321 -15.319  21.932  1.00  0.00    -0.237 OA
ATOM     93  O   UNL     1     -10.444 -15.473  20.678  1.00  0.00    -0.237 OA
ATOM     94  O   UNL     1      -8.839 -17.344  20.623  1.00  0.00    -0.744 OA
ENDBRANCH  90  91
ENDBRANCH  64  85
ENDBRANCH  38  39
ENDBRANCH  30  33
ENDBRANCH  28  29
ENDBRANCH   1  28
TORSDOF 17
