REMARK SMILES CSCC[C@H](NC(=O)c1nc(C(C)C)n[nH]1)C(=O)NCCCCNC(=O)c1ccc(-c2c3nc(c(-c4ccc(S(=O)(=O)[O-])cc4)c4ccc([nH]4)c(-c4ccc(S(=O)(=O)[O-])cc4)c4nc(c(-c5ccc(S(=O)(=O)[O-])cc5)c5ccc2[nH]5)C=C4)C=C3)cc1
REMARK SMILES IDX 21 1 20 2 19 3 17 4 18 5 5 7 4 8 3 9 2 10 1 11 6 12 7 13
REMARK SMILES IDX 8 15 9 16 10 17 16 18 11 19 15 20 12 22 13 23 14 24 22 25
REMARK SMILES IDX 23 26 24 27 25 28 26 30 27 31 28 32 86 33 29 34 85 35 30 36
REMARK SMILES IDX 31 37 32 38 79 39 33 40 84 41 78 42 80 43 34 44 83 45 77 46
REMARK SMILES IDX 76 47 35 49 65 50 46 51 64 52 47 53 50 54 63 55 81 56 48 57
REMARK SMILES IDX 49 58 62 60 82 61 51 62 36 63 37 64 45 65 38 66 44 67 39 68
REMARK SMILES IDX 40 69 41 70 42 71 43 72 66 73 67 74 75 75 68 76 74 77 69 78
REMARK SMILES IDX 70 79 71 80 72 81 73 82 52 83 53 84 61 85 54 86 60 87 55 88
REMARK SMILES IDX 56 89 57 90 58 91 59 92
REMARK H PARENT 19 6 6 14 16 21 24 29 80 48 50 59
REMARK Flexibility Score: inf
ROOT
ATOM      1  C   UNL     1       0.480  -6.253   3.314  1.00  0.00     0.023 C 
ENDROOT
BRANCH   1   2
ATOM      2  C   UNL     1       1.061  -5.155   2.422  1.00  0.00     0.116 C 
BRANCH   2   3
ATOM      3  N   UNL     1       0.202  -4.842   1.296  1.00  0.00    -0.354 N 
ATOM      4  C   UNL     1       0.128  -3.785   0.443  1.00  0.00     0.242 C 
ATOM      5  O   UNL     1      -0.691  -3.901  -0.475  1.00  0.00    -0.273 OA
ATOM      6  H   UNL     1      -0.466  -5.540   1.109  1.00  0.00     0.163 HD
BRANCH   4   7
ATOM      7  C   UNL     1       1.028  -2.535   0.522  1.00  0.00     0.172 C 
BRANCH   7   8
ATOM      8  C   UNL     1       2.487  -2.598   0.028  1.00  0.00     0.046 C 
BRANCH   8   9
ATOM      9  C   UNL     1       3.144  -3.933  -0.305  1.00  0.00     0.072 C 
BRANCH   9  10
ATOM     10  S   UNL     1       3.139  -4.379  -2.070  1.00  0.00    -0.165 SA
ATOM     11  C   UNL     1       1.547  -5.224  -2.196  1.00  0.00     0.085 C 
ENDBRANCH   9  10
ENDBRANCH   8   9
ENDBRANCH   7   8
BRANCH   7  12
ATOM     12  N   UNL     1       0.972  -1.941   1.867  1.00  0.00    -0.338 N 
ATOM     13  C   UNL     1       0.278  -0.857   2.344  1.00  0.00     0.289 C 
ATOM     14  H   UNL     1       1.526  -2.399   2.540  1.00  0.00     0.164 HD
ATOM     15  O   UNL     1       0.356  -0.649   3.559  1.00  0.00    -0.266 OA
BRANCH  13  16
ATOM     16  C   UNL     1      -0.461   0.034   1.483  1.00  0.00     0.214 A 
ATOM     17  N   UNL     1      -0.675  -0.044   0.185  1.00  0.00    -0.207 NA
ATOM     18  N   UNL     1      -1.044   1.180   1.943  1.00  0.00    -0.255 N 
ATOM     19  C   UNL     1      -1.398   1.086  -0.100  1.00  0.00     0.153 A 
ATOM     20  N   UNL     1      -1.620   1.882   0.954  1.00  0.00    -0.158 NA
ATOM     21  H   UNL     1      -1.041   1.459   2.887  1.00  0.00     0.192 HD
BRANCH  19  22
ATOM     22  C   UNL     1      -1.847   1.401  -1.491  1.00  0.00     0.053 C 
ATOM     23  C   UNL     1      -3.245   2.022  -1.533  1.00  0.00     0.016 C 
ATOM     24  C   UNL     1      -0.839   2.302  -2.205  1.00  0.00     0.016 C 
ENDBRANCH  19  22
ENDBRANCH  13  16
ENDBRANCH   7  12
ENDBRANCH   4   7
ENDBRANCH   2   3
ENDBRANCH   1   2
BRANCH   1  25
ATOM     25  C   UNL     1       0.247  -7.606   2.634  1.00  0.00     0.023 C 
BRANCH  25  26
ATOM     26  C   UNL     1       1.470  -8.218   1.956  1.00  0.00     0.116 C 
BRANCH  26  27
ATOM     27  N   UNL     1       2.528  -8.532   2.905  1.00  0.00    -0.352 N 
ATOM     28  C   UNL     1       3.029  -9.759   3.270  1.00  0.00     0.251 C 
ATOM     29  H   UNL     1       2.943  -7.756   3.347  1.00  0.00     0.163 HD
ATOM     30  O   UNL     1       3.788  -9.853   4.230  1.00  0.00    -0.269 OA
BRANCH  28  31
ATOM     31  C   UNL     1       2.633 -10.964   2.513  1.00  0.00     0.039 A 
ATOM     32  C   UNL     1       2.153 -12.081   3.202  1.00  0.00     0.014 A 
ATOM     33  C   UNL     1       2.728 -10.981   1.119  1.00  0.00     0.014 A 
ATOM     34  C   UNL     1       1.693 -13.191   2.486  1.00  0.00     0.010 A 
ATOM     35  C   UNL     1       2.216 -12.061   0.408  1.00  0.00     0.010 A 
ATOM     36  C   UNL     1       1.688 -13.174   1.083  1.00  0.00    -0.014 A 
BRANCH  36  37
ATOM     37  C   UNL     1       1.154 -14.303   0.280  1.00  0.00     0.031 A 
ATOM     38  C   UNL     1       2.080 -15.076  -0.619  1.00  0.00     0.074 A 
ATOM     39  C   UNL     1      -0.169 -14.562   0.271  1.00  0.00     0.049 A 
ATOM     40  N   UNL     1       1.792 -15.955  -1.542  1.00  0.00    -0.248 NA
ATOM     41  C   UNL     1       3.519 -14.796  -0.479  1.00  0.00     0.031 C 
ATOM     42  C   UNL     1      -1.175 -13.876   1.084  1.00  0.00     0.029 A 
ATOM     43  N   UNL     1      -0.898 -15.459  -0.471  1.00  0.00    -0.354 N 
ATOM     44  C   UNL     1       3.006 -16.305  -2.120  1.00  0.00     0.074 A 
ATOM     45  C   UNL     1       4.031 -15.525  -1.460  1.00  0.00     0.031 C 
ATOM     46  C   UNL     1      -2.388 -14.379   0.800  1.00  0.00     0.029 A 
ATOM     47  C   UNL     1      -2.253 -15.388  -0.247  1.00  0.00     0.049 A 
ATOM     48  H   UNL     1      -0.488 -16.093  -1.103  1.00  0.00     0.167 HD
ATOM     49  C   UNL     1       3.248 -17.200  -3.107  1.00  0.00     0.031 A 
ATOM     50  C   UNL     1      -3.274 -16.044  -0.834  1.00  0.00     0.031 A 
ATOM     51  C   UNL     1       2.232 -17.994  -3.741  1.00  0.00     0.049 A 
ATOM     52  C   UNL     1      -2.982 -17.039  -1.923  1.00  0.00     0.074 A 
ATOM     53  C   UNL     1       2.381 -18.958  -4.722  1.00  0.00     0.029 A 
ATOM     54  N   UNL     1       0.878 -17.922  -3.451  1.00  0.00    -0.354 N 
ATOM     55  N   UNL     1      -1.824 -17.375  -2.441  1.00  0.00    -0.248 NA
ATOM     56  C   UNL     1      -4.131 -17.747  -2.506  1.00  0.00     0.031 C 
ATOM     57  C   UNL     1       1.112 -19.450  -5.046  1.00  0.00     0.029 A 
ATOM     58  C   UNL     1       0.180 -18.822  -4.235  1.00  0.00     0.049 A 
ATOM     59  H   UNL     1       0.474 -17.320  -2.785  1.00  0.00     0.167 HD
ATOM     60  C   UNL     1      -2.103 -18.356  -3.385  1.00  0.00     0.074 A 
ATOM     61  C   UNL     1      -3.536 -18.561  -3.370  1.00  0.00     0.031 C 
ATOM     62  C   UNL     1      -1.245 -19.030  -4.188  1.00  0.00     0.031 A 
BRANCH  49  63
ATOM     63  C   UNL     1       4.672 -17.358  -3.566  1.00  0.00    -0.014 A 
ATOM     64  C   UNL     1       5.627 -18.000  -2.758  1.00  0.00     0.010 A 
ATOM     65  C   UNL     1       5.053 -16.879  -4.832  1.00  0.00     0.010 A 
ATOM     66  C   UNL     1       6.951 -18.119  -3.189  1.00  0.00     0.020 A 
ATOM     67  C   UNL     1       6.371 -17.019  -5.278  1.00  0.00     0.020 A 
ATOM     68  C   UNL     1       7.316 -17.620  -4.443  1.00  0.00     0.054 A 
BRANCH  68  69
ATOM     69  S   UNL     1       9.038 -17.794  -4.983  1.00  0.00     0.124 S 
ATOM     70  O   UNL     1       9.700 -16.742  -4.215  1.00  0.00    -0.237 OA
ATOM     71  O   UNL     1       9.366 -19.160  -4.586  1.00  0.00    -0.237 OA
ATOM     72  O   UNL     1       8.974 -17.566  -6.425  1.00  0.00    -0.744 OA
ENDBRANCH  68  69
ENDBRANCH  49  63
BRANCH  50  73
ATOM     73  C   UNL     1      -4.671 -15.784  -0.395  1.00  0.00    -0.014 A 
ATOM     74  C   UNL     1      -5.362 -16.738   0.373  1.00  0.00     0.010 A 
ATOM     75  C   UNL     1      -5.313 -14.577  -0.727  1.00  0.00     0.010 A 
ATOM     76  C   UNL     1      -6.674 -16.496   0.790  1.00  0.00     0.020 A 
ATOM     77  C   UNL     1      -6.617 -14.322  -0.292  1.00  0.00     0.020 A 
ATOM     78  C   UNL     1      -7.293 -15.289   0.455  1.00  0.00     0.054 A 
BRANCH  78  79
ATOM     79  S   UNL     1      -8.976 -14.971   1.056  1.00  0.00     0.124 S 
ATOM     80  O   UNL     1      -9.780 -15.782   0.147  1.00  0.00    -0.237 OA
ATOM     81  O   UNL     1      -8.914 -15.440   2.438  1.00  0.00    -0.237 OA
ATOM     82  O   UNL     1      -9.123 -13.525   0.904  1.00  0.00    -0.744 OA
ENDBRANCH  78  79
ENDBRANCH  50  73
BRANCH  62  83
ATOM     83  C   UNL     1      -1.811 -20.099  -5.081  1.00  0.00    -0.014 A 
ATOM     84  C   UNL     1      -2.468 -19.773  -6.279  1.00  0.00     0.010 A 
ATOM     85  C   UNL     1      -1.578 -21.450  -4.766  1.00  0.00     0.010 A 
ATOM     86  C   UNL     1      -2.885 -20.784  -7.149  1.00  0.00     0.020 A 
ATOM     87  C   UNL     1      -1.978 -22.462  -5.642  1.00  0.00     0.020 A 
ATOM     88  C   UNL     1      -2.632 -22.122  -6.828  1.00  0.00     0.054 A 
BRANCH  88  89
ATOM     89  S   UNL     1      -3.097 -23.411  -8.017  1.00  0.00     0.124 S 
ATOM     90  O   UNL     1      -4.541 -23.497  -7.823  1.00  0.00    -0.237 OA
ATOM     91  O   UNL     1      -2.667 -22.844  -9.293  1.00  0.00    -0.237 OA
ATOM     92  O   UNL     1      -2.337 -24.579  -7.575  1.00  0.00    -0.744 OA
ENDBRANCH  88  89
ENDBRANCH  62  83
ENDBRANCH  36  37
ENDBRANCH  28  31
ENDBRANCH  26  27
ENDBRANCH  25  26
ENDBRANCH   1  25
TORSDOF 20
