REMARK SMILES CSCC[C@H](C(=O)NCCCCNC(=O)c1ccc(-c2c3nc(c(-c4ccc(S(=O)(=O)[O-])cc4)c4ccc([nH]4)c(-c4ccc(S(=O)(=O)[O-])cc4)c4nc(c(-c5ccc(S(=O)(=O)[O-])cc5)c5ccc2[nH]5)C=C4)C=C3)cc1)N1C(=O)/C(=C/c2ccc3c(c2)OCO3)SC1=S
REMARK SMILES IDX 10 1 9 2 8 3 6 4 7 5 5 7 4 8 3 9 2 10 1 11 76 12 77 13 91 14
REMARK SMILES IDX 78 15 79 16 90 17 92 18 80 19 81 20 82 21 86 22 83 23 85 24
REMARK SMILES IDX 84 25 87 26 89 27 88 28 11 29 12 30 13 31 14 32 15 34 16 35
REMARK SMILES IDX 17 36 75 37 18 38 74 39 19 40 20 41 21 42 68 43 22 44 73 45
REMARK SMILES IDX 67 46 69 47 23 48 72 49 66 50 65 51 24 53 54 54 35 55 53 56
REMARK SMILES IDX 36 57 39 58 52 59 70 60 37 61 38 62 51 64 71 65 40 66 25 67
REMARK SMILES IDX 26 68 34 69 27 70 33 71 28 72 29 73 30 74 31 75 32 76 55 77
REMARK SMILES IDX 56 78 64 79 57 80 63 81 58 82 59 83 60 84 61 85 62 86 41 87
REMARK SMILES IDX 42 88 50 89 43 90 49 91 44 92 45 93 46 94 47 95 48 96
REMARK H PARENT 8 6 13 33 69 52 39 63
REMARK Flexibility Score: inf
ROOT
ATOM      1  C   UNL     1       3.381   3.322  -2.985  1.00  0.00     0.023 C 
ENDROOT
BRANCH   1   2
ATOM      2  C   UNL     1       1.970   3.674  -2.513  1.00  0.00     0.116 C 
BRANCH   2   3
ATOM      3  N   UNL     1       1.512   2.715  -1.519  1.00  0.00    -0.354 N 
ATOM      4  C   UNL     1       0.564   3.082  -0.586  1.00  0.00     0.243 C 
ATOM      5  O   UNL     1      -0.605   3.217  -0.935  1.00  0.00    -0.273 OA
ATOM      6  H   UNL     1       1.879   1.802  -1.512  1.00  0.00     0.163 HD
BRANCH   4   7
ATOM      7  C   UNL     1       1.003   2.956   0.892  1.00  0.00     0.182 C 
BRANCH   7   8
ATOM      8  C   UNL     1       2.530   2.992   1.179  1.00  0.00     0.046 C 
BRANCH   8   9
ATOM      9  C   UNL     1       3.399   4.176   0.752  1.00  0.00     0.072 C 
BRANCH   9  10
ATOM     10  S   UNL     1       3.023   5.779   1.499  1.00  0.00    -0.165 SA
ATOM     11  C   UNL     1       2.526   6.692   0.011  1.00  0.00     0.085 C 
ENDBRANCH   9  10
ENDBRANCH   8   9
ENDBRANCH   7   8
BRANCH   7  12
ATOM     12  N   UNL     1       0.220   3.658   1.932  1.00  0.00    -0.280 N 
ATOM     13  C   UNL     1       0.051   3.024   3.164  1.00  0.00     0.266 C 
ATOM     14  C   UNL     1      -0.173   4.978   1.918  1.00  0.00     0.149 C 
ATOM     15  O   UNL     1       0.264   1.846   3.421  1.00  0.00    -0.268 OA
ATOM     16  C   UNL     1      -0.433   4.006   4.171  1.00  0.00     0.081 C 
ATOM     17  S   UNL     1      -0.131   5.589   3.554  1.00  0.00    -0.054 SA
ATOM     18  S   UNL     1      -0.801   5.913   0.693  1.00  0.00    -0.052 S 
ATOM     19  C   UNL     1      -1.107   3.727   5.300  1.00  0.00     0.029 C 
BRANCH  19  20
ATOM     20  C   UNL     1      -1.677   4.842   6.077  1.00  0.00    -0.020 A 
ATOM     21  C   UNL     1      -0.964   5.368   7.174  1.00  0.00     0.012 A 
ATOM     22  C   UNL     1      -2.734   5.572   5.501  1.00  0.00     0.058 A 
ATOM     23  C   UNL     1      -1.231   6.663   7.633  1.00  0.00     0.051 A 
ATOM     24  C   UNL     1      -2.923   6.864   5.933  1.00  0.00     0.166 A 
ATOM     25  C   UNL     1      -2.182   7.400   6.959  1.00  0.00     0.165 A 
ATOM     26  O   UNL     1      -3.742   7.778   5.347  1.00  0.00    -0.454 OA
ATOM     27  O   UNL     1      -2.455   8.720   7.150  1.00  0.00    -0.454 OA
ATOM     28  C   UNL     1      -3.304   8.981   6.009  1.00  0.00     0.468 C 
ENDBRANCH  19  20
ENDBRANCH   7  12
ENDBRANCH   4   7
ENDBRANCH   2   3
ENDBRANCH   1   2
BRANCH   1  29
ATOM     29  C   UNL     1       3.881   4.161  -4.158  1.00  0.00     0.023 C 
BRANCH  29  30
ATOM     30  C   UNL     1       3.837   5.675  -3.976  1.00  0.00     0.116 C 
BRANCH  30  31
ATOM     31  N   UNL     1       4.931   6.211  -3.180  1.00  0.00    -0.352 N 
ATOM     32  C   UNL     1       5.735   7.296  -3.473  1.00  0.00     0.251 C 
ATOM     33  H   UNL     1       5.121   5.746  -2.333  1.00  0.00     0.163 HD
ATOM     34  O   UNL     1       6.678   7.589  -2.746  1.00  0.00    -0.269 OA
BRANCH  32  35
ATOM     35  C   UNL     1       5.476   8.068  -4.712  1.00  0.00     0.039 A 
ATOM     36  C   UNL     1       6.500   8.209  -5.651  1.00  0.00     0.014 A 
ATOM     37  C   UNL     1       4.195   8.555  -4.988  1.00  0.00     0.014 A 
ATOM     38  C   UNL     1       6.212   8.741  -6.912  1.00  0.00     0.010 A 
ATOM     39  C   UNL     1       3.896   9.018  -6.268  1.00  0.00     0.010 A 
ATOM     40  C   UNL     1       4.895   9.095  -7.252  1.00  0.00    -0.014 A 
BRANCH  40  41
ATOM     41  C   UNL     1       4.533   9.496  -8.639  1.00  0.00     0.031 A 
ATOM     42  C   UNL     1       3.977  10.867  -8.917  1.00  0.00     0.074 A 
ATOM     43  C   UNL     1       4.618   8.596  -9.641  1.00  0.00     0.049 A 
ATOM     44  N   UNL     1       3.534  11.364 -10.044  1.00  0.00    -0.248 NA
ATOM     45  C   UNL     1       3.882  11.790  -7.774  1.00  0.00     0.031 C 
ATOM     46  C   UNL     1       5.088   7.215  -9.506  1.00  0.00     0.029 A 
ATOM     47  N   UNL     1       4.304   8.706 -10.974  1.00  0.00    -0.354 N 
ATOM     48  C   UNL     1       3.084  12.644  -9.742  1.00  0.00     0.074 A 
ATOM     49  C   UNL     1       3.271  12.832  -8.319  1.00  0.00     0.031 C 
ATOM     50  C   UNL     1       5.057   6.618 -10.709  1.00  0.00     0.029 A 
ATOM     51  C   UNL     1       4.532   7.557 -11.695  1.00  0.00     0.049 A 
ATOM     52  H   UNL     1       3.948   9.531 -11.376  1.00  0.00     0.167 HD
ATOM     53  C   UNL     1       2.575  13.586 -10.573  1.00  0.00     0.031 A 
ATOM     54  C   UNL     1       4.340   7.283 -13.000  1.00  0.00     0.031 A 
ATOM     55  C   UNL     1       2.410  13.413 -11.992  1.00  0.00     0.049 A 
ATOM     56  C   UNL     1       3.793   8.351 -13.907  1.00  0.00     0.074 A 
ATOM     57  C   UNL     1       1.968  14.336 -12.925  1.00  0.00     0.029 A 
ATOM     58  N   UNL     1       2.680  12.244 -12.685  1.00  0.00    -0.354 N 
ATOM     59  N   UNL     1       3.437   9.578 -13.612  1.00  0.00    -0.248 NA
ATOM     60  C   UNL     1       3.632   7.999 -15.326  1.00  0.00     0.031 C 
ATOM     61  C   UNL     1       1.937  13.713 -14.177  1.00  0.00     0.029 A 
ATOM     62  C   UNL     1       2.400  12.415 -14.030  1.00  0.00     0.049 A 
ATOM     63  H   UNL     1       3.021  11.413 -12.280  1.00  0.00     0.167 HD
ATOM     64  C   UNL     1       3.035  10.152 -14.813  1.00  0.00     0.074 A 
ATOM     65  C   UNL     1       3.201   9.144 -15.839  1.00  0.00     0.031 C 
ATOM     66  C   UNL     1       2.572  11.405 -15.043  1.00  0.00     0.031 A 
BRANCH  53  67
ATOM     67  C   UNL     1       2.157  14.895  -9.960  1.00  0.00    -0.014 A 
ATOM     68  C   UNL     1       3.114  15.814  -9.492  1.00  0.00     0.010 A 
ATOM     69  C   UNL     1       0.792  15.224  -9.876  1.00  0.00     0.010 A 
ATOM     70  C   UNL     1       2.712  17.016  -8.905  1.00  0.00     0.020 A 
ATOM     71  C   UNL     1       0.387  16.438  -9.314  1.00  0.00     0.020 A 
ATOM     72  C   UNL     1       1.350  17.317  -8.813  1.00  0.00     0.054 A 
BRANCH  72  73
ATOM     73  S   UNL     1       0.854  18.889  -8.055  1.00  0.00     0.124 S 
ATOM     74  O   UNL     1       1.046  18.609  -6.634  1.00  0.00    -0.237 OA
ATOM     75  O   UNL     1       1.796  19.840  -8.639  1.00  0.00    -0.237 OA
ATOM     76  O   UNL     1      -0.534  19.053  -8.476  1.00  0.00    -0.744 OA
ENDBRANCH  72  73
ENDBRANCH  53  67
BRANCH  54  77
ATOM     77  C   UNL     1       4.695   5.942 -13.539  1.00  0.00    -0.014 A 
ATOM     78  C   UNL     1       5.835   5.784 -14.347  1.00  0.00     0.010 A 
ATOM     79  C   UNL     1       3.904   4.818 -13.242  1.00  0.00     0.010 A 
ATOM     80  C   UNL     1       6.171   4.528 -14.860  1.00  0.00     0.020 A 
ATOM     81  C   UNL     1       4.250   3.556 -13.735  1.00  0.00     0.020 A 
ATOM     82  C   UNL     1       5.376   3.421 -14.550  1.00  0.00     0.054 A 
BRANCH  82  83
ATOM     83  S   UNL     1       5.861   1.789 -15.178  1.00  0.00     0.124 S 
ATOM     84  O   UNL     1       5.440   1.863 -16.573  1.00  0.00    -0.237 OA
ATOM     85  O   UNL     1       7.304   1.777 -14.950  1.00  0.00    -0.237 OA
ATOM     86  O   UNL     1       5.100   0.864 -14.340  1.00  0.00    -0.744 OA
ENDBRANCH  82  83
ENDBRANCH  54  77
BRANCH  66  87
ATOM     87  C   UNL     1       2.242  11.773 -16.464  1.00  0.00    -0.014 A 
ATOM     88  C   UNL     1       1.079  11.290 -17.089  1.00  0.00     0.010 A 
ATOM     89  C   UNL     1       3.081  12.659 -17.164  1.00  0.00     0.010 A 
ATOM     90  C   UNL     1       0.774  11.668 -18.399  1.00  0.00     0.020 A 
ATOM     91  C   UNL     1       2.768  13.056 -18.466  1.00  0.00     0.020 A 
ATOM     92  C   UNL     1       1.621  12.547 -19.080  1.00  0.00     0.054 A 
BRANCH  92  93
ATOM     93  S   UNL     1       1.181  13.063 -20.763  1.00  0.00     0.124 S 
ATOM     94  O   UNL     1       1.552  11.889 -21.547  1.00  0.00    -0.237 OA
ATOM     95  O   UNL     1      -0.254  13.320 -20.657  1.00  0.00    -0.237 OA
ATOM     96  O   UNL     1       2.004  14.249 -20.988  1.00  0.00    -0.744 OA
ENDBRANCH  92  93
ENDBRANCH  66  87
ENDBRANCH  40  41
ENDBRANCH  32  35
ENDBRANCH  30  31
ENDBRANCH  29  30
ENDBRANCH   1  29
TORSDOF 19
