REMARK SMILES Cc1ccccc1C(=O)Nc1ccc(N2CCC(n3c(C)nc4cccnc43)CC2)c(C(=O)NCCCCNC(=O)c2ccc(-c3c4nc(c(-c5ccc(S(=O)(=O)[O-])cc5)c5ccc([nH]5)c(-c5ccc(S(=O)(=O)[O-])cc5)c5nc(c(-c6ccc(S(=O)(=O)[O-])cc6)c6ccc3[nH]6)C=C5)C=C4)cc2)c1
REMARK SMILES IDX 37 1 36 2 35 3 34 4 32 5 33 6 31 8 11 9 12 10 102 11 13 12
REMARK SMILES IDX 14 13 10 14 8 15 9 16 7 18 1 19 2 20 3 21 4 22 6 23 5 24
REMARK SMILES IDX 15 25 16 26 30 27 17 28 29 29 18 30 19 31 20 32 28 33 21 34
REMARK SMILES IDX 22 35 23 36 27 37 24 38 26 39 25 40 38 41 39 42 40 43 41 45
REMARK SMILES IDX 42 46 43 47 101 48 44 49 100 50 45 51 46 52 47 53 94 54
REMARK SMILES IDX 48 55 99 56 93 57 95 58 49 59 98 60 92 61 91 62 50 64 80 65
REMARK SMILES IDX 61 66 79 67 62 68 65 69 78 70 96 71 63 72 64 73 77 75 97 76
REMARK SMILES IDX 66 77 51 78 52 79 60 80 53 81 59 82 54 83 55 84 56 85 57 86
REMARK SMILES IDX 58 87 81 88 82 89 90 90 83 91 89 92 84 93 85 94 86 95 87 96
REMARK SMILES IDX 88 97 67 98 68 99 76 100 69 101 75 102 70 103 71 104 72 105
REMARK SMILES IDX 73 106 74 107
REMARK H PARENT 34 7 10 17 39 44 95 63 65 74
REMARK Flexibility Score: inf
ROOT
ATOM      1  C   UNL     1      10.484  -2.321   0.633  1.00  0.00     0.023 C 
ENDROOT
BRANCH   1   2
ATOM      2  C   UNL     1       9.554  -1.704  -0.408  1.00  0.00     0.023 C 
BRANCH   2   3
ATOM      3  C   UNL     1       8.075  -1.558  -0.055  1.00  0.00     0.116 C 
BRANCH   3   4
ATOM      4  N   UNL     1       7.711  -0.775   1.100  1.00  0.00    -0.352 N 
ATOM      5  C   UNL     1       6.514  -0.139   1.376  1.00  0.00     0.253 C 
ATOM      6  O   UNL     1       6.411   0.388   2.488  1.00  0.00    -0.269 OA
ATOM      7  H   UNL     1       8.411  -0.680   1.786  1.00  0.00     0.163 HD
BRANCH   5   8
ATOM      8  C   UNL     1       5.368   0.026   0.406  1.00  0.00     0.065 A 
ATOM      9  C   UNL     1       3.429   1.439  -0.116  1.00  0.00     0.042 A 
ATOM     10  C   UNL     1       3.109   0.631  -1.192  1.00  0.00     0.028 A 
ATOM     11  C   UNL     1       4.621   1.216   0.586  1.00  0.00     0.042 A 
ATOM     12  C   UNL     1       3.844  -0.531  -1.401  1.00  0.00     0.029 A 
ATOM     13  C   UNL     1       4.892  -0.919  -0.531  1.00  0.00     0.050 A 
BRANCH   9  14
ATOM     14  N   UNL     1       2.547   2.410   0.373  1.00  0.00    -0.322 N 
ATOM     15  C   UNL     1       1.165   2.424   0.417  1.00  0.00     0.255 C 
ATOM     16  O   UNL     1       0.607   3.490   0.693  1.00  0.00    -0.269 OA
ATOM     17  H   UNL     1       2.980   3.213   0.744  1.00  0.00     0.170 HD
BRANCH  15  18
ATOM     18  C   UNL     1       0.299   1.212   0.217  1.00  0.00     0.043 A 
ATOM     19  C   UNL     1       1.676  -0.477   1.619  1.00  0.00     0.045 C 
ATOM     20  C   UNL     1       0.527  -0.082   0.735  1.00  0.00    -0.038 A 
ATOM     21  C   UNL     1      -0.403  -1.108   0.455  1.00  0.00     0.004 A 
ATOM     22  C   UNL     1      -1.593  -0.845  -0.219  1.00  0.00     0.000 A 
ATOM     23  C   UNL     1      -0.925   1.460  -0.440  1.00  0.00     0.014 A 
ATOM     24  C   UNL     1      -1.867   0.447  -0.643  1.00  0.00     0.001 A 
ENDBRANCH  15  18
ENDBRANCH   9  14
BRANCH  13  25
ATOM     25  N   UNL     1       5.210  -2.273  -0.536  1.00  0.00    -0.371 N 
ATOM     26  C   UNL     1       5.685  -2.908  -1.755  1.00  0.00     0.118 C 
ATOM     27  C   UNL     1       5.029  -3.024   0.702  1.00  0.00     0.118 C 
ATOM     28  C   UNL     1       5.228  -4.337  -1.920  1.00  0.00     0.047 C 
ATOM     29  C   UNL     1       4.310  -4.331   0.418  1.00  0.00     0.047 C 
ATOM     30  C   UNL     1       5.053  -5.160  -0.629  1.00  0.00     0.094 C 
BRANCH  30  31
ATOM     31  N   UNL     1       4.438  -6.442  -0.999  1.00  0.00    -0.310 N 
ATOM     32  C   UNL     1       3.209  -7.002  -0.697  1.00  0.00     0.108 A 
ATOM     33  C   UNL     1       5.038  -7.284  -1.911  1.00  0.00     0.160 A 
ATOM     34  C   UNL     1       2.318  -6.619   0.429  1.00  0.00     0.088 C 
ATOM     35  N   UNL     1       2.929  -8.001  -1.521  1.00  0.00    -0.232 NA
ATOM     36  C   UNL     1       4.070  -8.214  -2.246  1.00  0.00     0.108 A 
ATOM     37  N   UNL     1       6.294  -7.197  -2.390  1.00  0.00    -0.237 NA
ATOM     38  C   UNL     1       4.409  -9.204  -3.175  1.00  0.00     0.034 A 
ATOM     39  C   UNL     1       6.613  -8.231  -3.201  1.00  0.00     0.113 A 
ATOM     40  C   UNL     1       5.732  -9.219  -3.632  1.00  0.00     0.022 A 
ENDBRANCH  30  31
ENDBRANCH  13  25
ENDBRANCH   5   8
ENDBRANCH   3   4
ENDBRANCH   2   3
ENDBRANCH   1   2
BRANCH   1  41
ATOM     41  C   UNL     1      10.069  -3.659   1.226  1.00  0.00     0.116 C 
BRANCH  41  42
ATOM     42  N   UNL     1      10.540  -4.835   0.527  1.00  0.00    -0.352 N 
ATOM     43  C   UNL     1      10.815  -6.093   1.056  1.00  0.00     0.251 C 
ATOM     44  H   UNL     1      10.685  -4.733  -0.442  1.00  0.00     0.163 HD
ATOM     45  O   UNL     1      11.696  -6.761   0.542  1.00  0.00    -0.269 OA
BRANCH  43  46
ATOM     46  C   UNL     1       9.974  -6.653   2.161  1.00  0.00     0.039 A 
ATOM     47  C   UNL     1       9.818  -8.050   2.250  1.00  0.00     0.014 A 
ATOM     48  C   UNL     1       9.238  -5.849   3.022  1.00  0.00     0.014 A 
ATOM     49  C   UNL     1       8.851  -8.611   3.096  1.00  0.00     0.010 A 
ATOM     50  C   UNL     1       8.241  -6.382   3.796  1.00  0.00     0.010 A 
ATOM     51  C   UNL     1       8.027  -7.759   3.819  1.00  0.00    -0.014 A 
BRANCH  51  52
ATOM     52  C   UNL     1       6.967  -8.115   4.747  1.00  0.00     0.031 A 
ATOM     53  C   UNL     1       7.289  -8.186   6.188  1.00  0.00     0.074 A 
ATOM     54  C   UNL     1       5.713  -7.865   4.314  1.00  0.00     0.049 A 
ATOM     55  N   UNL     1       6.451  -8.474   7.122  1.00  0.00    -0.248 NA
ATOM     56  C   UNL     1       8.640  -7.927   6.682  1.00  0.00     0.031 C 
ATOM     57  C   UNL     1       4.542  -7.484   5.097  1.00  0.00     0.029 A 
ATOM     58  N   UNL     1       5.200  -8.137   3.044  1.00  0.00    -0.354 N 
ATOM     59  C   UNL     1       7.048  -8.139   8.320  1.00  0.00     0.074 A 
ATOM     60  C   UNL     1       8.435  -7.900   8.000  1.00  0.00     0.031 C 
ATOM     61  C   UNL     1       3.441  -7.828   4.404  1.00  0.00     0.029 A 
ATOM     62  C   UNL     1       3.909  -8.634   3.282  1.00  0.00     0.049 A 
ATOM     63  H   UNL     1       5.644  -8.008   2.175  1.00  0.00     0.167 HD
ATOM     64  C   UNL     1       6.274  -7.941   9.425  1.00  0.00     0.031 A 
ATOM     65  C   UNL     1       3.573  -9.947   3.092  1.00  0.00     0.031 A 
ATOM     66  C   UNL     1       4.871  -8.243   9.147  1.00  0.00     0.049 A 
ATOM     67  C   UNL     1       2.976 -10.564   4.329  1.00  0.00     0.074 A 
ATOM     68  C   UNL     1       3.778  -7.439   8.867  1.00  0.00     0.029 A 
ATOM     69  N   UNL     1       4.504  -9.543   8.817  1.00  0.00    -0.354 N 
ATOM     70  N   UNL     1       3.320 -10.241   5.545  1.00  0.00    -0.248 NA
ATOM     71  C   UNL     1       1.930 -11.576   4.276  1.00  0.00     0.031 C 
ATOM     72  C   UNL     1       2.777  -8.258   8.282  1.00  0.00     0.029 A 
ATOM     73  C   UNL     1       3.252  -9.558   8.237  1.00  0.00     0.049 A 
ATOM     74  H   UNL     1       5.060 -10.341   8.976  1.00  0.00     0.167 HD
ATOM     75  C   UNL     1       2.547 -10.949   6.425  1.00  0.00     0.074 A 
ATOM     76  C   UNL     1       1.698 -11.775   5.583  1.00  0.00     0.031 C 
ATOM     77  C   UNL     1       2.657 -10.805   7.777  1.00  0.00     0.031 A 
BRANCH  64  78
ATOM     78  C   UNL     1       6.733  -7.197  10.665  1.00  0.00    -0.014 A 
ATOM     79  C   UNL     1       5.777  -6.570  11.492  1.00  0.00     0.010 A 
ATOM     80  C   UNL     1       8.077  -7.032  11.050  1.00  0.00     0.010 A 
ATOM     81  C   UNL     1       6.141  -5.756  12.577  1.00  0.00     0.020 A 
ATOM     82  C   UNL     1       8.460  -6.196  12.111  1.00  0.00     0.020 A 
ATOM     83  C   UNL     1       7.487  -5.553  12.866  1.00  0.00     0.054 A 
BRANCH  83  84
ATOM     84  S   UNL     1       7.946  -4.456  14.232  1.00  0.00     0.124 S 
ATOM     85  O   UNL     1       7.316  -3.195  13.849  1.00  0.00    -0.237 OA
ATOM     86  O   UNL     1       7.358  -5.130  15.386  1.00  0.00    -0.237 OA
ATOM     87  O   UNL     1       9.408  -4.449  14.197  1.00  0.00    -0.744 OA
ENDBRANCH  83  84
ENDBRANCH  64  78
BRANCH  65  88
ATOM     88  C   UNL     1       4.484 -10.691   2.171  1.00  0.00    -0.014 A 
ATOM     89  C   UNL     1       4.471 -10.326   0.815  1.00  0.00     0.010 A 
ATOM     90  C   UNL     1       5.615 -11.357   2.685  1.00  0.00     0.010 A 
ATOM     91  C   UNL     1       5.634 -10.441   0.054  1.00  0.00     0.020 A 
ATOM     92  C   UNL     1       6.775 -11.492   1.905  1.00  0.00     0.020 A 
ATOM     93  C   UNL     1       6.795 -10.963   0.615  1.00  0.00     0.054 A 
BRANCH  93  94
ATOM     94  S   UNL     1       8.347 -10.735  -0.304  1.00  0.00     0.124 S 
ATOM     95  O   UNL     1       8.075 -11.413  -1.569  1.00  0.00    -0.237 OA
ATOM     96  O   UNL     1       8.439  -9.280  -0.387  1.00  0.00    -0.237 OA
ATOM     97  O   UNL     1       9.344 -11.369   0.552  1.00  0.00    -0.744 OA
ENDBRANCH  93  94
ENDBRANCH  65  88
BRANCH  77  98
ATOM     98  C   UNL     1       2.139 -11.792   8.793  1.00  0.00    -0.014 A 
ATOM     99  C   UNL     1       1.787 -13.115   8.478  1.00  0.00     0.010 A 
ATOM    100  C   UNL     1       2.145 -11.442  10.164  1.00  0.00     0.010 A 
ATOM    101  C   UNL     1       1.395 -14.024   9.466  1.00  0.00     0.020 A 
ATOM    102  C   UNL     1       1.807 -12.358  11.165  1.00  0.00     0.020 A 
ATOM    103  C   UNL     1       1.408 -13.640  10.805  1.00  0.00     0.054 A 
BRANCH 103 104
ATOM    104  S   UNL     1       0.984 -14.859  12.071  1.00  0.00     0.124 S 
ATOM    105  O   UNL     1      -0.474 -14.774  12.092  1.00  0.00    -0.237 OA
ATOM    106  O   UNL     1       1.530 -16.100  11.525  1.00  0.00    -0.237 OA
ATOM    107  O   UNL     1       1.661 -14.364  13.266  1.00  0.00    -0.744 OA
ENDBRANCH 103 104
ENDBRANCH  77  98
ENDBRANCH  51  52
ENDBRANCH  43  46
ENDBRANCH  41  42
ENDBRANCH   1  41
TORSDOF 18
