REMARK SMILES COc1ccc(NC(=O)[C@@H]2[C@@H](C(=O)NCCCCNC(=O)c3ccc(-c4c5nc(c(-c6ccc(S(=O)(=O)[O-])cc6)c6ccc([nH]6)c(-c6ccc(S(=O)(=O)[O-])cc6)c6nc(c(-c7ccc(S(=O)(=O)[O-])cc7)c7ccc4[nH]7)C=C6)C=C5)cc3)[C@H]3C=C[C@@H]2C3)cc1O
REMARK SMILES IDX 16 1 15 2 14 3 12 4 13 5 11 7 10 8 85 9 82 10 84 11 86 12
REMARK SMILES IDX 83 13 8 14 7 15 9 17 6 18 3 19 4 20 88 21 5 22 87 23 2 24
REMARK SMILES IDX 1 25 89 26 17 28 18 29 19 30 20 31 21 33 22 34 23 35 81 36
REMARK SMILES IDX 24 37 80 38 25 39 26 40 27 41 74 42 28 43 79 44 73 45 75 46
REMARK SMILES IDX 29 47 78 48 72 49 71 50 30 52 60 53 41 54 59 55 42 56 45 57
REMARK SMILES IDX 58 58 76 59 43 60 44 61 57 63 77 64 46 65 31 66 32 67 40 68
REMARK SMILES IDX 33 69 39 70 34 71 35 72 36 73 37 74 38 75 61 76 62 77 70 78
REMARK SMILES IDX 63 79 69 80 64 81 65 82 66 83 67 84 68 85 47 86 48 87 56 88
REMARK SMILES IDX 49 89 55 90 50 91 51 92 52 93 53 94 54 95
REMARK H PARENT 14 6 7 16 89 27 19 32 75 51 45 62
REMARK Flexibility Score: inf
ROOT
ATOM      1  C   UNL     1       2.998  -8.284  -3.009  1.00  0.00     0.023 C 
ENDROOT
BRANCH   1   2
ATOM      2  C   UNL     1       2.937  -6.837  -2.525  1.00  0.00     0.116 C 
BRANCH   2   3
ATOM      3  N   UNL     1       1.680  -6.206  -2.900  1.00  0.00    -0.356 N 
ATOM      4  C   UNL     1       0.513  -5.965  -2.246  1.00  0.00     0.224 C 
ATOM      5  O   UNL     1      -0.359  -5.384  -2.904  1.00  0.00    -0.275 OA
ATOM      6  H   UNL     1       1.674  -5.882  -3.830  1.00  0.00     0.163 HD
BRANCH   4   7
ATOM      7  C   UNL     1       0.279  -6.246  -0.758  1.00  0.00     0.098 C 
ATOM      8  C   UNL     1       1.085  -7.366  -0.068  1.00  0.00     0.099 C 
ATOM      9  C   UNL     1      -0.053  -8.282   0.494  1.00  0.00     0.025 C 
ATOM     10  C   UNL     1      -1.201  -6.664  -0.512  1.00  0.00     0.025 C 
ATOM     11  C   UNL     1      -0.782  -8.906  -0.684  1.00  0.00    -0.027 C 
ATOM     12  C   UNL     1      -1.106  -7.249   0.898  1.00  0.00     0.017 C 
ATOM     13  C   UNL     1      -1.484  -7.932  -1.277  1.00  0.00    -0.027 C 
BRANCH   8  14
ATOM     14  C   UNL     1       2.104  -7.049   1.042  1.00  0.00     0.228 C 
ATOM     15  N   UNL     1       2.637  -5.853   1.417  1.00  0.00    -0.326 N 
ATOM     16  H   UNL     1       3.285  -5.958   2.150  1.00  0.00     0.169 HD
ATOM     17  O   UNL     1       2.509  -8.009   1.723  1.00  0.00    -0.274 OA
BRANCH  15  18
ATOM     18  C   UNL     1       2.505  -4.509   1.030  1.00  0.00     0.045 A 
ATOM     19  C   UNL     1       1.573  -1.927   0.521  1.00  0.00     0.160 A 
ATOM     20  C   UNL     1       1.811  -2.789  -0.538  1.00  0.00     0.052 A 
ATOM     21  C   UNL     1       1.998  -2.282   1.798  1.00  0.00     0.159 A 
ATOM     22  C   UNL     1       2.342  -4.058  -0.275  1.00  0.00     0.030 A 
ATOM     23  C   UNL     1       2.482  -3.561   2.056  1.00  0.00     0.076 A 
BRANCH  19  24
ATOM     24  O   UNL     1       0.720  -0.870   0.371  1.00  0.00    -0.493 OA
ATOM     25  C   UNL     1       1.349   0.329  -0.056  1.00  0.00     0.278 C 
ENDBRANCH  19  24
BRANCH  21  26
ATOM     26  O   UNL     1       1.873  -1.417   2.847  1.00  0.00    -0.504 OA
ATOM     27  H   UNL     1       1.550  -0.549   2.703  1.00  0.00     0.293 HD
ENDBRANCH  21  26
ENDBRANCH  15  18
ENDBRANCH   8  14
ENDBRANCH   4   7
ENDBRANCH   2   3
ENDBRANCH   1   2
BRANCH   1  28
ATOM     28  C   UNL     1       3.347  -8.409  -4.491  1.00  0.00     0.023 C 
BRANCH  28  29
ATOM     29  C   UNL     1       4.737  -7.901  -4.853  1.00  0.00     0.116 C 
BRANCH  29  30
ATOM     30  N   UNL     1       5.800  -8.626  -4.177  1.00  0.00    -0.352 N 
ATOM     31  C   UNL     1       7.030  -8.989  -4.676  1.00  0.00     0.251 C 
ATOM     32  H   UNL     1       5.617  -8.890  -3.247  1.00  0.00     0.163 HD
ATOM     33  O   UNL     1       7.763  -9.725  -4.035  1.00  0.00    -0.269 OA
BRANCH  31  34
ATOM     34  C   UNL     1       7.434  -8.497  -6.011  1.00  0.00     0.039 A 
ATOM     35  C   UNL     1       7.982  -9.398  -6.924  1.00  0.00     0.014 A 
ATOM     36  C   UNL     1       7.254  -7.156  -6.362  1.00  0.00     0.014 A 
ATOM     37  C   UNL     1       8.323  -8.957  -8.203  1.00  0.00     0.010 A 
ATOM     38  C   UNL     1       7.508  -6.741  -7.664  1.00  0.00     0.010 A 
ATOM     39  C   UNL     1       8.073  -7.629  -8.589  1.00  0.00    -0.014 A 
BRANCH  39  40
ATOM     40  C   UNL     1       8.457  -7.143  -9.937  1.00  0.00     0.031 A 
ATOM     41  C   UNL     1       9.505  -6.069 -10.076  1.00  0.00     0.074 A 
ATOM     42  C   UNL     1       7.851  -7.646 -11.030  1.00  0.00     0.049 A 
ATOM     43  N   UNL     1       9.986  -5.520 -11.162  1.00  0.00    -0.248 NA
ATOM     44  C   UNL     1      10.067  -5.518  -8.830  1.00  0.00     0.031 C 
ATOM     45  C   UNL     1       6.786  -8.652 -11.024  1.00  0.00     0.029 A 
ATOM     46  N   UNL     1       8.051  -7.384 -12.362  1.00  0.00    -0.354 N 
ATOM     47  C   UNL     1      10.891  -4.557 -10.730  1.00  0.00     0.074 A 
ATOM     48  C   UNL     1      10.842  -4.546  -9.286  1.00  0.00     0.031 C 
ATOM     49  C   UNL     1       6.457  -8.951 -12.291  1.00  0.00     0.029 A 
ATOM     50  C   UNL     1       7.261  -8.137 -13.197  1.00  0.00     0.049 A 
ATOM     51  H   UNL     1       8.699  -6.718 -12.689  1.00  0.00     0.167 HD
ATOM     52  C   UNL     1      11.712  -3.771 -11.466  1.00  0.00     0.031 A 
ATOM     53  C   UNL     1       7.199  -8.175 -14.542  1.00  0.00     0.031 A 
ATOM     54  C   UNL     1      11.769  -3.796 -12.903  1.00  0.00     0.049 A 
ATOM     55  C   UNL     1       8.130  -7.302 -15.339  1.00  0.00     0.074 A 
ATOM     56  C   UNL     1      12.602  -3.081 -13.745  1.00  0.00     0.029 A 
ATOM     57  N   UNL     1      10.961  -4.581 -13.712  1.00  0.00    -0.354 N 
ATOM     58  N   UNL     1       9.028  -6.445 -14.912  1.00  0.00    -0.248 NA
ATOM     59  C   UNL     1       8.055  -7.420 -16.801  1.00  0.00     0.031 C 
ATOM     60  C   UNL     1      12.261  -3.394 -15.065  1.00  0.00     0.029 A 
ATOM     61  C   UNL     1      11.262  -4.354 -15.044  1.00  0.00     0.049 A 
ATOM     62  H   UNL     1      10.275  -5.208 -13.387  1.00  0.00     0.167 HD
ATOM     63  C   UNL     1       9.647  -5.946 -16.053  1.00  0.00     0.074 A 
ATOM     64  C   UNL     1       9.034  -6.613 -17.184  1.00  0.00     0.031 C 
ATOM     65  C   UNL     1      10.635  -5.021 -16.157  1.00  0.00     0.031 A 
BRANCH  52  66
ATOM     66  C   UNL     1      12.613  -2.818 -10.722  1.00  0.00    -0.014 A 
ATOM     67  C   UNL     1      13.673  -3.290  -9.925  1.00  0.00     0.010 A 
ATOM     68  C   UNL     1      12.414  -1.431 -10.840  1.00  0.00     0.010 A 
ATOM     69  C   UNL     1      14.485  -2.396  -9.223  1.00  0.00     0.020 A 
ATOM     70  C   UNL     1      13.245  -0.531 -10.165  1.00  0.00     0.020 A 
ATOM     71  C   UNL     1      14.264  -1.021  -9.346  1.00  0.00     0.054 A 
BRANCH  71  72
ATOM     72  S   UNL     1      15.346   0.117  -8.439  1.00  0.00     0.124 S 
ATOM     73  O   UNL     1      14.899  -0.075  -7.062  1.00  0.00    -0.237 OA
ATOM     74  O   UNL     1      16.679  -0.397  -8.744  1.00  0.00    -0.237 OA
ATOM     75  O   UNL     1      15.038   1.423  -9.017  1.00  0.00    -0.744 OA
ENDBRANCH  71  72
ENDBRANCH  52  66
BRANCH  53  76
ATOM     76  C   UNL     1       6.244  -9.096 -15.220  1.00  0.00    -0.014 A 
ATOM     77  C   UNL     1       6.712 -10.214 -15.934  1.00  0.00     0.010 A 
ATOM     78  C   UNL     1       4.859  -8.861 -15.152  1.00  0.00     0.010 A 
ATOM     79  C   UNL     1       5.814 -11.064 -16.588  1.00  0.00     0.020 A 
ATOM     80  C   UNL     1       3.957  -9.726 -15.778  1.00  0.00     0.020 A 
ATOM     81  C   UNL     1       4.442 -10.815 -16.505  1.00  0.00     0.054 A 
BRANCH  81  82
ATOM     82  S   UNL     1       3.294 -11.956 -17.325  1.00  0.00     0.124 S 
ATOM     83  O   UNL     1       3.496 -11.630 -18.733  1.00  0.00    -0.237 OA
ATOM     84  O   UNL     1       3.790 -13.262 -16.899  1.00  0.00    -0.237 OA
ATOM     85  O   UNL     1       1.992 -11.583 -16.776  1.00  0.00    -0.744 OA
ENDBRANCH  81  82
ENDBRANCH  53  76
BRANCH  65  86
ATOM     86  C   UNL     1      11.140  -4.710 -17.543  1.00  0.00    -0.014 A 
ATOM     87  C   UNL     1      10.344  -4.028 -18.480  1.00  0.00     0.010 A 
ATOM     88  C   UNL     1      12.443  -5.098 -17.905  1.00  0.00     0.010 A 
ATOM     89  C   UNL     1      10.819  -3.795 -19.773  1.00  0.00     0.020 A 
ATOM     90  C   UNL     1      12.935  -4.836 -19.185  1.00  0.00     0.020 A 
ATOM     91  C   UNL     1      12.110  -4.208 -20.119  1.00  0.00     0.054 A 
BRANCH  91  92
ATOM     92  S   UNL     1      12.704  -3.899 -21.804  1.00  0.00     0.124 S 
ATOM     93  O   UNL     1      11.964  -4.896 -22.574  1.00  0.00    -0.237 OA
ATOM     94  O   UNL     1      12.311  -2.510 -22.033  1.00  0.00    -0.237 OA
ATOM     95  O   UNL     1      14.144  -4.126 -21.711  1.00  0.00    -0.744 OA
ENDBRANCH  91  92
ENDBRANCH  65  86
ENDBRANCH  39  40
ENDBRANCH  31  34
ENDBRANCH  29  30
ENDBRANCH  28  29
ENDBRANCH   1  28
TORSDOF 18
