REMARK SMILES C[C@]12CCC[C@](C)(C(=O)NCCCCNC(=O)c3ccc(-c4c5nc(c(-c6ccc(S(=O)(=O)[O-])cc6)c6ccc([nH]6)c(-c6ccc(S(=O)(=O)[O-])cc6)c6nc(c(-c7ccc(S(=O)(=O)[O-])cc7)c7ccc4[nH]7)C=C6)C=C5)cc3)[C@@H]1CC[C@]13C=C(CO)[C@H](CC[C@H]12)C3
REMARK SMILES IDX 13 1 12 2 11 3 10 4 8 5 9 6 6 8 1 9 2 10 3 11 78 12 89 13
REMARK SMILES IDX 4 14 79 15 81 16 88 17 5 18 7 19 80 20 82 21 90 22 87 23
REMARK SMILES IDX 83 24 86 25 84 26 85 27 14 29 15 30 16 31 17 33 18 34 19 35
REMARK SMILES IDX 77 36 20 37 76 38 21 39 22 40 23 41 70 42 24 43 75 44 69 45
REMARK SMILES IDX 71 46 25 47 74 48 68 49 67 50 26 52 56 53 37 54 55 55 38 56
REMARK SMILES IDX 41 57 54 58 72 59 39 60 40 61 53 63 73 64 42 65 27 66 28 67
REMARK SMILES IDX 36 68 29 69 35 70 30 71 31 72 32 73 33 74 34 75 57 76 58 77
REMARK SMILES IDX 66 78 59 79 65 80 60 81 61 82 62 83 63 84 64 85 43 86 44 87
REMARK SMILES IDX 52 88 45 89 51 90 46 91 47 92 48 93 49 94 50 95
REMARK H PARENT 10 7 85 28 15 32 71 51 41 62
REMARK Flexibility Score: inf
ROOT
ATOM      1  C   UNL     1       4.718  -0.495   4.169  1.00  0.00     0.023 C 
ENDROOT
BRANCH   1   2
ATOM      2  C   UNL     1       4.776  -1.117   2.797  1.00  0.00     0.023 C 
BRANCH   2   3
ATOM      3  C   UNL     1       3.690  -2.088   2.366  1.00  0.00     0.116 C 
BRANCH   3   4
ATOM      4  N   UNL     1       2.260  -1.811   2.505  1.00  0.00    -0.356 N 
ATOM      5  C   UNL     1       1.219  -2.312   1.704  1.00  0.00     0.226 C 
ATOM      6  O   UNL     1       0.130  -2.502   2.243  1.00  0.00    -0.274 OA
ATOM      7  H   UNL     1       1.998  -1.209   3.239  1.00  0.00     0.163 HD
BRANCH   5   8
ATOM      8  C   UNL     1       1.466  -2.511   0.159  1.00  0.00     0.050 C 
ATOM      9  C   UNL     1      -0.928  -0.726   0.169  1.00  0.00     0.012 C 
ATOM     10  C   UNL     1       0.142  -0.501  -0.973  1.00  0.00    -0.025 C 
ATOM     11  C   UNL     1      -0.252  -1.361  -2.174  1.00  0.00     0.007 C 
ATOM     12  C   UNL     1       1.576  -0.980  -0.473  1.00  0.00     0.010 C 
ATOM     13  C   UNL     1      -0.029   1.003  -1.365  1.00  0.00     0.005 C 
ATOM     14  C   UNL     1      -0.553  -2.768  -1.738  1.00  0.00     0.002 C 
ATOM     15  C   UNL     1       2.173   0.165   0.418  1.00  0.00     0.006 C 
ATOM     16  C   UNL     1       0.659   2.062  -0.436  1.00  0.00    -0.008 C 
ATOM     17  C   UNL     1      -0.150   1.589  -2.775  1.00  0.00     0.006 C 
ATOM     18  C   UNL     1       0.488  -3.347  -0.790  1.00  0.00     0.017 C 
ATOM     19  C   UNL     1       2.589  -3.624   0.186  1.00  0.00     0.022 C 
ATOM     20  C   UNL     1       2.076   1.612  -0.110  1.00  0.00     0.012 C 
ATOM     21  C   UNL     1      -0.362   2.330   0.641  1.00  0.00    -0.018 C 
ATOM     22  C   UNL     1       0.597   3.504  -1.027  1.00  0.00     0.019 C 
ATOM     23  C   UNL     1      -1.150   2.801  -2.610  1.00  0.00     0.008 C 
ATOM     24  C   UNL     1      -1.368   3.035   0.074  1.00  0.00    -0.045 C 
ATOM     25  C   UNL     1      -0.915   3.613  -1.284  1.00  0.00     0.018 C 
BRANCH  24  26
ATOM     26  C   UNL     1      -2.723   3.194   0.679  1.00  0.00     0.187 C 
BRANCH  26  27
ATOM     27  O   UNL     1      -3.432   1.959   0.638  1.00  0.00    -0.392 OA
ATOM     28  H   UNL     1      -3.534   1.675  -0.284  1.00  0.00     0.211 HD
ENDBRANCH  26  27
ENDBRANCH  24  26
ENDBRANCH   5   8
ENDBRANCH   3   4
ENDBRANCH   2   3
ENDBRANCH   1   2
BRANCH   1  29
ATOM     29  C   UNL     1       4.214  -1.375   5.295  1.00  0.00     0.116 C 
BRANCH  29  30
ATOM     30  N   UNL     1       4.948  -2.614   5.479  1.00  0.00    -0.352 N 
ATOM     31  C   UNL     1       5.515  -3.139   6.626  1.00  0.00     0.251 C 
ATOM     32  H   UNL     1       5.059  -3.162   4.668  1.00  0.00     0.163 HD
ATOM     33  O   UNL     1       6.117  -4.188   6.585  1.00  0.00    -0.269 OA
BRANCH  31  34
ATOM     34  C   UNL     1       5.423  -2.367   7.889  1.00  0.00     0.039 A 
ATOM     35  C   UNL     1       6.585  -2.185   8.641  1.00  0.00     0.014 A 
ATOM     36  C   UNL     1       4.223  -1.782   8.296  1.00  0.00     0.014 A 
ATOM     37  C   UNL     1       6.556  -1.349   9.758  1.00  0.00     0.010 A 
ATOM     38  C   UNL     1       4.223  -0.860   9.336  1.00  0.00     0.010 A 
ATOM     39  C   UNL     1       5.386  -0.647  10.091  1.00  0.00    -0.014 A 
BRANCH  39  40
ATOM     40  C   UNL     1       5.356   0.288  11.244  1.00  0.00     0.031 A 
ATOM     41  C   UNL     1       4.437   0.017  12.406  1.00  0.00     0.074 A 
ATOM     42  C   UNL     1       6.126   1.394  11.232  1.00  0.00     0.049 A 
ATOM     43  N   UNL     1       4.272   0.708  13.504  1.00  0.00    -0.248 NA
ATOM     44  C   UNL     1       3.568  -1.169  12.310  1.00  0.00     0.031 C 
ATOM     45  C   UNL     1       7.014   1.800  10.139  1.00  0.00     0.029 A 
ATOM     46  N   UNL     1       6.290   2.380  12.172  1.00  0.00    -0.354 N 
ATOM     47  C   UNL     1       3.277   0.051  14.218  1.00  0.00     0.074 A 
ATOM     48  C   UNL     1       2.827  -1.053  13.401  1.00  0.00     0.031 C 
ATOM     49  C   UNL     1       7.661   2.923  10.491  1.00  0.00     0.029 A 
ATOM     50  C   UNL     1       7.211   3.337  11.815  1.00  0.00     0.049 A 
ATOM     51  H   UNL     1       5.796   2.399  13.023  1.00  0.00     0.167 HD
ATOM     52  C   UNL     1       2.799   0.320  15.456  1.00  0.00     0.031 A 
ATOM     53  C   UNL     1       7.649   4.422  12.483  1.00  0.00     0.031 A 
ATOM     54  C   UNL     1       3.260   1.409  16.273  1.00  0.00     0.049 A 
ATOM     55  C   UNL     1       7.115   4.694  13.864  1.00  0.00     0.074 A 
ATOM     56  C   UNL     1       2.882   1.737  17.563  1.00  0.00     0.029 A 
ATOM     57  N   UNL     1       4.204   2.347  15.881  1.00  0.00    -0.354 N 
ATOM     58  N   UNL     1       6.226   4.017  14.552  1.00  0.00    -0.248 NA
ATOM     59  C   UNL     1       7.658   5.864  14.565  1.00  0.00     0.031 C 
ATOM     60  C   UNL     1       3.562   2.902  17.933  1.00  0.00     0.029 A 
ATOM     61  C   UNL     1       4.408   3.265  16.897  1.00  0.00     0.049 A 
ATOM     62  H   UNL     1       4.660   2.358  15.009  1.00  0.00     0.167 HD
ATOM     63  C   UNL     1       6.126   4.663  15.780  1.00  0.00     0.074 A 
ATOM     64  C   UNL     1       7.059   5.771  15.744  1.00  0.00     0.031 C 
ATOM     65  C   UNL     1       5.337   4.365  16.842  1.00  0.00     0.031 A 
BRANCH  52  66
ATOM     66  C   UNL     1       1.721  -0.584  15.995  1.00  0.00    -0.014 A 
ATOM     67  C   UNL     1       1.998  -1.923  16.333  1.00  0.00     0.010 A 
ATOM     68  C   UNL     1       0.421  -0.085  16.192  1.00  0.00     0.010 A 
ATOM     69  C   UNL     1       0.985  -2.756  16.813  1.00  0.00     0.020 A 
ATOM     70  C   UNL     1      -0.588  -0.907  16.702  1.00  0.00     0.020 A 
ATOM     71  C   UNL     1      -0.303  -2.243  16.993  1.00  0.00     0.054 A 
BRANCH  71  72
ATOM     72  S   UNL     1      -1.592  -3.342  17.641  1.00  0.00     0.124 S 
ATOM     73  O   UNL     1      -1.853  -4.208  16.494  1.00  0.00    -0.237 OA
ATOM     74  O   UNL     1      -0.928  -3.983  18.773  1.00  0.00    -0.237 OA
ATOM     75  O   UNL     1      -2.679  -2.432  17.994  1.00  0.00    -0.744 OA
ENDBRANCH  71  72
ENDBRANCH  52  66
BRANCH  53  76
ATOM     76  C   UNL     1       8.674   5.312  11.871  1.00  0.00    -0.014 A 
ATOM     77  C   UNL     1       9.985   5.350  12.379  1.00  0.00     0.010 A 
ATOM     78  C   UNL     1       8.346   6.123  10.769  1.00  0.00     0.010 A 
ATOM     79  C   UNL     1      10.942   6.198  11.812  1.00  0.00     0.020 A 
ATOM     80  C   UNL     1       9.308   6.949  10.180  1.00  0.00     0.020 A 
ATOM     81  C   UNL     1      10.597   6.991  10.714  1.00  0.00     0.054 A 
BRANCH  81  82
ATOM     82  S   UNL     1      11.868   8.047   9.963  1.00  0.00     0.124 S 
ATOM     83  O   UNL     1      12.002   9.112  10.952  1.00  0.00    -0.237 OA
ATOM     84  O   UNL     1      13.007   7.139   9.851  1.00  0.00    -0.237 OA
ATOM     85  O   UNL     1      11.271   8.446   8.690  1.00  0.00    -0.744 OA
ENDBRANCH  81  82
ENDBRANCH  53  76
BRANCH  65  86
ATOM     86  C   UNL     1       5.477   5.228  18.068  1.00  0.00    -0.014 A 
ATOM     87  C   UNL     1       5.022   6.558  18.084  1.00  0.00     0.010 A 
ATOM     88  C   UNL     1       6.047   4.684  19.234  1.00  0.00     0.010 A 
ATOM     89  C   UNL     1       5.179   7.344  19.229  1.00  0.00     0.020 A 
ATOM     90  C   UNL     1       6.177   5.456  20.390  1.00  0.00     0.020 A 
ATOM     91  C   UNL     1       5.760   6.789  20.373  1.00  0.00     0.054 A 
BRANCH  91  92
ATOM     92  S   UNL     1       5.939   7.823  21.852  1.00  0.00     0.124 S 
ATOM     93  O   UNL     1       7.050   8.695  21.479  1.00  0.00    -0.237 OA
ATOM     94  O   UNL     1       4.635   8.474  21.949  1.00  0.00    -0.237 OA
ATOM     95  O   UNL     1       6.230   6.862  22.914  1.00  0.00    -0.744 OA
ENDBRANCH  91  92
ENDBRANCH  65  86
ENDBRANCH  39  40
ENDBRANCH  31  34
ENDBRANCH  29  30
ENDBRANCH   1  29
TORSDOF 16
