REMARK SMILES COc1ccccc1[C@@H]1CN(C(=O)Cc2csc(C)n2)C[C@H]1C(=O)NCCCCNC(=O)c1ccc(-c2c3nc(c(-c4ccc(S(=O)(=O)[O-])cc4)c4ccc([nH]4)c(-c4ccc(S(=O)(=O)[O-])cc4)c4nc(c(-c5ccc(S(=O)(=O)[O-])cc5)c5ccc2[nH]5)C=C4)C=C3)cc1
REMARK SMILES IDX 27 1 26 2 25 3 23 4 24 5 22 7 9 8 10 9 11 10 21 11 8 12 3 13
REMARK SMILES IDX 4 14 5 15 7 16 6 17 2 18 1 19 12 20 13 21 14 22 15 23 16 24
REMARK SMILES IDX 20 25 17 26 18 27 19 28 28 29 29 30 30 31 31 32 32 34 33 35
REMARK SMILES IDX 34 36 92 37 35 38 91 39 36 40 37 41 38 42 85 43 39 44 90 45
REMARK SMILES IDX 84 46 86 47 40 48 89 49 83 50 82 51 41 53 71 54 52 55 70 56
REMARK SMILES IDX 53 57 56 58 69 59 87 60 54 61 55 62 68 64 88 65 57 66 42 67
REMARK SMILES IDX 43 68 51 69 44 70 50 71 45 72 46 73 47 74 48 75 49 76 72 77
REMARK SMILES IDX 73 78 81 79 74 80 80 81 75 82 76 83 77 84 78 85 79 86 58 87
REMARK SMILES IDX 59 88 67 89 60 90 66 91 61 92 62 93 63 94 64 95 65 96
REMARK H PARENT 25 6 30 33 86 52 56 63
REMARK Flexibility Score: inf
ROOT
ATOM      1  C   UNL     1       6.350   1.912  -2.193  1.00  0.00     0.023 C 
ENDROOT
BRANCH   1   2
ATOM      2  C   UNL     1       5.767   1.841  -0.784  1.00  0.00     0.116 C 
BRANCH   2   3
ATOM      3  N   UNL     1       4.621   2.717  -0.633  1.00  0.00    -0.356 N 
ATOM      4  C   UNL     1       3.302   2.440  -0.465  1.00  0.00     0.225 C 
ATOM      5  O   UNL     1       2.528   3.396  -0.365  1.00  0.00    -0.275 OA
ATOM      6  H   UNL     1       4.836   3.678  -0.656  1.00  0.00     0.163 HD
BRANCH   4   7
ATOM      7  C   UNL     1       2.772   1.022  -0.375  1.00  0.00     0.107 C 
ATOM      8  C   UNL     1       3.032   0.160  -1.622  1.00  0.00     0.057 C 
ATOM      9  C   UNL     1       3.421  -1.219  -1.088  1.00  0.00     0.128 C 
ATOM     10  N   UNL     1       3.866  -0.992   0.278  1.00  0.00    -0.341 N 
ATOM     11  C   UNL     1       3.368   0.266   0.806  1.00  0.00     0.133 C 
BRANCH   8  12
ATOM     12  C   UNL     1       1.921   0.162  -2.651  1.00  0.00    -0.000 A 
ATOM     13  C   UNL     1       0.663  -0.430  -2.451  1.00  0.00     0.122 A 
ATOM     14  C   UNL     1      -0.304  -0.416  -3.461  1.00  0.00     0.047 A 
ATOM     15  C   UNL     1      -0.033   0.201  -4.682  1.00  0.00     0.004 A 
ATOM     16  C   UNL     1       2.168   0.787  -3.888  1.00  0.00     0.008 A 
ATOM     17  C   UNL     1       1.204   0.799  -4.897  1.00  0.00     0.001 A 
BRANCH  13  18
ATOM     18  O   UNL     1       0.410  -1.161  -1.322  1.00  0.00    -0.496 OA
ATOM     19  C   UNL     1      -0.358  -0.446  -0.358  1.00  0.00     0.278 C 
ENDBRANCH  13  18
ENDBRANCH   8  12
BRANCH  10  20
ATOM     20  C   UNL     1       4.564  -1.867   1.085  1.00  0.00     0.228 C 
ATOM     21  O   UNL     1       4.840  -1.578   2.252  1.00  0.00    -0.274 OA
BRANCH  20  22
ATOM     22  C   UNL     1       4.972  -3.204   0.497  1.00  0.00     0.157 C 
BRANCH  22  23
ATOM     23  C   UNL     1       3.869  -4.215   0.494  1.00  0.00     0.061 A 
ATOM     24  C   UNL     1       2.533  -4.037   0.808  1.00  0.00     0.091 A 
ATOM     25  N   UNL     1       4.192  -5.513   0.113  1.00  0.00    -0.246 NA
ATOM     26  S   UNL     1       1.668  -5.499   0.608  1.00  0.00    -0.127 S 
ATOM     27  C   UNL     1       3.127  -6.282   0.161  1.00  0.00     0.090 A 
ATOM     28  C   UNL     1       3.129  -7.736  -0.148  1.00  0.00     0.079 C 
ENDBRANCH  22  23
ENDBRANCH  20  22
ENDBRANCH  10  20
ENDBRANCH   4   7
ENDBRANCH   2   3
ENDBRANCH   1   2
BRANCH   1  29
ATOM     29  C   UNL     1       6.949   3.268  -2.558  1.00  0.00     0.023 C 
BRANCH  29  30
ATOM     30  C   UNL     1       7.940   3.818  -1.542  1.00  0.00     0.116 C 
BRANCH  30  31
ATOM     31  N   UNL     1       9.010   2.882  -1.232  1.00  0.00    -0.352 N 
ATOM     32  C   UNL     1      10.354   3.141  -1.081  1.00  0.00     0.251 C 
ATOM     33  H   UNL     1       8.738   1.943  -1.116  1.00  0.00     0.163 HD
ATOM     34  O   UNL     1      11.152   2.232  -0.943  1.00  0.00    -0.269 OA
BRANCH  32  35
ATOM     35  C   UNL     1      10.800   4.547  -1.129  1.00  0.00     0.039 A 
ATOM     36  C   UNL     1      11.813   4.902  -2.021  1.00  0.00     0.014 A 
ATOM     37  C   UNL     1      10.162   5.514  -0.347  1.00  0.00     0.014 A 
ATOM     38  C   UNL     1      12.144   6.247  -2.176  1.00  0.00     0.010 A 
ATOM     39  C   UNL     1      10.438   6.857  -0.561  1.00  0.00     0.010 A 
ATOM     40  C   UNL     1      11.435   7.236  -1.474  1.00  0.00    -0.014 A 
BRANCH  40  41
ATOM     41  C   UNL     1      11.730   8.677  -1.665  1.00  0.00     0.031 A 
ATOM     42  C   UNL     1      12.258   9.487  -0.514  1.00  0.00     0.074 A 
ATOM     43  C   UNL     1      11.460   9.264  -2.847  1.00  0.00     0.049 A 
ATOM     44  N   UNL     1      12.510  10.769  -0.456  1.00  0.00    -0.248 NA
ATOM     45  C   UNL     1      12.505   8.768   0.748  1.00  0.00     0.031 C 
ATOM     46  C   UNL     1      10.904   8.591  -4.024  1.00  0.00     0.029 A 
ATOM     47  N   UNL     1      11.610  10.567  -3.252  1.00  0.00    -0.354 N 
ATOM     48  C   UNL     1      12.924  11.012   0.848  1.00  0.00     0.074 A 
ATOM     49  C   UNL     1      12.838   9.758   1.562  1.00  0.00     0.031 C 
ATOM     50  C   UNL     1      10.786   9.480  -5.024  1.00  0.00     0.029 A 
ATOM     51  C   UNL     1      11.220  10.790  -4.551  1.00  0.00     0.049 A 
ATOM     52  H   UNL     1      11.965  11.275  -2.666  1.00  0.00     0.167 HD
ATOM     53  C   UNL     1      13.358  12.171   1.397  1.00  0.00     0.031 A 
ATOM     54  C   UNL     1      11.209  11.925  -5.277  1.00  0.00     0.031 A 
ATOM     55  C   UNL     1      13.460  13.411   0.676  1.00  0.00     0.049 A 
ATOM     56  C   UNL     1      11.699  13.200  -4.647  1.00  0.00     0.074 A 
ATOM     57  C   UNL     1      13.943  14.628   1.122  1.00  0.00     0.029 A 
ATOM     58  N   UNL     1      13.073  13.592  -0.643  1.00  0.00    -0.354 N 
ATOM     59  N   UNL     1      12.149  13.397  -3.430  1.00  0.00    -0.248 NA
ATOM     60  C   UNL     1      11.693  14.402  -5.491  1.00  0.00     0.031 C 
ATOM     61  C   UNL     1      13.806  15.557   0.086  1.00  0.00     0.029 A 
ATOM     62  C   UNL     1      13.288  14.905  -1.022  1.00  0.00     0.049 A 
ATOM     63  H   UNL     1      12.700  12.889  -1.224  1.00  0.00     0.167 HD
ATOM     64  C   UNL     1      12.502  14.740  -3.371  1.00  0.00     0.074 A 
ATOM     65  C   UNL     1      12.228  15.303  -4.678  1.00  0.00     0.031 C 
ATOM     66  C   UNL     1      13.008  15.445  -2.329  1.00  0.00     0.031 A 
BRANCH  53  67
ATOM     67  C   UNL     1      13.753  12.144   2.849  1.00  0.00    -0.014 A 
ATOM     68  C   UNL     1      14.910  11.466   3.275  1.00  0.00     0.010 A 
ATOM     69  C   UNL     1      12.972  12.826   3.799  1.00  0.00     0.010 A 
ATOM     70  C   UNL     1      15.252  11.430   4.628  1.00  0.00     0.020 A 
ATOM     71  C   UNL     1      13.327  12.818   5.151  1.00  0.00     0.020 A 
ATOM     72  C   UNL     1      14.455  12.103   5.559  1.00  0.00     0.054 A 
BRANCH  72  73
ATOM     73  S   UNL     1      14.933  12.055   7.308  1.00  0.00     0.124 S 
ATOM     74  O   UNL     1      14.570  10.691   7.681  1.00  0.00    -0.237 OA
ATOM     75  O   UNL     1      16.367  12.331   7.257  1.00  0.00    -0.237 OA
ATOM     76  O   UNL     1      14.121  13.105   7.918  1.00  0.00    -0.744 OA
ENDBRANCH  72  73
ENDBRANCH  53  67
BRANCH  54  77
ATOM     77  C   UNL     1      10.735  11.901  -6.688  1.00  0.00    -0.014 A 
ATOM     78  C   UNL     1      11.646  12.049  -7.748  1.00  0.00     0.010 A 
ATOM     79  C   UNL     1       9.371  11.714  -6.979  1.00  0.00     0.010 A 
ATOM     80  C   UNL     1      11.201  12.029  -9.073  1.00  0.00     0.020 A 
ATOM     81  C   UNL     1       8.926  11.668  -8.304  1.00  0.00     0.020 A 
ATOM     82  C   UNL     1       9.843  11.836  -9.343  1.00  0.00     0.054 A 
BRANCH  82  83
ATOM     83  S   UNL     1       9.296  11.760 -11.071  1.00  0.00     0.124 S 
ATOM     84  O   UNL     1       9.365  13.161 -11.474  1.00  0.00    -0.237 OA
ATOM     85  O   UNL     1      10.288  10.876 -11.678  1.00  0.00    -0.237 OA
ATOM     86  O   UNL     1       7.949  11.200 -10.978  1.00  0.00    -0.744 OA
ENDBRANCH  82  83
ENDBRANCH  54  77
BRANCH  66  87
ATOM     87  C   UNL     1      13.329  16.896  -2.567  1.00  0.00    -0.014 A 
ATOM     88  C   UNL     1      12.310  17.857  -2.686  1.00  0.00     0.010 A 
ATOM     89  C   UNL     1      14.673  17.309  -2.612  1.00  0.00     0.010 A 
ATOM     90  C   UNL     1      12.631  19.203  -2.876  1.00  0.00     0.020 A 
ATOM     91  C   UNL     1      14.997  18.658  -2.775  1.00  0.00     0.020 A 
ATOM     92  C   UNL     1      13.973  19.595  -2.920  1.00  0.00     0.054 A 
BRANCH  92  93
ATOM     93  S   UNL     1      14.363  21.355  -3.122  1.00  0.00     0.124 S 
ATOM     94  O   UNL     1      14.066  21.571  -4.535  1.00  0.00    -0.237 OA
ATOM     95  O   UNL     1      13.447  21.997  -2.182  1.00  0.00    -0.237 OA
ATOM     96  O   UNL     1      15.776  21.440  -2.761  1.00  0.00    -0.744 OA
ENDBRANCH  92  93
ENDBRANCH  66  87
ENDBRANCH  40  41
ENDBRANCH  32  35
ENDBRANCH  30  31
ENDBRANCH  29  30
ENDBRANCH   1  29
TORSDOF 19
